MODEL 1
REMARK VINA RESULT:     -12.2      0.000      0.000
REMARK SMILES O=C(NCCCNC(=O)[C@H]1[C@H]2CC[C@H](C2)[C@@H]1C(=O)N[C@H]1CCCc2ccccc21)c1ccc(-c2c3nc(c(-c4ccccc4)c4ccc([nH]4)c(-c4ccccc4)c4nc(c(-c5ccccc5)c5ccc2[nH]5)C=C4)C=C3)cc1
REMARK SMILES IDX 5 1 4 2 3 3 1 4 2 5 30 7 31 8 77 9 32 10 76 11 33 12 34 13
REMARK SMILES IDX 35 14 70 15 36 16 75 17 69 18 71 19 37 20 74 21 68 22 67 23
REMARK SMILES IDX 38 25 60 26 45 27 59 28 46 29 49 30 58 31 72 32 47 33 48 34
REMARK SMILES IDX 57 36 73 37 50 38 39 39 40 40 44 41 41 42 43 43 42 44 61 45
REMARK SMILES IDX 62 46 66 47 63 48 65 49 64 50 51 51 52 52 56 53 53 54 55 55
REMARK SMILES IDX 54 56 6 57 7 58 8 59 9 61 10 62 11 63 16 64 12 65 15 66
REMARK SMILES IDX 14 67 13 68 17 69 18 70 19 71 20 73 21 74 29 75 22 76 24 77
REMARK SMILES IDX 28 78 23 79 25 80 27 81 26 82
REMARK H PARENT 3 6 71 24 49 35 7 60 19 72
REMARK Flexibility Score: inf
ROOT
ATOM      1  C   UNL A   1      33.863  29.309  27.554  1.00  0.00     0.042 C 
ENDROOT
BRANCH   1   2
ATOM      2  C   UNL A   1      34.444  30.711  27.632  1.00  0.00     0.118 C 
BRANCH   2   3
ATOM      3  N   UNL A   1      34.596  31.217  28.993  1.00  0.00    -0.352 N 
ATOM      4  O   UNL A   1      35.388  31.590  31.053  1.00  0.00    -0.269 OA
ATOM      5  C   UNL A   1      35.598  31.124  29.931  1.00  0.00     0.251 C 
ATOM      6  H   UNL A   1      33.819  31.734  29.305  1.00  0.00     0.163 HD
BRANCH   5   7
ATOM      7  C   UNL A   1      36.894  30.448  29.666  1.00  0.00     0.039 A 
ATOM      8  C   UNL A   1      37.580  29.735  30.643  1.00  0.00     0.014 A 
ATOM      9  C   UNL A   1      37.435  30.500  28.371  1.00  0.00     0.014 A 
ATOM     10  C   UNL A   1      38.879  29.293  30.407  1.00  0.00     0.010 A 
ATOM     11  C   UNL A   1      38.688  29.932  28.096  1.00  0.00     0.010 A 
ATOM     12  C   UNL A   1      39.452  29.375  29.129  1.00  0.00    -0.014 A 
BRANCH  12  13
ATOM     13  C   UNL A   1      40.827  28.840  28.921  1.00  0.00     0.031 A 
ATOM     14  C   UNL A   1      41.059  27.418  28.474  1.00  0.00     0.074 A 
ATOM     15  C   UNL A   1      41.880  29.671  29.057  1.00  0.00     0.049 A 
ATOM     16  N   UNL A   1      42.188  26.831  28.159  1.00  0.00    -0.248 NA
ATOM     17  C   UNL A   1      39.883  26.540  28.375  1.00  0.00     0.031 C 
ATOM     18  C   UNL A   1      41.800  31.068  29.496  1.00  0.00     0.029 A 
ATOM     19  N   UNL A   1      43.214  29.484  28.798  1.00  0.00    -0.354 N 
ATOM     20  C   UNL A   1      41.863  25.515  27.854  1.00  0.00     0.074 A 
ATOM     21  C   UNL A   1      40.435  25.381  28.040  1.00  0.00     0.031 C 
ATOM     22  C   UNL A   1      43.011  31.632  29.394  1.00  0.00     0.029 A 
ATOM     23  C   UNL A   1      43.968  30.623  28.954  1.00  0.00     0.049 A 
ATOM     24  H   UNL A   1      43.595  28.619  28.526  1.00  0.00     0.167 HD
ATOM     25  C   UNL A   1      42.677  24.508  27.450  1.00  0.00     0.031 A 
ATOM     26  C   UNL A   1      45.283  30.841  28.774  1.00  0.00     0.031 A 
ATOM     27  C   UNL A   1      44.096  24.637  27.245  1.00  0.00     0.049 A 
ATOM     28  C   UNL A   1      46.160  29.711  28.327  1.00  0.00     0.074 A 
ATOM     29  C   UNL A   1      44.994  23.678  26.806  1.00  0.00     0.029 A 
ATOM     30  N   UNL A   1      44.825  25.795  27.463  1.00  0.00    -0.354 N 
ATOM     31  N   UNL A   1      45.826  28.481  28.023  1.00  0.00    -0.248 NA
ATOM     32  C   UNL A   1      47.596  29.998  28.204  1.00  0.00     0.031 C 
ATOM     33  C   UNL A   1      46.273  24.244  26.801  1.00  0.00     0.029 A 
ATOM     34  C   UNL A   1      46.164  25.569  27.189  1.00  0.00     0.049 A 
ATOM     35  H   UNL A   1      44.447  26.652  27.767  1.00  0.00     0.167 HD
ATOM     36  C   UNL A   1      47.009  27.846  27.670  1.00  0.00     0.074 A 
ATOM     37  C   UNL A   1      48.063  28.836  27.769  1.00  0.00     0.031 C 
ATOM     38  C   UNL A   1      47.204  26.556  27.304  1.00  0.00     0.031 A 
BRANCH  25  39
ATOM     39  C   UNL A   1      42.056  23.157  27.226  1.00  0.00    -0.014 A 
ATOM     40  C   UNL A   1      41.828  22.661  25.933  1.00  0.00     0.009 A 
ATOM     41  C   UNL A   1      41.749  22.344  28.328  1.00  0.00     0.009 A 
ATOM     42  C   UNL A   1      41.282  21.388  25.751  1.00  0.00     0.001 A 
ATOM     43  C   UNL A   1      41.225  21.063  28.143  1.00  0.00     0.001 A 
ATOM     44  C   UNL A   1      40.985  20.589  26.854  1.00  0.00     0.000 A 
ENDBRANCH  25  39
BRANCH  26  45
ATOM     45  C   UNL A   1      45.848  32.190  29.037  1.00  0.00    -0.014 A 
ATOM     46  C   UNL A   1      46.333  32.530  30.308  1.00  0.00     0.009 A 
ATOM     47  C   UNL A   1      45.924  33.138  28.005  1.00  0.00     0.009 A 
ATOM     48  C   UNL A   1      46.871  33.798  30.542  1.00  0.00     0.001 A 
ATOM     49  C   UNL A   1      46.489  34.392  28.233  1.00  0.00     0.001 A 
ATOM     50  C   UNL A   1      46.956  34.724  29.504  1.00  0.00     0.000 A 
ENDBRANCH  26  45
BRANCH  38  51
ATOM     51  C   UNL A   1      48.611  26.149  26.975  1.00  0.00    -0.014 A 
ATOM     52  C   UNL A   1      49.140  26.348  25.690  1.00  0.00     0.009 A 
ATOM     53  C   UNL A   1      49.422  25.579  27.967  1.00  0.00     0.009 A 
ATOM     54  C   UNL A   1      50.445  25.950  25.397  1.00  0.00     0.001 A 
ATOM     55  C   UNL A   1      50.735  25.205  27.677  1.00  0.00     0.001 A 
ATOM     56  C   UNL A   1      51.242  25.382  26.391  1.00  0.00     0.000 A 
ENDBRANCH  38  51
ENDBRANCH  12  13
ENDBRANCH   5   7
ENDBRANCH   2   3
ENDBRANCH   1   2
BRANCH   1  57
ATOM     57  C   UNL A   1      34.411  28.446  26.432  1.00  0.00     0.117 C 
BRANCH  57  58
ATOM     58  N   UNL A   1      34.297  29.011  25.099  1.00  0.00    -0.356 N 
ATOM     59  C   UNL A   1      33.481  28.590  24.076  1.00  0.00     0.224 C 
ATOM     60  H   UNL A   1      34.871  29.788  24.906  1.00  0.00     0.163 HD
ATOM     61  O   UNL A   1      33.478  29.243  23.033  1.00  0.00    -0.275 OA
BRANCH  59  62
ATOM     62  C   UNL A   1      32.666  27.308  24.251  1.00  0.00     0.094 C 
ATOM     63  C   UNL A   1      31.198  27.424  24.722  1.00  0.00     0.002 C 
ATOM     64  C   UNL A   1      32.549  26.502  22.947  1.00  0.00     0.094 C 
ATOM     65  C   UNL A   1      30.365  28.344  23.827  1.00  0.00     0.005 C 
ATOM     66  C   UNL A   1      30.630  26.056  24.299  1.00  0.00     0.009 C 
ATOM     67  C   UNL A   1      31.022  26.238  22.839  1.00  0.00     0.002 C 
ATOM     68  C   UNL A   1      30.276  27.548  22.515  1.00  0.00     0.005 C 
BRANCH  64  69
ATOM     69  C   UNL A   1      33.361  25.194  22.899  1.00  0.00     0.224 C 
ATOM     70  O   UNL A   1      33.293  24.446  21.923  1.00  0.00    -0.275 OA
ATOM     71  N   UNL A   1      34.325  24.960  23.850  1.00  0.00    -0.349 N 
ATOM     72  H   UNL A   1      35.182  25.438  23.759  1.00  0.00     0.164 HD
BRANCH  71  73
ATOM     73  C   UNL A   1      34.170  24.032  25.014  1.00  0.00     0.112 C 
ATOM     74  C   UNL A   1      32.864  23.214  24.810  1.00  0.00     0.030 C 
ATOM     75  C   UNL A   1      35.397  23.124  25.198  1.00  0.00    -0.022 A 
ATOM     76  C   UNL A   1      32.951  21.786  25.337  1.00  0.00     0.007 C 
ATOM     77  C   UNL A   1      35.383  21.762  24.853  1.00  0.00    -0.043 A 
ATOM     78  C   UNL A   1      36.587  23.606  25.762  1.00  0.00     0.006 A 
ATOM     79  C   UNL A   1      34.080  21.050  24.618  1.00  0.00     0.036 C 
ATOM     80  C   UNL A   1      36.581  21.023  24.813  1.00  0.00     0.004 A 
ATOM     81  C   UNL A   1      37.775  22.871  25.751  1.00  0.00     0.000 A 
ATOM     82  C   UNL A   1      37.782  21.589  25.226  1.00  0.00     0.000 A 
ENDBRANCH  71  73
ENDBRANCH  64  69
ENDBRANCH  59  62
ENDBRANCH  57  58
ENDBRANCH   1  57
TORSDOF 12
ENDMDL
MODEL 2
REMARK VINA RESULT:     -12.2      2.325      7.775
REMARK SMILES O=C(NCCCNC(=O)[C@H]1[C@H]2CC[C@H](C2)[C@@H]1C(=O)N[C@H]1CCCc2ccccc21)c1ccc(-c2c3nc(c(-c4ccccc4)c4ccc([nH]4)c(-c4ccccc4)c4nc(c(-c5ccccc5)c5ccc2[nH]5)C=C4)C=C3)cc1
REMARK SMILES IDX 5 1 4 2 3 3 1 4 2 5 30 7 31 8 77 9 32 10 76 11 33 12 34 13
REMARK SMILES IDX 35 14 70 15 36 16 75 17 69 18 71 19 37 20 74 21 68 22 67 23
REMARK SMILES IDX 38 25 60 26 45 27 59 28 46 29 49 30 58 31 72 32 47 33 48 34
REMARK SMILES IDX 57 36 73 37 50 38 39 39 40 40 44 41 41 42 43 43 42 44 61 45
REMARK SMILES IDX 62 46 66 47 63 48 65 49 64 50 51 51 52 52 56 53 53 54 55 55
REMARK SMILES IDX 54 56 6 57 7 58 8 59 9 61 10 62 11 63 16 64 12 65 15 66
REMARK SMILES IDX 14 67 13 68 17 69 18 70 19 71 20 73 21 74 29 75 22 76 24 77
REMARK SMILES IDX 28 78 23 79 25 80 27 81 26 82
REMARK H PARENT 3 6 71 24 49 35 7 60 19 72
REMARK Flexibility Score: inf
ROOT
ATOM      1  C   UNL A   1      36.857  19.934  25.003  1.00  0.00     0.042 C 
ENDROOT
BRANCH   1   2
ATOM      2  C   UNL A   1      38.200  20.576  25.309  1.00  0.00     0.118 C 
BRANCH   2   3
ATOM      3  N   UNL A   1      39.301  19.625  25.427  1.00  0.00    -0.352 N 
ATOM      4  O   UNL A   1      41.325  18.741  25.788  1.00  0.00    -0.269 OA
ATOM      5  C   UNL A   1      40.584  19.718  25.914  1.00  0.00     0.251 C 
ATOM      6  H   UNL A   1      39.078  18.729  25.086  1.00  0.00     0.163 HD
BRANCH   5   7
ATOM      7  C   UNL A   1      41.124  20.953  26.539  1.00  0.00     0.039 A 
ATOM      8  C   UNL A   1      41.137  21.151  27.915  1.00  0.00     0.014 A 
ATOM      9  C   UNL A   1      41.676  21.946  25.715  1.00  0.00     0.014 A 
ATOM     10  C   UNL A   1      41.464  22.397  28.442  1.00  0.00     0.010 A 
ATOM     11  C   UNL A   1      42.136  23.154  26.260  1.00  0.00     0.010 A 
ATOM     12  C   UNL A   1      41.977  23.417  27.626  1.00  0.00    -0.014 A 
BRANCH  12  13
ATOM     13  C   UNL A   1      42.359  24.715  28.250  1.00  0.00     0.031 A 
ATOM     14  C   UNL A   1      43.797  25.049  28.555  1.00  0.00     0.074 A 
ATOM     15  C   UNL A   1      41.403  25.641  28.471  1.00  0.00     0.049 A 
ATOM     16  N   UNL A   1      44.301  26.171  29.009  1.00  0.00    -0.248 NA
ATOM     17  C   UNL A   1      44.799  23.995  28.332  1.00  0.00     0.031 C 
ATOM     18  C   UNL A   1      39.970  25.445  28.234  1.00  0.00     0.029 A 
ATOM     19  N   UNL A   1      41.491  26.942  28.897  1.00  0.00    -0.354 N 
ATOM     20  C   UNL A   1      45.666  25.949  29.152  1.00  0.00     0.074 A 
ATOM     21  C   UNL A   1      45.911  24.580  28.756  1.00  0.00     0.031 C 
ATOM     22  C   UNL A   1      39.328  26.604  28.435  1.00  0.00     0.029 A 
ATOM     23  C   UNL A   1      40.288  27.605  28.885  1.00  0.00     0.049 A 
ATOM     24  H   UNL A   1      42.335  27.360  29.183  1.00  0.00     0.167 HD
ATOM     25  C   UNL A   1      46.629  26.807  29.570  1.00  0.00     0.031 A 
ATOM     26  C   UNL A   1      39.978  28.875  29.205  1.00  0.00     0.031 A 
ATOM     27  C   UNL A   1      46.396  28.176  29.948  1.00  0.00     0.049 A 
ATOM     28  C   UNL A   1      41.062  29.802  29.663  1.00  0.00     0.074 A 
ATOM     29  C   UNL A   1      47.318  29.126  30.354  1.00  0.00     0.029 A 
ATOM     30  N   UNL A   1      45.155  28.791  29.968  1.00  0.00    -0.354 N 
ATOM     31  N   UNL A   1      42.349  29.575  29.768  1.00  0.00    -0.248 NA
ATOM     32  C   UNL A   1      40.651  31.158  30.053  1.00  0.00     0.031 C 
ATOM     33  C   UNL A   1      46.628  30.303  30.662  1.00  0.00     0.029 A 
ATOM     34  C   UNL A   1      45.284  30.101  30.400  1.00  0.00     0.049 A 
ATOM     35  H   UNL A   1      44.307  28.361  29.713  1.00  0.00     0.167 HD
ATOM     36  C   UNL A   1      42.903  30.760  30.234  1.00  0.00     0.074 A 
ATOM     37  C   UNL A   1      41.816  31.711  30.362  1.00  0.00     0.031 C 
ATOM     38  C   UNL A   1      44.195  31.032  30.536  1.00  0.00     0.031 A 
BRANCH  25  39
ATOM     39  C   UNL A   1      48.035  26.281  29.668  1.00  0.00    -0.014 A 
ATOM     40  C   UNL A   1      48.917  26.341  28.578  1.00  0.00     0.009 A 
ATOM     41  C   UNL A   1      48.501  25.772  30.890  1.00  0.00     0.009 A 
ATOM     42  C   UNL A   1      50.229  25.878  28.704  1.00  0.00     0.001 A 
ATOM     43  C   UNL A   1      49.819  25.331  31.021  1.00  0.00     0.001 A 
ATOM     44  C   UNL A   1      50.680  25.379  29.925  1.00  0.00     0.000 A 
ENDBRANCH  25  39
BRANCH  26  45
ATOM     45  C   UNL A   1      38.567  29.332  29.116  1.00  0.00    -0.014 A 
ATOM     46  C   UNL A   1      37.714  29.251  30.226  1.00  0.00     0.009 A 
ATOM     47  C   UNL A   1      38.075  29.876  27.919  1.00  0.00     0.009 A 
ATOM     48  C   UNL A   1      36.392  29.693  30.135  1.00  0.00     0.001 A 
ATOM     49  C   UNL A   1      36.763  30.345  27.839  1.00  0.00     0.001 A 
ATOM     50  C   UNL A   1      35.921  30.246  28.944  1.00  0.00     0.000 A 
ENDBRANCH  26  45
BRANCH  38  51
ATOM     51  C   UNL A   1      44.501  32.418  31.024  1.00  0.00    -0.014 A 
ATOM     52  C   UNL A   1      44.809  33.451  30.124  1.00  0.00     0.009 A 
ATOM     53  C   UNL A   1      44.462  32.698  32.398  1.00  0.00     0.009 A 
ATOM     54  C   UNL A   1      45.106  34.730  30.595  1.00  0.00     0.001 A 
ATOM     55  C   UNL A   1      44.736  33.985  32.864  1.00  0.00     0.001 A 
ATOM     56  C   UNL A   1      45.066  34.997  31.964  1.00  0.00     0.000 A 
ENDBRANCH  38  51
ENDBRANCH  12  13
ENDBRANCH   5   7
ENDBRANCH   2   3
ENDBRANCH   1   2
BRANCH   1  57
ATOM     57  C   UNL A   1      35.678  20.890  24.974  1.00  0.00     0.117 C 
BRANCH  57  58
ATOM     58  N   UNL A   1      35.003  21.085  26.244  1.00  0.00    -0.356 N 
ATOM     59  C   UNL A   1      33.817  21.741  26.473  1.00  0.00     0.224 C 
ATOM     60  H   UNL A   1      35.447  20.703  27.035  1.00  0.00     0.163 HD
ATOM     61  O   UNL A   1      33.370  21.745  27.619  1.00  0.00    -0.275 OA
BRANCH  59  62
ATOM     62  C   UNL A   1      33.139  22.482  25.319  1.00  0.00     0.094 C 
ATOM     63  C   UNL A   1      31.672  22.135  24.979  1.00  0.00     0.002 C 
ATOM     64  C   UNL A   1      33.094  24.003  25.542  1.00  0.00     0.094 C 
ATOM     65  C   UNL A   1      30.740  22.275  26.185  1.00  0.00     0.005 C 
ATOM     66  C   UNL A   1      31.243  23.373  24.167  1.00  0.00     0.009 C 
ATOM     67  C   UNL A   1      31.601  24.345  25.283  1.00  0.00     0.002 C 
ATOM     68  C   UNL A   1      30.721  23.793  26.422  1.00  0.00     0.005 C 
BRANCH  64  69
ATOM     69  C   UNL A   1      34.035  24.834  24.650  1.00  0.00     0.224 C 
ATOM     70  O   UNL A   1      35.251  24.836  24.848  1.00  0.00    -0.275 OA
ATOM     71  N   UNL A   1      33.547  25.410  23.501  1.00  0.00    -0.349 N 
ATOM     72  H   UNL A   1      33.406  24.824  22.722  1.00  0.00     0.164 HD
BRANCH  71  73
ATOM     73  C   UNL A   1      33.215  26.860  23.347  1.00  0.00     0.112 C 
ATOM     74  C   UNL A   1      31.999  26.979  22.384  1.00  0.00     0.030 C 
ATOM     75  C   UNL A   1      32.948  27.541  24.699  1.00  0.00    -0.022 A 
ATOM     76  C   UNL A   1      31.058  28.128  22.730  1.00  0.00     0.007 C 
ATOM     77  C   UNL A   1      31.655  27.886  25.125  1.00  0.00    -0.043 A 
ATOM     78  C   UNL A   1      33.997  27.889  25.563  1.00  0.00     0.006 A 
ATOM     79  C   UNL A   1      30.516  27.928  24.144  1.00  0.00     0.036 C 
ATOM     80  C   UNL A   1      31.424  28.289  26.455  1.00  0.00     0.004 A 
ATOM     81  C   UNL A   1      33.779  28.314  26.876  1.00  0.00     0.000 A 
ATOM     82  C   UNL A   1      32.482  28.466  27.340  1.00  0.00     0.000 A 
ENDBRANCH  71  73
ENDBRANCH  64  69
ENDBRANCH  59  62
ENDBRANCH  57  58
ENDBRANCH   1  57
TORSDOF 12
ENDMDL
MODEL 3
REMARK VINA RESULT:     -12.2      2.410      8.114
REMARK SMILES O=C(NCCCNC(=O)[C@H]1[C@H]2CC[C@H](C2)[C@@H]1C(=O)N[C@H]1CCCc2ccccc21)c1ccc(-c2c3nc(c(-c4ccccc4)c4ccc([nH]4)c(-c4ccccc4)c4nc(c(-c5ccccc5)c5ccc2[nH]5)C=C4)C=C3)cc1
REMARK SMILES IDX 5 1 4 2 3 3 1 4 2 5 30 7 31 8 77 9 32 10 76 11 33 12 34 13
REMARK SMILES IDX 35 14 70 15 36 16 75 17 69 18 71 19 37 20 74 21 68 22 67 23
REMARK SMILES IDX 38 25 60 26 45 27 59 28 46 29 49 30 58 31 72 32 47 33 48 34
REMARK SMILES IDX 57 36 73 37 50 38 39 39 40 40 44 41 41 42 43 43 42 44 61 45
REMARK SMILES IDX 62 46 66 47 63 48 65 49 64 50 51 51 52 52 56 53 53 54 55 55
REMARK SMILES IDX 54 56 6 57 7 58 8 59 9 61 10 62 11 63 16 64 12 65 15 66
REMARK SMILES IDX 14 67 13 68 17 69 18 70 19 71 20 73 21 74 29 75 22 76 24 77
REMARK SMILES IDX 28 78 23 79 25 80 27 81 26 82
REMARK H PARENT 3 6 71 24 49 35 7 60 19 72
REMARK Flexibility Score: inf
ROOT
ATOM      1  C   UNL A   1      37.482  19.657  24.980  1.00  0.00     0.042 C 
ENDROOT
BRANCH   1   2
ATOM      2  C   UNL A   1      38.665  20.246  25.730  1.00  0.00     0.118 C 
BRANCH   2   3
ATOM      3  N   UNL A   1      39.860  19.409  25.708  1.00  0.00    -0.352 N 
ATOM      4  O   UNL A   1      41.989  18.728  25.825  1.00  0.00    -0.269 OA
ATOM      5  C   UNL A   1      41.175  19.626  26.049  1.00  0.00     0.251 C 
ATOM      6  H   UNL A   1      39.689  18.496  25.379  1.00  0.00     0.163 HD
BRANCH   5   7
ATOM      7  C   UNL A   1      41.659  20.905  26.629  1.00  0.00     0.039 A 
ATOM      8  C   UNL A   1      41.813  21.095  27.998  1.00  0.00     0.014 A 
ATOM      9  C   UNL A   1      42.008  21.954  25.764  1.00  0.00     0.014 A 
ATOM     10  C   UNL A   1      42.074  22.365  28.505  1.00  0.00     0.010 A 
ATOM     11  C   UNL A   1      42.406  23.199  26.273  1.00  0.00     0.010 A 
ATOM     12  C   UNL A   1      42.384  23.436  27.653  1.00  0.00    -0.014 A 
BRANCH  12  13
ATOM     13  C   UNL A   1      42.704  24.763  28.252  1.00  0.00     0.031 A 
ATOM     14  C   UNL A   1      44.126  25.172  28.542  1.00  0.00     0.074 A 
ATOM     15  C   UNL A   1      41.705  25.644  28.462  1.00  0.00     0.049 A 
ATOM     16  N   UNL A   1      44.577  26.325  28.973  1.00  0.00    -0.248 NA
ATOM     17  C   UNL A   1      45.177  24.164  28.331  1.00  0.00     0.031 C 
ATOM     18  C   UNL A   1      40.282  25.374  28.238  1.00  0.00     0.029 A 
ATOM     19  N   UNL A   1      41.732  26.955  28.864  1.00  0.00    -0.354 N 
ATOM     20  C   UNL A   1      45.951  26.172  29.111  1.00  0.00     0.074 A 
ATOM     21  C   UNL A   1      46.261  24.810  28.738  1.00  0.00     0.031 C 
ATOM     22  C   UNL A   1      39.585  26.504  28.422  1.00  0.00     0.029 A 
ATOM     23  C   UNL A   1      40.497  27.559  28.848  1.00  0.00     0.049 A 
ATOM     24  H   UNL A   1      42.556  27.419  29.138  1.00  0.00     0.167 HD
ATOM     25  C   UNL A   1      46.874  27.083  29.508  1.00  0.00     0.031 A 
ATOM     26  C   UNL A   1      40.127  28.818  29.147  1.00  0.00     0.031 A 
ATOM     27  C   UNL A   1      46.576  28.446  29.864  1.00  0.00     0.049 A 
ATOM     28  C   UNL A   1      41.168  29.805  29.582  1.00  0.00     0.074 A 
ATOM     29  C   UNL A   1      47.453  29.448  30.247  1.00  0.00     0.029 A 
ATOM     30  N   UNL A   1      45.306  29.000  29.880  1.00  0.00    -0.354 N 
ATOM     31  N   UNL A   1      42.465  29.643  29.684  1.00  0.00    -0.248 NA
ATOM     32  C   UNL A   1      40.693  31.146  29.951  1.00  0.00     0.031 C 
ATOM     33  C   UNL A   1      46.708  30.595  30.538  1.00  0.00     0.029 A 
ATOM     34  C   UNL A   1      45.373  30.323  30.288  1.00  0.00     0.049 A 
ATOM     35  H   UNL A   1      44.479  28.525  29.638  1.00  0.00     0.167 HD
ATOM     36  C   UNL A   1      42.962  30.861  30.125  1.00  0.00     0.074 A 
ATOM     37  C   UNL A   1      41.831  31.760  30.242  1.00  0.00     0.031 C 
ATOM     38  C   UNL A   1      44.241  31.201  30.414  1.00  0.00     0.031 A 
BRANCH  25  39
ATOM     39  C   UNL A   1      48.304  26.629  29.607  1.00  0.00    -0.014 A 
ATOM     40  C   UNL A   1      49.206  26.815  28.549  1.00  0.00     0.009 A 
ATOM     41  C   UNL A   1      48.770  26.059  30.803  1.00  0.00     0.009 A 
ATOM     42  C   UNL A   1      50.539  26.416  28.678  1.00  0.00     0.001 A 
ATOM     43  C   UNL A   1      50.107  25.682  30.938  1.00  0.00     0.001 A 
ATOM     44  C   UNL A   1      50.989  25.855  29.872  1.00  0.00     0.000 A 
ENDBRANCH  25  39
BRANCH  26  45
ATOM     45  C   UNL A   1      38.696  29.204  29.058  1.00  0.00    -0.014 A 
ATOM     46  C   UNL A   1      37.858  29.119  30.180  1.00  0.00     0.009 A 
ATOM     47  C   UNL A   1      38.166  29.683  27.849  1.00  0.00     0.009 A 
ATOM     48  C   UNL A   1      36.515  29.494  30.088  1.00  0.00     0.001 A 
ATOM     49  C   UNL A   1      36.833  30.086  27.769  1.00  0.00     0.001 A 
ATOM     50  C   UNL A   1      36.007  29.984  28.886  1.00  0.00     0.000 A 
ENDBRANCH  26  45
BRANCH  38  51
ATOM     51  C   UNL A   1      44.481  32.609  30.875  1.00  0.00    -0.014 A 
ATOM     52  C   UNL A   1      44.460  32.938  32.240  1.00  0.00     0.009 A 
ATOM     53  C   UNL A   1      44.752  33.615  29.935  1.00  0.00     0.009 A 
ATOM     54  C   UNL A   1      44.671  34.254  32.651  1.00  0.00     0.001 A 
ATOM     55  C   UNL A   1      44.987  34.926  30.352  1.00  0.00     0.001 A 
ATOM     56  C   UNL A   1      44.938  35.246  31.707  1.00  0.00     0.000 A 
ENDBRANCH  38  51
ENDBRANCH  12  13
ENDBRANCH   5   7
ENDBRANCH   2   3
ENDBRANCH   1   2
BRANCH   1  57
ATOM     57  C   UNL A   1      36.372  20.641  24.653  1.00  0.00     0.117 C 
BRANCH  57  58
ATOM     58  N   UNL A   1      35.087  20.356  25.266  1.00  0.00    -0.356 N 
ATOM     59  C   UNL A   1      33.922  21.075  25.145  1.00  0.00     0.224 C 
ATOM     60  H   UNL A   1      35.046  19.553  25.835  1.00  0.00     0.163 HD
ATOM     61  O   UNL A   1      32.912  20.634  25.693  1.00  0.00    -0.275 OA
BRANCH  59  62
ATOM     62  C   UNL A   1      33.940  22.407  24.395  1.00  0.00     0.094 C 
ATOM     63  C   UNL A   1      33.612  22.409  22.885  1.00  0.00     0.002 C 
ATOM     64  C   UNL A   1      32.938  23.421  24.970  1.00  0.00     0.094 C 
ATOM     65  C   UNL A   1      32.259  21.764  22.577  1.00  0.00     0.005 C 
ATOM     66  C   UNL A   1      33.258  23.891  22.649  1.00  0.00     0.009 C 
ATOM     67  C   UNL A   1      32.165  23.896  23.710  1.00  0.00     0.002 C 
ATOM     68  C   UNL A   1      31.262  22.765  23.179  1.00  0.00     0.005 C 
BRANCH  64  69
ATOM     69  C   UNL A   1      33.556  24.602  25.743  1.00  0.00     0.224 C 
ATOM     70  O   UNL A   1      34.462  24.418  26.556  1.00  0.00    -0.275 OA
ATOM     71  N   UNL A   1      33.245  25.889  25.373  1.00  0.00    -0.349 N 
ATOM     72  H   UNL A   1      33.682  26.251  24.568  1.00  0.00     0.164 HD
BRANCH  71  73
ATOM     73  C   UNL A   1      32.293  26.782  26.105  1.00  0.00     0.112 C 
ATOM     74  C   UNL A   1      33.121  27.868  26.848  1.00  0.00     0.030 C 
ATOM     75  C   UNL A   1      31.241  27.399  25.169  1.00  0.00    -0.022 A 
ATOM     76  C   UNL A   1      32.425  29.222  26.921  1.00  0.00     0.007 C 
ATOM     77  C   UNL A   1      31.287  28.745  24.769  1.00  0.00    -0.043 A 
ATOM     78  C   UNL A   1      30.152  26.651  24.697  1.00  0.00     0.006 A 
ATOM     79  C   UNL A   1      32.155  29.728  25.505  1.00  0.00     0.036 C 
ATOM     80  C   UNL A   1      30.453  29.213  23.735  1.00  0.00     0.004 A 
ATOM     81  C   UNL A   1      29.303  27.116  23.690  1.00  0.00     0.000 A 
ATOM     82  C   UNL A   1      29.487  28.387  23.170  1.00  0.00     0.000 A 
ENDBRANCH  71  73
ENDBRANCH  64  69
ENDBRANCH  59  62
ENDBRANCH  57  58
ENDBRANCH   1  57
TORSDOF 12
ENDMDL
