MODEL 1
REMARK VINA RESULT:      -9.7      0.000      0.000
REMARK SMILES Cc1ccc(N2C(=O)/C(=C3\C(=O)N(CC(=O)NCCCNC(=O)c4ccc(-c5c6nc(c(-c7ccccc7)c7ccc([nH]7)c(-c7ccccc7)c7nc(c(-c8ccccc8)c8ccc5[nH]8)C=C7)C=C6)cc4)c4ccccc43)SC2=S)c(C)c1
REMARK SMILES IDX 19 1 18 2 17 3 15 4 16 5 14 7 13 8 6 9 7 10 79 11 8 12 9 13
REMARK SMILES IDX 78 14 80 15 10 16 11 17 77 18 12 19 72 20 76 21 73 22 75 23
REMARK SMILES IDX 74 24 5 25 1 26 2 27 3 28 83 29 4 30 81 31 82 32 20 33 21 34
REMARK SMILES IDX 22 35 23 37 24 38 25 39 71 40 26 41 70 42 27 43 28 44 29 45
REMARK SMILES IDX 64 46 30 47 69 48 63 49 65 50 31 51 68 52 62 53 61 54 32 56
REMARK SMILES IDX 54 57 39 58 53 59 40 60 43 61 52 62 66 63 41 64 42 65 51 67
REMARK SMILES IDX 67 68 44 69 33 70 34 71 38 72 35 73 37 74 36 75 55 76 56 77
REMARK SMILES IDX 60 78 57 79 59 80 58 81 45 82 46 83 50 84 47 85 49 86 48 87
REMARK H PARENT 17 6 21 36 65 55 43 66
REMARK Flexibility Score: inf
ROOT
ATOM      1  C   UNL A   1      34.427  32.993  29.767  1.00  0.00     0.042 C 
ENDROOT
BRANCH   1   2
ATOM      2  C   UNL A   1      35.751  33.304  30.453  1.00  0.00     0.117 C 
BRANCH   2   3
ATOM      3  N   UNL A   1      35.717  32.981  31.867  1.00  0.00    -0.354 N 
ATOM      4  C   UNL A   1      36.699  32.447  32.648  1.00  0.00     0.240 C 
ATOM      5  O   UNL A   1      36.448  32.258  33.842  1.00  0.00    -0.273 OA
ATOM      6  H   UNL A   1      34.867  33.173  32.325  1.00  0.00     0.163 HD
BRANCH   4   7
ATOM      7  C   UNL A   1      38.079  32.127  32.068  1.00  0.00     0.225 C 
BRANCH   7   8
ATOM      8  N   UNL A   1      39.111  31.910  33.063  1.00  0.00    -0.298 N 
ATOM      9  N   UNL A   1      42.764  28.103  35.086  1.00  0.00    -0.261 N 
ATOM     10  C   UNL A   1      41.464  28.515  34.775  1.00  0.00     0.271 C 
ATOM     11  C   UNL A   1      43.434  28.884  36.014  1.00  0.00     0.152 C 
ATOM     12  O   UNL A   1      40.565  27.809  34.348  1.00  0.00    -0.268 OA
ATOM     13  C   UNL A   1      41.321  29.958  35.148  1.00  0.00     0.094 C 
ATOM     14  S   UNL A   1      42.405  30.232  36.469  1.00  0.00    -0.053 SA
ATOM     15  S   UNL A   1      44.997  28.804  36.604  1.00  0.00    -0.051 S 
ATOM     16  C   UNL A   1      40.632  30.906  34.489  1.00  0.00     0.069 C 
ATOM     17  C   UNL A   1      39.603  30.656  33.411  1.00  0.00     0.260 C 
ATOM     18  C   UNL A   1      40.745  32.380  34.608  1.00  0.00     0.012 A 
ATOM     19  O   UNL A   1      39.247  29.593  32.940  1.00  0.00    -0.269 OA
ATOM     20  C   UNL A   1      39.810  32.932  33.724  1.00  0.00     0.053 A 
ATOM     21  C   UNL A   1      41.631  33.221  35.272  1.00  0.00     0.011 A 
ATOM     22  C   UNL A   1      39.699  34.300  33.525  1.00  0.00     0.027 A 
ATOM     23  C   UNL A   1      41.541  34.602  35.072  1.00  0.00     0.001 A 
ATOM     24  C   UNL A   1      40.576  35.137  34.213  1.00  0.00     0.002 A 
BRANCH   9  25
ATOM     25  C   UNL A   1      43.330  26.952  34.458  1.00  0.00     0.054 A 
ATOM     26  C   UNL A   1      44.693  23.475  32.265  1.00  0.00     0.044 C 
ATOM     27  C   UNL A   1      44.260  24.690  33.030  1.00  0.00    -0.051 A 
ATOM     28  C   UNL A   1      44.431  25.971  32.509  1.00  0.00     0.005 A 
ATOM     29  C   UNL A   1      43.657  24.547  34.283  1.00  0.00     0.009 A 
ATOM     30  C   UNL A   1      43.983  27.085  33.220  1.00  0.00     0.027 A 
ATOM     31  C   UNL A   1      43.171  25.658  35.004  1.00  0.00    -0.027 A 
ATOM     32  C   UNL A   1      42.469  25.354  36.301  1.00  0.00     0.046 C 
ENDBRANCH   9  25
ENDBRANCH   7   8
ENDBRANCH   4   7
ENDBRANCH   2   3
ENDBRANCH   1   2
BRANCH   1  33
ATOM     33  C   UNL A   1      34.575  32.567  28.310  1.00  0.00     0.118 C 
BRANCH  33  34
ATOM     34  N   UNL A   1      33.998  31.257  28.030  1.00  0.00    -0.352 N 
ATOM     35  C   UNL A   1      34.598  30.022  27.942  1.00  0.00     0.251 C 
ATOM     36  H   UNL A   1      33.025  31.256  27.879  1.00  0.00     0.163 HD
ATOM     37  O   UNL A   1      33.955  29.052  27.554  1.00  0.00    -0.269 OA
BRANCH  35  38
ATOM     38  C   UNL A   1      36.031  29.871  28.274  1.00  0.00     0.039 A 
ATOM     39  C   UNL A   1      37.013  30.126  27.317  1.00  0.00     0.014 A 
ATOM     40  C   UNL A   1      36.394  29.434  29.551  1.00  0.00     0.014 A 
ATOM     41  C   UNL A   1      38.325  29.739  27.562  1.00  0.00     0.010 A 
ATOM     42  C   UNL A   1      37.733  29.148  29.831  1.00  0.00     0.010 A 
ATOM     43  C   UNL A   1      38.701  29.234  28.818  1.00  0.00    -0.014 A 
BRANCH  43  44
ATOM     44  C   UNL A   1      40.102  28.788  29.039  1.00  0.00     0.031 A 
ATOM     45  C   UNL A   1      40.549  27.414  28.612  1.00  0.00     0.074 A 
ATOM     46  C   UNL A   1      40.992  29.647  29.576  1.00  0.00     0.049 A 
ATOM     47  N   UNL A   1      41.738  26.872  28.705  1.00  0.00    -0.248 NA
ATOM     48  C   UNL A   1      39.539  26.531  28.004  1.00  0.00     0.031 C 
ATOM     49  C   UNL A   1      40.687  31.013  30.005  1.00  0.00     0.029 A 
ATOM     50  N   UNL A   1      42.335  29.512  29.828  1.00  0.00    -0.354 N 
ATOM     51  C   UNL A   1      41.614  25.587  28.189  1.00  0.00     0.074 A 
ATOM     52  C   UNL A   1      40.228  25.415  27.815  1.00  0.00     0.031 C 
ATOM     53  C   UNL A   1      41.817  31.608  30.410  1.00  0.00     0.029 A 
ATOM     54  C   UNL A   1      42.911  30.645  30.350  1.00  0.00     0.049 A 
ATOM     55  H   UNL A   1      42.837  28.684  29.650  1.00  0.00     0.167 HD
ATOM     56  C   UNL A   1      42.572  24.644  28.029  1.00  0.00     0.031 A 
ATOM     57  C   UNL A   1      44.173  30.886  30.757  1.00  0.00     0.031 A 
ATOM     58  C   UNL A   1      43.954  24.828  28.391  1.00  0.00     0.049 A 
ATOM     59  C   UNL A   1      45.203  29.801  30.627  1.00  0.00     0.074 A 
ATOM     60  C   UNL A   1      45.002  23.937  28.235  1.00  0.00     0.029 A 
ATOM     61  N   UNL A   1      44.480  25.968  28.978  1.00  0.00    -0.354 N 
ATOM     62  N   UNL A   1      45.074  28.603  30.108  1.00  0.00    -0.248 NA
ATOM     63  C   UNL A   1      46.552  30.095  31.129  1.00  0.00     0.031 C 
ATOM     64  C   UNL A   1      46.142  24.504  28.805  1.00  0.00     0.029 A 
ATOM     65  C   UNL A   1      45.830  25.787  29.227  1.00  0.00     0.049 A 
ATOM     66  H   UNL A   1      43.970  26.784  29.186  1.00  0.00     0.167 HD
ATOM     67  C   UNL A   1      46.325  28.009  30.204  1.00  0.00     0.074 A 
ATOM     68  C   UNL A   1      47.206  28.987  30.809  1.00  0.00     0.031 C 
ATOM     69  C   UNL A   1      46.704  26.764  29.827  1.00  0.00     0.031 A 
BRANCH  56  70
ATOM     70  C   UNL A   1      42.179  23.311  27.447  1.00  0.00    -0.014 A 
ATOM     71  C   UNL A   1      41.568  22.349  28.270  1.00  0.00     0.009 A 
ATOM     72  C   UNL A   1      42.520  22.956  26.133  1.00  0.00     0.009 A 
ATOM     73  C   UNL A   1      41.333  21.055  27.799  1.00  0.00     0.001 A 
ATOM     74  C   UNL A   1      42.253  21.670  25.653  1.00  0.00     0.001 A 
ATOM     75  C   UNL A   1      41.672  20.719  26.491  1.00  0.00     0.000 A 
ENDBRANCH  56  70
BRANCH  57  76
ATOM     76  C   UNL A   1      44.513  32.221  31.320  1.00  0.00    -0.014 A 
ATOM     77  C   UNL A   1      44.393  32.464  32.700  1.00  0.00     0.009 A 
ATOM     78  C   UNL A   1      44.893  33.278  30.482  1.00  0.00     0.009 A 
ATOM     79  C   UNL A   1      44.604  33.742  33.221  1.00  0.00     0.001 A 
ATOM     80  C   UNL A   1      45.143  34.548  31.011  1.00  0.00     0.001 A 
ATOM     81  C   UNL A   1      44.984  34.782  32.376  1.00  0.00     0.000 A 
ENDBRANCH  57  76
BRANCH  69  82
ATOM     82  C   UNL A   1      48.142  26.365  30.030  1.00  0.00    -0.014 A 
ATOM     83  C   UNL A   1      49.050  26.471  28.964  1.00  0.00     0.009 A 
ATOM     84  C   UNL A   1      48.567  25.764  31.225  1.00  0.00     0.009 A 
ATOM     85  C   UNL A   1      50.343  25.958  29.078  1.00  0.00     0.001 A 
ATOM     86  C   UNL A   1      49.873  25.285  31.350  1.00  0.00     0.001 A 
ATOM     87  C   UNL A   1      50.754  25.369  30.272  1.00  0.00     0.000 A 
ENDBRANCH  69  82
ENDBRANCH  43  44
ENDBRANCH  35  38
ENDBRANCH  33  34
ENDBRANCH   1  33
TORSDOF 12
ENDMDL
MODEL 2
REMARK VINA RESULT:      -9.7      3.356      9.707
REMARK SMILES Cc1ccc(N2C(=O)/C(=C3\C(=O)N(CC(=O)NCCCNC(=O)c4ccc(-c5c6nc(c(-c7ccccc7)c7ccc([nH]7)c(-c7ccccc7)c7nc(c(-c8ccccc8)c8ccc5[nH]8)C=C7)C=C6)cc4)c4ccccc43)SC2=S)c(C)c1
REMARK SMILES IDX 19 1 18 2 17 3 15 4 16 5 14 7 13 8 6 9 7 10 79 11 8 12 9 13
REMARK SMILES IDX 78 14 80 15 10 16 11 17 77 18 12 19 72 20 76 21 73 22 75 23
REMARK SMILES IDX 74 24 5 25 1 26 2 27 3 28 83 29 4 30 81 31 82 32 20 33 21 34
REMARK SMILES IDX 22 35 23 37 24 38 25 39 71 40 26 41 70 42 27 43 28 44 29 45
REMARK SMILES IDX 64 46 30 47 69 48 63 49 65 50 31 51 68 52 62 53 61 54 32 56
REMARK SMILES IDX 54 57 39 58 53 59 40 60 43 61 52 62 66 63 41 64 42 65 51 67
REMARK SMILES IDX 67 68 44 69 33 70 34 71 38 72 35 73 37 74 36 75 55 76 56 77
REMARK SMILES IDX 60 78 57 79 59 80 58 81 45 82 46 83 50 84 47 85 49 86 48 87
REMARK H PARENT 17 6 21 36 65 55 43 66
REMARK Flexibility Score: inf
ROOT
ATOM      1  C   UNL A   1      41.768  21.797  25.828  1.00  0.00     0.042 C 
ENDROOT
BRANCH   1   2
ATOM      2  C   UNL A   1      42.839  22.630  26.519  1.00  0.00     0.117 C 
BRANCH   2   3
ATOM      3  N   UNL A   1      43.654  23.362  25.567  1.00  0.00    -0.354 N 
ATOM      4  C   UNL A   1      44.231  24.591  25.698  1.00  0.00     0.240 C 
ATOM      5  O   UNL A   1      44.895  25.020  24.749  1.00  0.00    -0.273 OA
ATOM      6  H   UNL A   1      43.811  22.908  24.708  1.00  0.00     0.163 HD
BRANCH   4   7
ATOM      7  C   UNL A   1      44.089  25.392  26.994  1.00  0.00     0.225 C 
BRANCH   7   8
ATOM      8  N   UNL A   1      45.039  26.479  27.133  1.00  0.00    -0.298 N 
ATOM      9  N   UNL A   1      45.512  32.100  27.469  1.00  0.00    -0.261 N 
ATOM     10  C   UNL A   1      45.106  30.938  26.805  1.00  0.00     0.271 C 
ATOM     11  C   UNL A   1      46.874  32.212  27.704  1.00  0.00     0.152 C 
ATOM     12  O   UNL A   1      44.093  30.804  26.138  1.00  0.00    -0.268 OA
ATOM     13  C   UNL A   1      46.176  29.903  26.962  1.00  0.00     0.094 C 
ATOM     14  S   UNL A   1      47.671  30.762  27.115  1.00  0.00    -0.053 SA
ATOM     15  S   UNL A   1      47.764  33.370  28.517  1.00  0.00    -0.051 S 
ATOM     16  C   UNL A   1      46.011  28.579  27.133  1.00  0.00     0.069 C 
ATOM     17  C   UNL A   1      44.730  27.814  26.890  1.00  0.00     0.260 C 
ATOM     18  C   UNL A   1      46.988  27.585  27.637  1.00  0.00     0.012 A 
ATOM     19  O   UNL A   1      43.649  28.246  26.538  1.00  0.00    -0.269 OA
ATOM     20  C   UNL A   1      46.346  26.340  27.619  1.00  0.00     0.053 A 
ATOM     21  C   UNL A   1      48.253  27.689  28.203  1.00  0.00     0.011 A 
ATOM     22  C   UNL A   1      46.953  25.190  28.101  1.00  0.00     0.027 A 
ATOM     23  C   UNL A   1      48.874  26.540  28.706  1.00  0.00     0.001 A 
ATOM     24  C   UNL A   1      48.232  25.299  28.646  1.00  0.00     0.002 A 
BRANCH   9  25
ATOM     25  C   UNL A   1      44.553  33.078  27.873  1.00  0.00     0.054 A 
ATOM     26  C   UNL A   1      41.322  35.739  28.986  1.00  0.00     0.044 C 
ATOM     27  C   UNL A   1      42.463  34.833  28.631  1.00  0.00    -0.051 A 
ATOM     28  C   UNL A   1      42.839  33.784  29.467  1.00  0.00     0.005 A 
ATOM     29  C   UNL A   1      43.160  35.025  27.434  1.00  0.00     0.009 A 
ATOM     30  C   UNL A   1      43.877  32.927  29.097  1.00  0.00     0.027 A 
ATOM     31  C   UNL A   1      44.192  34.153  27.029  1.00  0.00    -0.027 A 
ATOM     32  C   UNL A   1      44.802  34.426  25.679  1.00  0.00     0.046 C 
ENDBRANCH   9  25
ENDBRANCH   7   8
ENDBRANCH   4   7
ENDBRANCH   2   3
ENDBRANCH   1   2
BRANCH   1  33
ATOM     33  C   UNL A   1      40.472  21.679  26.624  1.00  0.00     0.118 C 
BRANCH  33  34
ATOM     34  N   UNL A   1      39.309  22.202  25.916  1.00  0.00    -0.352 N 
ATOM     35  C   UNL A   1      38.683  23.423  26.016  1.00  0.00     0.251 C 
ATOM     36  H   UNL A   1      38.908  21.583  25.263  1.00  0.00     0.163 HD
ATOM     37  O   UNL A   1      37.624  23.621  25.430  1.00  0.00    -0.269 OA
BRANCH  35  38
ATOM     38  C   UNL A   1      39.265  24.485  26.865  1.00  0.00     0.039 A 
ATOM     39  C   UNL A   1      38.894  24.608  28.203  1.00  0.00     0.014 A 
ATOM     40  C   UNL A   1      40.169  25.390  26.303  1.00  0.00     0.014 A 
ATOM     41  C   UNL A   1      39.249  25.751  28.910  1.00  0.00     0.010 A 
ATOM     42  C   UNL A   1      40.613  26.483  27.052  1.00  0.00     0.010 A 
ATOM     43  C   UNL A   1      40.104  26.709  28.341  1.00  0.00    -0.014 A 
BRANCH  43  44
ATOM     44  C   UNL A   1      40.434  27.942  29.103  1.00  0.00     0.031 A 
ATOM     45  C   UNL A   1      39.445  29.074  29.203  1.00  0.00     0.074 A 
ATOM     46  C   UNL A   1      41.610  28.019  29.759  1.00  0.00     0.049 A 
ATOM     47  N   UNL A   1      39.557  30.209  29.848  1.00  0.00    -0.248 NA
ATOM     48  C   UNL A   1      38.165  28.920  28.490  1.00  0.00     0.031 C 
ATOM     49  C   UNL A   1      42.639  26.978  29.763  1.00  0.00     0.029 A 
ATOM     50  N   UNL A   1      42.127  28.999  30.569  1.00  0.00    -0.354 N 
ATOM     51  C   UNL A   1      38.380  30.906  29.603  1.00  0.00     0.074 A 
ATOM     52  C   UNL A   1      37.578  30.086  28.724  1.00  0.00     0.031 C 
ATOM     53  C   UNL A   1      43.634  27.348  30.579  1.00  0.00     0.029 A 
ATOM     54  C   UNL A   1      43.357  28.685  31.094  1.00  0.00     0.049 A 
ATOM     55  H   UNL A   1      41.660  29.846  30.757  1.00  0.00     0.167 HD
ATOM     56  C   UNL A   1      37.998  32.114  30.079  1.00  0.00     0.031 A 
ATOM     57  C   UNL A   1      44.186  29.392  31.886  1.00  0.00     0.031 A 
ATOM     58  C   UNL A   1      38.796  32.921  30.967  1.00  0.00     0.049 A 
ATOM     59  C   UNL A   1      43.766  30.757  32.350  1.00  0.00     0.074 A 
ATOM     60  C   UNL A   1      38.476  34.146  31.527  1.00  0.00     0.029 A 
ATOM     61  N   UNL A   1      40.064  32.592  31.420  1.00  0.00    -0.354 N 
ATOM     62  N   UNL A   1      42.635  31.387  32.134  1.00  0.00    -0.248 NA
ATOM     63  C   UNL A   1      44.724  31.509  33.171  1.00  0.00     0.031 C 
ATOM     64  C   UNL A   1      39.582  34.596  32.248  1.00  0.00     0.029 A 
ATOM     65  C   UNL A   1      40.555  33.610  32.221  1.00  0.00     0.049 A 
ATOM     66  H   UNL A   1      40.544  31.759  31.205  1.00  0.00     0.167 HD
ATOM     67  C   UNL A   1      42.739  32.598  32.805  1.00  0.00     0.074 A 
ATOM     68  C   UNL A   1      44.033  32.605  33.457  1.00  0.00     0.031 C 
ATOM     69  C   UNL A   1      41.842  33.611  32.869  1.00  0.00     0.031 A 
BRANCH  56  70
ATOM     70  C   UNL A   1      36.661  32.666  29.655  1.00  0.00    -0.014 A 
ATOM     71  C   UNL A   1      36.558  33.382  28.450  1.00  0.00     0.009 A 
ATOM     72  C   UNL A   1      35.538  32.591  30.494  1.00  0.00     0.009 A 
ATOM     73  C   UNL A   1      35.371  34.034  28.108  1.00  0.00     0.001 A 
ATOM     74  C   UNL A   1      34.341  33.215  30.132  1.00  0.00     0.001 A 
ATOM     75  C   UNL A   1      34.263  33.946  28.947  1.00  0.00     0.000 A 
ENDBRANCH  56  70
BRANCH  57  76
ATOM     76  C   UNL A   1      45.494  28.801  32.282  1.00  0.00    -0.014 A 
ATOM     77  C   UNL A   1      46.602  28.881  31.421  1.00  0.00     0.009 A 
ATOM     78  C   UNL A   1      45.628  28.098  33.488  1.00  0.00     0.009 A 
ATOM     79  C   UNL A   1      47.800  28.236  31.736  1.00  0.00     0.001 A 
ATOM     80  C   UNL A   1      46.841  27.487  33.820  1.00  0.00     0.001 A 
ATOM     81  C   UNL A   1      47.919  27.544  32.938  1.00  0.00     0.000 A 
ENDBRANCH  57  76
BRANCH  69  82
ATOM     82  C   UNL A   1      42.197  34.826  33.686  1.00  0.00    -0.014 A 
ATOM     83  C   UNL A   1      41.745  34.929  35.012  1.00  0.00     0.009 A 
ATOM     84  C   UNL A   1      42.860  35.920  33.109  1.00  0.00     0.009 A 
ATOM     85  C   UNL A   1      41.922  36.110  35.734  1.00  0.00     0.001 A 
ATOM     86  C   UNL A   1      43.068  37.088  33.846  1.00  0.00     0.001 A 
ATOM     87  C   UNL A   1      42.586  37.187  35.151  1.00  0.00     0.000 A 
ENDBRANCH  69  82
ENDBRANCH  43  44
ENDBRANCH  35  38
ENDBRANCH  33  34
ENDBRANCH   1  33
TORSDOF 12
ENDMDL
MODEL 3
REMARK VINA RESULT:      -9.6      0.148      5.615
REMARK SMILES Cc1ccc(N2C(=O)/C(=C3\C(=O)N(CC(=O)NCCCNC(=O)c4ccc(-c5c6nc(c(-c7ccccc7)c7ccc([nH]7)c(-c7ccccc7)c7nc(c(-c8ccccc8)c8ccc5[nH]8)C=C7)C=C6)cc4)c4ccccc43)SC2=S)c(C)c1
REMARK SMILES IDX 19 1 18 2 17 3 15 4 16 5 14 7 13 8 6 9 7 10 79 11 8 12 9 13
REMARK SMILES IDX 78 14 80 15 10 16 11 17 77 18 12 19 72 20 76 21 73 22 75 23
REMARK SMILES IDX 74 24 5 25 1 26 2 27 3 28 83 29 4 30 81 31 82 32 20 33 21 34
REMARK SMILES IDX 22 35 23 37 24 38 25 39 71 40 26 41 70 42 27 43 28 44 29 45
REMARK SMILES IDX 64 46 30 47 69 48 63 49 65 50 31 51 68 52 62 53 61 54 32 56
REMARK SMILES IDX 54 57 39 58 53 59 40 60 43 61 52 62 66 63 41 64 42 65 51 67
REMARK SMILES IDX 67 68 44 69 33 70 34 71 38 72 35 73 37 74 36 75 55 76 56 77
REMARK SMILES IDX 60 78 57 79 59 80 58 81 45 82 46 83 50 84 47 85 49 86 48 87
REMARK H PARENT 17 6 21 36 65 55 43 66
REMARK Flexibility Score: inf
ROOT
ATOM      1  C   UNL A   1      34.413  32.975  29.809  1.00  0.00     0.042 C 
ENDROOT
BRANCH   1   2
ATOM      2  C   UNL A   1      35.742  33.240  30.507  1.00  0.00     0.117 C 
BRANCH   2   3
ATOM      3  N   UNL A   1      35.706  32.853  31.904  1.00  0.00    -0.354 N 
ATOM      4  C   UNL A   1      36.702  32.330  32.675  1.00  0.00     0.240 C 
ATOM      5  O   UNL A   1      36.446  32.077  33.856  1.00  0.00    -0.273 OA
ATOM      6  H   UNL A   1      34.843  32.985  32.359  1.00  0.00     0.163 HD
BRANCH   4   7
ATOM      7  C   UNL A   1      38.102  32.099  32.101  1.00  0.00     0.225 C 
BRANCH   7   8
ATOM      8  N   UNL A   1      39.130  31.876  33.099  1.00  0.00    -0.298 N 
ATOM      9  N   UNL A   1      42.787  28.062  35.101  1.00  0.00    -0.261 N 
ATOM     10  C   UNL A   1      41.488  28.472  34.786  1.00  0.00     0.271 C 
ATOM     11  C   UNL A   1      43.449  28.836  36.041  1.00  0.00     0.152 C 
ATOM     12  O   UNL A   1      40.594  27.767  34.347  1.00  0.00    -0.268 OA
ATOM     13  C   UNL A   1      41.336  29.910  35.175  1.00  0.00     0.094 C 
ATOM     14  S   UNL A   1      42.411  30.174  36.506  1.00  0.00    -0.053 SA
ATOM     15  S   UNL A   1      45.008  28.756  36.639  1.00  0.00    -0.051 S 
ATOM     16  C   UNL A   1      40.647  30.863  34.523  1.00  0.00     0.069 C 
ATOM     17  C   UNL A   1      39.625  30.620  33.436  1.00  0.00     0.260 C 
ATOM     18  C   UNL A   1      40.753  32.335  34.658  1.00  0.00     0.012 A 
ATOM     19  O   UNL A   1      39.276  29.561  32.951  1.00  0.00    -0.269 OA
ATOM     20  C   UNL A   1      39.819  32.893  33.775  1.00  0.00     0.053 A 
ATOM     21  C   UNL A   1      41.630  33.173  35.337  1.00  0.00     0.011 A 
ATOM     22  C   UNL A   1      39.704  34.262  33.592  1.00  0.00     0.027 A 
ATOM     23  C   UNL A   1      41.535  34.556  35.152  1.00  0.00     0.001 A 
ATOM     24  C   UNL A   1      40.573  35.096  34.293  1.00  0.00     0.002 A 
BRANCH   9  25
ATOM     25  C   UNL A   1      43.363  26.921  34.463  1.00  0.00     0.054 A 
ATOM     26  C   UNL A   1      44.754  23.475  32.239  1.00  0.00     0.044 C 
ATOM     27  C   UNL A   1      44.311  24.679  33.015  1.00  0.00    -0.051 A 
ATOM     28  C   UNL A   1      44.479  25.966  32.510  1.00  0.00     0.005 A 
ATOM     29  C   UNL A   1      43.701  24.520  34.264  1.00  0.00     0.009 A 
ATOM     30  C   UNL A   1      44.022  27.071  33.231  1.00  0.00     0.027 A 
ATOM     31  C   UNL A   1      43.206  25.620  34.994  1.00  0.00    -0.027 A 
ATOM     32  C   UNL A   1      42.498  25.298  36.283  1.00  0.00     0.046 C 
ENDBRANCH   9  25
ENDBRANCH   7   8
ENDBRANCH   4   7
ENDBRANCH   2   3
ENDBRANCH   1   2
BRANCH   1  33
ATOM     33  C   UNL A   1      34.560  32.505  28.366  1.00  0.00     0.118 C 
BRANCH  33  34
ATOM     34  N   UNL A   1      33.996  31.181  28.129  1.00  0.00    -0.352 N 
ATOM     35  C   UNL A   1      34.616  29.957  28.029  1.00  0.00     0.251 C 
ATOM     36  H   UNL A   1      33.018  31.160  28.024  1.00  0.00     0.163 HD
ATOM     37  O   UNL A   1      33.975  28.969  27.684  1.00  0.00    -0.269 OA
BRANCH  35  38
ATOM     38  C   UNL A   1      36.066  29.837  28.296  1.00  0.00     0.039 A 
ATOM     39  C   UNL A   1      36.997  30.098  27.292  1.00  0.00     0.014 A 
ATOM     40  C   UNL A   1      36.496  29.425  29.560  1.00  0.00     0.014 A 
ATOM     41  C   UNL A   1      38.326  29.739  27.480  1.00  0.00     0.010 A 
ATOM     42  C   UNL A   1      37.852  29.168  29.781  1.00  0.00     0.010 A 
ATOM     43  C   UNL A   1      38.770  29.258  28.723  1.00  0.00    -0.014 A 
BRANCH  43  44
ATOM     44  C   UNL A   1      40.188  28.842  28.885  1.00  0.00     0.031 A 
ATOM     45  C   UNL A   1      41.198  29.773  29.503  1.00  0.00     0.074 A 
ATOM     46  C   UNL A   1      40.556  27.595  28.526  1.00  0.00     0.049 A 
ATOM     47  N   UNL A   1      42.469  29.563  29.743  1.00  0.00    -0.248 NA
ATOM     48  C   UNL A   1      40.731  31.111  29.903  1.00  0.00     0.031 C 
ATOM     49  C   UNL A   1      39.663  26.592  27.942  1.00  0.00     0.029 A 
ATOM     50  N   UNL A   1      41.763  26.949  28.622  1.00  0.00    -0.354 N 
ATOM     51  C   UNL A   1      42.953  30.741  30.300  1.00  0.00     0.074 A 
ATOM     52  C   UNL A   1      41.851  31.676  30.333  1.00  0.00     0.031 C 
ATOM     53  C   UNL A   1      40.336  25.444  27.786  1.00  0.00     0.029 A 
ATOM     54  C   UNL A   1      41.726  25.649  28.180  1.00  0.00     0.049 A 
ATOM     55  H   UNL A   1      42.577  27.377  28.974  1.00  0.00     0.167 HD
ATOM     56  C   UNL A   1      44.198  31.012  30.755  1.00  0.00     0.031 A 
ATOM     57  C   UNL A   1      42.699  24.722  28.080  1.00  0.00     0.031 A 
ATOM     58  C   UNL A   1      45.289  30.071  30.732  1.00  0.00     0.049 A 
ATOM     59  C   UNL A   1      44.088  25.069  28.534  1.00  0.00     0.074 A 
ATOM     60  C   UNL A   1      46.579  30.248  31.202  1.00  0.00     0.029 A 
ATOM     61  N   UNL A   1      45.223  28.787  30.216  1.00  0.00    -0.354 N 
ATOM     62  N   UNL A   1      44.519  26.178  29.087  1.00  0.00    -0.248 NA
ATOM     63  C   UNL A   1      45.125  24.043  28.360  1.00  0.00     0.031 C 
ATOM     64  C   UNL A   1      47.315  29.104  30.892  1.00  0.00     0.029 A 
ATOM     65  C   UNL A   1      46.461  28.176  30.318  1.00  0.00     0.049 A 
ATOM     66  H   UNL A   1      44.416  28.371  29.833  1.00  0.00     0.167 HD
ATOM     67  C   UNL A   1      45.869  25.977  29.343  1.00  0.00     0.074 A 
ATOM     68  C   UNL A   1      46.180  24.631  28.907  1.00  0.00     0.031 C 
ATOM     69  C   UNL A   1      46.766  26.834  29.886  1.00  0.00     0.031 A 
BRANCH  56  70
ATOM     70  C   UNL A   1      44.479  32.384  31.313  1.00  0.00    -0.014 A 
ATOM     71  C   UNL A   1      44.294  32.624  32.686  1.00  0.00     0.009 A 
ATOM     72  C   UNL A   1      44.803  33.463  30.476  1.00  0.00     0.009 A 
ATOM     73  C   UNL A   1      44.398  33.917  33.203  1.00  0.00     0.001 A 
ATOM     74  C   UNL A   1      44.941  34.751  31.002  1.00  0.00     0.001 A 
ATOM     75  C   UNL A   1      44.725  34.978  32.361  1.00  0.00     0.000 A 
ENDBRANCH  56  70
BRANCH  57  76
ATOM     76  C   UNL A   1      42.371  23.380  27.527  1.00  0.00    -0.014 A 
ATOM     77  C   UNL A   1      42.609  23.090  26.172  1.00  0.00     0.009 A 
ATOM     78  C   UNL A   1      41.759  22.404  28.327  1.00  0.00     0.009 A 
ATOM     79  C   UNL A   1      42.205  21.872  25.621  1.00  0.00     0.001 A 
ATOM     80  C   UNL A   1      41.392  21.171  27.781  1.00  0.00     0.001 A 
ATOM     81  C   UNL A   1      41.601  20.912  26.428  1.00  0.00     0.000 A 
ENDBRANCH  57  76
BRANCH  69  82
ATOM     82  C   UNL A   1      48.183  26.360  30.071  1.00  0.00    -0.014 A 
ATOM     83  C   UNL A   1      49.074  26.389  28.984  1.00  0.00     0.009 A 
ATOM     84  C   UNL A   1      48.600  25.767  31.272  1.00  0.00     0.009 A 
ATOM     85  C   UNL A   1      50.338  25.807  29.086  1.00  0.00     0.001 A 
ATOM     86  C   UNL A   1      49.880  25.220  31.383  1.00  0.00     0.001 A 
ATOM     87  C   UNL A   1      50.741  25.226  30.286  1.00  0.00     0.000 A 
ENDBRANCH  69  82
ENDBRANCH  43  44
ENDBRANCH  35  38
ENDBRANCH  33  34
ENDBRANCH   1  33
TORSDOF 12
ENDMDL
