MODEL 1
REMARK VINA RESULT:     -10.5      0.000      0.000
REMARK SMILES CC(C)[C@H](NC(=O)[C@H](C)NC(=O)C[NH3+])C(=O)NCCCNC(=O)c1ccc(-c2c3nc(c(-c4ccccc4)c4ccc([nH]4)c(-c4ccccc4)c4nc(c(-c5ccccc5)c5ccc2[nH]5)C=C4)C=C3)cc1
REMARK SMILES IDX 15 1 16 2 17 3 4 5 2 6 1 7 3 8 5 9 6 10 7 12 8 13 9 14 10 15
REMARK SMILES IDX 11 16 12 18 13 19 14 20 18 24 19 25 20 26 21 27 22 28 23 30
REMARK SMILES IDX 24 31 25 32 71 33 26 34 70 35 27 36 28 37 29 38 64 39 30 40
REMARK SMILES IDX 69 41 63 42 65 43 31 44 68 45 62 46 61 47 32 49 54 50 39 51
REMARK SMILES IDX 53 52 40 53 43 54 52 55 66 56 41 57 42 58 51 60 67 61 44 62
REMARK SMILES IDX 33 63 34 64 38 65 35 66 37 67 36 68 55 69 56 70 60 71 57 72
REMARK SMILES IDX 59 73 58 74 45 75 46 76 50 77 47 78 49 79 48 80
REMARK H PARENT 17 4 5 11 10 17 14 21 14 22 14 23 21 29 65 48 43 59
REMARK Flexibility Score: inf
ROOT
ATOM      1  C   UNL A   1      35.243  21.897  25.891  1.00  0.00     0.242 C 
ATOM      2  O   UNL A   1      34.921  22.013  27.078  1.00  0.00    -0.273 OA
ATOM      3  N   UNL A   1      36.507  22.291  25.575  1.00  0.00    -0.354 N 
ATOM      4  H   UNL A   1      36.852  23.079  26.053  1.00  0.00     0.163 HD
ENDROOT
BRANCH   1   5
ATOM      5  C   UNL A   1      34.208  21.419  24.824  1.00  0.00     0.173 C 
BRANCH   5   6
ATOM      6  C   UNL A   1      33.603  22.457  23.849  1.00  0.00     0.015 C 
ATOM      7  C   UNL A   1      32.335  22.030  23.117  1.00  0.00     0.010 C 
ATOM      8  C   UNL A   1      33.379  23.808  24.545  1.00  0.00     0.010 C 
ENDBRANCH   5   6
BRANCH   5   9
ATOM      9  N   UNL A   1      33.305  20.297  25.144  1.00  0.00    -0.342 N 
ATOM     10  C   UNL A   1      33.154  18.975  24.912  1.00  0.00     0.242 C 
ATOM     11  H   UNL A   1      32.570  20.618  25.713  1.00  0.00     0.164 HD
ATOM     12  O   UNL A   1      32.155  18.508  25.487  1.00  0.00    -0.273 OA
BRANCH  10  13
ATOM     13  C   UNL A   1      33.913  18.085  23.878  1.00  0.00     0.168 C 
ATOM     14  C   UNL A   1      32.868  17.553  22.880  1.00  0.00     0.041 C 
BRANCH  13  15
ATOM     15  N   UNL A   1      34.688  16.940  24.336  1.00  0.00    -0.340 N 
ATOM     16  C   UNL A   1      34.362  15.797  24.998  1.00  0.00     0.275 C 
ATOM     17  H   UNL A   1      35.647  17.007  24.123  1.00  0.00     0.164 HD
ATOM     18  O   UNL A   1      35.304  15.091  25.374  1.00  0.00    -0.268 OA
BRANCH  16  19
ATOM     19  C   UNL A   1      32.929  15.296  25.181  1.00  0.00     0.360 C 
BRANCH  19  20
ATOM     20  N   UNL A   1      32.280  15.753  26.418  1.00  0.00    -0.350 N 
ATOM     21  H   UNL A   1      31.296  15.949  26.234  1.00  0.00     0.344 HD
ATOM     22  H   UNL A   1      32.740  16.601  26.750  1.00  0.00     0.344 HD
ATOM     23  H   UNL A   1      32.355  15.026  27.129  1.00  0.00     0.344 HD
ENDBRANCH  19  20
ENDBRANCH  16  19
ENDBRANCH  13  15
ENDBRANCH  10  13
ENDBRANCH   5   9
ENDBRANCH   1   5
BRANCH   3  24
ATOM     24  C   UNL A   1      37.396  21.684  24.619  1.00  0.00     0.117 C 
BRANCH  24  25
ATOM     25  C   UNL A   1      37.911  20.313  25.010  1.00  0.00     0.042 C 
BRANCH  25  26
ATOM     26  C   UNL A   1      39.169  20.389  25.863  1.00  0.00     0.118 C 
BRANCH  26  27
ATOM     27  N   UNL A   1      40.091  19.266  25.776  1.00  0.00    -0.352 N 
ATOM     28  C   UNL A   1      41.448  19.242  26.049  1.00  0.00     0.251 C 
ATOM     29  H   UNL A   1      39.698  18.411  25.486  1.00  0.00     0.163 HD
ATOM     30  O   UNL A   1      42.080  18.198  25.960  1.00  0.00    -0.269 OA
BRANCH  28  31
ATOM     31  C   UNL A   1      42.155  20.507  26.378  1.00  0.00     0.039 A 
ATOM     32  C   UNL A   1      42.649  21.295  25.335  1.00  0.00     0.014 A 
ATOM     33  C   UNL A   1      42.264  20.958  27.692  1.00  0.00     0.014 A 
ATOM     34  C   UNL A   1      43.133  22.580  25.601  1.00  0.00     0.010 A 
ATOM     35  C   UNL A   1      42.626  22.276  27.942  1.00  0.00     0.010 A 
ATOM     36  C   UNL A   1      43.059  23.107  26.900  1.00  0.00    -0.014 A 
BRANCH  36  37
ATOM     37  C   UNL A   1      43.407  24.520  27.206  1.00  0.00     0.031 A 
ATOM     38  C   UNL A   1      44.843  24.971  27.158  1.00  0.00     0.074 A 
ATOM     39  C   UNL A   1      42.451  25.369  27.638  1.00  0.00     0.049 A 
ATOM     40  N   UNL A   1      45.365  26.115  27.524  1.00  0.00    -0.248 NA
ATOM     41  C   UNL A   1      45.830  23.990  26.677  1.00  0.00     0.031 C 
ATOM     42  C   UNL A   1      41.031  25.048  27.794  1.00  0.00     0.029 A 
ATOM     43  N   UNL A   1      42.537  26.680  28.038  1.00  0.00    -0.354 N 
ATOM     44  C   UNL A   1      46.736  25.975  27.353  1.00  0.00     0.074 A 
ATOM     45  C   UNL A   1      46.972  24.621  26.906  1.00  0.00     0.031 C 
ATOM     46  C   UNL A   1      40.375  26.140  28.218  1.00  0.00     0.029 A 
ATOM     47  C   UNL A   1      41.332  27.223  28.411  1.00  0.00     0.049 A 
ATOM     48  H   UNL A   1      43.384  27.182  28.057  1.00  0.00     0.167 HD
ATOM     49  C   UNL A   1      47.713  26.896  27.524  1.00  0.00     0.031 A 
ATOM     50  C   UNL A   1      41.029  28.455  28.863  1.00  0.00     0.031 A 
ATOM     51  C   UNL A   1      47.478  28.256  27.930  1.00  0.00     0.049 A 
ATOM     52  C   UNL A   1      42.128  29.469  29.024  1.00  0.00     0.074 A 
ATOM     53  C   UNL A   1      48.392  29.287  28.062  1.00  0.00     0.029 A 
ATOM     54  N   UNL A   1      46.235  28.775  28.261  1.00  0.00    -0.354 N 
ATOM     55  N   UNL A   1      43.412  29.338  28.796  1.00  0.00    -0.248 NA
ATOM     56  C   UNL A   1      41.731  30.802  29.497  1.00  0.00     0.031 C 
ATOM     57  C   UNL A   1      47.707  30.421  28.510  1.00  0.00     0.029 A 
ATOM     58  C   UNL A   1      46.361  30.108  28.609  1.00  0.00     0.049 A 
ATOM     59  H   UNL A   1      45.391  28.269  28.249  1.00  0.00     0.167 HD
ATOM     60  C   UNL A   1      43.972  30.579  29.069  1.00  0.00     0.074 A 
ATOM     61  C   UNL A   1      42.886  31.452  29.465  1.00  0.00     0.031 C 
ATOM     62  C   UNL A   1      45.270  30.963  28.996  1.00  0.00     0.031 A 
BRANCH  49  63
ATOM     63  C   UNL A   1      49.127  26.460  27.264  1.00  0.00    -0.014 A 
ATOM     64  C   UNL A   1      49.689  26.543  25.980  1.00  0.00     0.009 A 
ATOM     65  C   UNL A   1      49.916  25.976  28.319  1.00  0.00     0.009 A 
ATOM     66  C   UNL A   1      50.997  26.110  25.750  1.00  0.00     0.001 A 
ATOM     67  C   UNL A   1      51.234  25.574  28.093  1.00  0.00     0.001 A 
ATOM     68  C   UNL A   1      51.769  25.630  26.806  1.00  0.00     0.000 A 
ENDBRANCH  49  63
BRANCH  50  69
ATOM     69  C   UNL A   1      39.620  28.813  29.169  1.00  0.00    -0.014 A 
ATOM     70  C   UNL A   1      39.105  28.611  30.460  1.00  0.00     0.009 A 
ATOM     71  C   UNL A   1      38.781  29.348  28.181  1.00  0.00     0.009 A 
ATOM     72  C   UNL A   1      37.772  28.914  30.746  1.00  0.00     0.001 A 
ATOM     73  C   UNL A   1      37.456  29.676  28.478  1.00  0.00     0.001 A 
ATOM     74  C   UNL A   1      36.950  29.450  29.757  1.00  0.00     0.000 A 
ENDBRANCH  50  69
BRANCH  62  75
ATOM     75  C   UNL A   1      45.581  32.397  29.313  1.00  0.00    -0.014 A 
ATOM     76  C   UNL A   1      45.646  33.370  28.304  1.00  0.00     0.009 A 
ATOM     77  C   UNL A   1      45.769  32.784  30.649  1.00  0.00     0.009 A 
ATOM     78  C   UNL A   1      45.923  34.699  28.626  1.00  0.00     0.001 A 
ATOM     79  C   UNL A   1      46.018  34.119  30.969  1.00  0.00     0.001 A 
ATOM     80  C   UNL A   1      46.104  35.074  29.958  1.00  0.00     0.000 A 
ENDBRANCH  62  75
ENDBRANCH  36  37
ENDBRANCH  28  31
ENDBRANCH  26  27
ENDBRANCH  25  26
ENDBRANCH  24  25
ENDBRANCH   3  24
TORSDOF 16
ENDMDL
MODEL 2
REMARK VINA RESULT:     -10.2      5.194      9.327
REMARK SMILES CC(C)[C@H](NC(=O)[C@H](C)NC(=O)C[NH3+])C(=O)NCCCNC(=O)c1ccc(-c2c3nc(c(-c4ccccc4)c4ccc([nH]4)c(-c4ccccc4)c4nc(c(-c5ccccc5)c5ccc2[nH]5)C=C4)C=C3)cc1
REMARK SMILES IDX 15 1 16 2 17 3 4 5 2 6 1 7 3 8 5 9 6 10 7 12 8 13 9 14 10 15
REMARK SMILES IDX 11 16 12 18 13 19 14 20 18 24 19 25 20 26 21 27 22 28 23 30
REMARK SMILES IDX 24 31 25 32 71 33 26 34 70 35 27 36 28 37 29 38 64 39 30 40
REMARK SMILES IDX 69 41 63 42 65 43 31 44 68 45 62 46 61 47 32 49 54 50 39 51
REMARK SMILES IDX 53 52 40 53 43 54 52 55 66 56 41 57 42 58 51 60 67 61 44 62
REMARK SMILES IDX 33 63 34 64 38 65 35 66 37 67 36 68 55 69 56 70 60 71 57 72
REMARK SMILES IDX 59 73 58 74 45 75 46 76 50 77 47 78 49 79 48 80
REMARK H PARENT 17 4 5 11 10 17 14 21 14 22 14 23 21 29 65 48 43 59
REMARK Flexibility Score: inf
ROOT
ATOM      1  C   UNL A   1      30.870  28.924  22.939  1.00  0.00     0.242 C 
ATOM      2  O   UNL A   1      30.063  29.072  22.015  1.00  0.00    -0.273 OA
ATOM      3  N   UNL A   1      30.982  29.968  23.804  1.00  0.00    -0.354 N 
ATOM      4  H   UNL A   1      30.914  30.869  23.414  1.00  0.00     0.163 HD
ENDROOT
BRANCH   1   5
ATOM      5  C   UNL A   1      31.765  27.648  23.023  1.00  0.00     0.173 C 
BRANCH   5   6
ATOM      6  C   UNL A   1      33.093  27.610  22.232  1.00  0.00     0.015 C 
ATOM      7  C   UNL A   1      34.188  28.558  22.712  1.00  0.00     0.010 C 
ATOM      8  C   UNL A   1      33.642  26.178  22.136  1.00  0.00     0.010 C 
ENDBRANCH   5   6
BRANCH   5   9
ATOM      9  N   UNL A   1      31.128  26.327  23.194  1.00  0.00    -0.342 N 
ATOM     10  C   UNL A   1      30.464  25.595  24.114  1.00  0.00     0.242 C 
ATOM     11  H   UNL A   1      31.218  25.808  22.362  1.00  0.00     0.164 HD
ATOM     12  O   UNL A   1      30.123  24.483  23.674  1.00  0.00    -0.273 OA
BRANCH  10  13
ATOM     13  C   UNL A   1      30.300  25.883  25.639  1.00  0.00     0.168 C 
ATOM     14  C   UNL A   1      31.675  26.330  26.169  1.00  0.00     0.041 C 
BRANCH  13  15
ATOM     15  N   UNL A   1      29.819  24.835  26.528  1.00  0.00    -0.340 N 
ATOM     16  C   UNL A   1      30.290  23.603  26.860  1.00  0.00     0.275 C 
ATOM     17  H   UNL A   1      28.978  25.066  26.985  1.00  0.00     0.164 HD
ATOM     18  O   UNL A   1      29.544  22.893  27.543  1.00  0.00    -0.268 OA
BRANCH  16  19
ATOM     19  C   UNL A   1      31.706  23.117  26.543  1.00  0.00     0.360 C 
BRANCH  19  20
ATOM     20  N   UNL A   1      32.271  22.202  27.544  1.00  0.00    -0.350 N 
ATOM     21  H   UNL A   1      31.579  21.494  27.787  1.00  0.00     0.344 HD
ATOM     22  H   UNL A   1      32.529  22.728  28.378  1.00  0.00     0.344 HD
ATOM     23  H   UNL A   1      33.101  21.749  27.158  1.00  0.00     0.344 HD
ENDBRANCH  19  20
ENDBRANCH  16  19
ENDBRANCH  13  15
ENDBRANCH  10  13
ENDBRANCH   5   9
ENDBRANCH   1   5
BRANCH   3  24
ATOM     24  C   UNL A   1      31.190  29.903  25.227  1.00  0.00     0.117 C 
BRANCH  24  25
ATOM     25  C   UNL A   1      32.629  30.074  25.669  1.00  0.00     0.042 C 
BRANCH  25  26
ATOM     26  C   UNL A   1      32.742  30.763  27.021  1.00  0.00     0.118 C 
BRANCH  26  27
ATOM     27  N   UNL A   1      32.195  32.109  27.120  1.00  0.00    -0.352 N 
ATOM     28  C   UNL A   1      32.778  33.237  27.673  1.00  0.00     0.251 C 
ATOM     29  H   UNL A   1      31.294  32.233  26.745  1.00  0.00     0.163 HD
ATOM     30  O   UNL A   1      32.194  34.312  27.645  1.00  0.00    -0.269 OA
BRANCH  28  31
ATOM     31  C   UNL A   1      34.085  33.124  28.371  1.00  0.00     0.039 A 
ATOM     32  C   UNL A   1      34.116  32.592  29.663  1.00  0.00     0.014 A 
ATOM     33  C   UNL A   1      35.279  33.461  27.736  1.00  0.00     0.014 A 
ATOM     34  C   UNL A   1      35.343  32.286  30.260  1.00  0.00     0.010 A 
ATOM     35  C   UNL A   1      36.489  33.042  28.275  1.00  0.00     0.010 A 
ATOM     36  C   UNL A   1      36.538  32.444  29.540  1.00  0.00    -0.014 A 
BRANCH  36  37
ATOM     37  C   UNL A   1      37.850  31.982  30.066  1.00  0.00     0.031 A 
ATOM     38  C   UNL A   1      38.476  30.721  29.531  1.00  0.00     0.074 A 
ATOM     39  C   UNL A   1      38.425  32.629  31.101  1.00  0.00     0.049 A 
ATOM     40  N   UNL A   1      39.537  30.080  29.952  1.00  0.00    -0.248 NA
ATOM     41  C   UNL A   1      37.793  30.070  28.401  1.00  0.00     0.031 C 
ATOM     42  C   UNL A   1      37.896  33.826  31.760  1.00  0.00     0.029 A 
ATOM     43  N   UNL A   1      39.581  32.359  31.791  1.00  0.00    -0.354 N 
ATOM     44  C   UNL A   1      39.624  28.938  29.166  1.00  0.00     0.074 A 
ATOM     45  C   UNL A   1      38.479  28.943  28.283  1.00  0.00     0.031 C 
ATOM     46  C   UNL A   1      38.743  34.208  32.729  1.00  0.00     0.029 A 
ATOM     47  C   UNL A   1      39.848  33.258  32.795  1.00  0.00     0.049 A 
ATOM     48  H   UNL A   1      40.163  31.592  31.586  1.00  0.00     0.167 HD
ATOM     49  C   UNL A   1      40.582  27.982  29.157  1.00  0.00     0.031 A 
ATOM     50  C   UNL A   1      40.865  33.311  33.675  1.00  0.00     0.031 A 
ATOM     51  C   UNL A   1      41.742  27.994  30.006  1.00  0.00     0.049 A 
ATOM     52  C   UNL A   1      41.930  32.251  33.632  1.00  0.00     0.074 A 
ATOM     53  C   UNL A   1      42.808  27.112  30.024  1.00  0.00     0.029 A 
ATOM     54  N   UNL A   1      41.992  28.946  30.984  1.00  0.00    -0.354 N 
ATOM     55  N   UNL A   1      42.029  31.212  32.838  1.00  0.00    -0.248 NA
ATOM     56  C   UNL A   1      43.027  32.377  34.601  1.00  0.00     0.031 C 
ATOM     57  C   UNL A   1      43.685  27.507  31.038  1.00  0.00     0.029 A 
ATOM     58  C   UNL A   1      43.189  28.663  31.619  1.00  0.00     0.049 A 
ATOM     59  H   UNL A   1      41.405  29.708  31.193  1.00  0.00     0.167 HD
ATOM     60  C   UNL A   1      43.213  30.578  33.192  1.00  0.00     0.074 A 
ATOM     61  C   UNL A   1      43.803  31.357  34.261  1.00  0.00     0.031 C 
ATOM     62  C   UNL A   1      43.763  29.452  32.676  1.00  0.00     0.031 A 
BRANCH  49  63
ATOM     63  C   UNL A   1      40.414  26.845  28.189  1.00  0.00    -0.014 A 
ATOM     64  C   UNL A   1      40.988  26.889  26.909  1.00  0.00     0.009 A 
ATOM     65  C   UNL A   1      39.688  25.704  28.567  1.00  0.00     0.009 A 
ATOM     66  C   UNL A   1      40.801  25.835  26.011  1.00  0.00     0.001 A 
ATOM     67  C   UNL A   1      39.530  24.638  27.680  1.00  0.00     0.001 A 
ATOM     68  C   UNL A   1      40.077  24.709  26.399  1.00  0.00     0.000 A 
ENDBRANCH  49  63
BRANCH  50  69
ATOM     69  C   UNL A   1      40.946  34.424  34.657  1.00  0.00    -0.014 A 
ATOM     70  C   UNL A   1      40.255  34.340  35.877  1.00  0.00     0.009 A 
ATOM     71  C   UNL A   1      41.703  35.572  34.384  1.00  0.00     0.009 A 
ATOM     72  C   UNL A   1      40.300  35.396  36.789  1.00  0.00     0.001 A 
ATOM     73  C   UNL A   1      41.769  36.615  35.311  1.00  0.00     0.001 A 
ATOM     74  C   UNL A   1      41.060  36.531  36.508  1.00  0.00     0.000 A 
ENDBRANCH  50  69
BRANCH  62  75
ATOM     75  C   UNL A   1      45.088  29.018  33.234  1.00  0.00    -0.014 A 
ATOM     76  C   UNL A   1      45.167  28.123  34.312  1.00  0.00     0.009 A 
ATOM     77  C   UNL A   1      46.274  29.479  32.640  1.00  0.00     0.009 A 
ATOM     78  C   UNL A   1      46.411  27.722  34.803  1.00  0.00     0.001 A 
ATOM     79  C   UNL A   1      47.514  29.056  33.117  1.00  0.00     0.001 A 
ATOM     80  C   UNL A   1      47.582  28.184  34.203  1.00  0.00     0.000 A 
ENDBRANCH  62  75
ENDBRANCH  36  37
ENDBRANCH  28  31
ENDBRANCH  26  27
ENDBRANCH  25  26
ENDBRANCH  24  25
ENDBRANCH   3  24
TORSDOF 16
ENDMDL
MODEL 3
REMARK VINA RESULT:     -10.2      1.695      2.651
REMARK SMILES CC(C)[C@H](NC(=O)[C@H](C)NC(=O)C[NH3+])C(=O)NCCCNC(=O)c1ccc(-c2c3nc(c(-c4ccccc4)c4ccc([nH]4)c(-c4ccccc4)c4nc(c(-c5ccccc5)c5ccc2[nH]5)C=C4)C=C3)cc1
REMARK SMILES IDX 15 1 16 2 17 3 4 5 2 6 1 7 3 8 5 9 6 10 7 12 8 13 9 14 10 15
REMARK SMILES IDX 11 16 12 18 13 19 14 20 18 24 19 25 20 26 21 27 22 28 23 30
REMARK SMILES IDX 24 31 25 32 71 33 26 34 70 35 27 36 28 37 29 38 64 39 30 40
REMARK SMILES IDX 69 41 63 42 65 43 31 44 68 45 62 46 61 47 32 49 54 50 39 51
REMARK SMILES IDX 53 52 40 53 43 54 52 55 66 56 41 57 42 58 51 60 67 61 44 62
REMARK SMILES IDX 33 63 34 64 38 65 35 66 37 67 36 68 55 69 56 70 60 71 57 72
REMARK SMILES IDX 59 73 58 74 45 75 46 76 50 77 47 78 49 79 48 80
REMARK H PARENT 17 4 5 11 10 17 14 21 14 22 14 23 21 29 65 48 43 59
REMARK Flexibility Score: inf
ROOT
ATOM      1  C   UNL A   1      38.581  22.594  26.146  1.00  0.00     0.242 C 
ATOM      2  O   UNL A   1      38.927  23.504  26.906  1.00  0.00    -0.273 OA
ATOM      3  N   UNL A   1      39.557  21.718  25.780  1.00  0.00    -0.354 N 
ATOM      4  H   UNL A   1      40.454  22.098  25.639  1.00  0.00     0.163 HD
ENDROOT
BRANCH   1   5
ATOM      5  C   UNL A   1      37.129  22.536  25.574  1.00  0.00     0.173 C 
BRANCH   5   6
ATOM      6  C   UNL A   1      36.741  23.485  24.416  1.00  0.00     0.015 C 
ATOM      7  C   UNL A   1      36.523  22.829  23.055  1.00  0.00     0.010 C 
ATOM      8  C   UNL A   1      35.523  24.344  24.786  1.00  0.00     0.010 C 
ENDBRANCH   5   6
BRANCH   5   9
ATOM      9  N   UNL A   1      36.010  22.197  26.475  1.00  0.00    -0.342 N 
ATOM     10  C   UNL A   1      34.911  21.416  26.531  1.00  0.00     0.242 C 
ATOM     11  H   UNL A   1      36.092  22.711  27.310  1.00  0.00     0.164 HD
ATOM     12  O   UNL A   1      34.308  21.528  27.614  1.00  0.00    -0.273 OA
BRANCH  10  13
ATOM     13  C   UNL A   1      34.231  20.623  25.371  1.00  0.00     0.168 C 
ATOM     14  C   UNL A   1      33.359  21.620  24.585  1.00  0.00     0.041 C 
BRANCH  13  15
ATOM     15  N   UNL A   1      33.395  19.469  25.672  1.00  0.00    -0.340 N 
ATOM     16  C   UNL A   1      32.808  18.515  24.900  1.00  0.00     0.275 C 
ATOM     17  H   UNL A   1      33.217  19.355  26.633  1.00  0.00     0.164 HD
ATOM     18  O   UNL A   1      32.023  17.750  25.471  1.00  0.00    -0.268 OA
BRANCH  16  19
ATOM     19  C   UNL A   1      33.158  18.271  23.431  1.00  0.00     0.360 C 
BRANCH  19  20
ATOM     20  N   UNL A   1      32.000  17.995  22.570  1.00  0.00    -0.350 N 
ATOM     21  H   UNL A   1      31.279  18.697  22.733  1.00  0.00     0.344 HD
ATOM     22  H   UNL A   1      31.630  17.069  22.783  1.00  0.00     0.344 HD
ATOM     23  H   UNL A   1      32.290  18.027  21.592  1.00  0.00     0.344 HD
ENDBRANCH  19  20
ENDBRANCH  16  19
ENDBRANCH  13  15
ENDBRANCH  10  13
ENDBRANCH   5   9
ENDBRANCH   1   5
BRANCH   3  24
ATOM     24  C   UNL A   1      39.425  20.299  25.578  1.00  0.00     0.117 C 
BRANCH  24  25
ATOM     25  C   UNL A   1      40.541  19.464  26.175  1.00  0.00     0.042 C 
BRANCH  25  26
ATOM     26  C   UNL A   1      41.908  20.103  25.980  1.00  0.00     0.118 C 
BRANCH  26  27
ATOM     27  N   UNL A   1      42.881  19.348  25.202  1.00  0.00    -0.352 N 
ATOM     28  C   UNL A   1      44.142  19.740  24.787  1.00  0.00     0.251 C 
ATOM     29  H   UNL A   1      42.606  18.441  24.937  1.00  0.00     0.163 HD
ATOM     30  O   UNL A   1      44.857  18.966  24.164  1.00  0.00    -0.269 OA
BRANCH  28  31
ATOM     31  C   UNL A   1      44.600  21.132  25.035  1.00  0.00     0.039 A 
ATOM     32  C   UNL A   1      44.260  22.127  24.115  1.00  0.00     0.014 A 
ATOM     33  C   UNL A   1      45.288  21.474  26.198  1.00  0.00     0.014 A 
ATOM     34  C   UNL A   1      44.499  23.471  24.423  1.00  0.00     0.010 A 
ATOM     35  C   UNL A   1      45.410  22.810  26.558  1.00  0.00     0.010 A 
ATOM     36  C   UNL A   1      45.012  23.826  25.680  1.00  0.00    -0.014 A 
BRANCH  36  37
ATOM     37  C   UNL A   1      45.132  25.242  26.118  1.00  0.00     0.031 A 
ATOM     38  C   UNL A   1      46.466  25.940  26.062  1.00  0.00     0.074 A 
ATOM     39  C   UNL A   1      44.072  25.866  26.673  1.00  0.00     0.049 A 
ATOM     40  N   UNL A   1      46.805  27.116  26.526  1.00  0.00    -0.248 NA
ATOM     41  C   UNL A   1      47.576  25.197  25.444  1.00  0.00     0.031 C 
ATOM     42  C   UNL A   1      42.737  25.288  26.849  1.00  0.00     0.029 A 
ATOM     43  N   UNL A   1      43.956  27.127  27.204  1.00  0.00    -0.354 N 
ATOM     44  C   UNL A   1      48.168  27.235  26.288  1.00  0.00     0.074 A 
ATOM     45  C   UNL A   1      48.606  25.992  25.693  1.00  0.00     0.031 C 
ATOM     46  C   UNL A   1      41.930  26.203  27.410  1.00  0.00     0.029 A 
ATOM     47  C   UNL A   1      42.699  27.413  27.678  1.00  0.00     0.049 A 
ATOM     48  H   UNL A   1      44.705  27.765  27.243  1.00  0.00     0.167 HD
ATOM     49  C   UNL A   1      48.983  28.292  26.517  1.00  0.00     0.031 A 
ATOM     50  C   UNL A   1      42.217  28.524  28.267  1.00  0.00     0.031 A 
ATOM     51  C   UNL A   1      48.544  29.544  27.072  1.00  0.00     0.049 A 
ATOM     52  C   UNL A   1      43.134  29.693  28.491  1.00  0.00     0.074 A 
ATOM     53  C   UNL A   1      49.275  30.701  27.275  1.00  0.00     0.029 A 
ATOM     54  N   UNL A   1      47.251  29.804  27.502  1.00  0.00    -0.354 N 
ATOM     55  N   UNL A   1      44.408  29.812  28.201  1.00  0.00    -0.248 NA
ATOM     56  C   UNL A   1      42.544  30.885  29.116  1.00  0.00     0.031 C 
ATOM     57  C   UNL A   1      48.434  31.650  27.865  1.00  0.00     0.029 A 
ATOM     58  C   UNL A   1      47.168  31.099  27.983  1.00  0.00     0.049 A 
ATOM     59  H   UNL A   1      46.505  29.162  27.470  1.00  0.00     0.167 HD
ATOM     60  C   UNL A   1      44.763  31.099  28.581  1.00  0.00     0.074 A 
ATOM     61  C   UNL A   1      43.569  31.727  29.108  1.00  0.00     0.031 C 
ATOM     62  C   UNL A   1      45.971  31.708  28.498  1.00  0.00     0.031 A 
BRANCH  49  63
ATOM     63  C   UNL A   1      50.434  28.136  26.159  1.00  0.00    -0.014 A 
ATOM     64  C   UNL A   1      51.368  27.667  27.096  1.00  0.00     0.009 A 
ATOM     65  C   UNL A   1      50.872  28.442  24.861  1.00  0.00     0.009 A 
ATOM     66  C   UNL A   1      52.717  27.551  26.755  1.00  0.00     0.001 A 
ATOM     67  C   UNL A   1      52.216  28.295  24.513  1.00  0.00     0.001 A 
ATOM     68  C   UNL A   1      53.139  27.860  25.463  1.00  0.00     0.000 A 
ENDBRANCH  49  63
BRANCH  50  69
ATOM     69  C   UNL A   1      40.787  28.599  28.663  1.00  0.00    -0.014 A 
ATOM     70  C   UNL A   1      39.844  29.178  27.798  1.00  0.00     0.009 A 
ATOM     71  C   UNL A   1      40.354  28.103  29.902  1.00  0.00     0.009 A 
ATOM     72  C   UNL A   1      38.504  29.282  28.177  1.00  0.00     0.001 A 
ATOM     73  C   UNL A   1      39.009  28.183  30.267  1.00  0.00     0.001 A 
ATOM     74  C   UNL A   1      38.087  28.781  29.409  1.00  0.00     0.000 A 
ENDBRANCH  50  69
BRANCH  62  75
ATOM     75  C   UNL A   1      46.052  33.137  28.952  1.00  0.00    -0.014 A 
ATOM     76  C   UNL A   1      45.902  34.199  28.047  1.00  0.00     0.009 A 
ATOM     77  C   UNL A   1      46.237  33.422  30.314  1.00  0.00     0.009 A 
ATOM     78  C   UNL A   1      45.967  35.520  28.495  1.00  0.00     0.001 A 
ATOM     79  C   UNL A   1      46.274  34.742  30.762  1.00  0.00     0.001 A 
ATOM     80  C   UNL A   1      46.147  35.790  29.851  1.00  0.00     0.000 A 
ENDBRANCH  62  75
ENDBRANCH  36  37
ENDBRANCH  28  31
ENDBRANCH  26  27
ENDBRANCH  25  26
ENDBRANCH  24  25
ENDBRANCH   3  24
TORSDOF 16
ENDMDL
