MODEL 1
REMARK VINA RESULT:     -12.0      0.000      0.000
REMARK SMILES Cn1c(=O)c2c(nc(Nc3cccc(Cl)c3Cl)n2CC(=O)NCCCNC(=O)c2ccc(-c3c4nc(c(-c5ccccc5)c5ccc([nH]5)c(-c5ccccc5)c5nc(c(-c6ccccc6)c6ccc3[nH]6)C=C5)C=C4)cc2)n(C)c1=O
REMARK SMILES IDX 23 1 22 2 20 3 21 4 19 6 18 7 1 8 2 9 3 10 79 11 4 12 5 13
REMARK SMILES IDX 77 14 80 15 6 16 78 17 7 18 8 19 9 20 10 22 11 23 16 24
REMARK SMILES IDX 12 25 14 26 17 27 13 28 15 29 24 30 25 31 26 32 27 33 28 35
REMARK SMILES IDX 29 36 30 37 76 38 31 39 75 40 32 41 33 42 34 43 69 44 35 45
REMARK SMILES IDX 74 46 68 47 70 48 36 49 73 50 67 51 66 52 37 54 59 55 44 56
REMARK SMILES IDX 58 57 45 58 48 59 57 60 71 61 46 62 47 63 56 65 72 66 49 67
REMARK SMILES IDX 38 68 39 69 43 70 40 71 42 72 41 73 60 74 61 75 65 76 62 77
REMARK SMILES IDX 64 78 63 79 50 80 51 81 55 82 52 83 54 84 53 85
REMARK H PARENT 22 5 9 21 26 34 70 53 48 64
REMARK Flexibility Score: inf
ROOT
ATOM      1  C   UNL A   1      46.200  25.896  28.168  1.00  0.00     0.117 C 
ENDROOT
BRANCH   1   2
ATOM      2  N   UNL A   1      46.024  26.255  26.779  1.00  0.00    -0.354 N 
ATOM      3  C   UNL A   1      45.821  25.436  25.705  1.00  0.00     0.240 C 
ATOM      4  O   UNL A   1      45.486  25.979  24.650  1.00  0.00    -0.273 OA
ATOM      5  H   UNL A   1      46.056  27.219  26.580  1.00  0.00     0.163 HD
BRANCH   3   6
ATOM      6  C   UNL A   1      45.865  23.923  25.850  1.00  0.00     0.226 C 
BRANCH   6   7
ATOM      7  N   UNL A   1      44.575  23.253  25.924  1.00  0.00    -0.295 N 
ATOM      8  C   UNL A   1      45.615  18.486  24.988  1.00  0.00     0.159 C 
ATOM      9  N   UNL A   1      44.733  19.585  25.335  1.00  0.00    -0.261 N 
ATOM     10  C   UNL A   1      45.324  20.856  25.369  1.00  0.00     0.282 A 
ATOM     11  C   UNL A   1      43.380  19.304  25.586  1.00  0.00     0.332 A 
ATOM     12  O   UNL A   1      46.500  21.057  25.111  1.00  0.00    -0.267 OA
ATOM     13  C   UNL A   1      44.409  21.894  25.722  1.00  0.00     0.154 A 
ATOM     14  N   UNL A   1      42.553  20.389  25.882  1.00  0.00    -0.279 N 
ATOM     15  O   UNL A   1      42.943  18.151  25.548  1.00  0.00    -0.247 OA
ATOM     16  C   UNL A   1      43.093  21.653  25.940  1.00  0.00     0.170 A 
ATOM     17  C   UNL A   1      41.136  20.188  26.125  1.00  0.00     0.157 C 
ATOM     18  N   UNL A   1      42.415  22.790  26.213  1.00  0.00    -0.194 NA
ATOM     19  C   UNL A   1      43.297  23.772  26.145  1.00  0.00     0.210 A 
BRANCH  19  20
ATOM     20  N   UNL A   1      42.899  25.047  26.382  1.00  0.00    -0.324 N 
ATOM     21  H   UNL A   1      43.616  25.706  26.235  1.00  0.00     0.170 HD
BRANCH  20  22
ATOM     22  C   UNL A   1      41.689  25.634  26.792  1.00  0.00     0.061 A 
ATOM     23  C   UNL A   1      40.836  24.835  27.585  1.00  0.00     0.028 A 
ATOM     24  C   UNL A   1      41.287  26.950  26.493  1.00  0.00     0.083 A 
ATOM     25  C   UNL A   1      39.705  25.369  28.196  1.00  0.00     0.004 A 
ATOM     26  C   UNL A   1      40.144  27.485  27.112  1.00  0.00     0.061 A 
ATOM     27  Cl  UNL A   1      42.206  27.891  25.359  1.00  0.00    -0.080 Cl
ATOM     28  C   UNL A   1      39.375  26.703  27.980  1.00  0.00     0.022 A 
ATOM     29  Cl  UNL A   1      39.650  29.126  26.885  1.00  0.00    -0.083 Cl
ENDBRANCH  20  22
ENDBRANCH  19  20
ENDBRANCH   6   7
ENDBRANCH   3   6
ENDBRANCH   1   2
BRANCH   1  30
ATOM     30  C   UNL A   1      47.121  26.841  28.933  1.00  0.00     0.042 C 
BRANCH  30  31
ATOM     31  C   UNL A   1      46.773  26.886  30.407  1.00  0.00     0.118 C 
BRANCH  31  32
ATOM     32  N   UNL A   1      46.202  25.629  30.887  1.00  0.00    -0.352 N 
ATOM     33  C   UNL A   1      44.986  25.432  31.507  1.00  0.00     0.251 C 
ATOM     34  H   UNL A   1      46.753  24.824  30.751  1.00  0.00     0.163 HD
ATOM     35  O   UNL A   1      44.776  24.417  32.160  1.00  0.00    -0.269 OA
BRANCH  33  36
ATOM     36  C   UNL A   1      43.944  26.467  31.376  1.00  0.00     0.039 A 
ATOM     37  C   UNL A   1      43.690  27.361  32.418  1.00  0.00     0.014 A 
ATOM     38  C   UNL A   1      43.229  26.545  30.182  1.00  0.00     0.014 A 
ATOM     39  C   UNL A   1      42.765  28.381  32.212  1.00  0.00     0.010 A 
ATOM     40  C   UNL A   1      42.435  27.634  29.924  1.00  0.00     0.010 A 
ATOM     41  C   UNL A   1      42.160  28.526  30.950  1.00  0.00    -0.014 A 
BRANCH  41  42
ATOM     42  C   UNL A   1      41.368  29.711  30.643  1.00  0.00     0.031 A 
ATOM     43  C   UNL A   1      42.200  30.871  30.233  1.00  0.00     0.074 A 
ATOM     44  C   UNL A   1      40.021  29.717  30.537  1.00  0.00     0.049 A 
ATOM     45  N   UNL A   1      42.446  31.932  30.926  1.00  0.00    -0.248 NA
ATOM     46  C   UNL A   1      43.001  30.765  29.000  1.00  0.00     0.031 C 
ATOM     47  C   UNL A   1      39.103  28.572  30.606  1.00  0.00     0.029 A 
ATOM     48  N   UNL A   1      39.182  30.747  30.238  1.00  0.00    -0.354 N 
ATOM     49  C   UNL A   1      43.234  32.737  30.113  1.00  0.00     0.074 A 
ATOM     50  C   UNL A   1      43.716  31.891  29.052  1.00  0.00     0.031 C 
ATOM     51  C   UNL A   1      37.890  28.929  30.123  1.00  0.00     0.029 A 
ATOM     52  C   UNL A   1      37.892  30.360  29.879  1.00  0.00     0.049 A 
ATOM     53  H   UNL A   1      39.464  31.690  30.275  1.00  0.00     0.167 HD
ATOM     54  C   UNL A   1      43.157  34.094  30.202  1.00  0.00     0.031 A 
ATOM     55  C   UNL A   1      36.904  31.159  29.401  1.00  0.00     0.031 A 
ATOM     56  C   UNL A   1      42.491  34.498  31.416  1.00  0.00     0.049 A 
ATOM     57  C   UNL A   1      37.249  32.542  29.793  1.00  0.00     0.074 A 
ATOM     58  C   UNL A   1      42.712  34.325  32.767  1.00  0.00     0.029 A 
ATOM     59  N   UNL A   1      41.168  34.844  31.279  1.00  0.00    -0.354 N 
ATOM     60  N   UNL A   1      37.263  32.960  31.024  1.00  0.00    -0.248 NA
ATOM     61  C   UNL A   1      37.983  33.356  28.841  1.00  0.00     0.031 C 
ATOM     62  C   UNL A   1      41.416  34.161  33.336  1.00  0.00     0.029 A 
ATOM     63  C   UNL A   1      40.463  34.323  32.327  1.00  0.00     0.049 A 
ATOM     64  H   UNL A   1      40.790  35.378  30.544  1.00  0.00     0.167 HD
ATOM     65  C   UNL A   1      38.361  33.803  31.088  1.00  0.00     0.074 A 
ATOM     66  C   UNL A   1      38.685  34.107  29.694  1.00  0.00     0.031 C 
ATOM     67  C   UNL A   1      39.073  33.931  32.245  1.00  0.00     0.031 A 
BRANCH  54  68
ATOM     68  C   UNL A   1      43.202  35.004  28.993  1.00  0.00    -0.014 A 
ATOM     69  C   UNL A   1      44.360  35.774  28.780  1.00  0.00     0.009 A 
ATOM     70  C   UNL A   1      42.062  35.364  28.248  1.00  0.00     0.009 A 
ATOM     71  C   UNL A   1      44.350  36.889  27.932  1.00  0.00     0.001 A 
ATOM     72  C   UNL A   1      42.060  36.449  27.368  1.00  0.00     0.001 A 
ATOM     73  C   UNL A   1      43.198  37.229  27.232  1.00  0.00     0.000 A 
ENDBRANCH  54  68
BRANCH  55  74
ATOM     74  C   UNL A   1      35.841  30.888  28.405  1.00  0.00    -0.014 A 
ATOM     75  C   UNL A   1      35.810  29.660  27.719  1.00  0.00     0.009 A 
ATOM     76  C   UNL A   1      34.683  31.684  28.361  1.00  0.00     0.009 A 
ATOM     77  C   UNL A   1      34.646  29.216  27.073  1.00  0.00     0.001 A 
ATOM     78  C   UNL A   1      33.522  31.244  27.712  1.00  0.00     0.001 A 
ATOM     79  C   UNL A   1      33.497  30.001  27.087  1.00  0.00     0.000 A 
ENDBRANCH  55  74
BRANCH  67  80
ATOM     80  C   UNL A   1      38.457  33.422  33.526  1.00  0.00    -0.014 A 
ATOM     81  C   UNL A   1      38.378  32.062  33.870  1.00  0.00     0.009 A 
ATOM     82  C   UNL A   1      38.120  34.378  34.495  1.00  0.00     0.009 A 
ATOM     83  C   UNL A   1      37.975  31.677  35.155  1.00  0.00     0.001 A 
ATOM     84  C   UNL A   1      37.742  33.995  35.782  1.00  0.00     0.001 A 
ATOM     85  C   UNL A   1      37.671  32.644  36.113  1.00  0.00     0.000 A 
ENDBRANCH  67  80
ENDBRANCH  41  42
ENDBRANCH  33  36
ENDBRANCH  31  32
ENDBRANCH  30  31
ENDBRANCH   1  30
TORSDOF 13
ENDMDL
MODEL 2
REMARK VINA RESULT:     -11.9      4.029     11.738
REMARK SMILES Cn1c(=O)c2c(nc(Nc3cccc(Cl)c3Cl)n2CC(=O)NCCCNC(=O)c2ccc(-c3c4nc(c(-c5ccccc5)c5ccc([nH]5)c(-c5ccccc5)c5nc(c(-c6ccccc6)c6ccc3[nH]6)C=C5)C=C4)cc2)n(C)c1=O
REMARK SMILES IDX 23 1 22 2 20 3 21 4 19 6 18 7 1 8 2 9 3 10 79 11 4 12 5 13
REMARK SMILES IDX 77 14 80 15 6 16 78 17 7 18 8 19 9 20 10 22 11 23 16 24
REMARK SMILES IDX 12 25 14 26 17 27 13 28 15 29 24 30 25 31 26 32 27 33 28 35
REMARK SMILES IDX 29 36 30 37 76 38 31 39 75 40 32 41 33 42 34 43 69 44 35 45
REMARK SMILES IDX 74 46 68 47 70 48 36 49 73 50 67 51 66 52 37 54 59 55 44 56
REMARK SMILES IDX 58 57 45 58 48 59 57 60 71 61 46 62 47 63 56 65 72 66 49 67
REMARK SMILES IDX 38 68 39 69 43 70 40 71 42 72 41 73 60 74 61 75 65 76 62 77
REMARK SMILES IDX 64 78 63 79 50 80 51 81 55 82 52 83 54 84 53 85
REMARK H PARENT 22 5 9 21 26 34 70 53 48 64
REMARK Flexibility Score: inf
ROOT
ATOM      1  C   UNL A   1      39.186  32.235  33.922  1.00  0.00     0.117 C 
ENDROOT
BRANCH   1   2
ATOM      2  N   UNL A   1      37.964  32.403  34.674  1.00  0.00    -0.354 N 
ATOM      3  C   UNL A   1      36.914  33.240  34.422  1.00  0.00     0.240 C 
ATOM      4  O   UNL A   1      35.889  33.057  35.082  1.00  0.00    -0.273 OA
ATOM      5  H   UNL A   1      37.876  31.839  35.477  1.00  0.00     0.163 HD
BRANCH   3   6
ATOM      6  C   UNL A   1      36.967  34.247  33.284  1.00  0.00     0.226 C 
BRANCH   6   7
ATOM      7  N   UNL A   1      36.173  33.921  32.108  1.00  0.00    -0.295 N 
ATOM      8  C   UNL A   1      32.913  37.653  31.759  1.00  0.00     0.159 C 
ATOM      9  N   UNL A   1      33.542  36.425  31.311  1.00  0.00    -0.261 N 
ATOM     10  C   UNL A   1      34.549  35.916  32.142  1.00  0.00     0.282 A 
ATOM     11  C   UNL A   1      33.092  35.839  30.116  1.00  0.00     0.332 A 
ATOM     12  O   UNL A   1      34.885  36.442  33.191  1.00  0.00    -0.267 OA
ATOM     13  C   UNL A   1      35.134  34.711  31.647  1.00  0.00     0.154 A 
ATOM     14  N   UNL A   1      33.695  34.639  29.734  1.00  0.00    -0.279 N 
ATOM     15  O   UNL A   1      32.207  36.362  29.435  1.00  0.00    -0.247 OA
ATOM     16  C   UNL A   1      34.698  34.110  30.513  1.00  0.00     0.170 A 
ATOM     17  C   UNL A   1      33.268  33.955  28.528  1.00  0.00     0.157 C 
ATOM     18  N   UNL A   1      35.367  32.962  30.266  1.00  0.00    -0.194 NA
ATOM     19  C   UNL A   1      36.221  32.810  31.264  1.00  0.00     0.210 A 
BRANCH  19  20
ATOM     20  N   UNL A   1      37.043  31.731  31.282  1.00  0.00    -0.324 N 
ATOM     21  H   UNL A   1      37.603  31.690  32.091  1.00  0.00     0.170 HD
BRANCH  20  22
ATOM     22  C   UNL A   1      37.272  30.660  30.400  1.00  0.00     0.061 A 
ATOM     23  C   UNL A   1      37.075  30.920  29.027  1.00  0.00     0.028 A 
ATOM     24  C   UNL A   1      37.702  29.375  30.784  1.00  0.00     0.083 A 
ATOM     25  C   UNL A   1      37.445  29.994  28.054  1.00  0.00     0.004 A 
ATOM     26  C   UNL A   1      38.075  28.444  29.799  1.00  0.00     0.061 A 
ATOM     27  Cl  UNL A   1      37.760  28.957  32.469  1.00  0.00    -0.080 Cl
ATOM     28  C   UNL A   1      37.971  28.767  28.442  1.00  0.00     0.022 A 
ATOM     29  Cl  UNL A   1      38.718  26.888  30.191  1.00  0.00    -0.083 Cl
ENDBRANCH  20  22
ENDBRANCH  19  20
ENDBRANCH   6   7
ENDBRANCH   3   6
ENDBRANCH   1   2
BRANCH   1  30
ATOM     30  C   UNL A   1      40.259  33.267  34.257  1.00  0.00     0.042 C 
BRANCH  30  31
ATOM     31  C   UNL A   1      41.403  33.223  33.264  1.00  0.00     0.118 C 
BRANCH  31  32
ATOM     32  N   UNL A   1      41.193  34.119  32.128  1.00  0.00    -0.352 N 
ATOM     33  C   UNL A   1      41.535  33.909  30.808  1.00  0.00     0.251 C 
ATOM     34  H   UNL A   1      40.755  34.977  32.329  1.00  0.00     0.163 HD
ATOM     35  O   UNL A   1      41.625  34.851  30.030  1.00  0.00    -0.269 OA
BRANCH  33  36
ATOM     36  C   UNL A   1      41.797  32.532  30.351  1.00  0.00     0.039 A 
ATOM     37  C   UNL A   1      43.078  32.144  29.952  1.00  0.00     0.014 A 
ATOM     38  C   UNL A   1      40.742  31.621  30.342  1.00  0.00     0.014 A 
ATOM     39  C   UNL A   1      43.297  30.810  29.621  1.00  0.00     0.010 A 
ATOM     40  C   UNL A   1      40.989  30.283  30.165  1.00  0.00     0.010 A 
ATOM     41  C   UNL A   1      42.251  29.878  29.755  1.00  0.00    -0.014 A 
BRANCH  41  42
ATOM     42  C   UNL A   1      42.515  28.449  29.634  1.00  0.00     0.031 A 
ATOM     43  C   UNL A   1      43.189  27.883  30.831  1.00  0.00     0.074 A 
ATOM     44  C   UNL A   1      42.026  27.669  28.646  1.00  0.00     0.049 A 
ATOM     45  N   UNL A   1      44.420  27.508  30.921  1.00  0.00    -0.248 NA
ATOM     46  C   UNL A   1      42.477  27.911  32.121  1.00  0.00     0.031 C 
ATOM     47  C   UNL A   1      41.087  28.042  27.579  1.00  0.00     0.029 A 
ATOM     48  N   UNL A   1      42.185  26.332  28.441  1.00  0.00    -0.354 N 
ATOM     49  C   UNL A   1      44.571  27.021  32.214  1.00  0.00     0.074 A 
ATOM     50  C   UNL A   1      43.430  27.489  32.956  1.00  0.00     0.031 C 
ATOM     51  C   UNL A   1      40.583  26.925  27.004  1.00  0.00     0.029 A 
ATOM     52  C   UNL A   1      41.288  25.773  27.533  1.00  0.00     0.049 A 
ATOM     53  H   UNL A   1      42.879  25.803  28.897  1.00  0.00     0.167 HD
ATOM     54  C   UNL A   1      45.448  26.012  32.473  1.00  0.00     0.031 A 
ATOM     55  C   UNL A   1      41.130  24.455  27.250  1.00  0.00     0.031 A 
ATOM     56  C   UNL A   1      46.371  25.831  31.380  1.00  0.00     0.049 A 
ATOM     57  C   UNL A   1      42.372  23.776  27.675  1.00  0.00     0.074 A 
ATOM     58  C   UNL A   1      47.311  26.614  30.743  1.00  0.00     0.029 A 
ATOM     59  N   UNL A   1      46.076  24.800  30.520  1.00  0.00    -0.354 N 
ATOM     60  N   UNL A   1      43.526  23.962  27.106  1.00  0.00    -0.248 NA
ATOM     61  C   UNL A   1      42.410  23.197  29.006  1.00  0.00     0.031 C 
ATOM     62  C   UNL A   1      47.223  26.254  29.367  1.00  0.00     0.029 A 
ATOM     63  C   UNL A   1      46.297  25.216  29.237  1.00  0.00     0.049 A 
ATOM     64  H   UNL A   1      45.757  23.908  30.785  1.00  0.00     0.167 HD
ATOM     65  C   UNL A   1      44.430  23.963  28.156  1.00  0.00     0.074 A 
ATOM     66  C   UNL A   1      43.708  23.363  29.277  1.00  0.00     0.031 C 
ATOM     67  C   UNL A   1      45.567  24.715  28.093  1.00  0.00     0.031 A 
BRANCH  54  68
ATOM     68  C   UNL A   1      45.146  24.885  33.438  1.00  0.00    -0.014 A 
ATOM     69  C   UNL A   1      44.310  23.840  33.004  1.00  0.00     0.009 A 
ATOM     70  C   UNL A   1      45.387  24.962  34.824  1.00  0.00     0.009 A 
ATOM     71  C   UNL A   1      43.688  22.976  33.914  1.00  0.00     0.001 A 
ATOM     72  C   UNL A   1      44.802  24.076  35.731  1.00  0.00     0.001 A 
ATOM     73  C   UNL A   1      43.929  23.099  35.278  1.00  0.00     0.000 A 
ENDBRANCH  54  68
BRANCH  55  74
ATOM     74  C   UNL A   1      39.912  23.680  26.909  1.00  0.00    -0.014 A 
ATOM     75  C   UNL A   1      38.697  24.345  26.660  1.00  0.00     0.009 A 
ATOM     76  C   UNL A   1      40.009  22.335  26.510  1.00  0.00     0.009 A 
ATOM     77  C   UNL A   1      37.647  23.711  25.979  1.00  0.00     0.001 A 
ATOM     78  C   UNL A   1      38.959  21.700  25.835  1.00  0.00     0.001 A 
ATOM     79  C   UNL A   1      37.787  22.394  25.550  1.00  0.00     0.000 A 
ENDBRANCH  55  74
BRANCH  67  80
ATOM     80  C   UNL A   1      45.992  25.263  26.752  1.00  0.00    -0.014 A 
ATOM     81  C   UNL A   1      45.513  26.469  26.212  1.00  0.00     0.009 A 
ATOM     82  C   UNL A   1      47.059  24.618  26.108  1.00  0.00     0.009 A 
ATOM     83  C   UNL A   1      46.097  27.011  25.060  1.00  0.00     0.001 A 
ATOM     84  C   UNL A   1      47.654  25.170  24.975  1.00  0.00     0.001 A 
ATOM     85  C   UNL A   1      47.174  26.368  24.451  1.00  0.00     0.000 A 
ENDBRANCH  67  80
ENDBRANCH  41  42
ENDBRANCH  33  36
ENDBRANCH  31  32
ENDBRANCH  30  31
ENDBRANCH   1  30
TORSDOF 13
ENDMDL
MODEL 3
REMARK VINA RESULT:     -11.9      4.000     11.870
REMARK SMILES Cn1c(=O)c2c(nc(Nc3cccc(Cl)c3Cl)n2CC(=O)NCCCNC(=O)c2ccc(-c3c4nc(c(-c5ccccc5)c5ccc([nH]5)c(-c5ccccc5)c5nc(c(-c6ccccc6)c6ccc3[nH]6)C=C5)C=C4)cc2)n(C)c1=O
REMARK SMILES IDX 23 1 22 2 20 3 21 4 19 6 18 7 1 8 2 9 3 10 79 11 4 12 5 13
REMARK SMILES IDX 77 14 80 15 6 16 78 17 7 18 8 19 9 20 10 22 11 23 16 24
REMARK SMILES IDX 12 25 14 26 17 27 13 28 15 29 24 30 25 31 26 32 27 33 28 35
REMARK SMILES IDX 29 36 30 37 76 38 31 39 75 40 32 41 33 42 34 43 69 44 35 45
REMARK SMILES IDX 74 46 68 47 70 48 36 49 73 50 67 51 66 52 37 54 59 55 44 56
REMARK SMILES IDX 58 57 45 58 48 59 57 60 71 61 46 62 47 63 56 65 72 66 49 67
REMARK SMILES IDX 38 68 39 69 43 70 40 71 42 72 41 73 60 74 61 75 65 76 62 77
REMARK SMILES IDX 64 78 63 79 50 80 51 81 55 82 52 83 54 84 53 85
REMARK H PARENT 22 5 9 21 26 34 70 53 48 64
REMARK Flexibility Score: inf
ROOT
ATOM      1  C   UNL A   1      37.899  33.140  32.639  1.00  0.00     0.117 C 
ENDROOT
BRANCH   1   2
ATOM      2  N   UNL A   1      37.802  31.994  31.764  1.00  0.00    -0.354 N 
ATOM      3  C   UNL A   1      36.685  31.428  31.219  1.00  0.00     0.240 C 
ATOM      4  O   UNL A   1      36.865  30.588  30.334  1.00  0.00    -0.273 OA
ATOM      5  H   UNL A   1      38.656  31.562  31.530  1.00  0.00     0.163 HD
BRANCH   3   6
ATOM      6  C   UNL A   1      35.295  31.919  31.587  1.00  0.00     0.226 C 
BRANCH   6   7
ATOM      7  N   UNL A   1      34.715  32.916  30.698  1.00  0.00    -0.295 N 
ATOM      8  C   UNL A   1      33.706  36.769  33.667  1.00  0.00     0.159 C 
ATOM      9  N   UNL A   1      33.779  36.094  32.385  1.00  0.00    -0.261 N 
ATOM     10  C   UNL A   1      34.231  34.768  32.415  1.00  0.00     0.282 A 
ATOM     11  C   UNL A   1      33.380  36.797  31.236  1.00  0.00     0.332 A 
ATOM     12  O   UNL A   1      34.535  34.186  33.445  1.00  0.00    -0.267 OA
ATOM     13  C   UNL A   1      34.286  34.160  31.124  1.00  0.00     0.154 A 
ATOM     14  N   UNL A   1      33.429  36.106  30.023  1.00  0.00    -0.279 N 
ATOM     15  O   UNL A   1      33.007  37.972  31.294  1.00  0.00    -0.247 OA
ATOM     16  C   UNL A   1      33.879  34.807  30.004  1.00  0.00     0.170 A 
ATOM     17  C   UNL A   1      33.007  36.751  28.793  1.00  0.00     0.157 C 
ATOM     18  N   UNL A   1      33.979  34.021  28.909  1.00  0.00    -0.194 NA
ATOM     19  C   UNL A   1      34.428  32.852  29.333  1.00  0.00     0.210 A 
BRANCH  19  20
ATOM     20  N   UNL A   1      34.634  31.851  28.441  1.00  0.00    -0.324 N 
ATOM     21  H   UNL A   1      35.582  31.598  28.361  1.00  0.00     0.170 HD
BRANCH  20  22
ATOM     22  C   UNL A   1      33.792  31.097  27.603  1.00  0.00     0.061 A 
ATOM     23  C   UNL A   1      32.517  31.641  27.336  1.00  0.00     0.028 A 
ATOM     24  C   UNL A   1      34.136  29.871  27.004  1.00  0.00     0.083 A 
ATOM     25  C   UNL A   1      31.674  31.076  26.382  1.00  0.00     0.004 A 
ATOM     26  C   UNL A   1      33.283  29.304  26.041  1.00  0.00     0.061 A 
ATOM     27  Cl  UNL A   1      35.608  29.073  27.466  1.00  0.00    -0.080 Cl
ATOM     28  C   UNL A   1      32.071  29.923  25.715  1.00  0.00     0.022 A 
ATOM     29  Cl  UNL A   1      33.688  27.862  25.179  1.00  0.00    -0.083 Cl
ENDBRANCH  20  22
ENDBRANCH  19  20
ENDBRANCH   6   7
ENDBRANCH   3   6
ENDBRANCH   1   2
BRANCH   1  30
ATOM     30  C   UNL A   1      39.006  33.022  33.683  1.00  0.00     0.042 C 
BRANCH  30  31
ATOM     31  C   UNL A   1      40.378  33.158  33.056  1.00  0.00     0.118 C 
BRANCH  31  32
ATOM     32  N   UNL A   1      40.387  34.076  31.918  1.00  0.00    -0.352 N 
ATOM     33  C   UNL A   1      40.992  33.899  30.691  1.00  0.00     0.251 C 
ATOM     34  H   UNL A   1      39.901  34.923  32.042  1.00  0.00     0.163 HD
ATOM     35  O   UNL A   1      41.220  34.859  29.965  1.00  0.00    -0.269 OA
BRANCH  33  36
ATOM     36  C   UNL A   1      41.366  32.537  30.271  1.00  0.00     0.039 A 
ATOM     37  C   UNL A   1      42.708  32.160  30.182  1.00  0.00     0.014 A 
ATOM     38  C   UNL A   1      40.351  31.627  29.982  1.00  0.00     0.014 A 
ATOM     39  C   UNL A   1      43.010  30.836  29.874  1.00  0.00     0.010 A 
ATOM     40  C   UNL A   1      40.642  30.294  29.831  1.00  0.00     0.010 A 
ATOM     41  C   UNL A   1      41.969  29.902  29.726  1.00  0.00    -0.014 A 
BRANCH  41  42
ATOM     42  C   UNL A   1      42.264  28.476  29.631  1.00  0.00     0.031 A 
ATOM     43  C   UNL A   1      42.919  27.940  30.851  1.00  0.00     0.074 A 
ATOM     44  C   UNL A   1      41.815  27.674  28.641  1.00  0.00     0.049 A 
ATOM     45  N   UNL A   1      44.155  27.591  30.977  1.00  0.00    -0.248 NA
ATOM     46  C   UNL A   1      42.175  27.970  32.123  1.00  0.00     0.031 C 
ATOM     47  C   UNL A   1      40.896  28.013  27.547  1.00  0.00     0.029 A 
ATOM     48  N   UNL A   1      42.006  26.338  28.459  1.00  0.00    -0.354 N 
ATOM     49  C   UNL A   1      44.283  27.124  32.280  1.00  0.00     0.074 A 
ATOM     50  C   UNL A   1      43.114  27.578  32.988  1.00  0.00     0.031 C 
ATOM     51  C   UNL A   1      40.429  26.880  26.974  1.00  0.00     0.029 A 
ATOM     52  C   UNL A   1      41.144  25.749  27.536  1.00  0.00     0.049 A 
ATOM     53  H   UNL A   1      42.699  25.829  28.939  1.00  0.00     0.167 HD
ATOM     54  C   UNL A   1      45.172  26.136  32.574  1.00  0.00     0.031 A 
ATOM     55  C   UNL A   1      41.019  24.424  27.267  1.00  0.00     0.031 A 
ATOM     56  C   UNL A   1      46.126  25.960  31.507  1.00  0.00     0.049 A 
ATOM     57  C   UNL A   1      42.263  23.776  27.733  1.00  0.00     0.074 A 
ATOM     58  C   UNL A   1      47.066  26.754  30.883  1.00  0.00     0.029 A 
ATOM     59  N   UNL A   1      45.874  24.912  30.654  1.00  0.00    -0.354 N 
ATOM     60  N   UNL A   1      43.427  23.978  27.190  1.00  0.00    -0.248 NA
ATOM     61  C   UNL A   1      42.279  23.216  29.072  1.00  0.00     0.031 C 
ATOM     62  C   UNL A   1      47.020  26.374  29.510  1.00  0.00     0.029 A 
ATOM     63  C   UNL A   1      46.118  25.316  29.372  1.00  0.00     0.049 A 
ATOM     64  H   UNL A   1      45.565  24.017  30.923  1.00  0.00     0.167 HD
ATOM     65  C   UNL A   1      44.304  24.011  28.261  1.00  0.00     0.074 A 
ATOM     66  C   UNL A   1      43.566  23.411  29.372  1.00  0.00     0.031 C 
ATOM     67  C   UNL A   1      45.428  24.785  28.216  1.00  0.00     0.031 A 
BRANCH  54  68
ATOM     68  C   UNL A   1      44.869  25.016  33.547  1.00  0.00    -0.014 A 
ATOM     69  C   UNL A   1      45.615  24.946  34.738  1.00  0.00     0.009 A 
ATOM     70  C   UNL A   1      44.118  23.873  33.208  1.00  0.00     0.009 A 
ATOM     71  C   UNL A   1      45.669  23.771  35.498  1.00  0.00     0.001 A 
ATOM     72  C   UNL A   1      44.135  22.714  33.986  1.00  0.00     0.001 A 
ATOM     73  C   UNL A   1      44.934  22.654  35.118  1.00  0.00     0.000 A 
ENDBRANCH  54  68
BRANCH  55  74
ATOM     74  C   UNL A   1      39.826  23.621  26.906  1.00  0.00    -0.014 A 
ATOM     75  C   UNL A   1      38.596  24.255  26.651  1.00  0.00     0.009 A 
ATOM     76  C   UNL A   1      39.963  22.283  26.497  1.00  0.00     0.009 A 
ATOM     77  C   UNL A   1      37.570  23.600  25.954  1.00  0.00     0.001 A 
ATOM     78  C   UNL A   1      38.937  21.627  25.805  1.00  0.00     0.001 A 
ATOM     79  C   UNL A   1      37.749  22.292  25.514  1.00  0.00     0.000 A 
ENDBRANCH  55  74
BRANCH  67  80
ATOM     80  C   UNL A   1      45.874  25.324  26.879  1.00  0.00    -0.014 A 
ATOM     81  C   UNL A   1      45.410  26.529  26.326  1.00  0.00     0.009 A 
ATOM     82  C   UNL A   1      46.948  24.671  26.255  1.00  0.00     0.009 A 
ATOM     83  C   UNL A   1      46.014  27.063  25.180  1.00  0.00     0.001 A 
ATOM     84  C   UNL A   1      47.563  25.214  25.127  1.00  0.00     0.001 A 
ATOM     85  C   UNL A   1      47.097  26.411  24.590  1.00  0.00     0.000 A 
ENDBRANCH  67  80
ENDBRANCH  41  42
ENDBRANCH  33  36
ENDBRANCH  31  32
ENDBRANCH  30  31
ENDBRANCH   1  30
TORSDOF 13
ENDMDL
