MODEL 1
REMARK VINA RESULT:     -11.5      0.000      0.000
REMARK SMILES Cc1ccc(Cl)c(Nc2ccccc2C(=O)N[C@@H](C)C(=O)NCCCNC(=O)c2ccc(-c3c4nc(c(-c5ccccc5)c5ccc([nH]5)c(-c5ccccc5)c5nc(c(-c6ccccc6)c6ccc3[nH]6)C=C5)C=C4)cc2)c1Cl
REMARK SMILES IDX 23 1 22 2 20 3 21 4 18 6 19 7 17 8 15 9 16 10 14 12 9 13
REMARK SMILES IDX 10 14 11 15 13 16 12 17 8 18 7 20 1 21 2 22 3 23 77 24 4 25
REMARK SMILES IDX 78 26 5 27 6 28 24 29 25 30 26 31 27 32 28 34 29 35 30 36
REMARK SMILES IDX 76 37 31 38 75 39 32 40 33 41 34 42 69 43 35 44 74 45 68 46
REMARK SMILES IDX 70 47 36 48 73 49 67 50 66 51 37 53 59 54 44 55 58 56 45 57
REMARK SMILES IDX 48 58 57 59 71 60 46 61 47 62 56 64 72 65 49 66 38 67 39 68
REMARK SMILES IDX 43 69 40 70 42 71 41 72 60 73 61 74 65 75 62 76 64 77 63 78
REMARK SMILES IDX 50 79 51 80 55 81 52 82 54 83 53 84
REMARK H PARENT 22 5 17 11 8 19 26 33 70 52 48 63
REMARK Flexibility Score: inf
ROOT
ATOM      1  C   UNL A   1      37.036  20.820  24.712  1.00  0.00     0.117 C 
ENDROOT
BRANCH   1   2
ATOM      2  N   UNL A   1      37.487  22.198  24.582  1.00  0.00    -0.354 N 
ATOM      3  C   UNL A   1      36.672  23.090  23.932  1.00  0.00     0.242 C 
ATOM      4  O   UNL A   1      36.662  23.067  22.702  1.00  0.00    -0.273 OA
ATOM      5  H   UNL A   1      38.353  22.483  24.952  1.00  0.00     0.163 HD
BRANCH   3   6
ATOM      6  C   UNL A   1      35.851  24.098  24.774  1.00  0.00     0.168 C 
ATOM      7  C   UNL A   1      35.456  23.593  26.152  1.00  0.00     0.041 C 
BRANCH   6   8
ATOM      8  N   UNL A   1      34.687  24.395  23.953  1.00  0.00    -0.340 N 
ATOM      9  C   UNL A   1      34.001  25.584  23.851  1.00  0.00     0.254 C 
ATOM     10  O   UNL A   1      33.644  25.912  22.716  1.00  0.00    -0.269 OA
ATOM     11  H   UNL A   1      34.346  23.652  23.402  1.00  0.00     0.164 HD
BRANCH   9  12
ATOM     12  C   UNL A   1      33.401  26.292  25.021  1.00  0.00     0.063 A 
ATOM     13  C   UNL A   1      32.263  25.978  25.789  1.00  0.00     0.051 A 
ATOM     14  C   UNL A   1      31.885  26.883  26.813  1.00  0.00     0.027 A 
ATOM     15  C   UNL A   1      32.630  28.022  27.121  1.00  0.00     0.002 A 
ATOM     16  C   UNL A   1      34.151  27.447  25.363  1.00  0.00     0.016 A 
ATOM     17  C   UNL A   1      33.780  28.295  26.405  1.00  0.00     0.001 A 
BRANCH  13  18
ATOM     18  N   UNL A   1      31.491  24.803  25.749  1.00  0.00    -0.352 N 
ATOM     19  H   UNL A   1      30.618  24.906  26.193  1.00  0.00     0.167 HD
BRANCH  18  20
ATOM     20  C   UNL A   1      31.682  23.502  25.214  1.00  0.00     0.077 A 
ATOM     21  C   UNL A   1      33.387  20.117  25.844  1.00  0.00     0.046 C 
ATOM     22  C   UNL A   1      32.600  21.222  25.189  1.00  0.00    -0.030 A 
ATOM     23  C   UNL A   1      32.228  21.077  23.845  1.00  0.00     0.006 A 
ATOM     24  C   UNL A   1      32.284  22.416  25.884  1.00  0.00     0.069 A 
ATOM     25  C   UNL A   1      31.565  22.104  23.187  1.00  0.00     0.023 A 
ATOM     26  Cl  UNL A   1      32.550  22.447  27.601  1.00  0.00    -0.082 Cl
ATOM     27  C   UNL A   1      31.311  23.299  23.859  1.00  0.00     0.066 A 
ATOM     28  Cl  UNL A   1      30.546  24.568  22.951  1.00  0.00    -0.082 Cl
ENDBRANCH  18  20
ENDBRANCH  13  18
ENDBRANCH   9  12
ENDBRANCH   6   8
ENDBRANCH   3   6
ENDBRANCH   1   2
BRANCH   1  29
ATOM     29  C   UNL A   1      38.167  19.792  24.840  1.00  0.00     0.042 C 
BRANCH  29  30
ATOM     30  C   UNL A   1      39.106  20.034  26.019  1.00  0.00     0.118 C 
BRANCH  30  31
ATOM     31  N   UNL A   1      40.325  19.241  25.913  1.00  0.00    -0.352 N 
ATOM     32  C   UNL A   1      41.632  19.640  25.974  1.00  0.00     0.251 C 
ATOM     33  H   UNL A   1      40.186  18.276  25.779  1.00  0.00     0.163 HD
ATOM     34  O   UNL A   1      42.520  18.881  25.574  1.00  0.00    -0.269 OA
BRANCH  32  35
ATOM     35  C   UNL A   1      41.992  20.969  26.505  1.00  0.00     0.039 A 
ATOM     36  C   UNL A   1      41.997  21.172  27.887  1.00  0.00     0.014 A 
ATOM     37  C   UNL A   1      42.266  22.032  25.640  1.00  0.00     0.014 A 
ATOM     38  C   UNL A   1      42.325  22.429  28.402  1.00  0.00     0.010 A 
ATOM     39  C   UNL A   1      42.662  23.263  26.155  1.00  0.00     0.010 A 
ATOM     40  C   UNL A   1      42.683  23.478  27.541  1.00  0.00    -0.014 A 
BRANCH  40  41
ATOM     41  C   UNL A   1      43.058  24.815  28.067  1.00  0.00     0.031 A 
ATOM     42  C   UNL A   1      41.997  25.853  28.318  1.00  0.00     0.074 A 
ATOM     43  C   UNL A   1      44.356  25.118  28.259  1.00  0.00     0.049 A 
ATOM     44  N   UNL A   1      42.132  27.093  28.715  1.00  0.00    -0.248 NA
ATOM     45  C   UNL A   1      40.604  25.452  28.064  1.00  0.00     0.031 C 
ATOM     46  C   UNL A   1      45.484  24.216  28.018  1.00  0.00     0.029 A 
ATOM     47  N   UNL A   1      44.945  26.278  28.697  1.00  0.00    -0.354 N 
ATOM     48  C   UNL A   1      40.848  27.625  28.734  1.00  0.00     0.074 A 
ATOM     49  C   UNL A   1      39.954  26.588  28.267  1.00  0.00     0.031 C 
ATOM     50  C   UNL A   1      46.625  24.846  28.337  1.00  0.00     0.029 A 
ATOM     51  C   UNL A   1      46.315  26.206  28.767  1.00  0.00     0.049 A 
ATOM     52  H   UNL A   1      44.434  27.084  28.938  1.00  0.00     0.167 HD
ATOM     53  C   UNL A   1      40.445  28.859  29.121  1.00  0.00     0.031 A 
ATOM     54  C   UNL A   1      47.220  27.132  29.134  1.00  0.00     0.031 A 
ATOM     55  C   UNL A   1      41.331  29.884  29.604  1.00  0.00     0.049 A 
ATOM     56  C   UNL A   1      46.748  28.494  29.562  1.00  0.00     0.074 A 
ATOM     57  C   UNL A   1      41.014  31.146  30.077  1.00  0.00     0.029 A 
ATOM     58  N   UNL A   1      42.710  29.764  29.675  1.00  0.00    -0.354 N 
ATOM     59  N   UNL A   1      45.524  28.959  29.638  1.00  0.00    -0.248 NA
ATOM     60  C   UNL A   1      47.785  29.455  29.966  1.00  0.00     0.031 C 
ATOM     61  C   UNL A   1      42.205  31.806  30.396  1.00  0.00     0.029 A 
ATOM     62  C   UNL A   1      43.260  30.936  30.169  1.00  0.00     0.049 A 
ATOM     63  H   UNL A   1      43.223  28.965  29.414  1.00  0.00     0.167 HD
ATOM     64  C   UNL A   1      45.641  30.251  30.129  1.00  0.00     0.074 A 
ATOM     65  C   UNL A   1      47.053  30.494  30.345  1.00  0.00     0.031 C 
ATOM     66  C   UNL A   1      44.665  31.158  30.384  1.00  0.00     0.031 A 
BRANCH  53  67
ATOM     67  C   UNL A   1      38.977  29.168  29.030  1.00  0.00    -0.014 A 
ATOM     68  C   UNL A   1      38.399  29.605  27.826  1.00  0.00     0.009 A 
ATOM     69  C   UNL A   1      38.155  28.992  30.153  1.00  0.00     0.009 A 
ATOM     70  C   UNL A   1      37.034  29.895  27.761  1.00  0.00     0.001 A 
ATOM     71  C   UNL A   1      36.785  29.254  30.077  1.00  0.00     0.001 A 
ATOM     72  C   UNL A   1      36.228  29.715  28.886  1.00  0.00     0.000 A 
ENDBRANCH  53  67
BRANCH  54  73
ATOM     73  C   UNL A   1      48.668  26.798  29.144  1.00  0.00    -0.014 A 
ATOM     74  C   UNL A   1      49.260  26.246  30.291  1.00  0.00     0.009 A 
ATOM     75  C   UNL A   1      49.467  27.036  28.016  1.00  0.00     0.009 A 
ATOM     76  C   UNL A   1      50.628  25.966  30.317  1.00  0.00     0.001 A 
ATOM     77  C   UNL A   1      50.829  26.729  28.035  1.00  0.00     0.001 A 
ATOM     78  C   UNL A   1      51.411  26.203  29.188  1.00  0.00     0.000 A 
ENDBRANCH  54  73
BRANCH  66  79
ATOM     79  C   UNL A   1      45.088  32.475  30.967  1.00  0.00    -0.014 A 
ATOM     80  C   UNL A   1      45.204  32.658  32.354  1.00  0.00     0.009 A 
ATOM     81  C   UNL A   1      45.412  33.539  30.110  1.00  0.00     0.009 A 
ATOM     82  C   UNL A   1      45.604  33.892  32.871  1.00  0.00     0.001 A 
ATOM     83  C   UNL A   1      45.838  34.762  30.628  1.00  0.00     0.001 A 
ATOM     84  C   UNL A   1      45.925  34.940  32.008  1.00  0.00     0.000 A 
ENDBRANCH  66  79
ENDBRANCH  40  41
ENDBRANCH  32  35
ENDBRANCH  30  31
ENDBRANCH  29  30
ENDBRANCH   1  29
TORSDOF 14
ENDMDL
MODEL 2
REMARK VINA RESULT:     -11.4      0.597      5.829
REMARK SMILES Cc1ccc(Cl)c(Nc2ccccc2C(=O)N[C@@H](C)C(=O)NCCCNC(=O)c2ccc(-c3c4nc(c(-c5ccccc5)c5ccc([nH]5)c(-c5ccccc5)c5nc(c(-c6ccccc6)c6ccc3[nH]6)C=C5)C=C4)cc2)c1Cl
REMARK SMILES IDX 23 1 22 2 20 3 21 4 18 6 19 7 17 8 15 9 16 10 14 12 9 13
REMARK SMILES IDX 10 14 11 15 13 16 12 17 8 18 7 20 1 21 2 22 3 23 77 24 4 25
REMARK SMILES IDX 78 26 5 27 6 28 24 29 25 30 26 31 27 32 28 34 29 35 30 36
REMARK SMILES IDX 76 37 31 38 75 39 32 40 33 41 34 42 69 43 35 44 74 45 68 46
REMARK SMILES IDX 70 47 36 48 73 49 67 50 66 51 37 53 59 54 44 55 58 56 45 57
REMARK SMILES IDX 48 58 57 59 71 60 46 61 47 62 56 64 72 65 49 66 38 67 39 68
REMARK SMILES IDX 43 69 40 70 42 71 41 72 60 73 61 74 65 75 62 76 64 77 63 78
REMARK SMILES IDX 50 79 51 80 55 81 52 82 54 83 53 84
REMARK H PARENT 22 5 17 11 8 19 26 33 70 52 48 63
REMARK Flexibility Score: inf
ROOT
ATOM      1  C   UNL A   1      37.088  20.830  24.835  1.00  0.00     0.117 C 
ENDROOT
BRANCH   1   2
ATOM      2  N   UNL A   1      37.528  22.201  24.617  1.00  0.00    -0.354 N 
ATOM      3  C   UNL A   1      36.687  23.055  23.951  1.00  0.00     0.242 C 
ATOM      4  O   UNL A   1      36.633  22.968  22.725  1.00  0.00    -0.273 OA
ATOM      5  H   UNL A   1      38.406  22.507  24.940  1.00  0.00     0.163 HD
BRANCH   3   6
ATOM      6  C   UNL A   1      35.892  24.104  24.768  1.00  0.00     0.168 C 
ATOM      7  C   UNL A   1      35.501  23.650  26.165  1.00  0.00     0.041 C 
BRANCH   6   8
ATOM      8  N   UNL A   1      34.725  24.396  23.949  1.00  0.00    -0.340 N 
ATOM      9  C   UNL A   1      34.027  25.579  23.857  1.00  0.00     0.254 C 
ATOM     10  O   UNL A   1      33.667  25.914  22.724  1.00  0.00    -0.269 OA
ATOM     11  H   UNL A   1      34.393  23.655  23.390  1.00  0.00     0.164 HD
BRANCH   9  12
ATOM     12  C   UNL A   1      33.418  26.270  25.033  1.00  0.00     0.063 A 
ATOM     13  C   UNL A   1      32.270  25.948  25.783  1.00  0.00     0.051 A 
ATOM     14  C   UNL A   1      31.886  26.837  26.819  1.00  0.00     0.027 A 
ATOM     15  C   UNL A   1      32.634  27.966  27.155  1.00  0.00     0.002 A 
ATOM     16  C   UNL A   1      34.170  27.414  25.403  1.00  0.00     0.016 A 
ATOM     17  C   UNL A   1      33.793  28.246  26.456  1.00  0.00     0.001 A 
BRANCH  13  18
ATOM     18  N   UNL A   1      31.493  24.778  25.714  1.00  0.00    -0.352 N 
ATOM     19  H   UNL A   1      30.607  24.884  26.132  1.00  0.00     0.167 HD
BRANCH  18  20
ATOM     20  C   UNL A   1      31.692  23.479  25.180  1.00  0.00     0.077 A 
ATOM     21  C   UNL A   1      33.406  20.099  25.817  1.00  0.00     0.046 C 
ATOM     22  C   UNL A   1      32.619  21.202  25.159  1.00  0.00    -0.030 A 
ATOM     23  C   UNL A   1      32.256  21.056  23.812  1.00  0.00     0.006 A 
ATOM     24  C   UNL A   1      32.294  22.395  25.852  1.00  0.00     0.069 A 
ATOM     25  C   UNL A   1      31.592  22.081  23.150  1.00  0.00     0.023 A 
ATOM     26  Cl  UNL A   1      32.550  22.425  27.570  1.00  0.00    -0.082 Cl
ATOM     27  C   UNL A   1      31.330  23.275  23.822  1.00  0.00     0.066 A 
ATOM     28  Cl  UNL A   1      30.565  24.542  22.911  1.00  0.00    -0.082 Cl
ENDBRANCH  18  20
ENDBRANCH  13  18
ENDBRANCH   9  12
ENDBRANCH   6   8
ENDBRANCH   3   6
ENDBRANCH   1   2
BRANCH   1  29
ATOM     29  C   UNL A   1      38.218  19.794  24.835  1.00  0.00     0.042 C 
BRANCH  29  30
ATOM     30  C   UNL A   1      39.101  19.825  26.080  1.00  0.00     0.118 C 
BRANCH  30  31
ATOM     31  N   UNL A   1      40.383  19.171  25.853  1.00  0.00    -0.352 N 
ATOM     32  C   UNL A   1      41.644  19.703  25.852  1.00  0.00     0.251 C 
ATOM     33  H   UNL A   1      40.335  18.205  25.674  1.00  0.00     0.163 HD
ATOM     34  O   UNL A   1      42.575  19.062  25.354  1.00  0.00    -0.269 OA
BRANCH  32  35
ATOM     35  C   UNL A   1      41.902  21.035  26.432  1.00  0.00     0.039 A 
ATOM     36  C   UNL A   1      41.815  21.204  27.817  1.00  0.00     0.014 A 
ATOM     37  C   UNL A   1      42.171  22.131  25.609  1.00  0.00     0.014 A 
ATOM     38  C   UNL A   1      42.046  22.463  28.378  1.00  0.00     0.010 A 
ATOM     39  C   UNL A   1      42.471  23.368  26.173  1.00  0.00     0.010 A 
ATOM     40  C   UNL A   1      42.399  23.550  27.562  1.00  0.00    -0.014 A 
BRANCH  40  41
ATOM     41  C   UNL A   1      42.672  24.891  28.138  1.00  0.00     0.031 A 
ATOM     42  C   UNL A   1      44.058  25.243  28.609  1.00  0.00     0.074 A 
ATOM     43  C   UNL A   1      41.663  25.769  28.295  1.00  0.00     0.049 A 
ATOM     44  N   UNL A   1      44.479  26.336  29.195  1.00  0.00    -0.248 NA
ATOM     45  C   UNL A   1      45.101  24.222  28.422  1.00  0.00     0.031 C 
ATOM     46  C   UNL A   1      40.269  25.538  27.915  1.00  0.00     0.029 A 
ATOM     47  N   UNL A   1      41.658  27.035  28.825  1.00  0.00    -0.354 N 
ATOM     48  C   UNL A   1      45.825  26.124  29.466  1.00  0.00     0.074 A 
ATOM     49  C   UNL A   1      46.140  24.784  29.022  1.00  0.00     0.031 C 
ATOM     50  C   UNL A   1      39.549  26.635  28.198  1.00  0.00     0.029 A 
ATOM     51  C   UNL A   1      40.420  27.630  28.814  1.00  0.00     0.049 A 
ATOM     52  H   UNL A   1      42.465  27.475  29.179  1.00  0.00     0.167 HD
ATOM     53  C   UNL A   1      46.724  26.973  30.019  1.00  0.00     0.031 A 
ATOM     54  C   UNL A   1      40.030  28.842  29.253  1.00  0.00     0.031 A 
ATOM     55  C   UNL A   1      46.417  28.313  30.443  1.00  0.00     0.049 A 
ATOM     56  C   UNL A   1      41.048  29.766  29.861  1.00  0.00     0.074 A 
ATOM     57  C   UNL A   1      47.271  29.272  30.958  1.00  0.00     0.029 A 
ATOM     58  N   UNL A   1      45.154  28.883  30.398  1.00  0.00    -0.354 N 
ATOM     59  N   UNL A   1      42.332  29.576  30.049  1.00  0.00    -0.248 NA
ATOM     60  C   UNL A   1      40.562  31.081  30.306  1.00  0.00     0.031 C 
ATOM     61  C   UNL A   1      46.517  30.409  31.266  1.00  0.00     0.029 A 
ATOM     62  C   UNL A   1      45.203  30.175  30.894  1.00  0.00     0.049 A 
ATOM     63  H   UNL A   1      44.343  28.436  30.064  1.00  0.00     0.167 HD
ATOM     64  C   UNL A   1      42.811  30.755  30.602  1.00  0.00     0.074 A 
ATOM     65  C   UNL A   1      41.685  31.659  30.708  1.00  0.00     0.031 C 
ATOM     66  C   UNL A   1      44.075  31.064  30.985  1.00  0.00     0.031 A 
BRANCH  53  67
ATOM     67  C   UNL A   1      48.128  26.470  30.204  1.00  0.00    -0.014 A 
ATOM     68  C   UNL A   1      48.521  25.823  31.387  1.00  0.00     0.009 A 
ATOM     69  C   UNL A   1      49.064  26.617  29.169  1.00  0.00     0.009 A 
ATOM     70  C   UNL A   1      49.832  25.369  31.544  1.00  0.00     0.001 A 
ATOM     71  C   UNL A   1      50.367  26.135  29.317  1.00  0.00     0.001 A 
ATOM     72  C   UNL A   1      50.752  25.522  30.507  1.00  0.00     0.000 A 
ENDBRANCH  53  67
BRANCH  54  73
ATOM     73  C   UNL A   1      38.614  29.267  29.108  1.00  0.00    -0.014 A 
ATOM     74  C   UNL A   1      38.140  29.746  27.876  1.00  0.00     0.009 A 
ATOM     75  C   UNL A   1      37.733  29.209  30.198  1.00  0.00     0.009 A 
ATOM     76  C   UNL A   1      36.820  30.183  27.746  1.00  0.00     0.001 A 
ATOM     77  C   UNL A   1      36.405  29.620  30.057  1.00  0.00     0.001 A 
ATOM     78  C   UNL A   1      35.953  30.116  28.835  1.00  0.00     0.000 A 
ENDBRANCH  54  73
BRANCH  66  79
ATOM     79  C   UNL A   1      44.313  32.451  31.509  1.00  0.00    -0.014 A 
ATOM     80  C   UNL A   1      44.225  32.741  32.879  1.00  0.00     0.009 A 
ATOM     81  C   UNL A   1      44.670  33.475  30.617  1.00  0.00     0.009 A 
ATOM     82  C   UNL A   1      44.455  34.038  33.341  1.00  0.00     0.001 A 
ATOM     83  C   UNL A   1      44.928  34.763  31.085  1.00  0.00     0.001 A 
ATOM     84  C   UNL A   1      44.811  35.046  32.445  1.00  0.00     0.000 A 
ENDBRANCH  66  79
ENDBRANCH  40  41
ENDBRANCH  32  35
ENDBRANCH  30  31
ENDBRANCH  29  30
ENDBRANCH   1  29
TORSDOF 14
ENDMDL
MODEL 3
REMARK VINA RESULT:     -11.1      1.675      2.991
REMARK SMILES Cc1ccc(Cl)c(Nc2ccccc2C(=O)N[C@@H](C)C(=O)NCCCNC(=O)c2ccc(-c3c4nc(c(-c5ccccc5)c5ccc([nH]5)c(-c5ccccc5)c5nc(c(-c6ccccc6)c6ccc3[nH]6)C=C5)C=C4)cc2)c1Cl
REMARK SMILES IDX 23 1 22 2 20 3 21 4 18 6 19 7 17 8 15 9 16 10 14 12 9 13
REMARK SMILES IDX 10 14 11 15 13 16 12 17 8 18 7 20 1 21 2 22 3 23 77 24 4 25
REMARK SMILES IDX 78 26 5 27 6 28 24 29 25 30 26 31 27 32 28 34 29 35 30 36
REMARK SMILES IDX 76 37 31 38 75 39 32 40 33 41 34 42 69 43 35 44 74 45 68 46
REMARK SMILES IDX 70 47 36 48 73 49 67 50 66 51 37 53 59 54 44 55 58 56 45 57
REMARK SMILES IDX 48 58 57 59 71 60 46 61 47 62 56 64 72 65 49 66 38 67 39 68
REMARK SMILES IDX 43 69 40 70 42 71 41 72 60 73 61 74 65 75 62 76 64 77 63 78
REMARK SMILES IDX 50 79 51 80 55 81 52 82 54 83 53 84
REMARK H PARENT 22 5 17 11 8 19 26 33 70 52 48 63
REMARK Flexibility Score: inf
ROOT
ATOM      1  C   UNL A   1      35.695  20.201  25.077  1.00  0.00     0.117 C 
ENDROOT
BRANCH   1   2
ATOM      2  N   UNL A   1      34.572  19.408  24.596  1.00  0.00    -0.354 N 
ATOM      3  C   UNL A   1      33.398  19.449  25.302  1.00  0.00     0.242 C 
ATOM      4  O   UNL A   1      33.321  18.776  26.330  1.00  0.00    -0.273 OA
ATOM      5  H   UNL A   1      34.654  18.858  23.784  1.00  0.00     0.163 HD
BRANCH   3   6
ATOM      6  C   UNL A   1      32.225  20.297  24.749  1.00  0.00     0.168 C 
ATOM      7  C   UNL A   1      32.543  21.049  23.466  1.00  0.00     0.041 C 
BRANCH   6   8
ATOM      8  N   UNL A   1      31.887  21.205  25.835  1.00  0.00    -0.340 N 
ATOM      9  C   UNL A   1      32.079  22.567  25.894  1.00  0.00     0.254 C 
ATOM     10  O   UNL A   1      31.159  23.227  26.388  1.00  0.00    -0.269 OA
ATOM     11  H   UNL A   1      31.469  20.794  26.627  1.00  0.00     0.164 HD
BRANCH   9  12
ATOM     12  C   UNL A   1      33.411  23.219  25.717  1.00  0.00     0.063 A 
ATOM     13  C   UNL A   1      33.856  24.126  24.735  1.00  0.00     0.051 A 
ATOM     14  C   UNL A   1      35.214  24.533  24.777  1.00  0.00     0.027 A 
ATOM     15  C   UNL A   1      36.090  24.120  25.781  1.00  0.00     0.002 A 
ATOM     16  C   UNL A   1      34.316  22.826  26.736  1.00  0.00     0.016 A 
ATOM     17  C   UNL A   1      35.634  23.277  26.777  1.00  0.00     0.001 A 
BRANCH  13  18
ATOM     18  N   UNL A   1      33.090  24.785  23.757  1.00  0.00    -0.352 N 
ATOM     19  H   UNL A   1      33.267  24.453  22.847  1.00  0.00     0.167 HD
BRANCH  18  20
ATOM     20  C   UNL A   1      32.120  25.821  23.781  1.00  0.00     0.077 A 
ATOM     21  C   UNL A   1      31.513  29.470  24.820  1.00  0.00     0.046 C 
ATOM     22  C   UNL A   1      31.286  28.075  24.301  1.00  0.00    -0.030 A 
ATOM     23  C   UNL A   1      29.971  27.656  24.049  1.00  0.00     0.006 A 
ATOM     24  C   UNL A   1      32.362  27.169  24.121  1.00  0.00     0.069 A 
ATOM     25  C   UNL A   1      29.717  26.355  23.638  1.00  0.00     0.023 A 
ATOM     26  Cl  UNL A   1      33.976  27.804  24.211  1.00  0.00    -0.082 Cl
ATOM     27  C   UNL A   1      30.774  25.453  23.521  1.00  0.00     0.066 A 
ATOM     28  Cl  UNL A   1      30.373  23.821  23.077  1.00  0.00    -0.082 Cl
ENDBRANCH  18  20
ENDBRANCH  13  18
ENDBRANCH   9  12
ENDBRANCH   6   8
ENDBRANCH   3   6
ENDBRANCH   1   2
BRANCH   1  29
ATOM     29  C   UNL A   1      37.072  19.665  24.668  1.00  0.00     0.042 C 
BRANCH  29  30
ATOM     30  C   UNL A   1      38.239  20.275  25.439  1.00  0.00     0.118 C 
BRANCH  30  31
ATOM     31  N   UNL A   1      39.321  19.318  25.634  1.00  0.00    -0.352 N 
ATOM     32  C   UNL A   1      40.629  19.537  25.967  1.00  0.00     0.251 C 
ATOM     33  H   UNL A   1      39.072  18.374  25.507  1.00  0.00     0.163 HD
ATOM     34  O   UNL A   1      41.459  18.638  25.801  1.00  0.00    -0.269 OA
BRANCH  32  35
ATOM     35  C   UNL A   1      41.061  20.837  26.516  1.00  0.00     0.039 A 
ATOM     36  C   UNL A   1      40.970  21.060  27.892  1.00  0.00     0.014 A 
ATOM     37  C   UNL A   1      41.498  21.859  25.669  1.00  0.00     0.014 A 
ATOM     38  C   UNL A   1      41.365  22.291  28.424  1.00  0.00     0.010 A 
ATOM     39  C   UNL A   1      41.958  23.058  26.206  1.00  0.00     0.010 A 
ATOM     40  C   UNL A   1      41.884  23.291  27.587  1.00  0.00    -0.014 A 
BRANCH  40  41
ATOM     41  C   UNL A   1      42.331  24.598  28.132  1.00  0.00     0.031 A 
ATOM     42  C   UNL A   1      41.336  25.707  28.348  1.00  0.00     0.074 A 
ATOM     43  C   UNL A   1      43.639  24.810  28.372  1.00  0.00     0.049 A 
ATOM     44  N   UNL A   1      41.542  26.934  28.755  1.00  0.00    -0.248 NA
ATOM     45  C   UNL A   1      39.929  25.404  28.042  1.00  0.00     0.031 C 
ATOM     46  C   UNL A   1      44.709  23.832  28.169  1.00  0.00     0.029 A 
ATOM     47  N   UNL A   1      44.291  25.925  28.836  1.00  0.00    -0.354 N 
ATOM     48  C   UNL A   1      40.299  27.554  28.730  1.00  0.00     0.074 A 
ATOM     49  C   UNL A   1      39.353  26.582  28.227  1.00  0.00     0.031 C 
ATOM     50  C   UNL A   1      45.880  24.380  28.532  1.00  0.00     0.029 A 
ATOM     51  C   UNL A   1      45.649  25.757  28.956  1.00  0.00     0.049 A 
ATOM     52  H   UNL A   1      43.829  26.765  29.062  1.00  0.00     0.167 HD
ATOM     53  C   UNL A   1      39.969  28.812  29.107  1.00  0.00     0.031 A 
ATOM     54  C   UNL A   1      46.603  26.618  29.360  1.00  0.00     0.031 A 
ATOM     55  C   UNL A   1      40.905  29.773  29.627  1.00  0.00     0.049 A 
ATOM     56  C   UNL A   1      46.210  28.008  29.776  1.00  0.00     0.074 A 
ATOM     57  C   UNL A   1      40.659  31.052  30.094  1.00  0.00     0.029 A 
ATOM     58  N   UNL A   1      42.269  29.557  29.748  1.00  0.00    -0.354 N 
ATOM     59  N   UNL A   1      45.020  28.557  29.809  1.00  0.00    -0.248 NA
ATOM     60  C   UNL A   1      47.296  28.894  30.222  1.00  0.00     0.031 C 
ATOM     61  C   UNL A   1      41.881  31.627  30.458  1.00  0.00     0.029 A 
ATOM     62  C   UNL A   1      42.880  30.686  30.266  1.00  0.00     0.049 A 
ATOM     63  H   UNL A   1      42.734  28.724  29.502  1.00  0.00     0.167 HD
ATOM     64  C   UNL A   1      45.208  29.838  30.310  1.00  0.00     0.074 A 
ATOM     65  C   UNL A   1      46.625  29.981  30.578  1.00  0.00     0.031 C 
ATOM     66  C   UNL A   1      44.289  30.809  30.533  1.00  0.00     0.031 A 
BRANCH  53  67
ATOM     67  C   UNL A   1      38.530  29.223  28.964  1.00  0.00    -0.014 A 
ATOM     68  C   UNL A   1      37.641  29.150  30.049  1.00  0.00     0.009 A 
ATOM     69  C   UNL A   1      38.064  29.719  27.737  1.00  0.00     0.009 A 
ATOM     70  C   UNL A   1      36.305  29.529  29.896  1.00  0.00     0.001 A 
ATOM     71  C   UNL A   1      36.735  30.125  27.595  1.00  0.00     0.001 A 
ATOM     72  C   UNL A   1      35.855  30.020  28.670  1.00  0.00     0.000 A 
ENDBRANCH  53  67
BRANCH  54  73
ATOM     73  C   UNL A   1      48.022  26.183  29.421  1.00  0.00    -0.014 A 
ATOM     74  C   UNL A   1      48.564  25.699  30.622  1.00  0.00     0.009 A 
ATOM     75  C   UNL A   1      48.845  26.259  28.287  1.00  0.00     0.009 A 
ATOM     76  C   UNL A   1      49.908  25.326  30.694  1.00  0.00     0.001 A 
ATOM     77  C   UNL A   1      50.181  25.859  28.355  1.00  0.00     0.001 A 
ATOM     78  C   UNL A   1      50.714  25.402  29.559  1.00  0.00     0.000 A 
ENDBRANCH  54  73
BRANCH  66  79
ATOM     79  C   UNL A   1      44.781  32.093  31.137  1.00  0.00    -0.014 A 
ATOM     80  C   UNL A   1      45.185  33.172  30.336  1.00  0.00     0.009 A 
ATOM     81  C   UNL A   1      44.801  32.237  32.535  1.00  0.00     0.009 A 
ATOM     82  C   UNL A   1      45.634  34.356  30.923  1.00  0.00     0.001 A 
ATOM     83  C   UNL A   1      45.223  33.431  33.117  1.00  0.00     0.001 A 
ATOM     84  C   UNL A   1      45.648  34.487  32.312  1.00  0.00     0.000 A 
ENDBRANCH  66  79
ENDBRANCH  40  41
ENDBRANCH  32  35
ENDBRANCH  30  31
ENDBRANCH  29  30
ENDBRANCH   1  29
TORSDOF 14
ENDMDL
