MODEL 1
REMARK VINA RESULT:     -12.1      0.000      0.000
REMARK SMILES CCc1ncc(C[N@H+]2CCC[C@@H](c3cccc(C(=O)NCCCNC(=O)c4ccc(-c5c6nc(c(-c7ccccc7)c7ccc([nH]7)c(-c7ccccc7)c7nc(c(-c8ccccc8)c8ccc5[nH]8)C=C7)C=C6)cc4)c3)C2)cn1
REMARK SMILES IDX 21 1 20 2 18 3 19 4 17 6 13 7 14 8 75 9 15 10 16 11 12 12
REMARK SMILES IDX 8 13 9 14 76 15 10 17 11 18 7 19 6 20 3 21 4 22 78 23 5 24
REMARK SMILES IDX 77 25 2 26 1 27 22 28 23 29 24 30 25 31 26 33 27 34 28 35
REMARK SMILES IDX 74 36 29 37 73 38 30 39 31 40 32 41 67 42 33 43 72 44 66 45
REMARK SMILES IDX 68 46 34 47 71 48 65 49 64 50 35 52 57 53 42 54 56 55 43 56
REMARK SMILES IDX 46 57 55 58 69 59 44 60 45 61 54 63 70 64 47 65 36 66 37 67
REMARK SMILES IDX 41 68 38 69 40 70 39 71 58 72 59 73 63 74 60 75 62 76 61 77
REMARK SMILES IDX 48 78 49 79 53 80 50 81 52 82 51 83
REMARK H PARENT 20 5 8 16 24 32 68 51 46 62
REMARK Flexibility Score: inf
ROOT
ATOM      1  C   UNL A   1      37.360  20.851  24.433  1.00  0.00     0.118 C 
ENDROOT
BRANCH   1   2
ATOM      2  N   UNL A   1      37.857  22.057  25.086  1.00  0.00    -0.352 N 
ATOM      3  C   UNL A   1      37.271  23.106  25.761  1.00  0.00     0.251 C 
ATOM      4  O   UNL A   1      38.018  23.978  26.205  1.00  0.00    -0.269 OA
ATOM      5  H   UNL A   1      38.836  22.142  25.033  1.00  0.00     0.163 HD
BRANCH   3   6
ATOM      6  C   UNL A   1      35.800  23.279  25.908  1.00  0.00     0.040 A 
ATOM      7  C   UNL A   1      33.813  24.654  25.665  1.00  0.00    -0.039 A 
ATOM      8  C   UNL A   1      33.122  23.815  26.540  1.00  0.00     0.004 A 
ATOM      9  C   UNL A   1      35.085  24.261  25.240  1.00  0.00     0.018 A 
ATOM     10  C   UNL A   1      33.750  22.686  27.066  1.00  0.00     0.001 A 
ATOM     11  C   UNL A   1      35.102  22.451  26.795  1.00  0.00     0.014 A 
BRANCH   7  12
ATOM     12  C   UNL A   1      33.301  25.992  25.168  1.00  0.00     0.074 C 
ATOM     13  N   UNL A   1      31.280  27.163  24.280  1.00  0.00    -0.331 N 
ATOM     14  C   UNL A   1      31.468  28.247  25.255  1.00  0.00     0.262 C 
ATOM     15  C   UNL A   1      31.827  25.890  24.776  1.00  0.00     0.270 C 
ATOM     16  H   UNL A   1      31.814  27.426  23.451  1.00  0.00     0.348 HD
ATOM     17  C   UNL A   1      32.947  28.435  25.607  1.00  0.00     0.062 C 
ATOM     18  C   UNL A   1      33.544  27.143  26.154  1.00  0.00     0.020 C 
BRANCH  13  19
ATOM     19  C   UNL A   1      29.878  27.024  23.830  1.00  0.00     0.302 C 
BRANCH  19  20
ATOM     20  C   UNL A   1      29.356  28.167  23.011  1.00  0.00     0.043 A 
ATOM     21  C   UNL A   1      28.537  30.491  21.873  1.00  0.00     0.127 A 
ATOM     22  N   UNL A   1      29.790  30.070  21.613  1.00  0.00    -0.241 NA
ATOM     23  N   UNL A   1      27.641  29.806  22.606  1.00  0.00    -0.241 NA
ATOM     24  C   UNL A   1      30.165  28.907  22.177  1.00  0.00     0.124 A 
ATOM     25  C   UNL A   1      28.070  28.650  23.144  1.00  0.00     0.124 A 
BRANCH  21  26
ATOM     26  C   UNL A   1      28.154  31.888  21.466  1.00  0.00     0.074 C 
ATOM     27  C   UNL A   1      28.731  32.962  22.373  1.00  0.00     0.012 C 
ENDBRANCH  21  26
ENDBRANCH  19  20
ENDBRANCH  13  19
ENDBRANCH   7  12
ENDBRANCH   3   6
ENDBRANCH   1   2
BRANCH   1  28
ATOM     28  C   UNL A   1      38.055  19.575  24.872  1.00  0.00     0.042 C 
BRANCH  28  29
ATOM     29  C   UNL A   1      39.000  19.774  26.039  1.00  0.00     0.118 C 
BRANCH  29  30
ATOM     30  N   UNL A   1      40.309  19.168  25.808  1.00  0.00    -0.352 N 
ATOM     31  C   UNL A   1      41.575  19.703  25.888  1.00  0.00     0.251 C 
ATOM     32  H   UNL A   1      40.282  18.218  25.553  1.00  0.00     0.163 HD
ATOM     33  O   UNL A   1      42.530  19.084  25.435  1.00  0.00    -0.269 OA
BRANCH  31  34
ATOM     34  C   UNL A   1      41.779  21.031  26.500  1.00  0.00     0.039 A 
ATOM     35  C   UNL A   1      41.850  21.146  27.891  1.00  0.00     0.014 A 
ATOM     36  C   UNL A   1      41.898  22.165  25.698  1.00  0.00     0.014 A 
ATOM     37  C   UNL A   1      42.140  22.385  28.469  1.00  0.00     0.010 A 
ATOM     38  C   UNL A   1      42.296  23.367  26.262  1.00  0.00     0.010 A 
ATOM     39  C   UNL A   1      42.417  23.493  27.654  1.00  0.00    -0.014 A 
BRANCH  39  40
ATOM     40  C   UNL A   1      42.828  24.807  28.207  1.00  0.00     0.031 A 
ATOM     41  C   UNL A   1      41.787  25.859  28.470  1.00  0.00     0.074 A 
ATOM     42  C   UNL A   1      44.137  25.098  28.346  1.00  0.00     0.049 A 
ATOM     43  N   UNL A   1      41.945  27.123  28.770  1.00  0.00    -0.248 NA
ATOM     44  C   UNL A   1      40.380  25.445  28.333  1.00  0.00     0.031 C 
ATOM     45  C   UNL A   1      45.246  24.178  28.084  1.00  0.00     0.029 A 
ATOM     46  N   UNL A   1      44.755  26.266  28.715  1.00  0.00    -0.354 N 
ATOM     47  C   UNL A   1      40.664  27.659  28.816  1.00  0.00     0.074 A 
ATOM     48  C   UNL A   1      39.745  26.599  28.468  1.00  0.00     0.031 C 
ATOM     49  C   UNL A   1      46.406  24.811  28.314  1.00  0.00     0.029 A 
ATOM     50  C   UNL A   1      46.127  26.195  28.685  1.00  0.00     0.049 A 
ATOM     51  H   UNL A   1      44.263  27.077  28.978  1.00  0.00     0.167 HD
ATOM     52  C   UNL A   1      40.285  28.920  29.134  1.00  0.00     0.031 A 
ATOM     53  C   UNL A   1      47.058  27.143  28.905  1.00  0.00     0.031 A 
ATOM     54  C   UNL A   1      41.202  29.963  29.502  1.00  0.00     0.049 A 
ATOM     55  C   UNL A   1      46.615  28.537  29.256  1.00  0.00     0.074 A 
ATOM     56  C   UNL A   1      40.917  31.252  29.917  1.00  0.00     0.029 A 
ATOM     57  N   UNL A   1      42.582  29.837  29.496  1.00  0.00    -0.354 N 
ATOM     58  N   UNL A   1      45.398  29.012  29.365  1.00  0.00    -0.248 NA
ATOM     59  C   UNL A   1      47.673  29.522  29.521  1.00  0.00     0.031 C 
ATOM     60  C   UNL A   1      42.128  31.925  30.107  1.00  0.00     0.029 A 
ATOM     61  C   UNL A   1      43.164  31.034  29.874  1.00  0.00     0.049 A 
ATOM     62  H   UNL A   1      43.075  29.018  29.260  1.00  0.00     0.167 HD
ATOM     63  C   UNL A   1      45.543  30.341  29.743  1.00  0.00     0.074 A 
ATOM     64  C   UNL A   1      46.965  30.594  29.850  1.00  0.00     0.031 C 
ATOM     65  C   UNL A   1      44.582  31.266  29.983  1.00  0.00     0.031 A 
BRANCH  52  66
ATOM     66  C   UNL A   1      38.816  29.237  29.078  1.00  0.00    -0.014 A 
ATOM     67  C   UNL A   1      38.194  29.625  27.881  1.00  0.00     0.009 A 
ATOM     68  C   UNL A   1      38.037  29.122  30.240  1.00  0.00     0.009 A 
ATOM     69  C   UNL A   1      36.832  29.936  27.859  1.00  0.00     0.001 A 
ATOM     70  C   UNL A   1      36.669  29.401  30.208  1.00  0.00     0.001 A 
ATOM     71  C   UNL A   1      36.071  29.820  29.021  1.00  0.00     0.000 A 
ENDBRANCH  52  66
BRANCH  53  72
ATOM     72  C   UNL A   1      48.501  26.802  28.803  1.00  0.00    -0.014 A 
ATOM     73  C   UNL A   1      49.170  26.210  29.885  1.00  0.00     0.009 A 
ATOM     74  C   UNL A   1      49.214  27.052  27.620  1.00  0.00     0.009 A 
ATOM     75  C   UNL A   1      50.528  25.895  29.790  1.00  0.00     0.001 A 
ATOM     76  C   UNL A   1      50.564  26.709  27.518  1.00  0.00     0.001 A 
ATOM     77  C   UNL A   1      51.222  26.139  28.606  1.00  0.00     0.000 A 
ENDBRANCH  53  72
BRANCH  65  78
ATOM     78  C   UNL A   1      45.026  32.629  30.435  1.00  0.00    -0.014 A 
ATOM     79  C   UNL A   1      45.231  33.672  29.520  1.00  0.00     0.009 A 
ATOM     80  C   UNL A   1      45.161  32.888  31.809  1.00  0.00     0.009 A 
ATOM     81  C   UNL A   1      45.581  34.946  29.974  1.00  0.00     0.001 A 
ATOM     82  C   UNL A   1      45.482  34.168  32.259  1.00  0.00     0.001 A 
ATOM     83  C   UNL A   1      45.697  35.194  31.341  1.00  0.00     0.000 A 
ENDBRANCH  65  78
ENDBRANCH  39  40
ENDBRANCH  31  34
ENDBRANCH  29  30
ENDBRANCH  28  29
ENDBRANCH   1  28
TORSDOF 14
ENDMDL
MODEL 2
REMARK VINA RESULT:     -11.8      4.927     10.361
REMARK SMILES CCc1ncc(C[N@H+]2CCC[C@@H](c3cccc(C(=O)NCCCNC(=O)c4ccc(-c5c6nc(c(-c7ccccc7)c7ccc([nH]7)c(-c7ccccc7)c7nc(c(-c8ccccc8)c8ccc5[nH]8)C=C7)C=C6)cc4)c3)C2)cn1
REMARK SMILES IDX 21 1 20 2 18 3 19 4 17 6 13 7 14 8 75 9 15 10 16 11 12 12
REMARK SMILES IDX 8 13 9 14 76 15 10 17 11 18 7 19 6 20 3 21 4 22 78 23 5 24
REMARK SMILES IDX 77 25 2 26 1 27 22 28 23 29 24 30 25 31 26 33 27 34 28 35
REMARK SMILES IDX 74 36 29 37 73 38 30 39 31 40 32 41 67 42 33 43 72 44 66 45
REMARK SMILES IDX 68 46 34 47 71 48 65 49 64 50 35 52 57 53 42 54 56 55 43 56
REMARK SMILES IDX 46 57 55 58 69 59 44 60 45 61 54 63 70 64 47 65 36 66 37 67
REMARK SMILES IDX 41 68 38 69 40 70 39 71 58 72 59 73 63 74 60 75 62 76 61 77
REMARK SMILES IDX 48 78 49 79 53 80 50 81 52 82 51 83
REMARK H PARENT 20 5 8 16 24 32 68 51 46 62
REMARK Flexibility Score: inf
ROOT
ATOM      1  C   UNL A   1      31.801  30.582  26.597  1.00  0.00     0.118 C 
ENDROOT
BRANCH   1   2
ATOM      2  N   UNL A   1      32.519  30.207  25.383  1.00  0.00    -0.352 N 
ATOM      3  C   UNL A   1      32.250  29.381  24.314  1.00  0.00     0.251 C 
ATOM      4  O   UNL A   1      33.105  29.306  23.431  1.00  0.00    -0.269 OA
ATOM      5  H   UNL A   1      33.398  30.645  25.311  1.00  0.00     0.163 HD
BRANCH   3   6
ATOM      6  C   UNL A   1      31.036  28.526  24.211  1.00  0.00     0.040 A 
ATOM      7  C   UNL A   1      29.975  26.352  24.426  1.00  0.00    -0.039 A 
ATOM      8  C   UNL A   1      28.907  26.793  23.644  1.00  0.00     0.004 A 
ATOM      9  C   UNL A   1      30.928  27.291  24.831  1.00  0.00     0.018 A 
ATOM     10  C   UNL A   1      28.878  28.109  23.180  1.00  0.00     0.001 A 
ATOM     11  C   UNL A   1      29.966  28.955  23.416  1.00  0.00     0.014 A 
BRANCH   7  12
ATOM     12  C   UNL A   1      30.202  24.912  24.842  1.00  0.00     0.074 C 
ATOM     13  N   UNL A   1      31.816  23.010  24.689  1.00  0.00    -0.331 N 
ATOM     14  C   UNL A   1      31.736  22.814  26.144  1.00  0.00     0.262 C 
ATOM     15  C   UNL A   1      31.547  24.409  24.318  1.00  0.00     0.270 C 
ATOM     16  H   UNL A   1      31.078  22.435  24.281  1.00  0.00     0.348 HD
ATOM     17  C   UNL A   1      30.368  23.228  26.693  1.00  0.00     0.062 C 
ATOM     18  C   UNL A   1      30.066  24.684  26.354  1.00  0.00     0.020 C 
BRANCH  13  19
ATOM     19  C   UNL A   1      33.082  22.517  24.105  1.00  0.00     0.302 C 
BRANCH  19  20
ATOM     20  C   UNL A   1      33.402  21.081  24.400  1.00  0.00     0.043 A 
ATOM     21  C   UNL A   1      34.115  18.464  24.509  1.00  0.00     0.127 A 
ATOM     22  N   UNL A   1      35.040  19.384  24.848  1.00  0.00    -0.241 NA
ATOM     23  N   UNL A   1      32.842  18.751  24.182  1.00  0.00    -0.241 NA
ATOM     24  C   UNL A   1      34.655  20.673  24.801  1.00  0.00     0.124 A 
ATOM     25  C   UNL A   1      32.513  20.056  24.152  1.00  0.00     0.124 A 
BRANCH  21  26
ATOM     26  C   UNL A   1      34.560  17.041  24.315  1.00  0.00     0.074 C 
ATOM     27  C   UNL A   1      34.259  16.495  22.931  1.00  0.00     0.012 C 
ENDBRANCH  21  26
ENDBRANCH  19  20
ENDBRANCH  13  19
ENDBRANCH   7  12
ENDBRANCH   3   6
ENDBRANCH   1   2
BRANCH   1  28
ATOM     28  C   UNL A   1      31.590  32.076  26.758  1.00  0.00     0.042 C 
BRANCH  28  29
ATOM     29  C   UNL A   1      32.806  32.803  27.293  1.00  0.00     0.118 C 
BRANCH  29  30
ATOM     30  N   UNL A   1      32.523  34.198  27.625  1.00  0.00    -0.352 N 
ATOM     31  C   UNL A   1      33.045  35.015  28.602  1.00  0.00     0.251 C 
ATOM     32  H   UNL A   1      31.846  34.625  27.053  1.00  0.00     0.163 HD
ATOM     33  O   UNL A   1      32.509  36.086  28.855  1.00  0.00    -0.269 OA
BRANCH  31  34
ATOM     34  C   UNL A   1      34.239  34.590  29.359  1.00  0.00     0.039 A 
ATOM     35  C   UNL A   1      34.091  34.081  30.653  1.00  0.00     0.014 A 
ATOM     36  C   UNL A   1      35.509  34.697  28.792  1.00  0.00     0.014 A 
ATOM     37  C   UNL A   1      35.207  33.588  31.334  1.00  0.00     0.010 A 
ATOM     38  C   UNL A   1      36.594  34.105  29.419  1.00  0.00     0.010 A 
ATOM     39  C   UNL A   1      36.458  33.549  30.700  1.00  0.00    -0.014 A 
BRANCH  39  40
ATOM     40  C   UNL A   1      37.656  32.946  31.334  1.00  0.00     0.031 A 
ATOM     41  C   UNL A   1      38.322  31.764  30.686  1.00  0.00     0.074 A 
ATOM     42  C   UNL A   1      38.060  33.373  32.547  1.00  0.00     0.049 A 
ATOM     43  N   UNL A   1      39.255  30.978  31.160  1.00  0.00    -0.248 NA
ATOM     44  C   UNL A   1      37.845  31.390  29.344  1.00  0.00     0.031 C 
ATOM     45  C   UNL A   1      37.471  34.483  33.299  1.00  0.00     0.029 A 
ATOM     46  N   UNL A   1      39.049  32.900  33.373  1.00  0.00    -0.354 N 
ATOM     47  C   UNL A   1      39.443  29.997  30.194  1.00  0.00     0.074 A 
ATOM     48  C   UNL A   1      38.498  30.259  29.132  1.00  0.00     0.031 C 
ATOM     49  C   UNL A   1      38.117  34.614  34.468  1.00  0.00     0.029 A 
ATOM     50  C   UNL A   1      39.127  33.565  34.573  1.00  0.00     0.049 A 
ATOM     51  H   UNL A   1      39.645  32.156  33.129  1.00  0.00     0.167 HD
ATOM     52  C   UNL A   1      40.333  28.977  30.186  1.00  0.00     0.031 A 
ATOM     53  C   UNL A   1      39.906  33.342  35.649  1.00  0.00     0.031 A 
ATOM     54  C   UNL A   1      41.285  28.736  31.234  1.00  0.00     0.049 A 
ATOM     55  C   UNL A   1      40.887  32.203  35.619  1.00  0.00     0.074 A 
ATOM     56  C   UNL A   1      42.283  27.778  31.288  1.00  0.00     0.029 A 
ATOM     57  N   UNL A   1      41.357  29.459  32.414  1.00  0.00    -0.354 N 
ATOM     58  N   UNL A   1      41.103  31.326  34.668  1.00  0.00    -0.248 NA
ATOM     59  C   UNL A   1      41.736  32.028  36.805  1.00  0.00     0.031 C 
ATOM     60  C   UNL A   1      42.920  27.884  32.528  1.00  0.00     0.029 A 
ATOM     61  C   UNL A   1      42.363  28.950  33.217  1.00  0.00     0.049 A 
ATOM     62  H   UNL A   1      40.778  30.221  32.648  1.00  0.00     0.167 HD
ATOM     63  C   UNL A   1      42.134  30.516  35.128  1.00  0.00     0.074 A 
ATOM     64  C   UNL A   1      42.504  31.010  36.438  1.00  0.00     0.031 C 
ATOM     65  C   UNL A   1      42.723  29.460  34.515  1.00  0.00     0.031 A 
BRANCH  52  66
ATOM     66  C   UNL A   1      40.301  28.038  29.011  1.00  0.00    -0.014 A 
ATOM     67  C   UNL A   1      39.567  26.842  29.047  1.00  0.00     0.009 A 
ATOM     68  C   UNL A   1      40.999  28.369  27.839  1.00  0.00     0.009 A 
ATOM     69  C   UNL A   1      39.570  25.975  27.952  1.00  0.00     0.001 A 
ATOM     70  C   UNL A   1      40.974  27.517  26.733  1.00  0.00     0.001 A 
ATOM     71  C   UNL A   1      40.270  26.315  26.795  1.00  0.00     0.000 A 
ENDBRANCH  52  66
BRANCH  53  72
ATOM     72  C   UNL A   1      39.790  34.220  36.842  1.00  0.00    -0.014 A 
ATOM     73  C   UNL A   1      40.465  35.449  36.890  1.00  0.00     0.009 A 
ATOM     74  C   UNL A   1      38.991  33.842  37.934  1.00  0.00     0.009 A 
ATOM     75  C   UNL A   1      40.360  36.271  38.015  1.00  0.00     0.001 A 
ATOM     76  C   UNL A   1      38.865  34.680  39.044  1.00  0.00     0.001 A 
ATOM     77  C   UNL A   1      39.556  35.889  39.088  1.00  0.00     0.000 A 
ENDBRANCH  53  72
BRANCH  65  78
ATOM     78  C   UNL A   1      43.865  28.791  35.227  1.00  0.00    -0.014 A 
ATOM     79  C   UNL A   1      45.166  29.310  35.172  1.00  0.00     0.009 A 
ATOM     80  C   UNL A   1      43.611  27.668  36.032  1.00  0.00     0.009 A 
ATOM     81  C   UNL A   1      46.196  28.705  35.897  1.00  0.00     0.001 A 
ATOM     82  C   UNL A   1      44.635  27.084  36.776  1.00  0.00     0.001 A 
ATOM     83  C   UNL A   1      45.928  27.600  36.703  1.00  0.00     0.000 A 
ENDBRANCH  65  78
ENDBRANCH  39  40
ENDBRANCH  31  34
ENDBRANCH  29  30
ENDBRANCH  28  29
ENDBRANCH   1  28
TORSDOF 14
ENDMDL
MODEL 3
REMARK VINA RESULT:     -11.3      3.925      9.545
REMARK SMILES CCc1ncc(C[N@H+]2CCC[C@@H](c3cccc(C(=O)NCCCNC(=O)c4ccc(-c5c6nc(c(-c7ccccc7)c7ccc([nH]7)c(-c7ccccc7)c7nc(c(-c8ccccc8)c8ccc5[nH]8)C=C7)C=C6)cc4)c3)C2)cn1
REMARK SMILES IDX 21 1 20 2 18 3 19 4 17 6 13 7 14 8 75 9 15 10 16 11 12 12
REMARK SMILES IDX 8 13 9 14 76 15 10 17 11 18 7 19 6 20 3 21 4 22 78 23 5 24
REMARK SMILES IDX 77 25 2 26 1 27 22 28 23 29 24 30 25 31 26 33 27 34 28 35
REMARK SMILES IDX 74 36 29 37 73 38 30 39 31 40 32 41 67 42 33 43 72 44 66 45
REMARK SMILES IDX 68 46 34 47 71 48 65 49 64 50 35 52 57 53 42 54 56 55 43 56
REMARK SMILES IDX 46 57 55 58 69 59 44 60 45 61 54 63 70 64 47 65 36 66 37 67
REMARK SMILES IDX 41 68 38 69 40 70 39 71 58 72 59 73 63 74 60 75 62 76 61 77
REMARK SMILES IDX 48 78 49 79 53 80 50 81 52 82 51 83
REMARK H PARENT 20 5 8 16 24 32 68 51 46 62
REMARK Flexibility Score: inf
ROOT
ATOM      1  C   UNL A   1      31.680  30.671  25.721  1.00  0.00     0.118 C 
ENDROOT
BRANCH   1   2
ATOM      2  N   UNL A   1      33.047  30.179  25.865  1.00  0.00    -0.352 N 
ATOM      3  C   UNL A   1      33.618  28.935  26.022  1.00  0.00     0.251 C 
ATOM      4  O   UNL A   1      34.846  28.886  26.103  1.00  0.00    -0.269 OA
ATOM      5  H   UNL A   1      33.714  30.902  25.844  1.00  0.00     0.163 HD
BRANCH   3   6
ATOM      6  C   UNL A   1      32.838  27.677  26.179  1.00  0.00     0.040 A 
ATOM      7  C   UNL A   1      32.705  25.257  26.032  1.00  0.00    -0.039 A 
ATOM      8  C   UNL A   1      31.311  25.329  26.057  1.00  0.00     0.004 A 
ATOM      9  C   UNL A   1      33.431  26.427  26.269  1.00  0.00     0.018 A 
ATOM     10  C   UNL A   1      30.679  26.567  26.185  1.00  0.00     0.001 A 
ATOM     11  C   UNL A   1      31.439  27.741  26.189  1.00  0.00     0.014 A 
BRANCH   7  12
ATOM     12  C   UNL A   1      33.497  24.001  25.727  1.00  0.00     0.074 C 
ATOM     13  N   UNL A   1      33.459  21.871  24.422  1.00  0.00    -0.331 N 
ATOM     14  C   UNL A   1      34.805  22.156  23.901  1.00  0.00     0.262 C 
ATOM     15  C   UNL A   1      32.735  23.110  24.748  1.00  0.00     0.270 C 
ATOM     16  H   UNL A   1      33.591  21.353  25.290  1.00  0.00     0.348 HD
ATOM     17  C   UNL A   1      35.630  22.977  24.895  1.00  0.00     0.062 C 
ATOM     18  C   UNL A   1      34.924  24.285  25.237  1.00  0.00     0.020 C 
BRANCH  13  19
ATOM     19  C   UNL A   1      32.670  20.986  23.538  1.00  0.00     0.302 C 
BRANCH  19  20
ATOM     20  C   UNL A   1      32.592  19.554  23.978  1.00  0.00     0.043 A 
ATOM     21  C   UNL A   1      32.893  16.987  24.808  1.00  0.00     0.127 A 
ATOM     22  N   UNL A   1      32.679  17.932  25.746  1.00  0.00    -0.241 NA
ATOM     23  N   UNL A   1      32.904  17.219  23.483  1.00  0.00    -0.241 NA
ATOM     24  C   UNL A   1      32.517  19.193  25.305  1.00  0.00     0.124 A 
ATOM     25  C   UNL A   1      32.735  18.499  23.101  1.00  0.00     0.124 A 
BRANCH  21  26
ATOM     26  C   UNL A   1      33.315  15.616  25.260  1.00  0.00     0.074 C 
ATOM     27  C   UNL A   1      32.171  14.779  25.806  1.00  0.00     0.012 C 
ENDBRANCH  21  26
ENDBRANCH  19  20
ENDBRANCH  13  19
ENDBRANCH   7  12
ENDBRANCH   3   6
ENDBRANCH   1   2
BRANCH   1  28
ATOM     28  C   UNL A   1      31.383  31.925  26.521  1.00  0.00     0.042 C 
BRANCH  28  29
ATOM     29  C   UNL A   1      32.553  32.396  27.361  1.00  0.00     0.118 C 
BRANCH  29  30
ATOM     30  N   UNL A   1      32.460  33.814  27.704  1.00  0.00    -0.352 N 
ATOM     31  C   UNL A   1      33.211  34.583  28.563  1.00  0.00     0.251 C 
ATOM     32  H   UNL A   1      31.739  34.300  27.243  1.00  0.00     0.163 HD
ATOM     33  O   UNL A   1      32.827  35.702  28.877  1.00  0.00    -0.269 OA
BRANCH  31  34
ATOM     34  C   UNL A   1      34.470  34.051  29.121  1.00  0.00     0.039 A 
ATOM     35  C   UNL A   1      34.479  33.510  30.411  1.00  0.00     0.014 A 
ATOM     36  C   UNL A   1      35.645  34.089  28.372  1.00  0.00     0.014 A 
ATOM     37  C   UNL A   1      35.644  32.918  30.904  1.00  0.00     0.010 A 
ATOM     38  C   UNL A   1      36.765  33.403  28.815  1.00  0.00     0.010 A 
ATOM     39  C   UNL A   1      36.780  32.813  30.088  1.00  0.00    -0.014 A 
BRANCH  39  40
ATOM     40  C   UNL A   1      38.012  32.108  30.520  1.00  0.00     0.031 A 
ATOM     41  C   UNL A   1      38.972  32.796  31.451  1.00  0.00     0.074 A 
ATOM     42  C   UNL A   1      38.329  30.916  29.977  1.00  0.00     0.049 A 
ATOM     43  N   UNL A   1      40.182  32.441  31.801  1.00  0.00    -0.248 NA
ATOM     44  C   UNL A   1      38.529  34.075  32.030  1.00  0.00     0.031 C 
ATOM     45  C   UNL A   1      37.502  30.164  29.030  1.00  0.00     0.029 A 
ATOM     46  N   UNL A   1      39.452  30.141  30.125  1.00  0.00    -0.354 N 
ATOM     47  C   UNL A   1      40.655  33.471  32.604  1.00  0.00     0.074 A 
ATOM     48  C   UNL A   1      39.624  34.483  32.651  1.00  0.00     0.031 C 
ATOM     49  C   UNL A   1      38.138  29.032  28.694  1.00  0.00     0.029 A 
ATOM     50  C   UNL A   1      39.439  29.003  29.354  1.00  0.00     0.049 A 
ATOM     51  H   UNL A   1      40.194  30.376  30.726  1.00  0.00     0.167 HD
ATOM     52  C   UNL A   1      41.839  33.560  33.256  1.00  0.00     0.031 A 
ATOM     53  C   UNL A   1      40.379  28.055  29.178  1.00  0.00     0.031 A 
ATOM     54  C   UNL A   1      42.850  32.540  33.224  1.00  0.00     0.049 A 
ATOM     55  C   UNL A   1      41.686  28.173  29.911  1.00  0.00     0.074 A 
ATOM     56  C   UNL A   1      44.050  32.497  33.911  1.00  0.00     0.029 A 
ATOM     57  N   UNL A   1      42.779  31.385  32.462  1.00  0.00    -0.354 N 
ATOM     58  N   UNL A   1      42.093  29.119  30.724  1.00  0.00    -0.248 NA
ATOM     59  C   UNL A   1      42.660  27.092  29.710  1.00  0.00     0.031 C 
ATOM     60  C   UNL A   1      44.733  31.342  33.519  1.00  0.00     0.029 A 
ATOM     61  C   UNL A   1      43.928  30.635  32.639  1.00  0.00     0.049 A 
ATOM     62  H   UNL A   1      42.025  31.135  31.881  1.00  0.00     0.167 HD
ATOM     63  C   UNL A   1      43.355  28.731  31.155  1.00  0.00     0.074 A 
ATOM     64  C   UNL A   1      43.644  27.462  30.520  1.00  0.00     0.031 C 
ATOM     65  C   UNL A   1      44.196  29.369  32.005  1.00  0.00     0.031 A 
BRANCH  52  66
ATOM     66  C   UNL A   1      42.104  34.814  34.043  1.00  0.00    -0.014 A 
ATOM     67  C   UNL A   1      42.723  35.931  33.459  1.00  0.00     0.009 A 
ATOM     68  C   UNL A   1      41.704  34.887  35.387  1.00  0.00     0.009 A 
ATOM     69  C   UNL A   1      42.979  37.076  34.216  1.00  0.00     0.001 A 
ATOM     70  C   UNL A   1      41.932  36.046  36.133  1.00  0.00     0.001 A 
ATOM     71  C   UNL A   1      42.580  37.135  35.550  1.00  0.00     0.000 A 
ENDBRANCH  52  66
BRANCH  53  72
ATOM     72  C   UNL A   1      40.113  26.908  28.271  1.00  0.00    -0.014 A 
ATOM     73  C   UNL A   1      40.606  26.910  26.957  1.00  0.00     0.009 A 
ATOM     74  C   UNL A   1      39.378  25.798  28.716  1.00  0.00     0.009 A 
ATOM     75  C   UNL A   1      40.350  25.834  26.103  1.00  0.00     0.001 A 
ATOM     76  C   UNL A   1      39.149  24.711  27.869  1.00  0.00     0.001 A 
ATOM     77  C   UNL A   1      39.628  24.734  26.561  1.00  0.00     0.000 A 
ENDBRANCH  53  72
BRANCH  65  78
ATOM     78  C   UNL A   1      45.492  28.688  32.343  1.00  0.00    -0.014 A 
ATOM     79  C   UNL A   1      46.664  28.947  31.620  1.00  0.00     0.009 A 
ATOM     80  C   UNL A   1      45.550  27.834  33.457  1.00  0.00     0.009 A 
ATOM     81  C   UNL A   1      47.870  28.348  31.996  1.00  0.00     0.001 A 
ATOM     82  C   UNL A   1      46.761  27.261  33.847  1.00  0.00     0.001 A 
ATOM     83  C   UNL A   1      47.918  27.514  33.113  1.00  0.00     0.000 A 
ENDBRANCH  65  78
ENDBRANCH  39  40
ENDBRANCH  31  34
ENDBRANCH  29  30
ENDBRANCH  28  29
ENDBRANCH   1  28
TORSDOF 14
ENDMDL
