MODEL 1
REMARK VINA RESULT:      -9.7      0.000      0.000
REMARK SMILES O=C(Cc1ccc(Cl)nc1)NCCCNC(=O)c1ccc(-c2c3nc(c(-c4ccccc4)c4ccc([nH]4)c(-c4ccccc4)c4nc(c(-c5ccccc5)c5ccc2[nH]5)C=C4)C=C3)cc1
REMARK SMILES IDX 13 1 12 2 11 3 1 4 2 5 3 7 4 8 5 9 10 10 6 11 9 12 7 13 8 14
REMARK SMILES IDX 14 15 15 16 16 17 17 19 18 20 19 21 65 22 20 23 64 24 21 25
REMARK SMILES IDX 22 26 23 27 58 28 24 29 63 30 57 31 59 32 25 33 62 34 56 35
REMARK SMILES IDX 55 36 26 38 48 39 33 40 47 41 34 42 37 43 46 44 60 45 35 46
REMARK SMILES IDX 36 47 45 49 61 50 38 51 27 52 28 53 32 54 29 55 31 56 30 57
REMARK SMILES IDX 49 58 50 59 54 60 51 61 53 62 52 63 39 64 40 65 44 66 41 67
REMARK SMILES IDX 43 68 42 69
REMARK H PARENT 11 6 15 18 59 37 37 48
REMARK Flexibility Score: inf
ROOT
ATOM      1  C   UNL A   1      32.769  36.240  31.602  1.00  0.00     0.042 C 
ENDROOT
BRANCH   1   2
ATOM      2  C   UNL A   1      33.635  36.802  32.724  1.00  0.00     0.117 C 
BRANCH   2   3
ATOM      3  N   UNL A   1      34.019  35.784  33.682  1.00  0.00    -0.356 N 
ATOM      4  O   UNL A   1      36.141  35.425  32.877  1.00  0.00    -0.275 OA
ATOM      5  C   UNL A   1      35.261  35.185  33.695  1.00  0.00     0.224 C 
ATOM      6  H   UNL A   1      33.358  35.507  34.358  1.00  0.00     0.163 HD
BRANCH   5   7
ATOM      7  C   UNL A   1      35.438  34.147  34.793  1.00  0.00     0.137 C 
BRANCH   7   8
ATOM      8  C   UNL A   1      36.569  33.189  34.524  1.00  0.00    -0.020 A 
ATOM      9  C   UNL A   1      36.431  32.121  33.629  1.00  0.00     0.009 A 
ATOM     10  C   UNL A   1      37.784  33.314  35.193  1.00  0.00     0.117 A 
ATOM     11  C   UNL A   1      37.484  31.228  33.453  1.00  0.00     0.041 A 
ATOM     12  N   UNL A   1      38.828  32.473  35.026  1.00  0.00    -0.244 NA
ATOM     13  C   UNL A   1      38.648  31.452  34.167  1.00  0.00     0.129 A 
ATOM     14  Cl  UNL A   1      39.993  30.402  34.001  1.00  0.00    -0.062 Cl
ENDBRANCH   7   8
ENDBRANCH   5   7
ENDBRANCH   2   3
ENDBRANCH   1   2
BRANCH   1  15
ATOM     15  C   UNL A   1      33.419  36.241  30.219  1.00  0.00     0.118 C 
BRANCH  15  16
ATOM     16  N   UNL A   1      32.681  35.474  29.226  1.00  0.00    -0.352 N 
ATOM     17  C   UNL A   1      33.041  34.343  28.535  1.00  0.00     0.251 C 
ATOM     18  H   UNL A   1      31.783  35.820  29.017  1.00  0.00     0.163 HD
ATOM     19  O   UNL A   1      32.301  33.915  27.649  1.00  0.00    -0.269 OA
BRANCH  17  20
ATOM     20  C   UNL A   1      34.321  33.653  28.811  1.00  0.00     0.039 A 
ATOM     21  C   UNL A   1      35.404  33.887  27.959  1.00  0.00     0.014 A 
ATOM     22  C   UNL A   1      34.463  32.774  29.889  1.00  0.00     0.014 A 
ATOM     23  C   UNL A   1      36.647  33.312  28.233  1.00  0.00     0.010 A 
ATOM     24  C   UNL A   1      35.718  32.253  30.200  1.00  0.00     0.010 A 
ATOM     25  C   UNL A   1      36.828  32.528  29.384  1.00  0.00    -0.014 A 
BRANCH  25  26
ATOM     26  C   UNL A   1      38.175  32.034  29.774  1.00  0.00     0.031 A 
ATOM     27  C   UNL A   1      38.668  30.692  29.308  1.00  0.00     0.074 A 
ATOM     28  C   UNL A   1      38.932  32.770  30.613  1.00  0.00     0.049 A 
ATOM     29  N   UNL A   1      39.785  30.076  29.606  1.00  0.00    -0.248 NA
ATOM     30  C   UNL A   1      37.785  29.936  28.408  1.00  0.00     0.031 C 
ATOM     31  C   UNL A   1      38.560  34.074  31.167  1.00  0.00     0.029 A 
ATOM     32  N   UNL A   1      40.169  32.521  31.154  1.00  0.00    -0.354 N 
ATOM     33  C   UNL A   1      39.734  28.857  28.940  1.00  0.00     0.074 A 
ATOM     34  C   UNL A   1      38.457  28.803  28.260  1.00  0.00     0.031 C 
ATOM     35  C   UNL A   1      39.556  34.520  31.948  1.00  0.00     0.029 A 
ATOM     36  C   UNL A   1      40.614  33.516  31.990  1.00  0.00     0.049 A 
ATOM     37  H   UNL A   1      40.688  31.707  30.961  1.00  0.00     0.167 HD
ATOM     38  C   UNL A   1      40.669  27.878  28.889  1.00  0.00     0.031 A 
ATOM     39  C   UNL A   1      41.742  33.609  32.721  1.00  0.00     0.031 A 
ATOM     40  C   UNL A   1      41.940  27.929  29.564  1.00  0.00     0.049 A 
ATOM     41  C   UNL A   1      42.746  32.492  32.675  1.00  0.00     0.074 A 
ATOM     42  C   UNL A   1      42.974  27.007  29.525  1.00  0.00     0.029 A 
ATOM     43  N   UNL A   1      42.348  28.950  30.407  1.00  0.00    -0.354 N 
ATOM     44  N   UNL A   1      42.710  31.378  31.987  1.00  0.00    -0.248 NA
ATOM     45  C   UNL A   1      43.950  32.653  33.501  1.00  0.00     0.031 C 
ATOM     46  C   UNL A   1      43.982  27.443  30.390  1.00  0.00     0.029 A 
ATOM     47  C   UNL A   1      43.603  28.666  30.921  1.00  0.00     0.049 A 
ATOM     48  H   UNL A   1      41.824  29.757  30.611  1.00  0.00     0.167 HD
ATOM     49  C   UNL A   1      43.895  30.714  32.280  1.00  0.00     0.074 A 
ATOM     50  C   UNL A   1      44.636  31.563  33.191  1.00  0.00     0.031 C 
ATOM     51  C   UNL A   1      44.329  29.511  31.833  1.00  0.00     0.031 A 
BRANCH  38  52
ATOM     52  C   UNL A   1      40.346  26.652  28.079  1.00  0.00    -0.014 A 
ATOM     53  C   UNL A   1      39.535  25.629  28.597  1.00  0.00     0.009 A 
ATOM     54  C   UNL A   1      40.823  26.539  26.763  1.00  0.00     0.009 A 
ATOM     55  C   UNL A   1      39.238  24.503  27.826  1.00  0.00     0.001 A 
ATOM     56  C   UNL A   1      40.499  25.426  25.984  1.00  0.00     0.001 A 
ATOM     57  C   UNL A   1      39.716  24.404  26.520  1.00  0.00     0.000 A 
ENDBRANCH  38  52
BRANCH  39  58
ATOM     58  C   UNL A   1      41.983  34.808  33.566  1.00  0.00    -0.014 A 
ATOM     59  C   UNL A   1      41.402  34.911  34.839  1.00  0.00     0.009 A 
ATOM     60  C   UNL A   1      42.789  35.860  33.102  1.00  0.00     0.009 A 
ATOM     61  C   UNL A   1      41.601  36.053  35.618  1.00  0.00     0.001 A 
ATOM     62  C   UNL A   1      43.011  36.986  33.896  1.00  0.00     0.001 A 
ATOM     63  C   UNL A   1      42.408  37.087  35.148  1.00  0.00     0.000 A 
ENDBRANCH  39  58
BRANCH  51  64
ATOM     64  C   UNL A   1      45.680  29.050  32.304  1.00  0.00    -0.014 A 
ATOM     65  C   UNL A   1      46.851  29.390  31.608  1.00  0.00     0.009 A 
ATOM     66  C   UNL A   1      45.785  28.290  33.480  1.00  0.00     0.009 A 
ATOM     67  C   UNL A   1      48.096  28.949  32.061  1.00  0.00     0.001 A 
ATOM     68  C   UNL A   1      47.034  27.876  33.947  1.00  0.00     0.001 A 
ATOM     69  C   UNL A   1      48.186  28.197  33.233  1.00  0.00     0.000 A 
ENDBRANCH  51  64
ENDBRANCH  25  26
ENDBRANCH  17  20
ENDBRANCH  15  16
ENDBRANCH   1  15
TORSDOF 11
ENDMDL
MODEL 2
REMARK VINA RESULT:      -9.4      0.504      6.403
REMARK SMILES O=C(Cc1ccc(Cl)nc1)NCCCNC(=O)c1ccc(-c2c3nc(c(-c4ccccc4)c4ccc([nH]4)c(-c4ccccc4)c4nc(c(-c5ccccc5)c5ccc2[nH]5)C=C4)C=C3)cc1
REMARK SMILES IDX 13 1 12 2 11 3 1 4 2 5 3 7 4 8 5 9 10 10 6 11 9 12 7 13 8 14
REMARK SMILES IDX 14 15 15 16 16 17 17 19 18 20 19 21 65 22 20 23 64 24 21 25
REMARK SMILES IDX 22 26 23 27 58 28 24 29 63 30 57 31 59 32 25 33 62 34 56 35
REMARK SMILES IDX 55 36 26 38 48 39 33 40 47 41 34 42 37 43 46 44 60 45 35 46
REMARK SMILES IDX 36 47 45 49 61 50 38 51 27 52 28 53 32 54 29 55 31 56 30 57
REMARK SMILES IDX 49 58 50 59 54 60 51 61 53 62 52 63 39 64 40 65 44 66 41 67
REMARK SMILES IDX 43 68 42 69
REMARK H PARENT 11 6 15 18 59 37 37 48
REMARK Flexibility Score: inf
ROOT
ATOM      1  C   UNL A   1      32.704  36.098  31.394  1.00  0.00     0.042 C 
ENDROOT
BRANCH   1   2
ATOM      2  C   UNL A   1      33.581  36.756  32.453  1.00  0.00     0.117 C 
BRANCH   2   3
ATOM      3  N   UNL A   1      33.932  35.841  33.521  1.00  0.00    -0.356 N 
ATOM      4  O   UNL A   1      36.044  35.330  32.773  1.00  0.00    -0.275 OA
ATOM      5  C   UNL A   1      35.154  35.210  33.609  1.00  0.00     0.224 C 
ATOM      6  H   UNL A   1      33.261  35.661  34.220  1.00  0.00     0.163 HD
BRANCH   5   7
ATOM      7  C   UNL A   1      35.297  34.297  34.817  1.00  0.00     0.137 C 
BRANCH   7   8
ATOM      8  C   UNL A   1      36.547  33.458  34.779  1.00  0.00    -0.020 A 
ATOM      9  C   UNL A   1      36.622  32.281  34.024  1.00  0.00     0.009 A 
ATOM     10  C   UNL A   1      37.665  33.808  35.532  1.00  0.00     0.117 A 
ATOM     11  C   UNL A   1      37.778  31.508  34.062  1.00  0.00     0.041 A 
ATOM     12  N   UNL A   1      38.806  33.087  35.573  1.00  0.00    -0.244 NA
ATOM     13  C   UNL A   1      38.829  31.956  34.843  1.00  0.00     0.129 A 
ATOM     14  Cl  UNL A   1      40.291  31.064  34.938  1.00  0.00    -0.062 Cl
ENDBRANCH   7   8
ENDBRANCH   5   7
ENDBRANCH   2   3
ENDBRANCH   1   2
BRANCH   1  15
ATOM     15  C   UNL A   1      33.107  36.385  29.948  1.00  0.00     0.118 C 
BRANCH  15  16
ATOM     16  N   UNL A   1      32.614  35.400  28.997  1.00  0.00    -0.352 N 
ATOM     17  C   UNL A   1      33.213  34.265  28.508  1.00  0.00     0.251 C 
ATOM     18  H   UNL A   1      31.708  35.573  28.651  1.00  0.00     0.163 HD
ATOM     19  O   UNL A   1      32.656  33.623  27.617  1.00  0.00    -0.269 OA
BRANCH  17  20
ATOM     20  C   UNL A   1      34.533  33.822  29.008  1.00  0.00     0.039 A 
ATOM     21  C   UNL A   1      34.581  33.035  30.163  1.00  0.00     0.014 A 
ATOM     22  C   UNL A   1      35.721  34.179  28.363  1.00  0.00     0.014 A 
ATOM     23  C   UNL A   1      35.803  32.536  30.620  1.00  0.00     0.010 A 
ATOM     24  C   UNL A   1      36.932  33.628  28.781  1.00  0.00     0.010 A 
ATOM     25  C   UNL A   1      36.985  32.789  29.905  1.00  0.00    -0.014 A 
BRANCH  25  26
ATOM     26  C   UNL A   1      38.269  32.145  30.289  1.00  0.00     0.031 A 
ATOM     27  C   UNL A   1      39.247  32.849  31.188  1.00  0.00     0.074 A 
ATOM     28  C   UNL A   1      38.588  30.944  29.765  1.00  0.00     0.049 A 
ATOM     29  N   UNL A   1      40.439  32.465  31.569  1.00  0.00    -0.248 NA
ATOM     30  C   UNL A   1      38.841  34.161  31.711  1.00  0.00     0.031 C 
ATOM     31  C   UNL A   1      37.746  30.166  28.852  1.00  0.00     0.029 A 
ATOM     32  N   UNL A   1      39.712  30.170  29.918  1.00  0.00    -0.354 N 
ATOM     33  C   UNL A   1      40.931  33.491  32.367  1.00  0.00     0.074 A 
ATOM     34  C   UNL A   1      39.925  34.533  32.376  1.00  0.00     0.031 C 
ATOM     35  C   UNL A   1      38.372  29.019  28.547  1.00  0.00     0.029 A 
ATOM     36  C   UNL A   1      39.676  28.999  29.200  1.00  0.00     0.049 A 
ATOM     37  H   UNL A   1      40.472  30.430  30.487  1.00  0.00     0.167 HD
ATOM     38  C   UNL A   1      42.105  33.557  33.039  1.00  0.00     0.031 A 
ATOM     39  C   UNL A   1      40.593  28.021  29.069  1.00  0.00     0.031 A 
ATOM     40  C   UNL A   1      43.107  32.523  33.031  1.00  0.00     0.049 A 
ATOM     41  C   UNL A   1      41.903  28.136  29.797  1.00  0.00     0.074 A 
ATOM     42  C   UNL A   1      44.304  32.478  33.727  1.00  0.00     0.029 A 
ATOM     43  N   UNL A   1      43.035  31.357  32.286  1.00  0.00    -0.354 N 
ATOM     44  N   UNL A   1      42.322  29.083  30.599  1.00  0.00    -0.248 NA
ATOM     45  C   UNL A   1      42.862  27.039  29.606  1.00  0.00     0.031 C 
ATOM     46  C   UNL A   1      44.982  31.312  33.356  1.00  0.00     0.029 A 
ATOM     47  C   UNL A   1      44.181  30.602  32.477  1.00  0.00     0.049 A 
ATOM     48  H   UNL A   1      42.282  31.103  31.705  1.00  0.00     0.167 HD
ATOM     49  C   UNL A   1      43.583  28.688  31.025  1.00  0.00     0.074 A 
ATOM     50  C   UNL A   1      43.850  27.404  30.409  1.00  0.00     0.031 C 
ATOM     51  C   UNL A   1      44.442  29.330  31.853  1.00  0.00     0.031 A 
BRANCH  38  52
ATOM     52  C   UNL A   1      42.379  34.803  33.836  1.00  0.00    -0.014 A 
ATOM     53  C   UNL A   1      42.032  34.890  35.195  1.00  0.00     0.009 A 
ATOM     54  C   UNL A   1      43.035  35.888  33.233  1.00  0.00     0.009 A 
ATOM     55  C   UNL A   1      42.304  36.051  35.921  1.00  0.00     0.001 A 
ATOM     56  C   UNL A   1      43.332  37.036  33.970  1.00  0.00     0.001 A 
ATOM     57  C   UNL A   1      42.957  37.121  35.310  1.00  0.00     0.000 A 
ENDBRANCH  38  52
BRANCH  39  58
ATOM     58  C   UNL A   1      40.307  26.843  28.210  1.00  0.00    -0.014 A 
ATOM     59  C   UNL A   1      40.779  26.794  26.889  1.00  0.00     0.009 A 
ATOM     60  C   UNL A   1      39.553  25.765  28.701  1.00  0.00     0.009 A 
ATOM     61  C   UNL A   1      40.480  25.702  26.071  1.00  0.00     0.001 A 
ATOM     62  C   UNL A   1      39.282  24.662  27.890  1.00  0.00     0.001 A 
ATOM     63  C   UNL A   1      39.736  24.636  26.573  1.00  0.00     0.000 A 
ENDBRANCH  39  58
BRANCH  51  64
ATOM     64  C   UNL A   1      45.743  28.643  32.162  1.00  0.00    -0.014 A 
ATOM     65  C   UNL A   1      45.859  27.749  33.238  1.00  0.00     0.009 A 
ATOM     66  C   UNL A   1      46.861  28.870  31.344  1.00  0.00     0.009 A 
ATOM     67  C   UNL A   1      47.078  27.124  33.510  1.00  0.00     0.001 A 
ATOM     68  C   UNL A   1      48.070  28.220  31.599  1.00  0.00     0.001 A 
ATOM     69  C   UNL A   1      48.180  27.356  32.687  1.00  0.00     0.000 A 
ENDBRANCH  51  64
ENDBRANCH  25  26
ENDBRANCH  17  20
ENDBRANCH  15  16
ENDBRANCH   1  15
TORSDOF 11
ENDMDL
MODEL 3
REMARK VINA RESULT:      -9.4      5.115     11.424
REMARK SMILES O=C(Cc1ccc(Cl)nc1)NCCCNC(=O)c1ccc(-c2c3nc(c(-c4ccccc4)c4ccc([nH]4)c(-c4ccccc4)c4nc(c(-c5ccccc5)c5ccc2[nH]5)C=C4)C=C3)cc1
REMARK SMILES IDX 13 1 12 2 11 3 1 4 2 5 3 7 4 8 5 9 10 10 6 11 9 12 7 13 8 14
REMARK SMILES IDX 14 15 15 16 16 17 17 19 18 20 19 21 65 22 20 23 64 24 21 25
REMARK SMILES IDX 22 26 23 27 58 28 24 29 63 30 57 31 59 32 25 33 62 34 56 35
REMARK SMILES IDX 55 36 26 38 48 39 33 40 47 41 34 42 37 43 46 44 60 45 35 46
REMARK SMILES IDX 36 47 45 49 61 50 38 51 27 52 28 53 32 54 29 55 31 56 30 57
REMARK SMILES IDX 49 58 50 59 54 60 51 61 53 62 52 63 39 64 40 65 44 66 41 67
REMARK SMILES IDX 43 68 42 69
REMARK H PARENT 11 6 15 18 59 37 37 48
REMARK Flexibility Score: inf
ROOT
ATOM      1  C   UNL A   1      44.406  18.922  24.743  1.00  0.00     0.042 C 
ENDROOT
BRANCH   1   2
ATOM      2  C   UNL A   1      45.747  19.587  25.031  1.00  0.00     0.117 C 
BRANCH   2   3
ATOM      3  N   UNL A   1      45.889  20.855  24.344  1.00  0.00    -0.356 N 
ATOM      4  O   UNL A   1      46.026  22.179  26.217  1.00  0.00    -0.275 OA
ATOM      5  C   UNL A   1      46.039  22.060  24.997  1.00  0.00     0.224 C 
ATOM      6  H   UNL A   1      45.878  20.856  23.358  1.00  0.00     0.163 HD
BRANCH   5   7
ATOM      7  C   UNL A   1      46.174  23.258  24.069  1.00  0.00     0.137 C 
BRANCH   7   8
ATOM      8  C   UNL A   1      46.193  24.573  24.802  1.00  0.00    -0.020 A 
ATOM      9  C   UNL A   1      45.027  25.323  25.001  1.00  0.00     0.009 A 
ATOM     10  C   UNL A   1      47.389  25.110  25.273  1.00  0.00     0.117 A 
ATOM     11  C   UNL A   1      45.101  26.560  25.635  1.00  0.00     0.041 A 
ATOM     12  N   UNL A   1      47.486  26.298  25.908  1.00  0.00    -0.244 NA
ATOM     13  C   UNL A   1      46.343  26.992  26.066  1.00  0.00     0.129 A 
ATOM     14  Cl  UNL A   1      46.517  28.501  26.861  1.00  0.00    -0.062 Cl
ENDBRANCH   7   8
ENDBRANCH   5   7
ENDBRANCH   2   3
ENDBRANCH   1   2
BRANCH   1  15
ATOM     15  C   UNL A   1      43.563  18.601  25.977  1.00  0.00     0.118 C 
BRANCH  15  16
ATOM     16  N   UNL A   1      42.129  18.696  25.747  1.00  0.00    -0.352 N 
ATOM     17  C   UNL A   1      41.249  19.704  26.055  1.00  0.00     0.251 C 
ATOM     18  H   UNL A   1      41.727  17.917  25.299  1.00  0.00     0.163 HD
ATOM     19  O   UNL A   1      40.044  19.533  25.869  1.00  0.00    -0.269 OA
BRANCH  17  20
ATOM     20  C   UNL A   1      41.721  20.978  26.642  1.00  0.00     0.039 A 
ATOM     21  C   UNL A   1      42.256  21.949  25.790  1.00  0.00     0.014 A 
ATOM     22  C   UNL A   1      41.655  21.222  28.017  1.00  0.00     0.014 A 
ATOM     23  C   UNL A   1      42.641  23.191  26.299  1.00  0.00     0.010 A 
ATOM     24  C   UNL A   1      41.978  22.484  28.515  1.00  0.00     0.010 A 
ATOM     25  C   UNL A   1      42.460  23.487  27.660  1.00  0.00    -0.014 A 
BRANCH  25  26
ATOM     26  C   UNL A   1      42.722  24.851  28.191  1.00  0.00     0.031 A 
ATOM     27  C   UNL A   1      44.088  25.236  28.688  1.00  0.00     0.074 A 
ATOM     28  C   UNL A   1      41.702  25.728  28.293  1.00  0.00     0.049 A 
ATOM     29  N   UNL A   1      44.477  26.356  29.244  1.00  0.00    -0.248 NA
ATOM     30  C   UNL A   1      45.149  24.227  28.561  1.00  0.00     0.031 C 
ATOM     31  C   UNL A   1      40.320  25.473  27.880  1.00  0.00     0.029 A 
ATOM     32  N   UNL A   1      41.669  27.010  28.784  1.00  0.00    -0.354 N 
ATOM     33  C   UNL A   1      45.823  26.183  29.544  1.00  0.00     0.074 A 
ATOM     34  C   UNL A   1      46.170  24.834  29.149  1.00  0.00     0.031 C 
ATOM     35  C   UNL A   1      39.582  26.569  28.113  1.00  0.00     0.029 A 
ATOM     36  C   UNL A   1      40.423  27.586  28.734  1.00  0.00     0.049 A 
ATOM     37  H   UNL A   1      42.463  27.472  29.139  1.00  0.00     0.167 HD
ATOM     38  C   UNL A   1      46.693  27.068  30.087  1.00  0.00     0.031 A 
ATOM     39  C   UNL A   1      39.997  28.794  29.152  1.00  0.00     0.031 A 
ATOM     40  C   UNL A   1      46.350  28.410  30.481  1.00  0.00     0.049 A 
ATOM     41  C   UNL A   1      40.975  29.743  29.784  1.00  0.00     0.074 A 
ATOM     42  C   UNL A   1      47.179  29.397  30.990  1.00  0.00     0.029 A 
ATOM     43  N   UNL A   1      45.076  28.952  30.421  1.00  0.00    -0.354 N 
ATOM     44  N   UNL A   1      42.258  29.586  29.999  1.00  0.00    -0.248 NA
ATOM     45  C   UNL A   1      40.445  31.041  30.224  1.00  0.00     0.031 C 
ATOM     46  C   UNL A   1      46.395  30.515  31.291  1.00  0.00     0.029 A 
ATOM     47  C   UNL A   1      45.089  30.246  30.914  1.00  0.00     0.049 A 
ATOM     48  H   UNL A   1      44.280  28.485  30.080  1.00  0.00     0.167 HD
ATOM     49  C   UNL A   1      42.693  30.771  30.578  1.00  0.00     0.074 A 
ATOM     50  C   UNL A   1      41.540  31.645  30.661  1.00  0.00     0.031 C 
ATOM     51  C   UNL A   1      43.936  31.105  31.002  1.00  0.00     0.031 A 
BRANCH  38  52
ATOM     52  C   UNL A   1      48.109  26.607  30.301  1.00  0.00    -0.014 A 
ATOM     53  C   UNL A   1      48.494  25.961  31.486  1.00  0.00     0.009 A 
ATOM     54  C   UNL A   1      49.061  26.782  29.283  1.00  0.00     0.009 A 
ATOM     55  C   UNL A   1      49.811  25.531  31.663  1.00  0.00     0.001 A 
ATOM     56  C   UNL A   1      50.369  26.324  29.450  1.00  0.00     0.001 A 
ATOM     57  C   UNL A   1      50.747  25.709  30.643  1.00  0.00     0.000 A 
ENDBRANCH  38  52
BRANCH  39  58
ATOM     58  C   UNL A   1      38.570  29.177  28.987  1.00  0.00    -0.014 A 
ATOM     59  C   UNL A   1      38.108  29.696  27.768  1.00  0.00     0.009 A 
ATOM     60  C   UNL A   1      37.664  29.034  30.051  1.00  0.00     0.009 A 
ATOM     61  C   UNL A   1      36.776  30.089  27.626  1.00  0.00     0.001 A 
ATOM     62  C   UNL A   1      36.326  29.399  29.895  1.00  0.00     0.001 A 
ATOM     63  C   UNL A   1      35.885  29.936  28.687  1.00  0.00     0.000 A 
ENDBRANCH  39  58
BRANCH  51  64
ATOM     64  C   UNL A   1      44.120  32.483  31.572  1.00  0.00    -0.014 A 
ATOM     65  C   UNL A   1      44.589  33.544  30.781  1.00  0.00     0.009 A 
ATOM     66  C   UNL A   1      43.790  32.731  32.914  1.00  0.00     0.009 A 
ATOM     67  C   UNL A   1      44.756  34.817  31.332  1.00  0.00     0.001 A 
ATOM     68  C   UNL A   1      43.929  34.011  33.454  1.00  0.00     0.001 A 
ATOM     69  C   UNL A   1      44.421  35.050  32.665  1.00  0.00     0.000 A 
ENDBRANCH  51  64
ENDBRANCH  25  26
ENDBRANCH  17  20
ENDBRANCH  15  16
ENDBRANCH   1  15
TORSDOF 11
ENDMDL
