MODEL 1
REMARK VINA RESULT:     -10.3      0.000      0.000
REMARK SMILES CC[C@H](C(=O)NCCCNC(=O)c1ccc(-c2c3nc(c(-c4ccccc4)c4ccc([nH]4)c(-c4ccccc4)c4nc(c(-c5ccccc5)c5ccc2[nH]5)C=C4)C=C3)cc1)N(C)C(=O)[C@H]1CC[C@@H](C[NH3+])CC1
REMARK SMILES IDX 4 1 5 2 6 3 3 5 2 6 1 7 61 8 62 9 63 10 64 11 65 12 72 13
REMARK SMILES IDX 66 14 71 15 67 16 68 17 69 18 70 19 7 23 8 24 9 25 10 26
REMARK SMILES IDX 11 27 12 29 13 30 14 31 60 32 15 33 59 34 16 35 17 36 18 37
REMARK SMILES IDX 53 38 19 39 58 40 52 41 54 42 20 43 57 44 51 45 50 46 21 48
REMARK SMILES IDX 43 49 28 50 42 51 29 52 32 53 41 54 55 55 30 56 31 57 40 59
REMARK SMILES IDX 56 60 33 61 22 62 23 63 27 64 24 65 26 66 25 67 44 68 45 69
REMARK SMILES IDX 49 70 46 71 48 72 47 73 34 74 35 75 39 76 36 77 38 78 37 79
REMARK H PARENT 6 4 70 20 70 21 70 22 10 28 54 47 32 58
REMARK Flexibility Score: inf
ROOT
ATOM      1  C   UNL A   1      31.071  26.597  26.309  1.00  0.00     0.242 C 
ATOM      2  O   UNL A   1      30.023  25.945  26.260  1.00  0.00    -0.273 OA
ATOM      3  N   UNL A   1      31.184  27.460  27.358  1.00  0.00    -0.354 N 
ATOM      4  H   UNL A   1      30.490  27.365  28.050  1.00  0.00     0.163 HD
ENDROOT
BRANCH   1   5
ATOM      5  C   UNL A   1      32.125  26.588  25.170  1.00  0.00     0.173 C 
BRANCH   5   6
ATOM      6  C   UNL A   1      33.102  25.394  25.034  1.00  0.00     0.032 C 
ATOM      7  C   UNL A   1      33.160  24.370  26.157  1.00  0.00     0.006 C 
ENDBRANCH   5   6
BRANCH   5   8
ATOM      8  N   UNL A   1      31.527  26.942  23.859  1.00  0.00    -0.334 N 
ATOM      9  C   UNL A   1      31.300  25.840  22.937  1.00  0.00     0.147 C 
BRANCH   8  10
ATOM     10  C   UNL A   1      31.405  28.287  23.535  1.00  0.00     0.226 C 
ATOM     11  O   UNL A   1      32.396  28.963  23.242  1.00  0.00    -0.275 OA
BRANCH  10  12
ATOM     12  C   UNL A   1      30.070  29.024  23.661  1.00  0.00     0.078 C 
ATOM     13  C   UNL A   1      30.101  30.554  23.669  1.00  0.00     0.014 C 
ATOM     14  C   UNL A   1      29.048  28.424  22.688  1.00  0.00     0.014 C 
ATOM     15  C   UNL A   1      28.693  31.144  23.807  1.00  0.00     0.010 C 
ATOM     16  C   UNL A   1      27.668  29.043  22.885  1.00  0.00     0.010 C 
ATOM     17  C   UNL A   1      27.692  30.577  22.780  1.00  0.00     0.044 C 
BRANCH  17  18
ATOM     18  C   UNL A   1      27.999  31.098  21.359  1.00  0.00     0.262 C 
BRANCH  18  19
ATOM     19  N   UNL A   1      27.979  32.555  21.280  1.00  0.00    -0.357 N 
ATOM     20  H   UNL A   1      27.419  32.929  22.047  1.00  0.00     0.344 HD
ATOM     21  H   UNL A   1      27.569  32.841  20.391  1.00  0.00     0.344 HD
ATOM     22  H   UNL A   1      28.931  32.913  21.348  1.00  0.00     0.344 HD
ENDBRANCH  18  19
ENDBRANCH  17  18
ENDBRANCH  10  12
ENDBRANCH   8  10
ENDBRANCH   5   8
ENDBRANCH   1   5
BRANCH   3  23
ATOM     23  C   UNL A   1      32.166  28.492  27.617  1.00  0.00     0.117 C 
BRANCH  23  24
ATOM     24  C   UNL A   1      31.769  29.837  27.027  1.00  0.00     0.042 C 
BRANCH  24  25
ATOM     25  C   UNL A   1      32.884  30.874  27.000  1.00  0.00     0.118 C 
BRANCH  25  26
ATOM     26  N   UNL A   1      32.418  32.238  27.211  1.00  0.00    -0.352 N 
ATOM     27  C   UNL A   1      32.983  33.276  27.916  1.00  0.00     0.251 C 
ATOM     28  H   UNL A   1      31.560  32.452  26.777  1.00  0.00     0.163 HD
ATOM     29  O   UNL A   1      32.361  34.318  28.080  1.00  0.00    -0.269 OA
BRANCH  27  30
ATOM     30  C   UNL A   1      34.323  33.117  28.520  1.00  0.00     0.039 A 
ATOM     31  C   UNL A   1      34.430  32.491  29.765  1.00  0.00     0.014 A 
ATOM     32  C   UNL A   1      35.470  33.540  27.850  1.00  0.00     0.014 A 
ATOM     33  C   UNL A   1      35.693  32.184  30.278  1.00  0.00     0.010 A 
ATOM     34  C   UNL A   1      36.720  33.144  28.309  1.00  0.00     0.010 A 
ATOM     35  C   UNL A   1      36.845  32.446  29.518  1.00  0.00    -0.014 A 
BRANCH  35  36
ATOM     36  C   UNL A   1      38.184  31.962  29.940  1.00  0.00     0.031 A 
ATOM     37  C   UNL A   1      38.716  30.653  29.429  1.00  0.00     0.074 A 
ATOM     38  C   UNL A   1      38.877  32.653  30.868  1.00  0.00     0.049 A 
ATOM     39  N   UNL A   1      39.803  30.012  29.776  1.00  0.00    -0.248 NA
ATOM     40  C   UNL A   1      37.900  29.957  28.422  1.00  0.00     0.031 C 
ATOM     41  C   UNL A   1      38.456  33.914  31.483  1.00  0.00     0.029 A 
ATOM     42  N   UNL A   1      40.083  32.382  31.464  1.00  0.00    -0.354 N 
ATOM     43  C   UNL A   1      39.785  28.825  29.055  1.00  0.00     0.074 A 
ATOM     44  C   UNL A   1      38.559  28.816  28.287  1.00  0.00     0.031 C 
ATOM     45  C   UNL A   1      39.405  34.326  32.337  1.00  0.00     0.029 A 
ATOM     46  C   UNL A   1      40.475  33.337  32.370  1.00  0.00     0.049 A 
ATOM     47  H   UNL A   1      40.617  31.580  31.262  1.00  0.00     0.167 HD
ATOM     48  C   UNL A   1      40.713  27.839  29.019  1.00  0.00     0.031 A 
ATOM     49  C   UNL A   1      41.570  33.407  33.150  1.00  0.00     0.031 A 
ATOM     50  C   UNL A   1      41.943  27.858  29.762  1.00  0.00     0.049 A 
ATOM     51  C   UNL A   1      42.579  32.296  33.104  1.00  0.00     0.074 A 
ATOM     52  C   UNL A   1      42.984  26.946  29.731  1.00  0.00     0.029 A 
ATOM     53  N   UNL A   1      42.298  28.841  30.673  1.00  0.00    -0.354 N 
ATOM     54  N   UNL A   1      42.575  31.210  32.372  1.00  0.00    -0.248 NA
ATOM     55  C   UNL A   1      43.740  32.422  33.997  1.00  0.00     0.031 C 
ATOM     56  C   UNL A   1      43.950  27.356  30.657  1.00  0.00     0.029 A 
ATOM     57  C   UNL A   1      43.529  28.544  31.233  1.00  0.00     0.049 A 
ATOM     58  H   UNL A   1      41.755  29.632  30.890  1.00  0.00     0.167 HD
ATOM     59  C   UNL A   1      43.739  30.529  32.702  1.00  0.00     0.074 A 
ATOM     60  C   UNL A   1      44.430  31.333  33.691  1.00  0.00     0.031 C 
ATOM     61  C   UNL A   1      44.195  29.345  32.226  1.00  0.00     0.031 A 
BRANCH  48  62
ATOM     62  C   UNL A   1      40.414  26.652  28.147  1.00  0.00    -0.014 A 
ATOM     63  C   UNL A   1      39.624  25.589  28.611  1.00  0.00     0.009 A 
ATOM     64  C   UNL A   1      40.930  26.597  26.843  1.00  0.00     0.009 A 
ATOM     65  C   UNL A   1      39.397  24.472  27.804  1.00  0.00     0.001 A 
ATOM     66  C   UNL A   1      40.677  25.492  26.029  1.00  0.00     0.001 A 
ATOM     67  C   UNL A   1      39.922  24.425  26.514  1.00  0.00     0.000 A 
ENDBRANCH  48  62
BRANCH  49  68
ATOM     68  C   UNL A   1      41.778  34.587  34.025  1.00  0.00    -0.014 A 
ATOM     69  C   UNL A   1      41.328  34.563  35.355  1.00  0.00     0.009 A 
ATOM     70  C   UNL A   1      42.443  35.728  33.552  1.00  0.00     0.009 A 
ATOM     71  C   UNL A   1      41.530  35.664  36.189  1.00  0.00     0.001 A 
ATOM     72  C   UNL A   1      42.662  36.819  34.396  1.00  0.00     0.001 A 
ATOM     73  C   UNL A   1      42.201  36.788  35.711  1.00  0.00     0.000 A 
ENDBRANCH  49  68
BRANCH  61  74
ATOM     74  C   UNL A   1      45.508  28.854  32.762  1.00  0.00    -0.014 A 
ATOM     75  C   UNL A   1      46.720  29.267  32.190  1.00  0.00     0.009 A 
ATOM     76  C   UNL A   1      45.532  27.999  33.874  1.00  0.00     0.009 A 
ATOM     77  C   UNL A   1      47.935  28.814  32.710  1.00  0.00     0.001 A 
ATOM     78  C   UNL A   1      46.748  27.565  34.405  1.00  0.00     0.001 A 
ATOM     79  C   UNL A   1      47.947  27.968  33.819  1.00  0.00     0.000 A 
ENDBRANCH  61  74
ENDBRANCH  35  36
ENDBRANCH  27  30
ENDBRANCH  25  26
ENDBRANCH  24  25
ENDBRANCH  23  24
ENDBRANCH   3  23
TORSDOF 16
ENDMDL
MODEL 2
REMARK VINA RESULT:     -10.3      4.556      9.433
REMARK SMILES CC[C@H](C(=O)NCCCNC(=O)c1ccc(-c2c3nc(c(-c4ccccc4)c4ccc([nH]4)c(-c4ccccc4)c4nc(c(-c5ccccc5)c5ccc2[nH]5)C=C4)C=C3)cc1)N(C)C(=O)[C@H]1CC[C@@H](C[NH3+])CC1
REMARK SMILES IDX 4 1 5 2 6 3 3 5 2 6 1 7 61 8 62 9 63 10 64 11 65 12 72 13
REMARK SMILES IDX 66 14 71 15 67 16 68 17 69 18 70 19 7 23 8 24 9 25 10 26
REMARK SMILES IDX 11 27 12 29 13 30 14 31 60 32 15 33 59 34 16 35 17 36 18 37
REMARK SMILES IDX 53 38 19 39 58 40 52 41 54 42 20 43 57 44 51 45 50 46 21 48
REMARK SMILES IDX 43 49 28 50 42 51 29 52 32 53 41 54 55 55 30 56 31 57 40 59
REMARK SMILES IDX 56 60 33 61 22 62 23 63 27 64 24 65 26 66 25 67 44 68 45 69
REMARK SMILES IDX 49 70 46 71 48 72 47 73 34 74 35 75 39 76 36 77 38 78 37 79
REMARK H PARENT 6 4 70 20 70 21 70 22 10 28 54 47 32 58
REMARK Flexibility Score: inf
ROOT
ATOM      1  C   UNL A   1      34.383  22.440  26.636  1.00  0.00     0.242 C 
ATOM      2  O   UNL A   1      34.033  22.329  27.816  1.00  0.00    -0.273 OA
ATOM      3  N   UNL A   1      35.635  21.988  26.343  1.00  0.00    -0.354 N 
ATOM      4  H   UNL A   1      36.073  21.483  27.065  1.00  0.00     0.163 HD
ENDROOT
BRANCH   1   5
ATOM      5  C   UNL A   1      33.545  23.203  25.576  1.00  0.00     0.173 C 
BRANCH   5   6
ATOM      6  C   UNL A   1      33.950  24.638  25.160  1.00  0.00     0.032 C 
ATOM      7  C   UNL A   1      33.243  25.813  25.819  1.00  0.00     0.006 C 
ENDBRANCH   5   6
BRANCH   5   8
ATOM      8  N   UNL A   1      33.258  22.362  24.387  1.00  0.00    -0.334 N 
ATOM      9  C   UNL A   1      33.434  22.999  23.092  1.00  0.00     0.147 C 
BRANCH   8  10
ATOM     10  C   UNL A   1      32.674  21.118  24.588  1.00  0.00     0.226 C 
ATOM     11  O   UNL A   1      31.694  20.989  25.329  1.00  0.00    -0.275 OA
BRANCH  10  12
ATOM     12  C   UNL A   1      33.294  19.840  24.021  1.00  0.00     0.078 C 
ATOM     13  C   UNL A   1      34.275  19.070  24.909  1.00  0.00     0.014 C 
ATOM     14  C   UNL A   1      32.205  18.966  23.389  1.00  0.00     0.014 C 
ATOM     15  C   UNL A   1      34.813  17.823  24.201  1.00  0.00     0.010 C 
ATOM     16  C   UNL A   1      32.805  17.750  22.691  1.00  0.00     0.010 C 
ATOM     17  C   UNL A   1      33.702  16.920  23.626  1.00  0.00     0.044 C 
BRANCH  17  18
ATOM     18  C   UNL A   1      32.929  16.205  24.755  1.00  0.00     0.262 C 
BRANCH  18  19
ATOM     19  N   UNL A   1      33.623  16.269  26.036  1.00  0.00    -0.357 N 
ATOM     20  H   UNL A   1      33.664  17.238  26.353  1.00  0.00     0.344 HD
ATOM     21  H   UNL A   1      34.571  15.907  25.928  1.00  0.00     0.344 HD
ATOM     22  H   UNL A   1      33.121  15.708  26.724  1.00  0.00     0.344 HD
ENDBRANCH  18  19
ENDBRANCH  17  18
ENDBRANCH  10  12
ENDBRANCH   8  10
ENDBRANCH   5   8
ENDBRANCH   1   5
BRANCH   3  23
ATOM     23  C   UNL A   1      36.422  22.132  25.136  1.00  0.00     0.117 C 
BRANCH  23  24
ATOM     24  C   UNL A   1      37.456  21.028  24.976  1.00  0.00     0.042 C 
BRANCH  24  25
ATOM     25  C   UNL A   1      38.754  21.256  25.737  1.00  0.00     0.118 C 
BRANCH  25  26
ATOM     26  N   UNL A   1      39.639  20.099  25.744  1.00  0.00    -0.352 N 
ATOM     27  C   UNL A   1      40.967  19.992  26.090  1.00  0.00     0.251 C 
ATOM     28  H   UNL A   1      39.218  19.257  25.456  1.00  0.00     0.163 HD
ATOM     29  O   UNL A   1      41.569  18.942  25.900  1.00  0.00    -0.269 OA
BRANCH  27  30
ATOM     30  C   UNL A   1      41.684  21.161  26.643  1.00  0.00     0.039 A 
ATOM     31  C   UNL A   1      42.249  22.084  25.760  1.00  0.00     0.014 A 
ATOM     32  C   UNL A   1      41.764  21.370  28.019  1.00  0.00     0.014 A 
ATOM     33  C   UNL A   1      42.787  23.274  26.255  1.00  0.00     0.010 A 
ATOM     34  C   UNL A   1      42.202  22.597  28.504  1.00  0.00     0.010 A 
ATOM     35  C   UNL A   1      42.702  23.570  27.626  1.00  0.00    -0.014 A 
BRANCH  35  36
ATOM     36  C   UNL A   1      43.085  24.900  28.163  1.00  0.00     0.031 A 
ATOM     37  C   UNL A   1      42.035  25.939  28.438  1.00  0.00     0.074 A 
ATOM     38  C   UNL A   1      44.389  25.210  28.302  1.00  0.00     0.049 A 
ATOM     39  N   UNL A   1      42.185  27.191  28.792  1.00  0.00    -0.248 NA
ATOM     40  C   UNL A   1      40.634  25.527  28.260  1.00  0.00     0.031 C 
ATOM     41  C   UNL A   1      45.513  24.311  28.025  1.00  0.00     0.029 A 
ATOM     42  N   UNL A   1      44.991  26.376  28.703  1.00  0.00    -0.354 N 
ATOM     43  C   UNL A   1      40.903  27.722  28.846  1.00  0.00     0.074 A 
ATOM     44  C   UNL A   1      39.993  26.671  28.446  1.00  0.00     0.031 C 
ATOM     45  C   UNL A   1      46.662  24.945  28.302  1.00  0.00     0.029 A 
ATOM     46  C   UNL A   1      46.363  26.307  28.727  1.00  0.00     0.049 A 
ATOM     47  H   UNL A   1      44.488  27.185  28.952  1.00  0.00     0.167 HD
ATOM     48  C   UNL A   1      40.515  28.967  29.213  1.00  0.00     0.031 A 
ATOM     49  C   UNL A   1      47.281  27.238  29.045  1.00  0.00     0.031 A 
ATOM     50  C   UNL A   1      41.415  30.004  29.634  1.00  0.00     0.049 A 
ATOM     51  C   UNL A   1      46.828  28.615  29.435  1.00  0.00     0.074 A 
ATOM     52  C   UNL A   1      41.113  31.272  30.102  1.00  0.00     0.029 A 
ATOM     53  N   UNL A   1      42.797  29.895  29.636  1.00  0.00    -0.354 N 
ATOM     54  N   UNL A   1      45.609  29.083  29.539  1.00  0.00    -0.248 NA
ATOM     55  C   UNL A   1      47.881  29.592  29.748  1.00  0.00     0.031 C 
ATOM     56  C   UNL A   1      42.316  31.944  30.346  1.00  0.00     0.029 A 
ATOM     57  C   UNL A   1      43.364  31.082  30.070  1.00  0.00     0.049 A 
ATOM     58  H   UNL A   1      43.300  29.093  29.368  1.00  0.00     0.167 HD
ATOM     59  C   UNL A   1      45.745  30.404  29.944  1.00  0.00     0.074 A 
ATOM     60  C   UNL A   1      47.166  30.657  30.080  1.00  0.00     0.031 C 
ATOM     61  C   UNL A   1      44.779  31.322  30.184  1.00  0.00     0.031 A 
BRANCH  48  62
ATOM     62  C   UNL A   1      39.043  29.265  29.160  1.00  0.00    -0.014 A 
ATOM     63  C   UNL A   1      38.227  29.107  30.292  1.00  0.00     0.009 A 
ATOM     64  C   UNL A   1      38.463  29.710  27.962  1.00  0.00     0.009 A 
ATOM     65  C   UNL A   1      36.853  29.342  30.212  1.00  0.00     0.001 A 
ATOM     66  C   UNL A   1      37.094  29.971  27.893  1.00  0.00     0.001 A 
ATOM     67  C   UNL A   1      36.288  29.776  29.013  1.00  0.00     0.000 A 
ENDBRANCH  48  62
BRANCH  49  68
ATOM     68  C   UNL A   1      48.723  26.889  29.028  1.00  0.00    -0.014 A 
ATOM     69  C   UNL A   1      49.329  26.356  30.177  1.00  0.00     0.009 A 
ATOM     70  C   UNL A   1      49.493  27.059  27.868  1.00  0.00     0.009 A 
ATOM     71  C   UNL A   1      50.682  26.013  30.167  1.00  0.00     0.001 A 
ATOM     72  C   UNL A   1      50.842  26.694  27.856  1.00  0.00     0.001 A 
ATOM     73  C   UNL A   1      51.435  26.177  29.005  1.00  0.00     0.000 A 
ENDBRANCH  49  68
BRANCH  61  74
ATOM     74  C   UNL A   1      45.227  32.684  30.630  1.00  0.00    -0.014 A 
ATOM     75  C   UNL A   1      45.455  33.709  29.699  1.00  0.00     0.009 A 
ATOM     76  C   UNL A   1      45.385  32.954  31.997  1.00  0.00     0.009 A 
ATOM     77  C   UNL A   1      45.857  34.975  30.130  1.00  0.00     0.001 A 
ATOM     78  C   UNL A   1      45.764  34.226  32.427  1.00  0.00     0.001 A 
ATOM     79  C   UNL A   1      46.006  35.233  31.493  1.00  0.00     0.000 A 
ENDBRANCH  61  74
ENDBRANCH  35  36
ENDBRANCH  27  30
ENDBRANCH  25  26
ENDBRANCH  24  25
ENDBRANCH  23  24
ENDBRANCH   3  23
TORSDOF 16
ENDMDL
MODEL 3
REMARK VINA RESULT:     -10.2      5.318      9.916
REMARK SMILES CC[C@H](C(=O)NCCCNC(=O)c1ccc(-c2c3nc(c(-c4ccccc4)c4ccc([nH]4)c(-c4ccccc4)c4nc(c(-c5ccccc5)c5ccc2[nH]5)C=C4)C=C3)cc1)N(C)C(=O)[C@H]1CC[C@@H](C[NH3+])CC1
REMARK SMILES IDX 4 1 5 2 6 3 3 5 2 6 1 7 61 8 62 9 63 10 64 11 65 12 72 13
REMARK SMILES IDX 66 14 71 15 67 16 68 17 69 18 70 19 7 23 8 24 9 25 10 26
REMARK SMILES IDX 11 27 12 29 13 30 14 31 60 32 15 33 59 34 16 35 17 36 18 37
REMARK SMILES IDX 53 38 19 39 58 40 52 41 54 42 20 43 57 44 51 45 50 46 21 48
REMARK SMILES IDX 43 49 28 50 42 51 29 52 32 53 41 54 55 55 30 56 31 57 40 59
REMARK SMILES IDX 56 60 33 61 22 62 23 63 27 64 24 65 26 66 25 67 44 68 45 69
REMARK SMILES IDX 49 70 46 71 48 72 47 73 34 74 35 75 39 76 36 77 38 78 37 79
REMARK H PARENT 6 4 70 20 70 21 70 22 10 28 54 47 32 58
REMARK Flexibility Score: inf
ROOT
ATOM      1  C   UNL A   1      35.955  22.681  23.713  1.00  0.00     0.242 C 
ATOM      2  O   UNL A   1      36.121  23.284  22.646  1.00  0.00    -0.273 OA
ATOM      3  N   UNL A   1      36.979  21.867  24.098  1.00  0.00    -0.354 N 
ATOM      4  H   UNL A   1      37.803  21.958  23.569  1.00  0.00     0.163 HD
ENDROOT
BRANCH   1   5
ATOM      5  C   UNL A   1      34.612  22.692  24.489  1.00  0.00     0.173 C 
BRANCH   5   6
ATOM      6  C   UNL A   1      34.146  23.984  25.203  1.00  0.00     0.032 C 
ATOM      7  C   UNL A   1      33.472  23.861  26.562  1.00  0.00     0.006 C 
ENDBRANCH   5   6
BRANCH   5   8
ATOM      8  N   UNL A   1      33.510  22.091  23.698  1.00  0.00    -0.334 N 
ATOM      9  C   UNL A   1      33.033  22.868  22.565  1.00  0.00     0.147 C 
BRANCH   8  10
ATOM     10  C   UNL A   1      32.896  20.948  24.192  1.00  0.00     0.226 C 
ATOM     11  O   UNL A   1      31.961  21.025  24.995  1.00  0.00    -0.275 OA
BRANCH  10  12
ATOM     12  C   UNL A   1      33.432  19.550  23.878  1.00  0.00     0.078 C 
ATOM     13  C   UNL A   1      34.460  18.950  24.841  1.00  0.00     0.014 C 
ATOM     14  C   UNL A   1      32.272  18.608  23.537  1.00  0.00     0.014 C 
ATOM     15  C   UNL A   1      34.906  17.556  24.390  1.00  0.00     0.010 C 
ATOM     16  C   UNL A   1      32.781  17.244  23.084  1.00  0.00     0.010 C 
ATOM     17  C   UNL A   1      33.727  16.600  24.112  1.00  0.00     0.044 C 
BRANCH  17  18
ATOM     18  C   UNL A   1      33.029  16.183  25.424  1.00  0.00     0.262 C 
BRANCH  18  19
ATOM     19  N   UNL A   1      32.253  14.956  25.281  1.00  0.00    -0.357 N 
ATOM     20  H   UNL A   1      31.316  15.184  24.946  1.00  0.00     0.344 HD
ATOM     21  H   UNL A   1      32.185  14.489  26.186  1.00  0.00     0.344 HD
ATOM     22  H   UNL A   1      32.712  14.339  24.612  1.00  0.00     0.344 HD
ENDBRANCH  18  19
ENDBRANCH  17  18
ENDBRANCH  10  12
ENDBRANCH   8  10
ENDBRANCH   5   8
ENDBRANCH   1   5
BRANCH   3  23
ATOM     23  C   UNL A   1      37.044  20.890  25.165  1.00  0.00     0.117 C 
BRANCH  23  24
ATOM     24  C   UNL A   1      38.203  19.920  25.001  1.00  0.00     0.042 C 
BRANCH  24  25
ATOM     25  C   UNL A   1      39.378  20.166  25.937  1.00  0.00     0.118 C 
BRANCH  25  26
ATOM     26  N   UNL A   1      40.363  19.093  25.934  1.00  0.00    -0.352 N 
ATOM     27  C   UNL A   1      41.727  19.131  26.113  1.00  0.00     0.251 C 
ATOM     28  H   UNL A   1      39.991  18.194  25.780  1.00  0.00     0.163 HD
ATOM     29  O   UNL A   1      42.398  18.121  25.942  1.00  0.00    -0.269 OA
BRANCH  27  30
ATOM     30  C   UNL A   1      42.391  20.406  26.461  1.00  0.00     0.039 A 
ATOM     31  C   UNL A   1      43.025  21.133  25.450  1.00  0.00     0.014 A 
ATOM     32  C   UNL A   1      42.355  20.904  27.763  1.00  0.00     0.014 A 
ATOM     33  C   UNL A   1      43.515  22.412  25.723  1.00  0.00     0.010 A 
ATOM     34  C   UNL A   1      42.748  22.214  28.009  1.00  0.00     0.010 A 
ATOM     35  C   UNL A   1      43.316  22.989  26.988  1.00  0.00    -0.014 A 
BRANCH  35  36
ATOM     36  C   UNL A   1      43.648  24.411  27.259  1.00  0.00     0.031 A 
ATOM     37  C   UNL A   1      45.070  24.888  27.181  1.00  0.00     0.074 A 
ATOM     38  C   UNL A   1      42.680  25.250  27.679  1.00  0.00     0.049 A 
ATOM     39  N   UNL A   1      45.568  26.056  27.498  1.00  0.00    -0.248 NA
ATOM     40  C   UNL A   1      46.070  23.913  26.717  1.00  0.00     0.031 C 
ATOM     41  C   UNL A   1      41.265  24.905  27.845  1.00  0.00     0.029 A 
ATOM     42  N   UNL A   1      42.744  26.568  28.056  1.00  0.00    -0.354 N 
ATOM     43  C   UNL A   1      46.938  25.946  27.305  1.00  0.00     0.074 A 
ATOM     44  C   UNL A   1      47.198  24.586  26.885  1.00  0.00     0.031 C 
ATOM     45  C   UNL A   1      40.592  25.992  28.250  1.00  0.00     0.029 A 
ATOM     46  C   UNL A   1      41.530  27.095  28.422  1.00  0.00     0.049 A 
ATOM     47  H   UNL A   1      43.580  27.087  28.062  1.00  0.00     0.167 HD
ATOM     48  C   UNL A   1      47.895  26.895  27.444  1.00  0.00     0.031 A 
ATOM     49  C   UNL A   1      41.205  28.326  28.857  1.00  0.00     0.031 A 
ATOM     50  C   UNL A   1      47.636  28.253  27.837  1.00  0.00     0.049 A 
ATOM     51  C   UNL A   1      42.283  29.358  29.018  1.00  0.00     0.074 A 
ATOM     52  C   UNL A   1      48.526  29.310  27.928  1.00  0.00     0.029 A 
ATOM     53  N   UNL A   1      46.393  28.744  28.205  1.00  0.00    -0.354 N 
ATOM     54  N   UNL A   1      43.566  29.255  28.773  1.00  0.00    -0.248 NA
ATOM     55  C   UNL A   1      41.866  30.676  29.519  1.00  0.00     0.031 C 
ATOM     56  C   UNL A   1      47.828  30.428  28.395  1.00  0.00     0.029 A 
ATOM     57  C   UNL A   1      46.496  30.080  28.553  1.00  0.00     0.049 A 
ATOM     58  H   UNL A   1      45.561  28.219  28.218  1.00  0.00     0.167 HD
ATOM     59  C   UNL A   1      44.109  30.496  29.074  1.00  0.00     0.074 A 
ATOM     60  C   UNL A   1      43.013  31.340  29.507  1.00  0.00     0.031 C 
ATOM     61  C   UNL A   1      45.400  30.900  28.997  1.00  0.00     0.031 A 
BRANCH  48  62
ATOM     62  C   UNL A   1      49.314  26.478  27.176  1.00  0.00    -0.014 A 
ATOM     63  C   UNL A   1      49.851  26.517  25.880  1.00  0.00     0.009 A 
ATOM     64  C   UNL A   1      50.124  26.041  28.236  1.00  0.00     0.009 A 
ATOM     65  C   UNL A   1      51.156  26.079  25.642  1.00  0.00     0.001 A 
ATOM     66  C   UNL A   1      51.437  25.631  27.998  1.00  0.00     0.001 A 
ATOM     67  C   UNL A   1      51.948  25.639  26.702  1.00  0.00     0.000 A 
ENDBRANCH  48  62
BRANCH  49  68
ATOM     68  C   UNL A   1      39.788  28.655  29.151  1.00  0.00    -0.014 A 
ATOM     69  C   UNL A   1      39.263  28.421  30.432  1.00  0.00     0.009 A 
ATOM     70  C   UNL A   1      38.962  29.224  28.170  1.00  0.00     0.009 A 
ATOM     71  C   UNL A   1      37.935  28.738  30.720  1.00  0.00     0.001 A 
ATOM     72  C   UNL A   1      37.639  29.560  28.469  1.00  0.00     0.001 A 
ATOM     73  C   UNL A   1      37.126  29.313  29.741  1.00  0.00     0.000 A 
ENDBRANCH  49  68
BRANCH  61  74
ATOM     74  C   UNL A   1      45.694  32.322  29.378  1.00  0.00    -0.014 A 
ATOM     75  C   UNL A   1      45.615  33.354  28.432  1.00  0.00     0.009 A 
ATOM     76  C   UNL A   1      46.017  32.635  30.707  1.00  0.00     0.009 A 
ATOM     77  C   UNL A   1      45.877  34.674  28.806  1.00  0.00     0.001 A 
ATOM     78  C   UNL A   1      46.257  33.957  31.083  1.00  0.00     0.001 A 
ATOM     79  C   UNL A   1      46.193  34.974  30.131  1.00  0.00     0.000 A 
ENDBRANCH  61  74
ENDBRANCH  35  36
ENDBRANCH  27  30
ENDBRANCH  25  26
ENDBRANCH  24  25
ENDBRANCH  23  24
ENDBRANCH   3  23
TORSDOF 16
ENDMDL
