MODEL 1
REMARK VINA RESULT:     -11.5      0.000      0.000
REMARK SMILES CC[C@@H]1CCC[C@@](Cc2ccccn2)(C(=O)NCCCNC(=O)c2ccc(-c3c4nc(c(-c5ccccc5)c5ccc([nH]5)c(-c5ccccc5)c5nc(c(-c6ccccc6)c6ccc3[nH]6)C=C5)C=C4)cc2)C1
REMARK SMILES IDX 19 1 18 2 17 3 15 4 16 5 7 7 3 8 4 9 72 10 5 11 6 12 2 13
REMARK SMILES IDX 1 14 8 15 9 16 10 17 14 18 11 19 13 20 12 21 20 22 21 23
REMARK SMILES IDX 22 24 23 26 24 27 25 28 71 29 26 30 70 31 27 32 28 33 29 34
REMARK SMILES IDX 64 35 30 36 69 37 63 38 65 39 31 40 68 41 62 42 61 43 32 45
REMARK SMILES IDX 54 46 39 47 53 48 40 49 43 50 52 51 66 52 41 53 42 54 51 56
REMARK SMILES IDX 67 57 44 58 33 59 34 60 38 61 35 62 37 63 36 64 55 65 56 66
REMARK SMILES IDX 60 67 57 68 59 69 58 70 45 71 46 72 50 73 47 74 49 75 48 76
REMARK H PARENT 17 6 21 25 65 44 43 55
REMARK Flexibility Score: inf
ROOT
ATOM      1  C   UNL A   1      37.405  20.822  24.564  1.00  0.00     0.042 C 
ENDROOT
BRANCH   1   2
ATOM      2  C   UNL A   1      36.031  20.381  25.009  1.00  0.00     0.117 C 
BRANCH   2   3
ATOM      3  N   UNL A   1      35.513  21.093  26.154  1.00  0.00    -0.356 N 
ATOM      4  C   UNL A   1      34.295  21.662  26.355  1.00  0.00     0.226 C 
ATOM      5  O   UNL A   1      33.981  21.815  27.541  1.00  0.00    -0.274 OA
ATOM      6  H   UNL A   1      36.140  21.180  26.908  1.00  0.00     0.163 HD
BRANCH   4   7
ATOM      7  C   UNL A   1      33.334  22.075  25.211  1.00  0.00     0.055 C 
ATOM      8  C   UNL A   1      33.579  24.630  25.738  1.00  0.00    -0.010 C 
ATOM      9  C   UNL A   1      34.382  24.824  24.446  1.00  0.00     0.003 C 
ATOM     10  C   UNL A   1      32.634  23.413  25.648  1.00  0.00     0.021 C 
ATOM     11  C   UNL A   1      35.049  23.533  23.991  1.00  0.00     0.001 C 
ATOM     12  C   UNL A   1      34.025  22.404  23.865  1.00  0.00     0.017 C 
BRANCH   8  13
ATOM     13  C   UNL A   1      32.836  25.922  26.139  1.00  0.00     0.000 C 
ATOM     14  C   UNL A   1      33.628  27.214  25.969  1.00  0.00     0.004 C 
ENDBRANCH   8  13
BRANCH   7  15
ATOM     15  C   UNL A   1      32.176  21.030  25.087  1.00  0.00     0.073 C 
BRANCH  15  16
ATOM     16  C   UNL A   1      32.517  19.597  24.764  1.00  0.00     0.041 A 
ATOM     17  C   UNL A   1      32.706  19.188  23.443  1.00  0.00     0.024 A 
ATOM     18  N   UNL A   1      32.581  18.729  25.803  1.00  0.00    -0.261 NA
ATOM     19  C   UNL A   1      32.906  17.833  23.177  1.00  0.00     0.003 A 
ATOM     20  C   UNL A   1      32.793  17.423  25.518  1.00  0.00     0.111 A 
ATOM     21  C   UNL A   1      32.939  16.929  24.233  1.00  0.00     0.020 A 
ENDBRANCH  15  16
ENDBRANCH   7  15
ENDBRANCH   4   7
ENDBRANCH   2   3
ENDBRANCH   1   2
BRANCH   1  22
ATOM     22  C   UNL A   1      38.383  20.921  25.721  1.00  0.00     0.118 C 
BRANCH  22  23
ATOM     23  N   UNL A   1      39.357  19.826  25.744  1.00  0.00    -0.352 N 
ATOM     24  C   UNL A   1      40.706  19.827  26.002  1.00  0.00     0.251 C 
ATOM     25  H   UNL A   1      38.981  18.941  25.537  1.00  0.00     0.163 HD
ATOM     26  O   UNL A   1      41.383  18.836  25.749  1.00  0.00    -0.269 OA
BRANCH  24  27
ATOM     27  C   UNL A   1      41.339  21.034  26.566  1.00  0.00     0.039 A 
ATOM     28  C   UNL A   1      41.914  21.981  25.715  1.00  0.00     0.014 A 
ATOM     29  C   UNL A   1      41.337  21.239  27.944  1.00  0.00     0.014 A 
ATOM     30  C   UNL A   1      42.393  23.180  26.247  1.00  0.00     0.010 A 
ATOM     31  C   UNL A   1      41.683  22.479  28.452  1.00  0.00     0.010 A 
ATOM     32  C   UNL A   1      42.230  23.459  27.613  1.00  0.00    -0.014 A 
BRANCH  32  33
ATOM     33  C   UNL A   1      42.638  24.750  28.216  1.00  0.00     0.031 A 
ATOM     34  C   UNL A   1      41.602  25.819  28.446  1.00  0.00     0.074 A 
ATOM     35  C   UNL A   1      43.942  25.003  28.447  1.00  0.00     0.049 A 
ATOM     36  N   UNL A   1      41.766  27.065  28.807  1.00  0.00    -0.248 NA
ATOM     37  C   UNL A   1      40.199  25.451  28.185  1.00  0.00     0.031 C 
ATOM     38  C   UNL A   1      45.048  24.070  28.212  1.00  0.00     0.029 A 
ATOM     39  N   UNL A   1      44.558  26.133  28.921  1.00  0.00    -0.354 N 
ATOM     40  C   UNL A   1      40.500  27.635  28.770  1.00  0.00     0.074 A 
ATOM     41  C   UNL A   1      39.587  26.619  28.298  1.00  0.00     0.031 C 
ATOM     42  C   UNL A   1      46.201  24.654  28.577  1.00  0.00     0.029 A 
ATOM     43  C   UNL A   1      45.923  26.014  29.024  1.00  0.00     0.049 A 
ATOM     44  H   UNL A   1      44.069  26.951  29.164  1.00  0.00     0.167 HD
ATOM     45  C   UNL A   1      40.123  28.886  29.122  1.00  0.00     0.031 A 
ATOM     46  C   UNL A   1      46.847  26.906  29.428  1.00  0.00     0.031 A 
ATOM     47  C   UNL A   1      41.025  29.875  29.642  1.00  0.00     0.049 A 
ATOM     48  C   UNL A   1      46.398  28.279  29.847  1.00  0.00     0.074 A 
ATOM     49  C   UNL A   1      40.735  31.145  30.109  1.00  0.00     0.029 A 
ATOM     50  N   UNL A   1      42.392  29.698  29.774  1.00  0.00    -0.354 N 
ATOM     51  N   UNL A   1      45.187  28.781  29.869  1.00  0.00    -0.248 NA
ATOM     52  C   UNL A   1      47.443  29.203  30.306  1.00  0.00     0.031 C 
ATOM     53  C   UNL A   1      41.936  31.751  30.489  1.00  0.00     0.029 A 
ATOM     54  C   UNL A   1      42.965  30.841  30.303  1.00  0.00     0.049 A 
ATOM     55  H   UNL A   1      42.884  28.882  29.527  1.00  0.00     0.167 HD
ATOM     56  C   UNL A   1      45.321  30.067  30.375  1.00  0.00     0.074 A 
ATOM     57  C   UNL A   1      46.729  30.262  30.659  1.00  0.00     0.031 C 
ATOM     58  C   UNL A   1      44.366  31.004  30.588  1.00  0.00     0.031 A 
BRANCH  45  59
ATOM     59  C   UNL A   1      38.672  29.244  28.966  1.00  0.00    -0.014 A 
ATOM     60  C   UNL A   1      38.161  29.704  27.742  1.00  0.00     0.009 A 
ATOM     61  C   UNL A   1      37.796  29.095  30.052  1.00  0.00     0.009 A 
ATOM     62  C   UNL A   1      36.812  30.043  27.619  1.00  0.00     0.001 A 
ATOM     63  C   UNL A   1      36.441  29.406  29.919  1.00  0.00     0.001 A 
ATOM     64  C   UNL A   1      35.952  29.889  28.706  1.00  0.00     0.000 A 
ENDBRANCH  45  59
BRANCH  46  65
ATOM     65  C   UNL A   1      48.282  26.526  29.487  1.00  0.00    -0.014 A 
ATOM     66  C   UNL A   1      48.804  25.914  30.637  1.00  0.00     0.009 A 
ATOM     67  C   UNL A   1      49.141  26.782  28.407  1.00  0.00     0.009 A 
ATOM     68  C   UNL A   1      50.161  25.595  30.717  1.00  0.00     0.001 A 
ATOM     69  C   UNL A   1      50.492  26.436  28.479  1.00  0.00     0.001 A 
ATOM     70  C   UNL A   1      51.003  25.854  29.638  1.00  0.00     0.000 A 
ENDBRANCH  46  65
BRANCH  58  71
ATOM     71  C   UNL A   1      44.803  32.303  31.199  1.00  0.00    -0.014 A 
ATOM     72  C   UNL A   1      45.176  33.395  30.401  1.00  0.00     0.009 A 
ATOM     73  C   UNL A   1      44.792  32.448  32.595  1.00  0.00     0.009 A 
ATOM     74  C   UNL A   1      45.560  34.600  30.993  1.00  0.00     0.001 A 
ATOM     75  C   UNL A   1      45.148  33.662  33.182  1.00  0.00     0.001 A 
ATOM     76  C   UNL A   1      45.539  34.734  32.381  1.00  0.00     0.000 A 
ENDBRANCH  58  71
ENDBRANCH  32  33
ENDBRANCH  24  27
ENDBRANCH  22  23
ENDBRANCH   1  22
TORSDOF 13
ENDMDL
MODEL 2
REMARK VINA RESULT:     -11.5      4.242      9.038
REMARK SMILES CC[C@@H]1CCC[C@@](Cc2ccccn2)(C(=O)NCCCNC(=O)c2ccc(-c3c4nc(c(-c5ccccc5)c5ccc([nH]5)c(-c5ccccc5)c5nc(c(-c6ccccc6)c6ccc3[nH]6)C=C5)C=C4)cc2)C1
REMARK SMILES IDX 19 1 18 2 17 3 15 4 16 5 7 7 3 8 4 9 72 10 5 11 6 12 2 13
REMARK SMILES IDX 1 14 8 15 9 16 10 17 14 18 11 19 13 20 12 21 20 22 21 23
REMARK SMILES IDX 22 24 23 26 24 27 25 28 71 29 26 30 70 31 27 32 28 33 29 34
REMARK SMILES IDX 64 35 30 36 69 37 63 38 65 39 31 40 68 41 62 42 61 43 32 45
REMARK SMILES IDX 54 46 39 47 53 48 40 49 43 50 52 51 66 52 41 53 42 54 51 56
REMARK SMILES IDX 67 57 44 58 33 59 34 60 38 61 35 62 37 63 36 64 55 65 56 66
REMARK SMILES IDX 60 67 57 68 59 69 58 70 45 71 46 72 50 73 47 74 49 75 48 76
REMARK H PARENT 17 6 21 25 65 44 43 55
REMARK Flexibility Score: inf
ROOT
ATOM      1  C   UNL A   1      31.590  30.522  26.709  1.00  0.00     0.042 C 
ENDROOT
BRANCH   1   2
ATOM      2  C   UNL A   1      31.442  30.145  25.254  1.00  0.00     0.117 C 
BRANCH   2   3
ATOM      3  N   UNL A   1      32.666  29.720  24.615  1.00  0.00    -0.356 N 
ATOM      4  C   UNL A   1      32.910  28.651  23.812  1.00  0.00     0.226 C 
ATOM      5  O   UNL A   1      33.899  28.767  23.078  1.00  0.00    -0.274 OA
ATOM      6  H   UNL A   1      33.446  30.296  24.788  1.00  0.00     0.163 HD
BRANCH   4   7
ATOM      7  C   UNL A   1      32.025  27.380  23.770  1.00  0.00     0.055 C 
ATOM      8  C   UNL A   1      33.944  25.843  24.679  1.00  0.00    -0.010 C 
ATOM      9  C   UNL A   1      33.201  25.699  26.014  1.00  0.00     0.003 C 
ATOM     10  C   UNL A   1      32.977  26.154  23.517  1.00  0.00     0.021 C 
ATOM     11  C   UNL A   1      32.255  26.864  26.268  1.00  0.00     0.001 C 
ATOM     12  C   UNL A   1      31.292  27.051  25.095  1.00  0.00     0.017 C 
BRANCH   8  13
ATOM     13  C   UNL A   1      34.831  24.615  24.392  1.00  0.00     0.000 C 
ATOM     14  C   UNL A   1      35.669  24.122  25.567  1.00  0.00     0.004 C 
ENDBRANCH   8  13
BRANCH   7  15
ATOM     15  C   UNL A   1      31.082  27.429  22.523  1.00  0.00     0.073 C 
BRANCH  15  16
ATOM     16  C   UNL A   1      29.958  28.434  22.497  1.00  0.00     0.041 A 
ATOM     17  C   UNL A   1      28.741  28.161  23.123  1.00  0.00     0.024 A 
ATOM     18  N   UNL A   1      30.170  29.578  21.802  1.00  0.00    -0.261 NA
ATOM     19  C   UNL A   1      27.688  29.066  22.978  1.00  0.00     0.003 A 
ATOM     20  C   UNL A   1      29.136  30.446  21.692  1.00  0.00     0.111 A 
ATOM     21  C   UNL A   1      27.884  30.226  22.238  1.00  0.00     0.020 A 
ENDBRANCH  15  16
ENDBRANCH   7  15
ENDBRANCH   4   7
ENDBRANCH   2   3
ENDBRANCH   1   2
BRANCH   1  22
ATOM     22  C   UNL A   1      32.806  31.396  26.957  1.00  0.00     0.118 C 
BRANCH  22  23
ATOM     23  N   UNL A   1      32.459  32.784  27.276  1.00  0.00    -0.352 N 
ATOM     24  C   UNL A   1      33.051  33.687  28.123  1.00  0.00     0.251 C 
ATOM     25  H   UNL A   1      31.665  33.125  26.805  1.00  0.00     0.163 HD
ATOM     26  O   UNL A   1      32.472  34.728  28.418  1.00  0.00    -0.269 OA
BRANCH  24  27
ATOM     27  C   UNL A   1      34.379  33.391  28.693  1.00  0.00     0.039 A 
ATOM     28  C   UNL A   1      34.479  32.693  29.899  1.00  0.00     0.014 A 
ATOM     29  C   UNL A   1      35.529  33.782  28.012  1.00  0.00     0.014 A 
ATOM     30  C   UNL A   1      35.736  32.302  30.363  1.00  0.00     0.010 A 
ATOM     31  C   UNL A   1      36.758  33.277  28.398  1.00  0.00     0.010 A 
ATOM     32  C   UNL A   1      36.880  32.544  29.587  1.00  0.00    -0.014 A 
BRANCH  32  33
ATOM     33  C   UNL A   1      38.228  32.075  29.986  1.00  0.00     0.031 A 
ATOM     34  C   UNL A   1      38.744  30.765  29.449  1.00  0.00     0.074 A 
ATOM     35  C   UNL A   1      38.932  32.758  30.910  1.00  0.00     0.049 A 
ATOM     36  N   UNL A   1      39.815  30.096  29.789  1.00  0.00    -0.248 NA
ATOM     37  C   UNL A   1      37.918  30.095  28.428  1.00  0.00     0.031 C 
ATOM     38  C   UNL A   1      38.516  34.010  31.548  1.00  0.00     0.029 A 
ATOM     39  N   UNL A   1      40.148  32.484  31.483  1.00  0.00    -0.354 N 
ATOM     40  C   UNL A   1      39.763  28.913  29.063  1.00  0.00     0.074 A 
ATOM     41  C   UNL A   1      38.531  28.928  28.308  1.00  0.00     0.031 C 
ATOM     42  C   UNL A   1      39.477  34.412  32.397  1.00  0.00     0.029 A 
ATOM     43  C   UNL A   1      40.551  33.425  32.399  1.00  0.00     0.049 A 
ATOM     44  H   UNL A   1      40.681  31.688  31.259  1.00  0.00     0.167 HD
ATOM     45  C   UNL A   1      40.672  27.912  29.009  1.00  0.00     0.031 A 
ATOM     46  C   UNL A   1      41.659  33.482  33.159  1.00  0.00     0.031 A 
ATOM     47  C   UNL A   1      41.919  27.926  29.720  1.00  0.00     0.049 A 
ATOM     48  C   UNL A   1      42.671  32.374  33.054  1.00  0.00     0.074 A 
ATOM     49  C   UNL A   1      42.950  27.005  29.671  1.00  0.00     0.029 A 
ATOM     50  N   UNL A   1      42.308  28.922  30.601  1.00  0.00    -0.354 N 
ATOM     51  N   UNL A   1      42.639  31.294  32.313  1.00  0.00    -0.248 NA
ATOM     52  C   UNL A   1      43.876  32.500  33.885  1.00  0.00     0.031 C 
ATOM     53  C   UNL A   1      43.949  27.425  30.554  1.00  0.00     0.029 A 
ATOM     54  C   UNL A   1      43.560  28.632  31.114  1.00  0.00     0.049 A 
ATOM     55  H   UNL A   1      41.775  29.717  30.829  1.00  0.00     0.167 HD
ATOM     56  C   UNL A   1      43.832  30.628  32.561  1.00  0.00     0.074 A 
ATOM     57  C   UNL A   1      44.570  31.434  33.513  1.00  0.00     0.031 C 
ATOM     58  C   UNL A   1      44.279  29.456  32.049  1.00  0.00     0.031 A 
BRANCH  45  59
ATOM     59  C   UNL A   1      40.350  26.728  28.141  1.00  0.00    -0.014 A 
ATOM     60  C   UNL A   1      40.847  26.626  26.832  1.00  0.00     0.009 A 
ATOM     61  C   UNL A   1      39.560  25.686  28.649  1.00  0.00     0.009 A 
ATOM     62  C   UNL A   1      40.526  25.525  26.036  1.00  0.00     0.001 A 
ATOM     63  C   UNL A   1      39.266  24.571  27.862  1.00  0.00     0.001 A 
ATOM     64  C   UNL A   1      39.741  24.495  26.553  1.00  0.00     0.000 A 
ENDBRANCH  45  59
BRANCH  46  65
ATOM     65  C   UNL A   1      41.893  34.638  34.064  1.00  0.00    -0.014 A 
ATOM     66  C   UNL A   1      42.521  35.797  33.582  1.00  0.00     0.009 A 
ATOM     67  C   UNL A   1      41.502  34.590  35.411  1.00  0.00     0.009 A 
ATOM     68  C   UNL A   1      42.783  36.869  34.436  1.00  0.00     0.001 A 
ATOM     69  C   UNL A   1      41.740  35.675  36.256  1.00  0.00     0.001 A 
ATOM     70  C   UNL A   1      42.390  36.809  35.772  1.00  0.00     0.000 A 
ENDBRANCH  46  65
BRANCH  58  71
ATOM     71  C   UNL A   1      45.646  29.001  32.469  1.00  0.00    -0.014 A 
ATOM     72  C   UNL A   1      46.794  29.402  31.771  1.00  0.00     0.009 A 
ATOM     73  C   UNL A   1      45.785  28.198  33.612  1.00  0.00     0.009 A 
ATOM     74  C   UNL A   1      48.056  28.982  32.193  1.00  0.00     0.001 A 
ATOM     75  C   UNL A   1      47.050  27.804  34.048  1.00  0.00     0.001 A 
ATOM     76  C   UNL A   1      48.184  28.189  33.333  1.00  0.00     0.000 A 
ENDBRANCH  58  71
ENDBRANCH  32  33
ENDBRANCH  24  27
ENDBRANCH  22  23
ENDBRANCH   1  22
TORSDOF 13
ENDMDL
MODEL 3
REMARK VINA RESULT:     -11.4      0.591      6.057
REMARK SMILES CC[C@@H]1CCC[C@@](Cc2ccccn2)(C(=O)NCCCNC(=O)c2ccc(-c3c4nc(c(-c5ccccc5)c5ccc([nH]5)c(-c5ccccc5)c5nc(c(-c6ccccc6)c6ccc3[nH]6)C=C5)C=C4)cc2)C1
REMARK SMILES IDX 19 1 18 2 17 3 15 4 16 5 7 7 3 8 4 9 72 10 5 11 6 12 2 13
REMARK SMILES IDX 1 14 8 15 9 16 10 17 14 18 11 19 13 20 12 21 20 22 21 23
REMARK SMILES IDX 22 24 23 26 24 27 25 28 71 29 26 30 70 31 27 32 28 33 29 34
REMARK SMILES IDX 64 35 30 36 69 37 63 38 65 39 31 40 68 41 62 42 61 43 32 45
REMARK SMILES IDX 54 46 39 47 53 48 40 49 43 50 52 51 66 52 41 53 42 54 51 56
REMARK SMILES IDX 67 57 44 58 33 59 34 60 38 61 35 62 37 63 36 64 55 65 56 66
REMARK SMILES IDX 60 67 57 68 59 69 58 70 45 71 46 72 50 73 47 74 49 75 48 76
REMARK H PARENT 17 6 21 25 65 44 43 55
REMARK Flexibility Score: inf
ROOT
ATOM      1  C   UNL A   1      37.702  19.833  25.027  1.00  0.00     0.042 C 
ENDROOT
BRANCH   1   2
ATOM      2  C   UNL A   1      36.653  20.893  24.789  1.00  0.00     0.117 C 
BRANCH   2   3
ATOM      3  N   UNL A   1      36.080  21.453  25.992  1.00  0.00    -0.356 N 
ATOM      4  C   UNL A   1      34.796  21.793  26.274  1.00  0.00     0.226 C 
ATOM      5  O   UNL A   1      34.522  21.835  27.480  1.00  0.00    -0.274 OA
ATOM      6  H   UNL A   1      36.722  21.612  26.722  1.00  0.00     0.163 HD
BRANCH   4   7
ATOM      7  C   UNL A   1      33.721  22.085  25.196  1.00  0.00     0.055 C 
ATOM      8  C   UNL A   1      33.698  24.654  25.713  1.00  0.00    -0.010 C 
ATOM      9  C   UNL A   1      34.389  24.934  24.372  1.00  0.00     0.003 C 
ATOM     10  C   UNL A   1      32.898  23.334  25.681  1.00  0.00     0.021 C 
ATOM     11  C   UNL A   1      35.171  23.728  23.872  1.00  0.00     0.001 C 
ATOM     12  C   UNL A   1      34.280  22.487  23.809  1.00  0.00     0.017 C 
BRANCH   8  13
ATOM     13  C   UNL A   1      32.837  25.852  26.165  1.00  0.00     0.000 C 
ATOM     14  C   UNL A   1      33.466  27.226  25.963  1.00  0.00     0.004 C 
ENDBRANCH   8  13
BRANCH   7  15
ATOM     15  C   UNL A   1      32.687  20.911  25.145  1.00  0.00     0.073 C 
BRANCH  15  16
ATOM     16  C   UNL A   1      33.025  19.677  24.346  1.00  0.00     0.041 A 
ATOM     17  C   UNL A   1      32.288  19.338  23.210  1.00  0.00     0.024 A 
ATOM     18  N   UNL A   1      34.032  18.899  24.810  1.00  0.00    -0.261 NA
ATOM     19  C   UNL A   1      32.557  18.129  22.567  1.00  0.00     0.003 A 
ATOM     20  C   UNL A   1      34.283  17.740  24.157  1.00  0.00     0.111 A 
ATOM     21  C   UNL A   1      33.566  17.307  23.055  1.00  0.00     0.020 A 
ENDBRANCH  15  16
ENDBRANCH   7  15
ENDBRANCH   4   7
ENDBRANCH   2   3
ENDBRANCH   1   2
BRANCH   1  22
ATOM     22  C   UNL A   1      38.933  20.385  25.724  1.00  0.00     0.118 C 
BRANCH  22  23
ATOM     23  N   UNL A   1      40.020  19.408  25.828  1.00  0.00    -0.352 N 
ATOM     24  C   UNL A   1      41.358  19.575  26.086  1.00  0.00     0.251 C 
ATOM     25  H   UNL A   1      39.744  18.474  25.687  1.00  0.00     0.163 HD
ATOM     26  O   UNL A   1      42.141  18.647  25.908  1.00  0.00    -0.269 OA
BRANCH  24  27
ATOM     27  C   UNL A   1      41.852  20.881  26.561  1.00  0.00     0.039 A 
ATOM     28  C   UNL A   1      42.321  21.823  25.641  1.00  0.00     0.014 A 
ATOM     29  C   UNL A   1      41.822  21.183  27.921  1.00  0.00     0.014 A 
ATOM     30  C   UNL A   1      42.662  23.103  26.085  1.00  0.00     0.010 A 
ATOM     31  C   UNL A   1      42.026  22.486  28.337  1.00  0.00     0.010 A 
ATOM     32  C   UNL A   1      42.464  23.459  27.428  1.00  0.00    -0.014 A 
BRANCH  32  33
ATOM     33  C   UNL A   1      42.725  24.827  27.936  1.00  0.00     0.031 A 
ATOM     34  C   UNL A   1      44.114  25.197  28.385  1.00  0.00     0.074 A 
ATOM     35  C   UNL A   1      41.702  25.690  28.101  1.00  0.00     0.049 A 
ATOM     36  N   UNL A   1      44.523  26.273  29.006  1.00  0.00    -0.248 NA
ATOM     37  C   UNL A   1      45.175  24.201  28.150  1.00  0.00     0.031 C 
ATOM     38  C   UNL A   1      40.301  25.431  27.757  1.00  0.00     0.029 A 
ATOM     39  N   UNL A   1      41.686  26.962  28.614  1.00  0.00    -0.354 N 
ATOM     40  C   UNL A   1      45.869  26.060  29.274  1.00  0.00     0.074 A 
ATOM     41  C   UNL A   1      46.196  24.734  28.802  1.00  0.00     0.031 C 
ATOM     42  C   UNL A   1      39.570  26.522  28.036  1.00  0.00     0.029 A 
ATOM     43  C   UNL A   1      40.438  27.537  28.621  1.00  0.00     0.049 A 
ATOM     44  H   UNL A   1      42.491  27.418  28.946  1.00  0.00     0.167 HD
ATOM     45  C   UNL A   1      46.764  26.903  29.840  1.00  0.00     0.031 A 
ATOM     46  C   UNL A   1      40.040  28.746  29.058  1.00  0.00     0.031 A 
ATOM     47  C   UNL A   1      46.447  28.240  30.259  1.00  0.00     0.049 A 
ATOM     48  C   UNL A   1      41.060  29.678  29.652  1.00  0.00     0.074 A 
ATOM     49  C   UNL A   1      47.296  29.208  30.766  1.00  0.00     0.029 A 
ATOM     50  N   UNL A   1      45.181  28.799  30.205  1.00  0.00    -0.354 N 
ATOM     51  N   UNL A   1      42.343  29.487  29.838  1.00  0.00    -0.248 NA
ATOM     52  C   UNL A   1      40.576  30.996  30.086  1.00  0.00     0.031 C 
ATOM     53  C   UNL A   1      46.534  30.343  31.056  1.00  0.00     0.029 A 
ATOM     54  C   UNL A   1      45.222  30.097  30.683  1.00  0.00     0.049 A 
ATOM     55  H   UNL A   1      44.374  28.343  29.877  1.00  0.00     0.167 HD
ATOM     56  C   UNL A   1      42.827  30.671  30.379  1.00  0.00     0.074 A 
ATOM     57  C   UNL A   1      41.700  31.577  30.479  1.00  0.00     0.031 C 
ATOM     58  C   UNL A   1      44.089  30.983  30.759  1.00  0.00     0.031 A 
BRANCH  45  59
ATOM     59  C   UNL A   1      48.169  26.403  30.026  1.00  0.00    -0.014 A 
ATOM     60  C   UNL A   1      48.565  25.762  31.210  1.00  0.00     0.009 A 
ATOM     61  C   UNL A   1      49.104  26.550  28.990  1.00  0.00     0.009 A 
ATOM     62  C   UNL A   1      49.878  25.315  31.369  1.00  0.00     0.001 A 
ATOM     63  C   UNL A   1      50.408  26.075  29.139  1.00  0.00     0.001 A 
ATOM     64  C   UNL A   1      50.797  25.467  30.332  1.00  0.00     0.000 A 
ENDBRANCH  45  59
BRANCH  46  65
ATOM     65  C   UNL A   1      38.619  29.162  28.925  1.00  0.00    -0.014 A 
ATOM     66  C   UNL A   1      37.744  29.050  30.017  1.00  0.00     0.009 A 
ATOM     67  C   UNL A   1      38.126  29.662  27.709  1.00  0.00     0.009 A 
ATOM     68  C   UNL A   1      36.399  29.398  29.886  1.00  0.00     0.001 A 
ATOM     69  C   UNL A   1      36.785  30.036  27.591  1.00  0.00     0.001 A 
ATOM     70  C   UNL A   1      35.921  29.893  28.675  1.00  0.00     0.000 A 
ENDBRANCH  46  65
BRANCH  58  71
ATOM     71  C   UNL A   1      44.328  32.373  31.271  1.00  0.00    -0.014 A 
ATOM     72  C   UNL A   1      44.634  33.428  30.399  1.00  0.00     0.009 A 
ATOM     73  C   UNL A   1      44.194  32.636  32.643  1.00  0.00     0.009 A 
ATOM     74  C   UNL A   1      44.832  34.717  30.898  1.00  0.00     0.001 A 
ATOM     75  C   UNL A   1      44.364  33.930  33.134  1.00  0.00     0.001 A 
ATOM     76  C   UNL A   1      44.691  34.968  32.262  1.00  0.00     0.000 A 
ENDBRANCH  58  71
ENDBRANCH  32  33
ENDBRANCH  24  27
ENDBRANCH  22  23
ENDBRANCH   1  22
TORSDOF 13
ENDMDL
