MODEL 1
REMARK VINA RESULT:     -11.2      0.000      0.000
REMARK SMILES O=C(NCCCNC(=O)[C@]12COc3ccccc3[C@H]1C[N@H+](CCO)C2)c1ccc(-c2c3nc(c(-c4ccccc4)c4ccc([nH]4)c(-c4ccccc4)c4nc(c(-c5ccccc5)c5ccc2[nH]5)C=C4)C=C3)cc1
REMARK SMILES IDX 5 1 4 2 3 3 1 4 2 5 26 7 27 8 73 9 28 10 72 11 29 12 30 13
REMARK SMILES IDX 31 14 66 15 32 16 71 17 65 18 67 19 33 20 70 21 64 22 63 23
REMARK SMILES IDX 34 25 56 26 41 27 55 28 42 29 45 30 54 31 68 32 43 33 44 34
REMARK SMILES IDX 53 36 69 37 46 38 35 39 36 40 40 41 37 42 39 43 38 44 57 45
REMARK SMILES IDX 58 46 62 47 59 48 61 49 60 50 47 51 48 52 52 53 49 54 51 55
REMARK SMILES IDX 50 56 6 57 7 58 8 59 9 61 10 62 11 63 19 64 25 65 12 66
REMARK SMILES IDX 18 67 20 68 21 69 13 70 17 71 14 73 16 74 15 75 22 76 23 77
REMARK SMILES IDX 24 78
REMARK H PARENT 3 6 67 24 45 35 7 60 21 72 24 79
REMARK Flexibility Score: inf
ROOT
ATOM      1  C   UNL A   1      32.036  28.015  27.463  1.00  0.00     0.042 C 
ENDROOT
BRANCH   1   2
ATOM      2  C   UNL A   1      33.432  28.583  27.272  1.00  0.00     0.118 C 
BRANCH   2   3
ATOM      3  N   UNL A   1      33.516  29.986  27.636  1.00  0.00    -0.352 N 
ATOM      4  O   UNL A   1      34.275  31.832  28.652  1.00  0.00    -0.269 OA
ATOM      5  C   UNL A   1      34.523  30.696  28.233  1.00  0.00     0.251 C 
ATOM      6  H   UNL A   1      32.715  30.514  27.417  1.00  0.00     0.163 HD
BRANCH   5   7
ATOM      7  C   UNL A   1      35.889  30.147  28.400  1.00  0.00     0.039 A 
ATOM      8  C   UNL A   1      36.252  29.633  29.650  1.00  0.00     0.014 A 
ATOM      9  C   UNL A   1      36.850  30.215  27.386  1.00  0.00     0.014 A 
ATOM     10  C   UNL A   1      37.554  29.178  29.874  1.00  0.00     0.010 A 
ATOM     11  C   UNL A   1      38.120  29.669  27.578  1.00  0.00     0.010 A 
ATOM     12  C   UNL A   1      38.499  29.180  28.835  1.00  0.00    -0.014 A 
BRANCH  12  13
ATOM     13  C   UNL A   1      39.896  28.732  29.078  1.00  0.00     0.031 A 
ATOM     14  C   UNL A   1      40.328  27.339  28.699  1.00  0.00     0.074 A 
ATOM     15  C   UNL A   1      40.782  29.577  29.638  1.00  0.00     0.049 A 
ATOM     16  N   UNL A   1      41.512  26.788  28.796  1.00  0.00    -0.248 NA
ATOM     17  C   UNL A   1      39.294  26.441  28.160  1.00  0.00     0.031 C 
ATOM     18  C   UNL A   1      40.483  30.936  30.087  1.00  0.00     0.029 A 
ATOM     19  N   UNL A   1      42.119  29.421  29.910  1.00  0.00    -0.354 N 
ATOM     20  C   UNL A   1      41.362  25.485  28.336  1.00  0.00     0.074 A 
ATOM     21  C   UNL A   1      39.962  25.304  28.028  1.00  0.00     0.031 C 
ATOM     22  C   UNL A   1      41.614  31.509  30.529  1.00  0.00     0.029 A 
ATOM     23  C   UNL A   1      42.708  30.548  30.428  1.00  0.00     0.049 A 
ATOM     24  H   UNL A   1      42.608  28.582  29.749  1.00  0.00     0.167 HD
ATOM     25  C   UNL A   1      42.308  24.533  28.151  1.00  0.00     0.031 A 
ATOM     26  C   UNL A   1      43.988  30.792  30.770  1.00  0.00     0.031 A 
ATOM     27  C   UNL A   1      43.703  24.713  28.449  1.00  0.00     0.049 A 
ATOM     28  C   UNL A   1      45.023  29.723  30.565  1.00  0.00     0.074 A 
ATOM     29  C   UNL A   1      44.745  23.822  28.261  1.00  0.00     0.029 A 
ATOM     30  N   UNL A   1      44.253  25.863  28.996  1.00  0.00    -0.354 N 
ATOM     31  N   UNL A   1      44.873  28.514  30.079  1.00  0.00    -0.248 NA
ATOM     32  C   UNL A   1      46.405  30.055  30.939  1.00  0.00     0.031 C 
ATOM     33  C   UNL A   1      45.915  24.411  28.746  1.00  0.00     0.029 A 
ATOM     34  C   UNL A   1      45.616  25.695  29.174  1.00  0.00     0.049 A 
ATOM     35  H   UNL A   1      43.749  26.678  29.222  1.00  0.00     0.167 HD
ATOM     36  C   UNL A   1      46.138  27.942  30.084  1.00  0.00     0.074 A 
ATOM     37  C   UNL A   1      47.050  28.948  30.592  1.00  0.00     0.031 C 
ATOM     38  C   UNL A   1      46.509  26.693  29.708  1.00  0.00     0.031 A 
BRANCH  25  39
ATOM     39  C   UNL A   1      41.863  23.210  27.586  1.00  0.00    -0.014 A 
ATOM     40  C   UNL A   1      41.844  23.006  26.198  1.00  0.00     0.009 A 
ATOM     41  C   UNL A   1      41.413  22.178  28.426  1.00  0.00     0.009 A 
ATOM     42  C   UNL A   1      41.384  21.801  25.663  1.00  0.00     0.001 A 
ATOM     43  C   UNL A   1      40.985  20.961  27.891  1.00  0.00     0.001 A 
ATOM     44  C   UNL A   1      40.964  20.777  26.510  1.00  0.00     0.000 A 
ENDBRANCH  25  39
BRANCH  26  45
ATOM     45  C   UNL A   1      44.352  32.136  31.292  1.00  0.00    -0.014 A 
ATOM     46  C   UNL A   1      44.776  33.151  30.418  1.00  0.00     0.009 A 
ATOM     47  C   UNL A   1      44.354  32.385  32.672  1.00  0.00     0.009 A 
ATOM     48  C   UNL A   1      45.224  34.376  30.919  1.00  0.00     0.001 A 
ATOM     49  C   UNL A   1      44.775  33.622  33.168  1.00  0.00     0.001 A 
ATOM     50  C   UNL A   1      45.221  34.611  32.292  1.00  0.00     0.000 A 
ENDBRANCH  26  45
BRANCH  38  51
ATOM     51  C   UNL A   1      47.961  26.324  29.847  1.00  0.00    -0.014 A 
ATOM     52  C   UNL A   1      48.440  25.796  31.056  1.00  0.00     0.009 A 
ATOM     53  C   UNL A   1      48.872  26.581  28.809  1.00  0.00     0.009 A 
ATOM     54  C   UNL A   1      49.801  25.540  31.228  1.00  0.00     0.001 A 
ATOM     55  C   UNL A   1      50.229  26.294  28.974  1.00  0.00     0.001 A 
ATOM     56  C   UNL A   1      50.693  25.783  30.185  1.00  0.00     0.000 A 
ENDBRANCH  38  51
ENDBRANCH  12  13
ENDBRANCH   5   7
ENDBRANCH   2   3
ENDBRANCH   1   2
BRANCH   1  57
ATOM     57  C   UNL A   1      31.591  27.002  26.409  1.00  0.00     0.117 C 
BRANCH  57  58
ATOM     58  N   UNL A   1      31.374  25.635  26.858  1.00  0.00    -0.355 N 
ATOM     59  C   UNL A   1      31.860  24.402  26.571  1.00  0.00     0.236 C 
ATOM     60  H   UNL A   1      30.687  25.594  27.563  1.00  0.00     0.163 HD
ATOM     61  O   UNL A   1      31.702  23.611  27.515  1.00  0.00    -0.274 OA
BRANCH  59  62
ATOM     62  C   UNL A   1      32.517  23.897  25.259  1.00  0.00     0.144 C 
ATOM     63  C   UNL A   1      32.593  22.343  25.444  1.00  0.00     0.253 C 
ATOM     64  C   UNL A   1      33.922  24.492  25.023  1.00  0.00     0.103 C 
ATOM     65  C   UNL A   1      31.776  24.269  23.962  1.00  0.00     0.283 C 
ATOM     66  O   UNL A   1      33.777  21.673  24.999  1.00  0.00    -0.492 OA
ATOM     67  C   UNL A   1      35.081  23.638  25.451  1.00  0.00     0.004 A 
ATOM     68  C   UNL A   1      34.041  24.596  23.493  1.00  0.00     0.272 C 
ATOM     69  N   UNL A   1      32.708  24.880  23.013  1.00  0.00    -0.331 N 
ATOM     70  C   UNL A   1      34.941  22.253  25.420  1.00  0.00     0.123 A 
ATOM     71  C   UNL A   1      36.361  24.193  25.599  1.00  0.00     0.008 A 
ATOM     72  H   UNL A   1      32.549  24.448  22.102  1.00  0.00     0.348 HD
ATOM     73  C   UNL A   1      36.047  21.424  25.597  1.00  0.00     0.047 A 
ATOM     74  C   UNL A   1      37.477  23.365  25.734  1.00  0.00     0.001 A 
ATOM     75  C   UNL A   1      37.318  21.981  25.754  1.00  0.00     0.004 A 
BRANCH  69  76
ATOM     76  C   UNL A   1      32.466  26.262  22.585  1.00  0.00     0.290 C 
BRANCH  76  77
ATOM     77  C   UNL A   1      31.026  26.811  22.516  1.00  0.00     0.217 C 
BRANCH  77  78
ATOM     78  O   UNL A   1      30.906  27.935  21.652  1.00  0.00    -0.391 OA
ATOM     79  H   UNL A   1      30.609  27.640  20.777  1.00  0.00     0.210 HD
ENDBRANCH  77  78
ENDBRANCH  76  77
ENDBRANCH  69  76
ENDBRANCH  59  62
ENDBRANCH  57  58
ENDBRANCH   1  57
TORSDOF 13
ENDMDL
MODEL 2
REMARK VINA RESULT:     -11.1      0.747      5.997
REMARK SMILES O=C(NCCCNC(=O)[C@]12COc3ccccc3[C@H]1C[N@H+](CCO)C2)c1ccc(-c2c3nc(c(-c4ccccc4)c4ccc([nH]4)c(-c4ccccc4)c4nc(c(-c5ccccc5)c5ccc2[nH]5)C=C4)C=C3)cc1
REMARK SMILES IDX 5 1 4 2 3 3 1 4 2 5 26 7 27 8 73 9 28 10 72 11 29 12 30 13
REMARK SMILES IDX 31 14 66 15 32 16 71 17 65 18 67 19 33 20 70 21 64 22 63 23
REMARK SMILES IDX 34 25 56 26 41 27 55 28 42 29 45 30 54 31 68 32 43 33 44 34
REMARK SMILES IDX 53 36 69 37 46 38 35 39 36 40 40 41 37 42 39 43 38 44 57 45
REMARK SMILES IDX 58 46 62 47 59 48 61 49 60 50 47 51 48 52 52 53 49 54 51 55
REMARK SMILES IDX 50 56 6 57 7 58 8 59 9 61 10 62 11 63 19 64 25 65 12 66
REMARK SMILES IDX 18 67 20 68 21 69 13 70 17 71 14 73 16 74 15 75 22 76 23 77
REMARK SMILES IDX 24 78
REMARK H PARENT 3 6 67 24 45 35 7 60 21 72 24 79
REMARK Flexibility Score: inf
ROOT
ATOM      1  C   UNL A   1      31.934  27.923  27.234  1.00  0.00     0.042 C 
ENDROOT
BRANCH   1   2
ATOM      2  C   UNL A   1      33.326  28.513  27.093  1.00  0.00     0.118 C 
BRANCH   2   3
ATOM      3  N   UNL A   1      33.380  29.910  27.486  1.00  0.00    -0.352 N 
ATOM      4  O   UNL A   1      34.092  31.748  28.550  1.00  0.00    -0.269 OA
ATOM      5  C   UNL A   1      34.366  30.625  28.112  1.00  0.00     0.251 C 
ATOM      6  H   UNL A   1      32.572  30.428  27.266  1.00  0.00     0.163 HD
BRANCH   5   7
ATOM      7  C   UNL A   1      35.739  30.097  28.288  1.00  0.00     0.039 A 
ATOM      8  C   UNL A   1      36.097  29.575  29.536  1.00  0.00     0.014 A 
ATOM      9  C   UNL A   1      36.709  30.193  27.286  1.00  0.00     0.014 A 
ATOM     10  C   UNL A   1      37.404  29.139  29.768  1.00  0.00     0.010 A 
ATOM     11  C   UNL A   1      37.986  29.666  27.485  1.00  0.00     0.010 A 
ATOM     12  C   UNL A   1      38.360  29.168  28.740  1.00  0.00    -0.014 A 
BRANCH  12  13
ATOM     13  C   UNL A   1      39.761  28.741  28.993  1.00  0.00     0.031 A 
ATOM     14  C   UNL A   1      40.721  29.656  29.710  1.00  0.00     0.074 A 
ATOM     15  C   UNL A   1      40.176  27.528  28.582  1.00  0.00     0.049 A 
ATOM     16  N   UNL A   1      41.965  29.438  30.055  1.00  0.00    -0.248 NA
ATOM     17  C   UNL A   1      40.228  30.996  30.066  1.00  0.00     0.031 C 
ATOM     18  C   UNL A   1      39.361  26.563  27.844  1.00  0.00     0.029 A 
ATOM     19  N   UNL A   1      41.383  26.893  28.742  1.00  0.00    -0.354 N 
ATOM     20  C   UNL A   1      42.400  30.609  30.664  1.00  0.00     0.074 A 
ATOM     21  C   UNL A   1      41.313  31.559  30.576  1.00  0.00     0.031 C 
ATOM     22  C   UNL A   1      40.072  25.439  27.661  1.00  0.00     0.029 A 
ATOM     23  C   UNL A   1      41.402  25.616  28.236  1.00  0.00     0.049 A 
ATOM     24  H   UNL A   1      42.160  27.312  29.177  1.00  0.00     0.167 HD
ATOM     25  C   UNL A   1      43.582  30.865  31.273  1.00  0.00     0.031 A 
ATOM     26  C   UNL A   1      42.372  24.681  28.246  1.00  0.00     0.031 A 
ATOM     27  C   UNL A   1      44.661  29.919  31.369  1.00  0.00     0.049 A 
ATOM     28  C   UNL A   1      43.680  24.984  28.921  1.00  0.00     0.074 A 
ATOM     29  C   UNL A   1      45.883  30.070  32.000  1.00  0.00     0.029 A 
ATOM     30  N   UNL A   1      44.647  28.645  30.822  1.00  0.00    -0.354 N 
ATOM     31  N   UNL A   1      44.055  26.079  29.537  1.00  0.00    -0.248 NA
ATOM     32  C   UNL A   1      44.692  23.918  28.916  1.00  0.00     0.031 C 
ATOM     33  C   UNL A   1      46.631  28.909  31.785  1.00  0.00     0.029 A 
ATOM     34  C   UNL A   1      45.849  28.008  31.079  1.00  0.00     0.049 A 
ATOM     35  H   UNL A   1      43.894  28.251  30.325  1.00  0.00     0.167 HD
ATOM     36  C   UNL A   1      45.342  25.835  29.997  1.00  0.00     0.074 A 
ATOM     37  C   UNL A   1      45.672  24.476  29.616  1.00  0.00     0.031 C 
ATOM     38  C   UNL A   1      46.178  26.666  30.670  1.00  0.00     0.031 A 
BRANCH  25  39
ATOM     39  C   UNL A   1      43.765  32.222  31.899  1.00  0.00    -0.014 A 
ATOM     40  C   UNL A   1      44.311  33.276  31.151  1.00  0.00     0.009 A 
ATOM     41  C   UNL A   1      43.443  32.447  33.248  1.00  0.00     0.009 A 
ATOM     42  C   UNL A   1      44.533  34.524  31.738  1.00  0.00     0.001 A 
ATOM     43  C   UNL A   1      43.633  33.705  33.824  1.00  0.00     0.001 A 
ATOM     44  C   UNL A   1      44.185  34.740  33.071  1.00  0.00     0.000 A 
ENDBRANCH  25  39
BRANCH  26  45
ATOM     45  C   UNL A   1      42.102  23.353  27.636  1.00  0.00    -0.014 A 
ATOM     46  C   UNL A   1      42.456  23.095  26.301  1.00  0.00     0.009 A 
ATOM     47  C   UNL A   1      41.418  22.365  28.359  1.00  0.00     0.009 A 
ATOM     48  C   UNL A   1      42.101  21.887  25.695  1.00  0.00     0.001 A 
ATOM     49  C   UNL A   1      41.091  21.146  27.759  1.00  0.00     0.001 A 
ATOM     50  C   UNL A   1      41.421  20.914  26.425  1.00  0.00     0.000 A 
ENDBRANCH  26  45
BRANCH  38  51
ATOM     51  C   UNL A   1      47.544  26.144  31.024  1.00  0.00    -0.014 A 
ATOM     52  C   UNL A   1      47.793  25.643  32.312  1.00  0.00     0.009 A 
ATOM     53  C   UNL A   1      48.607  26.228  30.110  1.00  0.00     0.009 A 
ATOM     54  C   UNL A   1      49.079  25.245  32.681  1.00  0.00     0.001 A 
ATOM     55  C   UNL A   1      49.885  25.800  30.473  1.00  0.00     0.001 A 
ATOM     56  C   UNL A   1      50.122  25.317  31.759  1.00  0.00     0.000 A 
ENDBRANCH  38  51
ENDBRANCH  12  13
ENDBRANCH   5   7
ENDBRANCH   2   3
ENDBRANCH   1   2
BRANCH   1  57
ATOM     57  C   UNL A   1      31.597  26.799  26.255  1.00  0.00     0.117 C 
BRANCH  57  58
ATOM     58  N   UNL A   1      31.312  25.490  26.825  1.00  0.00    -0.355 N 
ATOM     59  C   UNL A   1      31.722  24.211  26.641  1.00  0.00     0.236 C 
ATOM     60  H   UNL A   1      30.637  25.551  27.539  1.00  0.00     0.163 HD
ATOM     61  O   UNL A   1      31.537  23.516  27.652  1.00  0.00    -0.274 OA
BRANCH  59  62
ATOM     62  C   UNL A   1      32.326  23.558  25.369  1.00  0.00     0.144 C 
ATOM     63  C   UNL A   1      32.564  22.065  25.784  1.00  0.00     0.253 C 
ATOM     64  C   UNL A   1      33.646  24.221  24.922  1.00  0.00     0.103 C 
ATOM     65  C   UNL A   1      31.459  23.653  24.101  1.00  0.00     0.283 C 
ATOM     66  O   UNL A   1      33.770  21.433  25.345  1.00  0.00    -0.492 OA
ATOM     67  C   UNL A   1      34.910  23.546  25.372  1.00  0.00     0.004 A 
ATOM     68  C   UNL A   1      33.641  24.085  23.389  1.00  0.00     0.272 C 
ATOM     69  N   UNL A   1      32.255  24.176  22.991  1.00  0.00    -0.331 N 
ATOM     70  C   UNL A   1      34.901  22.167  25.568  1.00  0.00     0.123 A 
ATOM     71  C   UNL A   1      36.139  24.222  25.319  1.00  0.00     0.008 A 
ATOM     72  H   UNL A   1      32.071  23.591  22.175  1.00  0.00     0.348 HD
ATOM     73  C   UNL A   1      36.092  21.472  25.771  1.00  0.00     0.047 A 
ATOM     74  C   UNL A   1      37.335  23.522  25.481  1.00  0.00     0.001 A 
ATOM     75  C   UNL A   1      37.311  22.151  25.728  1.00  0.00     0.004 A 
BRANCH  69  76
ATOM     76  C   UNL A   1      31.850  25.447  22.378  1.00  0.00     0.290 C 
BRANCH  76  77
ATOM     77  C   UNL A   1      32.552  25.949  21.100  1.00  0.00     0.217 C 
BRANCH  77  78
ATOM     78  O   UNL A   1      31.740  25.820  19.939  1.00  0.00    -0.391 OA
ATOM     79  H   UNL A   1      30.859  26.182  20.119  1.00  0.00     0.210 HD
ENDBRANCH  77  78
ENDBRANCH  76  77
ENDBRANCH  69  76
ENDBRANCH  59  62
ENDBRANCH  57  58
ENDBRANCH   1  57
TORSDOF 13
ENDMDL
MODEL 3
REMARK VINA RESULT:     -10.9      2.512      7.786
REMARK SMILES O=C(NCCCNC(=O)[C@]12COc3ccccc3[C@H]1C[N@H+](CCO)C2)c1ccc(-c2c3nc(c(-c4ccccc4)c4ccc([nH]4)c(-c4ccccc4)c4nc(c(-c5ccccc5)c5ccc2[nH]5)C=C4)C=C3)cc1
REMARK SMILES IDX 5 1 4 2 3 3 1 4 2 5 26 7 27 8 73 9 28 10 72 11 29 12 30 13
REMARK SMILES IDX 31 14 66 15 32 16 71 17 65 18 67 19 33 20 70 21 64 22 63 23
REMARK SMILES IDX 34 25 56 26 41 27 55 28 42 29 45 30 54 31 68 32 43 33 44 34
REMARK SMILES IDX 53 36 69 37 46 38 35 39 36 40 40 41 37 42 39 43 38 44 57 45
REMARK SMILES IDX 58 46 62 47 59 48 61 49 60 50 47 51 48 52 52 53 49 54 51 55
REMARK SMILES IDX 50 56 6 57 7 58 8 59 9 61 10 62 11 63 19 64 25 65 12 66
REMARK SMILES IDX 18 67 20 68 21 69 13 70 17 71 14 73 16 74 15 75 22 76 23 77
REMARK SMILES IDX 24 78
REMARK H PARENT 3 6 67 24 45 35 7 60 21 72 24 79
REMARK Flexibility Score: inf
ROOT
ATOM      1  C   UNL A   1      36.199  23.198  23.844  1.00  0.00     0.042 C 
ENDROOT
BRANCH   1   2
ATOM      2  C   UNL A   1      36.944  23.669  25.080  1.00  0.00     0.118 C 
BRANCH   2   3
ATOM      3  N   UNL A   1      38.049  22.796  25.430  1.00  0.00    -0.352 N 
ATOM      4  O   UNL A   1      40.114  22.201  26.064  1.00  0.00    -0.269 OA
ATOM      5  C   UNL A   1      39.222  23.057  26.087  1.00  0.00     0.251 C 
ATOM      6  H   UNL A   1      37.936  21.859  25.147  1.00  0.00     0.163 HD
BRANCH   5   7
ATOM      7  C   UNL A   1      39.460  24.328  26.810  1.00  0.00     0.039 A 
ATOM      8  C   UNL A   1      40.187  25.335  26.166  1.00  0.00     0.014 A 
ATOM      9  C   UNL A   1      39.070  24.513  28.140  1.00  0.00     0.014 A 
ATOM     10  C   UNL A   1      40.501  26.518  26.840  1.00  0.00     0.010 A 
ATOM     11  C   UNL A   1      39.296  25.733  28.780  1.00  0.00     0.010 A 
ATOM     12  C   UNL A   1      40.047  26.735  28.152  1.00  0.00    -0.014 A 
BRANCH  12  13
ATOM     13  C   UNL A   1      40.411  27.975  28.886  1.00  0.00     0.031 A 
ATOM     14  C   UNL A   1      39.432  29.116  28.989  1.00  0.00     0.074 A 
ATOM     15  C   UNL A   1      41.622  28.080  29.466  1.00  0.00     0.049 A 
ATOM     16  N   UNL A   1      39.558  30.255  29.623  1.00  0.00    -0.248 NA
ATOM     17  C   UNL A   1      38.156  28.970  28.272  1.00  0.00     0.031 C 
ATOM     18  C   UNL A   1      42.675  27.066  29.408  1.00  0.00     0.029 A 
ATOM     19  N   UNL A   1      42.164  29.082  30.232  1.00  0.00    -0.354 N 
ATOM     20  C   UNL A   1      38.383  30.957  29.378  1.00  0.00     0.074 A 
ATOM     21  C   UNL A   1      37.589  30.149  28.480  1.00  0.00     0.031 C 
ATOM     22  C   UNL A   1      43.716  27.473  30.151  1.00  0.00     0.029 A 
ATOM     23  C   UNL A   1      43.419  28.790  30.708  1.00  0.00     0.049 A 
ATOM     24  H   UNL A   1      41.698  29.928  30.421  1.00  0.00     0.167 HD
ATOM     25  C   UNL A   1      37.982  32.149  29.879  1.00  0.00     0.031 A 
ATOM     26  C   UNL A   1      44.236  29.491  31.517  1.00  0.00     0.031 A 
ATOM     27  C   UNL A   1      38.767  32.950  30.779  1.00  0.00     0.049 A 
ATOM     28  C   UNL A   1      43.778  30.815  32.060  1.00  0.00     0.074 A 
ATOM     29  C   UNL A   1      38.433  34.154  31.373  1.00  0.00     0.029 A 
ATOM     30  N   UNL A   1      40.043  32.628  31.217  1.00  0.00    -0.354 N 
ATOM     31  N   UNL A   1      42.643  31.439  31.859  1.00  0.00    -0.248 NA
ATOM     32  C   UNL A   1      44.707  31.524  32.952  1.00  0.00     0.031 C 
ATOM     33  C   UNL A   1      39.527  34.589  32.125  1.00  0.00     0.029 A 
ATOM     34  C   UNL A   1      40.519  33.623  32.054  1.00  0.00     0.049 A 
ATOM     35  H   UNL A   1      40.537  31.813  30.970  1.00  0.00     0.167 HD
ATOM     36  C   UNL A   1      42.716  32.610  32.601  1.00  0.00     0.074 A 
ATOM     37  C   UNL A   1      43.995  32.595  33.282  1.00  0.00     0.031 C 
ATOM     38  C   UNL A   1      41.806  33.611  32.703  1.00  0.00     0.031 A 
BRANCH  25  39
ATOM     39  C   UNL A   1      36.622  32.653  29.475  1.00  0.00    -0.014 A 
ATOM     40  C   UNL A   1      36.459  33.355  28.272  1.00  0.00     0.009 A 
ATOM     41  C   UNL A   1      35.507  32.479  30.313  1.00  0.00     0.009 A 
ATOM     42  C   UNL A   1      35.211  33.872  27.915  1.00  0.00     0.001 A 
ATOM     43  C   UNL A   1      34.253  32.967  29.937  1.00  0.00     0.001 A 
ATOM     44  C   UNL A   1      34.108  33.670  28.743  1.00  0.00     0.000 A 
ENDBRANCH  25  39
BRANCH  26  45
ATOM     45  C   UNL A   1      45.551  28.909  31.896  1.00  0.00    -0.014 A 
ATOM     46  C   UNL A   1      46.687  29.130  31.099  1.00  0.00     0.009 A 
ATOM     47  C   UNL A   1      45.659  28.066  33.011  1.00  0.00     0.009 A 
ATOM     48  C   UNL A   1      47.894  28.492  31.394  1.00  0.00     0.001 A 
ATOM     49  C   UNL A   1      46.876  27.452  33.320  1.00  0.00     0.001 A 
ATOM     50  C   UNL A   1      47.988  27.655  32.505  1.00  0.00     0.000 A 
ENDBRANCH  26  45
BRANCH  38  51
ATOM     51  C   UNL A   1      42.161  34.791  33.567  1.00  0.00    -0.014 A 
ATOM     52  C   UNL A   1      41.724  34.845  34.900  1.00  0.00     0.009 A 
ATOM     53  C   UNL A   1      42.857  35.889  33.036  1.00  0.00     0.009 A 
ATOM     54  C   UNL A   1      41.966  35.975  35.681  1.00  0.00     0.001 A 
ATOM     55  C   UNL A   1      43.125  37.007  33.829  1.00  0.00     0.001 A 
ATOM     56  C   UNL A   1      42.672  37.052  35.147  1.00  0.00     0.000 A 
ENDBRANCH  38  51
ENDBRANCH  12  13
ENDBRANCH   5   7
ENDBRANCH   2   3
ENDBRANCH   1   2
BRANCH   1  57
ATOM     57  C   UNL A   1      34.701  23.499  23.827  1.00  0.00     0.117 C 
BRANCH  57  58
ATOM     58  N   UNL A   1      34.257  24.595  22.978  1.00  0.00    -0.355 N 
ATOM     59  C   UNL A   1      33.550  25.742  23.119  1.00  0.00     0.236 C 
ATOM     60  H   UNL A   1      34.551  24.467  22.047  1.00  0.00     0.163 HD
ATOM     61  O   UNL A   1      33.815  26.562  22.226  1.00  0.00    -0.274 OA
BRANCH  59  62
ATOM     62  C   UNL A   1      32.486  26.103  24.190  1.00  0.00     0.144 C 
ATOM     63  C   UNL A   1      31.750  27.351  23.591  1.00  0.00     0.253 C 
ATOM     64  C   UNL A   1      33.104  26.437  25.564  1.00  0.00     0.103 C 
ATOM     65  C   UNL A   1      31.490  24.982  24.537  1.00  0.00     0.283 C 
ATOM     66  O   UNL A   1      31.410  28.418  24.481  1.00  0.00    -0.492 OA
ATOM     67  C   UNL A   1      33.304  27.896  25.861  1.00  0.00     0.004 A 
ATOM     68  C   UNL A   1      32.055  25.959  26.582  1.00  0.00     0.272 C 
ATOM     69  N   UNL A   1      31.431  24.799  25.987  1.00  0.00    -0.331 N 
ATOM     70  C   UNL A   1      32.435  28.822  25.289  1.00  0.00     0.123 A 
ATOM     71  C   UNL A   1      34.148  28.303  26.906  1.00  0.00     0.008 A 
ATOM     72  H   UNL A   1      30.447  24.739  26.252  1.00  0.00     0.348 HD
ATOM     73  C   UNL A   1      32.444  30.153  25.704  1.00  0.00     0.047 A 
ATOM     74  C   UNL A   1      34.129  29.626  27.352  1.00  0.00     0.001 A 
ATOM     75  C   UNL A   1      33.293  30.556  26.737  1.00  0.00     0.004 A 
BRANCH  69  76
ATOM     76  C   UNL A   1      31.832  23.503  26.546  1.00  0.00     0.290 C 
BRANCH  76  77
ATOM     77  C   UNL A   1      31.271  22.196  25.951  1.00  0.00     0.217 C 
BRANCH  77  78
ATOM     78  O   UNL A   1      29.898  21.993  26.262  1.00  0.00    -0.391 OA
ATOM     79  H   UNL A   1      29.705  21.042  26.270  1.00  0.00     0.210 HD
ENDBRANCH  77  78
ENDBRANCH  76  77
ENDBRANCH  69  76
ENDBRANCH  59  62
ENDBRANCH  57  58
ENDBRANCH   1  57
TORSDOF 13
ENDMDL
