MODEL 1
REMARK VINA RESULT:     -10.7      0.000      0.000
REMARK SMILES CC(C)C[C@H](CNC(=O)c1ccc(O)cc1O)C(=O)NCCCNC(=O)c1ccc(-c2c3nc(c(-c4ccccc4)c4ccc([nH]4)c(-c4ccccc4)c4nc(c(-c5ccccc5)c5ccc2[nH]5)C=C4)C=C3)cc1
REMARK SMILES IDX 21 1 20 2 18 3 19 4 5 6 4 7 2 8 1 9 3 10 6 11 7 12 8 13 9 15
REMARK SMILES IDX 10 16 11 17 16 18 12 19 15 20 13 21 17 22 14 24 22 26 23 27
REMARK SMILES IDX 24 28 25 29 26 31 27 32 28 33 74 34 29 35 73 36 30 37 31 38
REMARK SMILES IDX 32 39 67 40 33 41 72 42 66 43 68 44 34 45 71 46 65 47 64 48
REMARK SMILES IDX 35 50 57 51 42 52 56 53 43 54 46 55 55 56 69 57 44 58 45 59
REMARK SMILES IDX 54 61 70 62 47 63 36 64 37 65 41 66 38 67 40 68 39 69 58 70
REMARK SMILES IDX 59 71 63 72 60 73 62 74 61 75 48 76 49 77 53 78 50 79 52 80
REMARK SMILES IDX 51 81
REMARK H PARENT 20 5 7 14 17 23 14 25 24 30 68 49 46 60
REMARK Flexibility Score: inf
ROOT
ATOM      1  C   UNL A   1      34.776  24.557  25.471  1.00  0.00     0.117 C 
ENDROOT
BRANCH   1   2
ATOM      2  N   UNL A   1      34.585  24.642  24.034  1.00  0.00    -0.356 N 
ATOM      3  C   UNL A   1      33.627  24.167  23.201  1.00  0.00     0.224 C 
ATOM      4  O   UNL A   1      33.738  24.507  22.016  1.00  0.00    -0.275 OA
ATOM      5  H   UNL A   1      35.295  25.143  23.571  1.00  0.00     0.163 HD
BRANCH   3   6
ATOM      6  C   UNL A   1      32.476  23.246  23.608  1.00  0.00     0.098 C 
BRANCH   6   7
ATOM      7  C   UNL A   1      32.593  21.735  23.293  1.00  0.00     0.018 C 
BRANCH   7   8
ATOM      8  C   UNL A   1      33.176  20.768  24.332  1.00  0.00    -0.017 C 
ATOM      9  C   UNL A   1      32.915  21.262  25.759  1.00  0.00     0.007 C 
ATOM     10  C   UNL A   1      32.558  19.371  24.191  1.00  0.00     0.007 C 
ENDBRANCH   7   8
ENDBRANCH   6   7
BRANCH   6  11
ATOM     11  C   UNL A   1      31.063  23.862  23.574  1.00  0.00     0.129 C 
BRANCH  11  12
ATOM     12  N   UNL A   1      30.578  24.450  24.804  1.00  0.00    -0.351 N 
ATOM     13  C   UNL A   1      30.448  25.760  25.175  1.00  0.00     0.255 C 
ATOM     14  H   UNL A   1      30.294  23.800  25.487  1.00  0.00     0.163 HD
ATOM     15  O   UNL A   1      30.292  26.059  26.358  1.00  0.00    -0.269 OA
BRANCH  13  16
ATOM     16  C   UNL A   1      30.549  26.847  24.195  1.00  0.00     0.081 A 
ATOM     17  C   UNL A   1      29.409  27.276  23.505  1.00  0.00     0.021 A 
ATOM     18  C   UNL A   1      31.759  27.534  24.049  1.00  0.00     0.132 A 
ATOM     19  C   UNL A   1      29.494  28.370  22.643  1.00  0.00     0.047 A 
ATOM     20  C   UNL A   1      31.853  28.605  23.169  1.00  0.00     0.093 A 
ATOM     21  C   UNL A   1      30.716  29.022  22.482  1.00  0.00     0.119 A 
BRANCH  18  22
ATOM     22  O   UNL A   1      32.882  27.209  24.763  1.00  0.00    -0.507 OA
ATOM     23  H   UNL A   1      33.089  26.310  24.924  1.00  0.00     0.293 HD
ENDBRANCH  18  22
BRANCH  21  24
ATOM     24  O   UNL A   1      30.833  30.109  21.667  1.00  0.00    -0.508 OA
ATOM     25  H   UNL A   1      30.200  30.258  20.992  1.00  0.00     0.293 HD
ENDBRANCH  21  24
ENDBRANCH  13  16
ENDBRANCH  11  12
ENDBRANCH   6  11
ENDBRANCH   3   6
ENDBRANCH   1   2
BRANCH   1  26
ATOM     26  C   UNL A   1      35.849  23.558  25.868  1.00  0.00     0.042 C 
BRANCH  26  27
ATOM     27  C   UNL A   1      37.085  23.651  24.992  1.00  0.00     0.118 C 
BRANCH  27  28
ATOM     28  N   UNL A   1      38.132  22.730  25.419  1.00  0.00    -0.352 N 
ATOM     29  C   UNL A   1      39.297  22.966  26.113  1.00  0.00     0.251 C 
ATOM     30  H   UNL A   1      37.980  21.789  25.174  1.00  0.00     0.163 HD
ATOM     31  O   UNL A   1      40.163  22.098  26.158  1.00  0.00    -0.269 OA
BRANCH  29  32
ATOM     32  C   UNL A   1      39.522  24.266  26.785  1.00  0.00     0.039 A 
ATOM     33  C   UNL A   1      39.055  24.462  28.089  1.00  0.00     0.014 A 
ATOM     34  C   UNL A   1      40.173  25.304  26.124  1.00  0.00     0.014 A 
ATOM     35  C   UNL A   1      39.314  25.669  28.748  1.00  0.00     0.010 A 
ATOM     36  C   UNL A   1      40.545  26.446  26.820  1.00  0.00     0.010 A 
ATOM     37  C   UNL A   1      40.103  26.655  28.133  1.00  0.00    -0.014 A 
BRANCH  37  38
ATOM     38  C   UNL A   1      40.457  27.935  28.801  1.00  0.00     0.031 A 
ATOM     39  C   UNL A   1      41.795  28.072  29.484  1.00  0.00     0.074 A 
ATOM     40  C   UNL A   1      39.548  28.926  28.897  1.00  0.00     0.049 A 
ATOM     41  N   UNL A   1      42.227  29.014  30.282  1.00  0.00    -0.248 NA
ATOM     42  C   UNL A   1      42.757  26.975  29.276  1.00  0.00     0.031 C 
ATOM     43  C   UNL A   1      38.205  28.913  28.313  1.00  0.00     0.029 A 
ATOM     44  N   UNL A   1      39.616  30.137  29.543  1.00  0.00    -0.354 N 
ATOM     45  C   UNL A   1      43.485  28.600  30.704  1.00  0.00     0.074 A 
ATOM     46  C   UNL A   1      43.725  27.301  30.120  1.00  0.00     0.031 C 
ATOM     47  C   UNL A   1      37.587  30.068  28.606  1.00  0.00     0.029 A 
ATOM     48  C   UNL A   1      38.464  30.879  29.445  1.00  0.00     0.049 A 
ATOM     49  H   UNL A   1      40.414  30.442  30.032  1.00  0.00     0.167 HD
ATOM     50  C   UNL A   1      44.374  29.252  31.490  1.00  0.00     0.031 A 
ATOM     51  C   UNL A   1      38.142  32.070  29.985  1.00  0.00     0.031 A 
ATOM     52  C   UNL A   1      44.151  30.562  32.039  1.00  0.00     0.049 A 
ATOM     53  C   UNL A   1      39.145  32.775  30.856  1.00  0.00     0.074 A 
ATOM     54  C   UNL A   1      45.013  31.339  32.791  1.00  0.00     0.029 A 
ATOM     55  N   UNL A   1      42.983  31.290  31.883  1.00  0.00    -0.354 N 
ATOM     56  N   UNL A   1      40.349  32.394  31.206  1.00  0.00    -0.248 NA
ATOM     57  C   UNL A   1      38.745  34.082  31.402  1.00  0.00     0.031 C 
ATOM     58  C   UNL A   1      44.348  32.520  33.132  1.00  0.00     0.029 A 
ATOM     59  C   UNL A   1      43.095  32.503  32.540  1.00  0.00     0.049 A 
ATOM     60  H   UNL A   1      42.191  30.991  31.380  1.00  0.00     0.167 HD
ATOM     61  C   UNL A   1      40.865  33.428  31.978  1.00  0.00     0.074 A 
ATOM     62  C   UNL A   1      39.845  34.454  32.042  1.00  0.00     0.031 C 
ATOM     63  C   UNL A   1      42.076  33.519  32.577  1.00  0.00     0.031 A 
BRANCH  50  64
ATOM     64  C   UNL A   1      45.669  28.554  31.805  1.00  0.00    -0.014 A 
ATOM     65  C   UNL A   1      46.802  28.713  30.989  1.00  0.00     0.009 A 
ATOM     66  C   UNL A   1      45.766  27.747  32.949  1.00  0.00     0.009 A 
ATOM     67  C   UNL A   1      47.990  28.045  31.290  1.00  0.00     0.001 A 
ATOM     68  C   UNL A   1      46.966  27.108  33.267  1.00  0.00     0.001 A 
ATOM     69  C   UNL A   1      48.073  27.247  32.431  1.00  0.00     0.000 A 
ENDBRANCH  50  64
BRANCH  51  70
ATOM     70  C   UNL A   1      36.814  32.680  29.710  1.00  0.00    -0.014 A 
ATOM     71  C   UNL A   1      35.756  32.518  30.619  1.00  0.00     0.009 A 
ATOM     72  C   UNL A   1      36.593  33.424  28.539  1.00  0.00     0.009 A 
ATOM     73  C   UNL A   1      34.499  33.065  30.348  1.00  0.00     0.001 A 
ATOM     74  C   UNL A   1      35.344  33.995  28.287  1.00  0.00     0.001 A 
ATOM     75  C   UNL A   1      34.296  33.805  29.186  1.00  0.00     0.000 A 
ENDBRANCH  51  70
BRANCH  63  76
ATOM     76  C   UNL A   1      42.399  34.794  33.304  1.00  0.00    -0.014 A 
ATOM     77  C   UNL A   1      43.056  35.855  32.664  1.00  0.00     0.009 A 
ATOM     78  C   UNL A   1      41.968  34.958  34.631  1.00  0.00     0.009 A 
ATOM     79  C   UNL A   1      43.295  37.049  33.348  1.00  0.00     0.001 A 
ATOM     80  C   UNL A   1      42.182  36.161  35.301  1.00  0.00     0.001 A 
ATOM     81  C   UNL A   1      42.851  37.204  34.662  1.00  0.00     0.000 A 
ENDBRANCH  63  76
ENDBRANCH  37  38
ENDBRANCH  29  32
ENDBRANCH  27  28
ENDBRANCH  26  27
ENDBRANCH   1  26
TORSDOF 17
ENDMDL
MODEL 2
REMARK VINA RESULT:     -10.7      2.881      7.252
REMARK SMILES CC(C)C[C@H](CNC(=O)c1ccc(O)cc1O)C(=O)NCCCNC(=O)c1ccc(-c2c3nc(c(-c4ccccc4)c4ccc([nH]4)c(-c4ccccc4)c4nc(c(-c5ccccc5)c5ccc2[nH]5)C=C4)C=C3)cc1
REMARK SMILES IDX 21 1 20 2 18 3 19 4 5 6 4 7 2 8 1 9 3 10 6 11 7 12 8 13 9 15
REMARK SMILES IDX 10 16 11 17 16 18 12 19 15 20 13 21 17 22 14 24 22 26 23 27
REMARK SMILES IDX 24 28 25 29 26 31 27 32 28 33 74 34 29 35 73 36 30 37 31 38
REMARK SMILES IDX 32 39 67 40 33 41 72 42 66 43 68 44 34 45 71 46 65 47 64 48
REMARK SMILES IDX 35 50 57 51 42 52 56 53 43 54 46 55 55 56 69 57 44 58 45 59
REMARK SMILES IDX 54 61 70 62 47 63 36 64 37 65 41 66 38 67 40 68 39 69 58 70
REMARK SMILES IDX 59 71 63 72 60 73 62 74 61 75 48 76 49 77 53 78 50 79 52 80
REMARK SMILES IDX 51 81
REMARK H PARENT 20 5 7 14 17 23 14 25 24 30 68 49 46 60
REMARK Flexibility Score: inf
ROOT
ATOM      1  C   UNL A   1      36.071  20.220  24.995  1.00  0.00     0.117 C 
ENDROOT
BRANCH   1   2
ATOM      2  N   UNL A   1      34.891  19.372  24.998  1.00  0.00    -0.356 N 
ATOM      3  C   UNL A   1      33.572  19.628  24.827  1.00  0.00     0.224 C 
ATOM      4  O   UNL A   1      32.836  18.633  24.807  1.00  0.00    -0.275 OA
ATOM      5  H   UNL A   1      35.090  18.422  25.158  1.00  0.00     0.163 HD
BRANCH   3   6
ATOM      6  C   UNL A   1      32.948  21.018  24.692  1.00  0.00     0.098 C 
BRANCH   6   7
ATOM      7  C   UNL A   1      33.103  21.769  23.347  1.00  0.00     0.018 C 
BRANCH   7   8
ATOM      8  C   UNL A   1      33.572  23.230  23.323  1.00  0.00    -0.017 C 
ATOM      9  C   UNL A   1      35.102  23.324  23.319  1.00  0.00     0.007 C 
ATOM     10  C   UNL A   1      33.047  23.956  22.078  1.00  0.00     0.007 C 
ENDBRANCH   7   8
ENDBRANCH   6   7
BRANCH   6  11
ATOM     11  C   UNL A   1      32.905  21.875  25.972  1.00  0.00     0.129 C 
BRANCH  11  12
ATOM     12  N   UNL A   1      31.596  22.266  26.453  1.00  0.00    -0.351 N 
ATOM     13  C   UNL A   1      31.034  23.504  26.599  1.00  0.00     0.255 C 
ATOM     14  H   UNL A   1      31.015  21.517  26.718  1.00  0.00     0.163 HD
ATOM     15  O   UNL A   1      30.028  23.653  27.290  1.00  0.00    -0.269 OA
BRANCH  13  16
ATOM     16  C   UNL A   1      31.637  24.696  25.991  1.00  0.00     0.081 A 
ATOM     17  C   UNL A   1      32.930  25.090  26.353  1.00  0.00     0.021 A 
ATOM     18  C   UNL A   1      30.963  25.359  24.959  1.00  0.00     0.132 A 
ATOM     19  C   UNL A   1      33.531  26.170  25.705  1.00  0.00     0.047 A 
ATOM     20  C   UNL A   1      31.548  26.453  24.334  1.00  0.00     0.093 A 
ATOM     21  C   UNL A   1      32.832  26.842  24.703  1.00  0.00     0.119 A 
BRANCH  18  22
ATOM     22  O   UNL A   1      29.732  24.963  24.509  1.00  0.00    -0.507 OA
ATOM     23  H   UNL A   1      29.072  24.703  25.121  1.00  0.00     0.293 HD
ENDBRANCH  18  22
BRANCH  21  24
ATOM     24  O   UNL A   1      33.395  27.887  24.031  1.00  0.00    -0.508 OA
ATOM     25  H   UNL A   1      34.173  28.292  24.363  1.00  0.00     0.293 HD
ENDBRANCH  21  24
ENDBRANCH  13  16
ENDBRANCH  11  12
ENDBRANCH   6  11
ENDBRANCH   3   6
ENDBRANCH   1   2
BRANCH   1  26
ATOM     26  C   UNL A   1      37.363  19.437  24.837  1.00  0.00     0.042 C 
BRANCH  26  27
ATOM     27  C   UNL A   1      38.549  20.131  25.481  1.00  0.00     0.118 C 
BRANCH  27  28
ATOM     28  N   UNL A   1      39.680  19.230  25.663  1.00  0.00    -0.352 N 
ATOM     29  C   UNL A   1      40.979  19.495  26.034  1.00  0.00     0.251 C 
ATOM     30  H   UNL A   1      39.483  18.281  25.496  1.00  0.00     0.163 HD
ATOM     31  O   UNL A   1      41.839  18.631  25.890  1.00  0.00    -0.269 OA
BRANCH  29  32
ATOM     32  C   UNL A   1      41.350  20.818  26.583  1.00  0.00     0.039 A 
ATOM     33  C   UNL A   1      41.462  20.987  27.968  1.00  0.00     0.014 A 
ATOM     34  C   UNL A   1      41.564  21.904  25.738  1.00  0.00     0.014 A 
ATOM     35  C   UNL A   1      41.866  22.222  28.488  1.00  0.00     0.010 A 
ATOM     36  C   UNL A   1      42.092  23.084  26.243  1.00  0.00     0.010 A 
ATOM     37  C   UNL A   1      42.230  23.268  27.625  1.00  0.00    -0.014 A 
BRANCH  37  38
ATOM     38  C   UNL A   1      42.717  24.585  28.116  1.00  0.00     0.031 A 
ATOM     39  C   UNL A   1      41.723  25.681  28.409  1.00  0.00     0.074 A 
ATOM     40  C   UNL A   1      44.039  24.837  28.191  1.00  0.00     0.049 A 
ATOM     41  N   UNL A   1      41.934  26.948  28.656  1.00  0.00    -0.248 NA
ATOM     42  C   UNL A   1      40.298  25.308  28.371  1.00  0.00     0.031 C 
ATOM     43  C   UNL A   1      45.108  23.879  27.904  1.00  0.00     0.029 A 
ATOM     44  N   UNL A   1      44.707  25.992  28.516  1.00  0.00    -0.354 N 
ATOM     45  C   UNL A   1      40.674  27.526  28.756  1.00  0.00     0.074 A 
ATOM     46  C   UNL A   1      39.707  26.487  28.489  1.00  0.00     0.031 C 
ATOM     47  C   UNL A   1      46.296  24.477  28.090  1.00  0.00     0.029 A 
ATOM     48  C   UNL A   1      46.075  25.874  28.451  1.00  0.00     0.049 A 
ATOM     49  H   UNL A   1      44.250  26.826  28.769  1.00  0.00     0.167 HD
ATOM     50  C   UNL A   1      40.348  28.804  29.064  1.00  0.00     0.031 A 
ATOM     51  C   UNL A   1      47.042  26.791  28.642  1.00  0.00     0.031 A 
ATOM     52  C   UNL A   1      41.310  29.828  29.368  1.00  0.00     0.049 A 
ATOM     53  C   UNL A   1      46.656  28.204  28.982  1.00  0.00     0.074 A 
ATOM     54  C   UNL A   1      41.083  31.134  29.757  1.00  0.00     0.029 A 
ATOM     55  N   UNL A   1      42.684  29.652  29.324  1.00  0.00    -0.354 N 
ATOM     56  N   UNL A   1      45.461  28.725  29.121  1.00  0.00    -0.248 NA
ATOM     57  C   UNL A   1      47.756  29.157  29.199  1.00  0.00     0.031 C 
ATOM     58  C   UNL A   1      42.321  31.766  29.904  1.00  0.00     0.029 A 
ATOM     59  C   UNL A   1      43.318  30.833  29.664  1.00  0.00     0.049 A 
ATOM     60  H   UNL A   1      43.141  28.813  29.087  1.00  0.00     0.167 HD
ATOM     61  C   UNL A   1      45.664  30.051  29.480  1.00  0.00     0.074 A 
ATOM     62  C   UNL A   1      47.096  30.256  29.541  1.00  0.00     0.031 C 
ATOM     63  C   UNL A   1      44.745  31.013  29.738  1.00  0.00     0.031 A 
BRANCH  50  64
ATOM     64  C   UNL A   1      38.888  29.164  29.084  1.00  0.00    -0.014 A 
ATOM     65  C   UNL A   1      38.118  29.030  30.251  1.00  0.00     0.009 A 
ATOM     66  C   UNL A   1      38.278  29.671  27.926  1.00  0.00     0.009 A 
ATOM     67  C   UNL A   1      36.760  29.356  30.246  1.00  0.00     0.001 A 
ATOM     68  C   UNL A   1      36.928  30.030  27.932  1.00  0.00     0.001 A 
ATOM     69  C   UNL A   1      36.168  29.860  29.089  1.00  0.00     0.000 A 
ENDBRANCH  50  64
BRANCH  51  70
ATOM     70  C   UNL A   1      48.473  26.402  28.529  1.00  0.00    -0.014 A 
ATOM     71  C   UNL A   1      49.137  26.491  27.295  1.00  0.00     0.009 A 
ATOM     72  C   UNL A   1      49.183  25.937  29.648  1.00  0.00     0.009 A 
ATOM     73  C   UNL A   1      50.473  26.098  27.179  1.00  0.00     0.001 A 
ATOM     74  C   UNL A   1      50.526  25.573  29.534  1.00  0.00     0.001 A 
ATOM     75  C   UNL A   1      51.166  25.644  28.298  1.00  0.00     0.000 A 
ENDBRANCH  51  70
BRANCH  63  76
ATOM     76  C   UNL A   1      45.251  32.359  30.173  1.00  0.00    -0.014 A 
ATOM     77  C   UNL A   1      45.483  33.388  29.249  1.00  0.00     0.009 A 
ATOM     78  C   UNL A   1      45.425  32.618  31.542  1.00  0.00     0.009 A 
ATOM     79  C   UNL A   1      45.901  34.646  29.687  1.00  0.00     0.001 A 
ATOM     80  C   UNL A   1      45.815  33.884  31.979  1.00  0.00     0.001 A 
ATOM     81  C   UNL A   1      46.059  34.895  31.051  1.00  0.00     0.000 A 
ENDBRANCH  63  76
ENDBRANCH  37  38
ENDBRANCH  29  32
ENDBRANCH  27  28
ENDBRANCH  26  27
ENDBRANCH   1  26
TORSDOF 17
ENDMDL
MODEL 3
REMARK VINA RESULT:     -10.7      2.456      7.876
REMARK SMILES CC(C)C[C@H](CNC(=O)c1ccc(O)cc1O)C(=O)NCCCNC(=O)c1ccc(-c2c3nc(c(-c4ccccc4)c4ccc([nH]4)c(-c4ccccc4)c4nc(c(-c5ccccc5)c5ccc2[nH]5)C=C4)C=C3)cc1
REMARK SMILES IDX 21 1 20 2 18 3 19 4 5 6 4 7 2 8 1 9 3 10 6 11 7 12 8 13 9 15
REMARK SMILES IDX 10 16 11 17 16 18 12 19 15 20 13 21 17 22 14 24 22 26 23 27
REMARK SMILES IDX 24 28 25 29 26 31 27 32 28 33 74 34 29 35 73 36 30 37 31 38
REMARK SMILES IDX 32 39 67 40 33 41 72 42 66 43 68 44 34 45 71 46 65 47 64 48
REMARK SMILES IDX 35 50 57 51 42 52 56 53 43 54 46 55 55 56 69 57 44 58 45 59
REMARK SMILES IDX 54 61 70 62 47 63 36 64 37 65 41 66 38 67 40 68 39 69 58 70
REMARK SMILES IDX 59 71 63 72 60 73 62 74 61 75 48 76 49 77 53 78 50 79 52 80
REMARK SMILES IDX 51 81
REMARK H PARENT 20 5 7 14 17 23 14 25 24 30 68 49 46 60
REMARK Flexibility Score: inf
ROOT
ATOM      1  C   UNL A   1      32.099  28.482  25.262  1.00  0.00     0.117 C 
ENDROOT
BRANCH   1   2
ATOM      2  N   UNL A   1      31.389  27.414  25.944  1.00  0.00    -0.356 N 
ATOM      3  C   UNL A   1      30.606  26.400  25.504  1.00  0.00     0.224 C 
ATOM      4  O   UNL A   1      30.225  25.607  26.374  1.00  0.00    -0.275 OA
ATOM      5  H   UNL A   1      31.496  27.432  26.922  1.00  0.00     0.163 HD
BRANCH   3   6
ATOM      6  C   UNL A   1      30.153  26.193  24.058  1.00  0.00     0.098 C 
BRANCH   6   7
ATOM      7  C   UNL A   1      28.819  26.835  23.604  1.00  0.00     0.018 C 
BRANCH   7   8
ATOM      8  C   UNL A   1      28.689  28.360  23.494  1.00  0.00    -0.017 C 
ATOM      9  C   UNL A   1      29.624  28.921  22.417  1.00  0.00     0.007 C 
ATOM     10  C   UNL A   1      27.254  28.766  23.138  1.00  0.00     0.007 C 
ENDBRANCH   7   8
ENDBRANCH   6   7
BRANCH   6  11
ATOM     11  C   UNL A   1      30.544  24.853  23.403  1.00  0.00     0.129 C 
BRANCH  11  12
ATOM     12  N   UNL A   1      31.458  24.916  22.283  1.00  0.00    -0.351 N 
ATOM     13  C   UNL A   1      32.821  24.818  22.238  1.00  0.00     0.255 C 
ATOM     14  H   UNL A   1      31.028  25.053  21.408  1.00  0.00     0.163 HD
ATOM     15  O   UNL A   1      33.440  25.184  21.240  1.00  0.00    -0.269 OA
BRANCH  13  16
ATOM     16  C   UNL A   1      33.593  24.332  23.388  1.00  0.00     0.081 A 
ATOM     17  C   UNL A   1      34.181  25.242  24.273  1.00  0.00     0.021 A 
ATOM     18  C   UNL A   1      33.629  22.960  23.664  1.00  0.00     0.132 A 
ATOM     19  C   UNL A   1      34.834  24.774  25.414  1.00  0.00     0.047 A 
ATOM     20  C   UNL A   1      34.305  22.491  24.783  1.00  0.00     0.093 A 
ATOM     21  C   UNL A   1      34.891  23.402  25.656  1.00  0.00     0.119 A 
BRANCH  18  22
ATOM     22  O   UNL A   1      32.999  22.034  22.876  1.00  0.00    -0.507 OA
ATOM     23  H   UNL A   1      32.184  22.245  22.467  1.00  0.00     0.293 HD
ENDBRANCH  18  22
BRANCH  21  24
ATOM     24  O   UNL A   1      35.501  22.909  26.772  1.00  0.00    -0.508 OA
ATOM     25  H   UNL A   1      35.895  23.495  27.388  1.00  0.00     0.293 HD
ENDBRANCH  21  24
ENDBRANCH  13  16
ENDBRANCH  11  12
ENDBRANCH   6  11
ENDBRANCH   3   6
ENDBRANCH   1   2
BRANCH   1  26
ATOM     26  C   UNL A   1      33.523  28.659  25.760  1.00  0.00     0.042 C 
BRANCH  26  27
ATOM     27  C   UNL A   1      33.601  28.791  27.270  1.00  0.00     0.118 C 
BRANCH  27  28
ATOM     28  N   UNL A   1      33.677  30.183  27.697  1.00  0.00    -0.352 N 
ATOM     29  C   UNL A   1      34.670  30.855  28.373  1.00  0.00     0.251 C 
ATOM     30  H   UNL A   1      32.893  30.731  27.462  1.00  0.00     0.163 HD
ATOM     31  O   UNL A   1      34.437  31.959  28.854  1.00  0.00    -0.269 OA
BRANCH  29  32
ATOM     32  C   UNL A   1      36.009  30.246  28.543  1.00  0.00     0.039 A 
ATOM     33  C   UNL A   1      36.930  30.292  27.491  1.00  0.00     0.014 A 
ATOM     34  C   UNL A   1      36.352  29.605  29.731  1.00  0.00     0.014 A 
ATOM     35  C   UNL A   1      38.215  29.766  27.666  1.00  0.00     0.010 A 
ATOM     36  C   UNL A   1      37.663  29.206  29.950  1.00  0.00     0.010 A 
ATOM     37  C   UNL A   1      38.607  29.260  28.916  1.00  0.00    -0.014 A 
BRANCH  37  38
ATOM     38  C   UNL A   1      39.974  28.736  29.180  1.00  0.00     0.031 A 
ATOM     39  C   UNL A   1      41.017  29.650  29.773  1.00  0.00     0.074 A 
ATOM     40  C   UNL A   1      40.313  27.492  28.788  1.00  0.00     0.049 A 
ATOM     41  N   UNL A   1      42.305  29.464  29.904  1.00  0.00    -0.248 NA
ATOM     42  C   UNL A   1      40.552  30.969  30.238  1.00  0.00     0.031 C 
ATOM     43  C   UNL A   1      39.413  26.516  28.171  1.00  0.00     0.029 A 
ATOM     44  N   UNL A   1      41.523  26.843  28.836  1.00  0.00    -0.354 N 
ATOM     45  C   UNL A   1      42.805  30.654  30.420  1.00  0.00     0.074 A 
ATOM     46  C   UNL A   1      41.696  31.572  30.527  1.00  0.00     0.031 C 
ATOM     47  C   UNL A   1      40.093  25.386  27.921  1.00  0.00     0.029 A 
ATOM     48  C   UNL A   1      41.489  25.575  28.306  1.00  0.00     0.049 A 
ATOM     49  H   UNL A   1      42.337  27.248  29.213  1.00  0.00     0.167 HD
ATOM     50  C   UNL A   1      44.073  30.951  30.793  1.00  0.00     0.031 A 
ATOM     51  C   UNL A   1      42.473  24.674  28.130  1.00  0.00     0.031 A 
ATOM     52  C   UNL A   1      45.169  30.023  30.723  1.00  0.00     0.049 A 
ATOM     53  C   UNL A   1      43.874  25.026  28.552  1.00  0.00     0.074 A 
ATOM     54  C   UNL A   1      46.475  30.201  31.139  1.00  0.00     0.029 A 
ATOM     55  N   UNL A   1      45.080  28.738  30.212  1.00  0.00    -0.354 N 
ATOM     56  N   UNL A   1      44.323  26.137  29.083  1.00  0.00    -0.248 NA
ATOM     57  C   UNL A   1      44.904  23.995  28.354  1.00  0.00     0.031 C 
ATOM     58  C   UNL A   1      47.191  29.040  30.834  1.00  0.00     0.029 A 
ATOM     59  C   UNL A   1      46.314  28.118  30.286  1.00  0.00     0.049 A 
ATOM     60  H   UNL A   1      44.261  28.328  29.850  1.00  0.00     0.167 HD
ATOM     61  C   UNL A   1      45.675  25.926  29.320  1.00  0.00     0.074 A 
ATOM     62  C   UNL A   1      45.973  24.578  28.879  1.00  0.00     0.031 C 
ATOM     63  C   UNL A   1      46.587  26.770  29.858  1.00  0.00     0.031 A 
BRANCH  50  64
ATOM     64  C   UNL A   1      44.340  32.338  31.308  1.00  0.00    -0.014 A 
ATOM     65  C   UNL A   1      44.700  33.383  30.442  1.00  0.00     0.009 A 
ATOM     66  C   UNL A   1      44.202  32.612  32.678  1.00  0.00     0.009 A 
ATOM     67  C   UNL A   1      44.958  34.661  30.942  1.00  0.00     0.001 A 
ATOM     68  C   UNL A   1      44.426  33.900  33.171  1.00  0.00     0.001 A 
ATOM     69  C   UNL A   1      44.815  34.919  32.304  1.00  0.00     0.000 A 
ENDBRANCH  50  64
BRANCH  51  70
ATOM     70  C   UNL A   1      42.171  23.344  27.539  1.00  0.00    -0.014 A 
ATOM     71  C   UNL A   1      41.658  22.311  28.339  1.00  0.00     0.009 A 
ATOM     72  C   UNL A   1      42.395  23.095  26.174  1.00  0.00     0.009 A 
ATOM     73  C   UNL A   1      41.401  21.051  27.793  1.00  0.00     0.001 A 
ATOM     74  C   UNL A   1      42.108  21.843  25.625  1.00  0.00     0.001 A 
ATOM     75  C   UNL A   1      41.622  20.820  26.437  1.00  0.00     0.000 A 
ENDBRANCH  51  70
BRANCH  63  76
ATOM     76  C   UNL A   1      47.982  26.250  30.062  1.00  0.00    -0.014 A 
ATOM     77  C   UNL A   1      48.944  26.316  29.044  1.00  0.00     0.009 A 
ATOM     78  C   UNL A   1      48.353  25.754  31.322  1.00  0.00     0.009 A 
ATOM     79  C   UNL A   1      50.247  25.874  29.279  1.00  0.00     0.001 A 
ATOM     80  C   UNL A   1      49.663  25.340  31.562  1.00  0.00     0.001 A 
ATOM     81  C   UNL A   1      50.608  25.395  30.538  1.00  0.00     0.000 A 
ENDBRANCH  63  76
ENDBRANCH  37  38
ENDBRANCH  29  32
ENDBRANCH  27  28
ENDBRANCH  26  27
ENDBRANCH   1  26
TORSDOF 17
ENDMDL
