MODEL 1
REMARK VINA RESULT:     -12.4      0.000      0.000
REMARK SMILES CCCN1C(=O)/C(=C\c2ccc(C(=O)NCCCNC(=O)c3ccc(-c4c5nc(c(-c6ccccc6)c6ccc([nH]6)c(-c6ccccc6)c6nc(c(-c7ccccc7)c7ccc4[nH]7)C=C6)C=C5)cc3)cc2)S/C1=[NH+]\c1nnc(C)s1
REMARK SMILES IDX 16 1 15 2 13 3 14 4 12 6 9 7 10 8 71 9 11 10 70 11 8 12 4 13
REMARK SMILES IDX 5 14 73 15 6 16 7 17 72 18 74 19 3 21 2 22 1 23 75 24 76 25
REMARK SMILES IDX 80 26 77 27 78 28 79 29 17 30 18 31 19 32 20 33 21 35 22 36
REMARK SMILES IDX 23 37 69 38 24 39 68 40 25 41 26 42 27 43 62 44 28 45 67 46
REMARK SMILES IDX 61 47 63 48 29 49 66 50 60 51 59 52 30 54 52 55 37 56 51 57
REMARK SMILES IDX 38 58 41 59 50 60 64 61 39 62 40 63 49 65 65 66 42 67 31 68
REMARK SMILES IDX 32 69 36 70 33 71 35 72 34 73 53 74 54 75 58 76 55 77 57 78
REMARK SMILES IDX 56 79 43 80 44 81 48 82 45 83 47 84 46 85
REMARK H PARENT 15 5 74 20 19 34 63 53 41 64
REMARK Flexibility Score: inf
ROOT
ATOM      1  C   UNL A   1      31.765  29.379  25.067  1.00  0.00     0.118 C 
ENDROOT
BRANCH   1   2
ATOM      2  N   UNL A   1      31.103  29.407  23.772  1.00  0.00    -0.352 N 
ATOM      3  C   UNL A   1      30.611  28.392  22.989  1.00  0.00     0.251 C 
ATOM      4  O   UNL A   1      29.961  28.681  21.986  1.00  0.00    -0.269 OA
ATOM      5  H   UNL A   1      30.987  30.307  23.391  1.00  0.00     0.163 HD
BRANCH   3   6
ATOM      6  C   UNL A   1      30.800  26.964  23.341  1.00  0.00     0.039 A 
ATOM      7  C   UNL A   1      31.129  24.231  23.865  1.00  0.00    -0.024 A 
ATOM      8  C   UNL A   1      31.540  24.760  22.639  1.00  0.00     0.009 A 
ATOM      9  C   UNL A   1      30.624  25.083  24.852  1.00  0.00     0.009 A 
ATOM     10  C   UNL A   1      31.379  26.124  22.380  1.00  0.00     0.014 A 
ATOM     11  C   UNL A   1      30.471  26.445  24.594  1.00  0.00     0.014 A 
BRANCH   7  12
ATOM     12  C   UNL A   1      31.174  22.788  24.100  1.00  0.00     0.031 C 
ATOM     13  N   UNL A   1      34.581  21.638  24.709  1.00  0.00    -0.219 N 
ATOM     14  C   UNL A   1      33.707  22.615  24.287  1.00  0.00     0.321 C 
ATOM     15  C   UNL A   1      34.075  20.354  24.688  1.00  0.00     0.271 C 
ATOM     16  O   UNL A   1      34.012  23.730  23.879  1.00  0.00    -0.250 OA
ATOM     17  C   UNL A   1      32.307  22.094  24.274  1.00  0.00     0.100 C 
ATOM     18  S   UNL A   1      32.328  20.395  24.532  1.00  0.00    -0.012 SA
ATOM     19  N   UNL A   1      34.846  19.315  24.719  1.00  0.00    -0.226 N 
ATOM     20  H   UNL A   1      35.814  19.394  24.880  1.00  0.00     0.268 HD
BRANCH  13  21
ATOM     21  C   UNL A   1      36.013  21.849  24.938  1.00  0.00     0.206 C 
BRANCH  21  22
ATOM     22  C   UNL A   1      36.468  22.735  26.102  1.00  0.00     0.035 C 
ATOM     23  C   UNL A   1      37.621  23.674  25.774  1.00  0.00     0.007 C 
ENDBRANCH  21  22
ENDBRANCH  13  21
BRANCH  19  24
ATOM     24  C   UNL A   1      34.255  18.111  24.517  1.00  0.00     0.345 A 
ATOM     25  N   UNL A   1      34.298  17.351  23.442  1.00  0.00     0.023 NA
ATOM     26  S   UNL A   1      33.297  17.421  25.790  1.00  0.00    -0.044 S 
ATOM     27  N   UNL A   1      33.659  16.136  23.615  1.00  0.00    -0.067 NA
ATOM     28  C   UNL A   1      33.131  16.023  24.814  1.00  0.00     0.135 A 
ATOM     29  C   UNL A   1      32.449  14.812  25.337  1.00  0.00     0.083 C 
ENDBRANCH  19  24
ENDBRANCH   7  12
ENDBRANCH   3   6
ENDBRANCH   1   2
BRANCH   1  30
ATOM     30  C   UNL A   1      33.238  28.993  24.943  1.00  0.00     0.042 C 
BRANCH  30  31
ATOM     31  C   UNL A   1      33.993  28.975  26.271  1.00  0.00     0.118 C 
BRANCH  31  32
ATOM     32  N   UNL A   1      33.791  30.189  27.045  1.00  0.00    -0.352 N 
ATOM     33  C   UNL A   1      34.566  30.748  28.029  1.00  0.00     0.251 C 
ATOM     34  H   UNL A   1      32.968  30.687  26.829  1.00  0.00     0.163 HD
ATOM     35  O   UNL A   1      34.125  31.690  28.683  1.00  0.00    -0.269 OA
BRANCH  33  36
ATOM     36  C   UNL A   1      35.921  30.228  28.328  1.00  0.00     0.039 A 
ATOM     37  C   UNL A   1      36.879  30.233  27.307  1.00  0.00     0.014 A 
ATOM     38  C   UNL A   1      36.243  29.685  29.576  1.00  0.00     0.014 A 
ATOM     39  C   UNL A   1      38.165  29.742  27.548  1.00  0.00     0.010 A 
ATOM     40  C   UNL A   1      37.544  29.250  29.834  1.00  0.00     0.010 A 
ATOM     41  C   UNL A   1      38.515  29.268  28.822  1.00  0.00    -0.014 A 
BRANCH  41  42
ATOM     42  C   UNL A   1      39.890  28.786  29.109  1.00  0.00     0.031 A 
ATOM     43  C   UNL A   1      40.906  29.703  29.730  1.00  0.00     0.074 A 
ATOM     44  C   UNL A   1      40.248  27.540  28.745  1.00  0.00     0.049 A 
ATOM     45  N   UNL A   1      42.169  29.477  29.996  1.00  0.00    -0.248 NA
ATOM     46  C   UNL A   1      40.452  31.060  30.071  1.00  0.00     0.031 C 
ATOM     47  C   UNL A   1      39.375  26.565  28.090  1.00  0.00     0.029 A 
ATOM     48  N   UNL A   1      41.450  26.887  28.862  1.00  0.00    -0.354 N 
ATOM     49  C   UNL A   1      42.665  30.668  30.509  1.00  0.00     0.074 A 
ATOM     50  C   UNL A   1      41.578  31.623  30.486  1.00  0.00     0.031 C 
ATOM     51  C   UNL A   1      40.068  25.436  27.869  1.00  0.00     0.029 A 
ATOM     52  C   UNL A   1      41.437  25.617  28.341  1.00  0.00     0.049 A 
ATOM     53  H   UNL A   1      42.245  27.291  29.279  1.00  0.00     0.167 HD
ATOM     54  C   UNL A   1      43.910  30.943  30.969  1.00  0.00     0.031 A 
ATOM     55  C   UNL A   1      42.419  24.700  28.243  1.00  0.00     0.031 A 
ATOM     56  C   UNL A   1      44.989  29.992  31.013  1.00  0.00     0.049 A 
ATOM     57  C   UNL A   1      43.783  25.015  28.784  1.00  0.00     0.074 A 
ATOM     58  C   UNL A   1      46.260  30.153  31.536  1.00  0.00     0.029 A 
ATOM     59  N   UNL A   1      44.923  28.702  30.509  1.00  0.00    -0.354 N 
ATOM     60  N   UNL A   1      44.214  26.120  29.342  1.00  0.00    -0.248 NA
ATOM     61  C   UNL A   1      44.792  23.949  28.697  1.00  0.00     0.031 C 
ATOM     62  C   UNL A   1      46.979  28.974  31.311  1.00  0.00     0.029 A 
ATOM     63  C   UNL A   1      46.140  28.064  30.687  1.00  0.00     0.049 A 
ATOM     64  H   UNL A   1      44.130  28.300  30.087  1.00  0.00     0.167 HD
ATOM     65  C   UNL A   1      45.537  25.879  29.685  1.00  0.00     0.074 A 
ATOM     66  C   UNL A   1      45.833  24.519  29.289  1.00  0.00     0.031 C 
ATOM     67  C   UNL A   1      46.425  26.713  30.278  1.00  0.00     0.031 A 
BRANCH  54  68
ATOM     68  C   UNL A   1      44.173  32.343  31.446  1.00  0.00    -0.014 A 
ATOM     69  C   UNL A   1      43.993  32.700  32.792  1.00  0.00     0.009 A 
ATOM     70  C   UNL A   1      44.624  33.315  30.540  1.00  0.00     0.009 A 
ATOM     71  C   UNL A   1      44.218  34.014  33.211  1.00  0.00     0.001 A 
ATOM     72  C   UNL A   1      44.874  34.621  30.967  1.00  0.00     0.001 A 
ATOM     73  C   UNL A   1      44.660  34.971  32.299  1.00  0.00     0.000 A 
ENDBRANCH  54  68
BRANCH  55  74
ATOM     74  C   UNL A   1      42.133  23.387  27.614  1.00  0.00    -0.014 A 
ATOM     75  C   UNL A   1      41.478  22.378  28.337  1.00  0.00     0.009 A 
ATOM     76  C   UNL A   1      42.491  23.146  26.279  1.00  0.00     0.009 A 
ATOM     77  C   UNL A   1      41.200  21.148  27.737  1.00  0.00     0.001 A 
ATOM     78  C   UNL A   1      42.192  21.923  25.676  1.00  0.00     0.001 A 
ATOM     79  C   UNL A   1      41.552  20.924  26.407  1.00  0.00     0.000 A 
ENDBRANCH  55  74
BRANCH  67  80
ATOM     80  C   UNL A   1      47.799  26.170  30.548  1.00  0.00    -0.014 A 
ATOM     81  C   UNL A   1      48.778  26.145  29.544  1.00  0.00     0.009 A 
ATOM     82  C   UNL A   1      48.127  25.713  31.833  1.00  0.00     0.009 A 
ATOM     83  C   UNL A   1      50.053  25.644  29.815  1.00  0.00     0.001 A 
ATOM     84  C   UNL A   1      49.409  25.235  32.108  1.00  0.00     0.001 A 
ATOM     85  C   UNL A   1      50.369  25.193  31.096  1.00  0.00     0.000 A 
ENDBRANCH  67  80
ENDBRANCH  41  42
ENDBRANCH  33  36
ENDBRANCH  31  32
ENDBRANCH  30  31
ENDBRANCH   1  30
TORSDOF 14
ENDMDL
MODEL 2
REMARK VINA RESULT:     -12.3      2.365      6.586
REMARK SMILES CCCN1C(=O)/C(=C\c2ccc(C(=O)NCCCNC(=O)c3ccc(-c4c5nc(c(-c6ccccc6)c6ccc([nH]6)c(-c6ccccc6)c6nc(c(-c7ccccc7)c7ccc4[nH]7)C=C6)C=C5)cc3)cc2)S/C1=[NH+]\c1nnc(C)s1
REMARK SMILES IDX 16 1 15 2 13 3 14 4 12 6 9 7 10 8 71 9 11 10 70 11 8 12 4 13
REMARK SMILES IDX 5 14 73 15 6 16 7 17 72 18 74 19 3 21 2 22 1 23 75 24 76 25
REMARK SMILES IDX 80 26 77 27 78 28 79 29 17 30 18 31 19 32 20 33 21 35 22 36
REMARK SMILES IDX 23 37 69 38 24 39 68 40 25 41 26 42 27 43 62 44 28 45 67 46
REMARK SMILES IDX 61 47 63 48 29 49 66 50 60 51 59 52 30 54 52 55 37 56 51 57
REMARK SMILES IDX 38 58 41 59 50 60 64 61 39 62 40 63 49 65 65 66 42 67 31 68
REMARK SMILES IDX 32 69 36 70 33 71 35 72 34 73 53 74 54 75 58 76 55 77 57 78
REMARK SMILES IDX 56 79 43 80 44 81 48 82 45 83 47 84 46 85
REMARK H PARENT 15 5 74 20 19 34 63 53 41 64
REMARK Flexibility Score: inf
ROOT
ATOM      1  C   UNL A   1      31.450  29.994  25.168  1.00  0.00     0.118 C 
ENDROOT
BRANCH   1   2
ATOM      2  N   UNL A   1      30.806  30.088  23.867  1.00  0.00    -0.352 N 
ATOM      3  C   UNL A   1      30.344  29.114  23.017  1.00  0.00     0.251 C 
ATOM      4  O   UNL A   1      29.702  29.452  22.024  1.00  0.00    -0.269 OA
ATOM      5  H   UNL A   1      30.678  31.008  23.541  1.00  0.00     0.163 HD
BRANCH   3   6
ATOM      6  C   UNL A   1      30.554  27.671  23.284  1.00  0.00     0.039 A 
ATOM      7  C   UNL A   1      30.944  24.919  23.644  1.00  0.00    -0.024 A 
ATOM      8  C   UNL A   1      31.471  25.556  22.518  1.00  0.00     0.009 A 
ATOM      9  C   UNL A   1      30.288  25.674  24.623  1.00  0.00     0.009 A 
ATOM     10  C   UNL A   1      31.280  26.929  22.342  1.00  0.00     0.014 A 
ATOM     11  C   UNL A   1      30.104  27.045  24.448  1.00  0.00     0.014 A 
BRANCH   7  12
ATOM     12  C   UNL A   1      31.026  23.465  23.777  1.00  0.00     0.031 C 
ATOM     13  N   UNL A   1      33.946  22.464  25.720  1.00  0.00    -0.219 N 
ATOM     14  C   UNL A   1      33.243  23.426  25.029  1.00  0.00     0.321 C 
ATOM     15  C   UNL A   1      33.626  21.161  25.396  1.00  0.00     0.271 C 
ATOM     16  O   UNL A   1      33.580  24.592  24.869  1.00  0.00    -0.250 OA
ATOM     17  C   UNL A   1      32.040  22.826  24.377  1.00  0.00     0.100 C 
ATOM     18  S   UNL A   1      32.116  21.113  24.503  1.00  0.00    -0.012 SA
ATOM     19  N   UNL A   1      34.408  20.172  25.687  1.00  0.00    -0.226 N 
ATOM     20  H   UNL A   1      35.203  20.292  26.256  1.00  0.00     0.268 HD
BRANCH  13  21
ATOM     21  C   UNL A   1      35.116  22.735  26.559  1.00  0.00     0.206 C 
BRANCH  21  22
ATOM     22  C   UNL A   1      36.380  23.323  25.923  1.00  0.00     0.035 C 
ATOM     23  C   UNL A   1      37.269  22.306  25.219  1.00  0.00     0.007 C 
ENDBRANCH  21  22
ENDBRANCH  13  21
BRANCH  19  24
ATOM     24  C   UNL A   1      34.080  18.962  25.168  1.00  0.00     0.345 A 
ATOM     25  N   UNL A   1      34.572  18.374  24.097  1.00  0.00     0.023 NA
ATOM     26  S   UNL A   1      32.861  18.012  25.957  1.00  0.00    -0.044 S 
ATOM     27  N   UNL A   1      34.079  17.094  23.912  1.00  0.00    -0.067 NA
ATOM     28  C   UNL A   1      33.209  16.761  24.840  1.00  0.00     0.135 A 
ATOM     29  C   UNL A   1      32.561  15.432  24.967  1.00  0.00     0.083 C 
ENDBRANCH  19  24
ENDBRANCH   7  12
ENDBRANCH   3   6
ENDBRANCH   1   2
BRANCH   1  30
ATOM     30  C   UNL A   1      31.125  31.198  26.051  1.00  0.00     0.042 C 
BRANCH  30  31
ATOM     31  C   UNL A   1      32.313  31.724  26.854  1.00  0.00     0.118 C 
BRANCH  31  32
ATOM     32  N   UNL A   1      32.150  33.115  27.246  1.00  0.00    -0.352 N 
ATOM     33  C   UNL A   1      32.922  33.896  28.069  1.00  0.00     0.251 C 
ATOM     34  H   UNL A   1      31.363  33.565  26.861  1.00  0.00     0.163 HD
ATOM     35  O   UNL A   1      32.510  35.001  28.412  1.00  0.00    -0.269 OA
BRANCH  33  36
ATOM     36  C   UNL A   1      34.236  33.425  28.564  1.00  0.00     0.039 A 
ATOM     37  C   UNL A   1      34.272  32.643  29.724  1.00  0.00     0.014 A 
ATOM     38  C   UNL A   1      35.433  33.790  27.939  1.00  0.00     0.014 A 
ATOM     39  C   UNL A   1      35.494  32.187  30.227  1.00  0.00     0.010 A 
ATOM     40  C   UNL A   1      36.647  33.286  28.406  1.00  0.00     0.010 A 
ATOM     41  C   UNL A   1      36.691  32.486  29.558  1.00  0.00    -0.014 A 
BRANCH  41  42
ATOM     42  C   UNL A   1      37.994  31.973  30.052  1.00  0.00     0.031 A 
ATOM     43  C   UNL A   1      38.563  30.690  29.512  1.00  0.00     0.074 A 
ATOM     44  C   UNL A   1      38.634  32.624  31.042  1.00  0.00     0.049 A 
ATOM     45  N   UNL A   1      39.654  30.057  29.866  1.00  0.00    -0.248 NA
ATOM     46  C   UNL A   1      37.792  30.017  28.455  1.00  0.00     0.031 C 
ATOM     47  C   UNL A   1      38.168  33.851  31.689  1.00  0.00     0.029 A 
ATOM     48  N   UNL A   1      39.810  32.332  31.687  1.00  0.00    -0.354 N 
ATOM     49  C   UNL A   1      39.685  28.902  29.097  1.00  0.00     0.074 A 
ATOM     50  C   UNL A   1      38.489  28.903  28.282  1.00  0.00     0.031 C 
ATOM     51  C   UNL A   1      39.051  34.210  32.634  1.00  0.00     0.029 A 
ATOM     52  C   UNL A   1      40.130  33.227  32.677  1.00  0.00     0.049 A 
ATOM     53  H   UNL A   1      40.371  31.554  31.461  1.00  0.00     0.167 HD
ATOM     54  C   UNL A   1      40.628  27.929  29.062  1.00  0.00     0.031 A 
ATOM     55  C   UNL A   1      41.169  33.253  33.533  1.00  0.00     0.031 A 
ATOM     56  C   UNL A   1      41.829  27.932  29.855  1.00  0.00     0.049 A 
ATOM     57  C   UNL A   1      42.217  32.181  33.458  1.00  0.00     0.074 A 
ATOM     58  C   UNL A   1      42.882  27.034  29.828  1.00  0.00     0.029 A 
ATOM     59  N   UNL A   1      42.134  28.878  30.820  1.00  0.00    -0.354 N 
ATOM     60  N   UNL A   1      42.274  31.137  32.667  1.00  0.00    -0.248 NA
ATOM     61  C   UNL A   1      43.353  32.300  34.383  1.00  0.00     0.031 C 
ATOM     62  C   UNL A   1      43.806  27.414  30.809  1.00  0.00     0.029 A 
ATOM     63  C   UNL A   1      43.347  28.573  31.415  1.00  0.00     0.049 A 
ATOM     64  H   UNL A   1      41.571  29.653  31.049  1.00  0.00     0.167 HD
ATOM     65  C   UNL A   1      43.456  30.484  32.988  1.00  0.00     0.074 A 
ATOM     66  C   UNL A   1      44.094  31.257  34.033  1.00  0.00     0.031 C 
ATOM     67  C   UNL A   1      43.966  29.345  32.460  1.00  0.00     0.031 A 
BRANCH  54  68
ATOM     68  C   UNL A   1      40.384  26.767  28.141  1.00  0.00    -0.014 A 
ATOM     69  C   UNL A   1      40.923  26.737  26.846  1.00  0.00     0.009 A 
ATOM     70  C   UNL A   1      39.616  25.678  28.583  1.00  0.00     0.009 A 
ATOM     71  C   UNL A   1      40.663  25.660  25.996  1.00  0.00     0.001 A 
ATOM     72  C   UNL A   1      39.380  24.590  27.741  1.00  0.00     0.001 A 
ATOM     73  C   UNL A   1      39.893  24.587  26.445  1.00  0.00     0.000 A 
ENDBRANCH  54  68
BRANCH  55  74
ATOM     74  C   UNL A   1      41.269  34.348  34.530  1.00  0.00    -0.014 A 
ATOM     75  C   UNL A   1      41.820  35.587  34.172  1.00  0.00     0.009 A 
ATOM     76  C   UNL A   1      40.789  34.166  35.836  1.00  0.00     0.009 A 
ATOM     77  C   UNL A   1      41.901  36.620  35.110  1.00  0.00     0.001 A 
ATOM     78  C   UNL A   1      40.851  35.207  36.764  1.00  0.00     0.001 A 
ATOM     79  C   UNL A   1      41.412  36.430  36.401  1.00  0.00     0.000 A 
ENDBRANCH  55  74
BRANCH  67  80
ATOM     80  C   UNL A   1      45.288  28.875  32.995  1.00  0.00    -0.014 A 
ATOM     81  C   UNL A   1      45.357  27.978  34.072  1.00  0.00     0.009 A 
ATOM     82  C   UNL A   1      46.478  29.308  32.390  1.00  0.00     0.009 A 
ATOM     83  C   UNL A   1      46.595  27.545  34.551  1.00  0.00     0.001 A 
ATOM     84  C   UNL A   1      47.713  28.855  32.856  1.00  0.00     0.001 A 
ATOM     85  C   UNL A   1      47.771  27.981  33.941  1.00  0.00     0.000 A 
ENDBRANCH  67  80
ENDBRANCH  41  42
ENDBRANCH  33  36
ENDBRANCH  31  32
ENDBRANCH  30  31
ENDBRANCH   1  30
TORSDOF 14
ENDMDL
MODEL 3
REMARK VINA RESULT:     -12.0      0.973      5.804
REMARK SMILES CCCN1C(=O)/C(=C\c2ccc(C(=O)NCCCNC(=O)c3ccc(-c4c5nc(c(-c6ccccc6)c6ccc([nH]6)c(-c6ccccc6)c6nc(c(-c7ccccc7)c7ccc4[nH]7)C=C6)C=C5)cc3)cc2)S/C1=[NH+]\c1nnc(C)s1
REMARK SMILES IDX 16 1 15 2 13 3 14 4 12 6 9 7 10 8 71 9 11 10 70 11 8 12 4 13
REMARK SMILES IDX 5 14 73 15 6 16 7 17 72 18 74 19 3 21 2 22 1 23 75 24 76 25
REMARK SMILES IDX 80 26 77 27 78 28 79 29 17 30 18 31 19 32 20 33 21 35 22 36
REMARK SMILES IDX 23 37 69 38 24 39 68 40 25 41 26 42 27 43 62 44 28 45 67 46
REMARK SMILES IDX 61 47 63 48 29 49 66 50 60 51 59 52 30 54 52 55 37 56 51 57
REMARK SMILES IDX 38 58 41 59 50 60 64 61 39 62 40 63 49 65 65 66 42 67 31 68
REMARK SMILES IDX 32 69 36 70 33 71 35 72 34 73 53 74 54 75 58 76 55 77 57 78
REMARK SMILES IDX 56 79 43 80 44 81 48 82 45 83 47 84 46 85
REMARK H PARENT 15 5 74 20 19 34 63 53 41 64
REMARK Flexibility Score: inf
ROOT
ATOM      1  C   UNL A   1      31.818  29.378  25.082  1.00  0.00     0.118 C 
ENDROOT
BRANCH   1   2
ATOM      2  N   UNL A   1      31.219  29.411  23.757  1.00  0.00    -0.352 N 
ATOM      3  C   UNL A   1      30.764  28.399  22.948  1.00  0.00     0.251 C 
ATOM      4  O   UNL A   1      30.162  28.692  21.916  1.00  0.00    -0.269 OA
ATOM      5  H   UNL A   1      31.122  30.312  23.374  1.00  0.00     0.163 HD
BRANCH   3   6
ATOM      6  C   UNL A   1      30.934  26.969  23.304  1.00  0.00     0.039 A 
ATOM      7  C   UNL A   1      31.228  24.234  23.837  1.00  0.00    -0.024 A 
ATOM      8  C   UNL A   1      31.644  24.753  22.608  1.00  0.00     0.009 A 
ATOM      9  C   UNL A   1      30.735  25.096  24.821  1.00  0.00     0.009 A 
ATOM     10  C   UNL A   1      31.501  26.118  22.346  1.00  0.00     0.014 A 
ATOM     11  C   UNL A   1      30.599  26.459  24.560  1.00  0.00     0.014 A 
BRANCH   7  12
ATOM     12  C   UNL A   1      31.253  22.791  24.076  1.00  0.00     0.031 C 
ATOM     13  N   UNL A   1      34.645  21.601  24.698  1.00  0.00    -0.219 N 
ATOM     14  C   UNL A   1      33.784  22.587  24.270  1.00  0.00     0.321 C 
ATOM     15  C   UNL A   1      34.123  20.323  24.679  1.00  0.00     0.271 C 
ATOM     16  O   UNL A   1      34.104  23.697  23.861  1.00  0.00    -0.250 OA
ATOM     17  C   UNL A   1      32.378  22.084  24.256  1.00  0.00     0.100 C 
ATOM     18  S   UNL A   1      32.377  20.385  24.518  1.00  0.00    -0.012 SA
ATOM     19  N   UNL A   1      34.880  19.275  24.715  1.00  0.00    -0.226 N 
ATOM     20  H   UNL A   1      35.849  19.342  24.879  1.00  0.00     0.268 HD
BRANCH  13  21
ATOM     21  C   UNL A   1      36.078  21.794  24.930  1.00  0.00     0.206 C 
BRANCH  21  22
ATOM     22  C   UNL A   1      36.543  22.594  26.152  1.00  0.00     0.035 C 
ATOM     23  C   UNL A   1      37.588  23.660  25.853  1.00  0.00     0.007 C 
ENDBRANCH  21  22
ENDBRANCH  13  21
BRANCH  19  24
ATOM     24  C   UNL A   1      34.274  18.077  24.515  1.00  0.00     0.345 A 
ATOM     25  N   UNL A   1      34.310  17.315  23.442  1.00  0.00     0.023 NA
ATOM     26  S   UNL A   1      33.307  17.401  25.788  1.00  0.00    -0.044 S 
ATOM     27  N   UNL A   1      33.656  16.108  23.617  1.00  0.00    -0.067 NA
ATOM     28  C   UNL A   1      33.125  16.003  24.815  1.00  0.00     0.135 A 
ATOM     29  C   UNL A   1      32.428  14.803  25.340  1.00  0.00     0.083 C 
ENDBRANCH  19  24
ENDBRANCH   7  12
ENDBRANCH   3   6
ENDBRANCH   1   2
BRANCH   1  30
ATOM     30  C   UNL A   1      33.284  28.947  25.031  1.00  0.00     0.042 C 
BRANCH  30  31
ATOM     31  C   UNL A   1      34.010  29.044  26.371  1.00  0.00     0.118 C 
BRANCH  31  32
ATOM     32  N   UNL A   1      33.759  30.305  27.053  1.00  0.00    -0.352 N 
ATOM     33  C   UNL A   1      34.486  30.943  28.025  1.00  0.00     0.251 C 
ATOM     34  H   UNL A   1      32.938  30.772  26.772  1.00  0.00     0.163 HD
ATOM     35  O   UNL A   1      34.005  31.918  28.597  1.00  0.00    -0.269 OA
BRANCH  33  36
ATOM     36  C   UNL A   1      35.836  30.468  28.411  1.00  0.00     0.039 A 
ATOM     37  C   UNL A   1      35.972  29.729  29.591  1.00  0.00     0.014 A 
ATOM     38  C   UNL A   1      36.972  30.789  27.660  1.00  0.00     0.014 A 
ATOM     39  C   UNL A   1      37.231  29.272  29.992  1.00  0.00     0.010 A 
ATOM     40  C   UNL A   1      38.219  30.282  28.028  1.00  0.00     0.010 A 
ATOM     41  C   UNL A   1      38.362  29.525  29.201  1.00  0.00    -0.014 A 
BRANCH  41  42
ATOM     42  C   UNL A   1      39.699  29.008  29.587  1.00  0.00     0.031 A 
ATOM     43  C   UNL A   1      40.197  27.698  29.043  1.00  0.00     0.074 A 
ATOM     44  C   UNL A   1      40.439  29.682  30.487  1.00  0.00     0.049 A 
ATOM     45  N   UNL A   1      41.308  27.060  29.315  1.00  0.00    -0.248 NA
ATOM     46  C   UNL A   1      39.320  27.001  28.090  1.00  0.00     0.031 C 
ATOM     47  C   UNL A   1      40.053  30.939  31.131  1.00  0.00     0.029 A 
ATOM     48  N   UNL A   1      41.668  29.394  31.028  1.00  0.00    -0.354 N 
ATOM     49  C   UNL A   1      41.251  25.877  28.590  1.00  0.00     0.074 A 
ATOM     50  C   UNL A   1      39.983  25.870  27.892  1.00  0.00     0.031 C 
ATOM     51  C   UNL A   1      41.027  31.317  31.974  1.00  0.00     0.029 A 
ATOM     52  C   UNL A   1      42.092  30.318  31.950  1.00  0.00     0.049 A 
ATOM     53  H   UNL A   1      42.194  28.600  30.779  1.00  0.00     0.167 HD
ATOM     54  C   UNL A   1      42.174  24.888  28.501  1.00  0.00     0.031 A 
ATOM     55  C   UNL A   1      43.208  30.357  32.702  1.00  0.00     0.031 A 
ATOM     56  C   UNL A   1      43.445  24.899  29.175  1.00  0.00     0.049 A 
ATOM     57  C   UNL A   1      44.230  29.266  32.568  1.00  0.00     0.074 A 
ATOM     58  C   UNL A   1      44.479  23.984  29.082  1.00  0.00     0.029 A 
ATOM     59  N   UNL A   1      43.853  25.875  30.072  1.00  0.00    -0.354 N 
ATOM     60  N   UNL A   1      44.198  28.194  31.814  1.00  0.00    -0.248 NA
ATOM     61  C   UNL A   1      45.451  29.399  33.376  1.00  0.00     0.031 C 
ATOM     62  C   UNL A   1      45.497  24.383  29.956  1.00  0.00     0.029 A 
ATOM     63  C   UNL A   1      45.113  25.570  30.560  1.00  0.00     0.049 A 
ATOM     64  H   UNL A   1      43.325  26.665  30.325  1.00  0.00     0.167 HD
ATOM     65  C   UNL A   1      45.397  27.533  32.045  1.00  0.00     0.074 A 
ATOM     66  C   UNL A   1      46.141  28.333  32.995  1.00  0.00     0.031 C 
ATOM     67  C   UNL A   1      45.839  26.368  31.513  1.00  0.00     0.031 A 
BRANCH  54  68
ATOM     68  C   UNL A   1      41.828  23.699  27.651  1.00  0.00    -0.014 A 
ATOM     69  C   UNL A   1      42.508  23.438  26.450  1.00  0.00     0.009 A 
ATOM     70  C   UNL A   1      40.819  22.817  28.066  1.00  0.00     0.009 A 
ATOM     71  C   UNL A   1      42.153  22.342  25.661  1.00  0.00     0.001 A 
ATOM     72  C   UNL A   1      40.484  21.706  27.288  1.00  0.00     0.001 A 
ATOM     73  C   UNL A   1      41.144  21.476  26.082  1.00  0.00     0.000 A 
ENDBRANCH  54  68
BRANCH  55  74
ATOM     74  C   UNL A   1      43.417  31.485  33.644  1.00  0.00    -0.014 A 
ATOM     75  C   UNL A   1      44.048  32.662  33.216  1.00  0.00     0.009 A 
ATOM     76  C   UNL A   1      42.962  31.398  34.969  1.00  0.00     0.009 A 
ATOM     77  C   UNL A   1      44.232  33.726  34.102  1.00  0.00     0.001 A 
ATOM     78  C   UNL A   1      43.127  32.472  35.845  1.00  0.00     0.001 A 
ATOM     79  C   UNL A   1      43.767  33.632  35.413  1.00  0.00     0.000 A 
ENDBRANCH  55  74
BRANCH  67  80
ATOM     80  C   UNL A   1      47.200  25.896  31.937  1.00  0.00    -0.014 A 
ATOM     81  C   UNL A   1      47.384  25.209  33.146  1.00  0.00     0.009 A 
ATOM     82  C   UNL A   1      48.304  26.110  31.098  1.00  0.00     0.009 A 
ATOM     83  C   UNL A   1      48.656  24.769  33.520  1.00  0.00     0.001 A 
ATOM     84  C   UNL A   1      49.570  25.649  31.464  1.00  0.00     0.001 A 
ATOM     85  C   UNL A   1      49.746  24.986  32.678  1.00  0.00     0.000 A 
ENDBRANCH  67  80
ENDBRANCH  41  42
ENDBRANCH  33  36
ENDBRANCH  31  32
ENDBRANCH  30  31
ENDBRANCH   1  30
TORSDOF 14
ENDMDL
