MODEL 1
REMARK VINA RESULT:     -10.4      0.000      0.000
REMARK SMILES O=C(CC1(CSC[C@H]2C[C@H]3CC[C@@H]2C3)CC1)NCCCNC(=O)c1ccc(-c2c3nc(c(-c4ccccc4)c4ccc([nH]4)c(-c4ccccc4)c4nc(c(-c5ccccc5)c5ccc2[nH]5)C=C4)C=C3)cc1
REMARK SMILES IDX 1 1 2 2 17 3 3 5 4 6 15 7 16 8 5 9 6 10 7 11 8 12 9 13 13 14
REMARK SMILES IDX 10 15 12 16 14 17 11 18 18 19 19 20 20 21 21 22 22 23 23 25
REMARK SMILES IDX 24 26 25 27 71 28 26 29 70 30 27 31 28 32 29 33 64 34 30 35
REMARK SMILES IDX 69 36 63 37 65 38 31 39 68 40 62 41 61 42 32 44 54 45 39 46
REMARK SMILES IDX 53 47 40 48 43 49 52 50 66 51 41 52 42 53 51 55 67 56 44 57
REMARK SMILES IDX 33 58 34 59 38 60 35 61 37 62 36 63 55 64 56 65 60 66 57 67
REMARK SMILES IDX 59 68 58 69 45 70 46 71 50 72 47 73 49 74 48 75
REMARK H PARENT 17 4 21 24 65 43 43 54
REMARK Flexibility Score: inf
ROOT
ATOM      1  O   UNL A   1      32.026  28.554  27.591  1.00  0.00    -0.275 OA
ATOM      2  C   UNL A   1      32.776  28.820  26.654  1.00  0.00     0.220 C 
ATOM      3  N   UNL A   1      32.652  29.966  25.897  1.00  0.00    -0.356 N 
ATOM      4  H   UNL A   1      33.323  30.165  25.205  1.00  0.00     0.163 HD
ENDROOT
BRANCH   2   5
ATOM      5  C   UNL A   1      33.897  27.885  26.221  1.00  0.00     0.107 C 
BRANCH   5   6
ATOM      6  C   UNL A   1      33.434  26.709  25.360  1.00  0.00    -0.012 C 
ATOM      7  C   UNL A   1      34.324  25.473  25.406  1.00  0.00     0.009 C 
ATOM      8  C   UNL A   1      32.970  25.424  26.033  1.00  0.00     0.009 C 
BRANCH   6   9
ATOM      9  C   UNL A   1      32.876  27.049  23.991  1.00  0.00     0.077 C 
BRANCH   9  10
ATOM     10  S   UNL A   1      31.140  26.629  23.730  1.00  0.00    -0.161 SA
BRANCH  10  11
ATOM     11  C   UNL A   1      30.346  28.271  23.890  1.00  0.00     0.073 C 
BRANCH  11  12
ATOM     12  C   UNL A   1      29.379  28.594  22.753  1.00  0.00     0.002 C 
ATOM     13  C   UNL A   1      27.882  28.467  23.122  1.00  0.00     0.008 C 
ATOM     14  C   UNL A   1      29.455  30.063  22.258  1.00  0.00    -0.007 C 
ATOM     15  C   UNL A   1      27.279  29.800  22.630  1.00  0.00    -0.011 C 
ATOM     16  C   UNL A   1      29.153  31.070  23.388  1.00  0.00     0.004 C 
ATOM     17  C   UNL A   1      28.168  30.153  21.438  1.00  0.00     0.007 C 
ATOM     18  C   UNL A   1      27.653  30.896  23.635  1.00  0.00     0.004 C 
ENDBRANCH  11  12
ENDBRANCH  10  11
ENDBRANCH   9  10
ENDBRANCH   6   9
ENDBRANCH   5   6
ENDBRANCH   2   5
BRANCH   3  19
ATOM     19  C   UNL A   1      31.551  30.882  26.109  1.00  0.00     0.117 C 
BRANCH  19  20
ATOM     20  C   UNL A   1      31.761  31.838  27.278  1.00  0.00     0.042 C 
BRANCH  20  21
ATOM     21  C   UNL A   1      32.823  32.914  27.065  1.00  0.00     0.118 C 
BRANCH  21  22
ATOM     22  N   UNL A   1      32.452  34.202  27.627  1.00  0.00    -0.352 N 
ATOM     23  C   UNL A   1      33.020  34.946  28.628  1.00  0.00     0.251 C 
ATOM     24  H   UNL A   1      31.654  34.609  27.219  1.00  0.00     0.163 HD
ATOM     25  O   UNL A   1      32.470  35.987  28.983  1.00  0.00    -0.269 OA
BRANCH  23  26
ATOM     26  C   UNL A   1      34.227  34.497  29.348  1.00  0.00     0.039 A 
ATOM     27  C   UNL A   1      34.029  33.814  30.554  1.00  0.00     0.014 A 
ATOM     28  C   UNL A   1      35.523  34.717  28.877  1.00  0.00     0.014 A 
ATOM     29  C   UNL A   1      35.113  33.269  31.234  1.00  0.00     0.010 A 
ATOM     30  C   UNL A   1      36.601  34.109  29.517  1.00  0.00     0.010 A 
ATOM     31  C   UNL A   1      36.400  33.365  30.688  1.00  0.00    -0.014 A 
BRANCH  31  32
ATOM     32  C   UNL A   1      37.528  32.643  31.318  1.00  0.00     0.031 A 
ATOM     33  C   UNL A   1      38.052  33.072  32.654  1.00  0.00     0.074 A 
ATOM     34  C   UNL A   1      38.094  31.619  30.649  1.00  0.00     0.049 A 
ATOM     35  N   UNL A   1      39.039  32.571  33.350  1.00  0.00    -0.248 NA
ATOM     36  C   UNL A   1      37.396  34.229  33.283  1.00  0.00     0.031 C 
ATOM     37  C   UNL A   1      37.682  31.141  29.325  1.00  0.00     0.029 A 
ATOM     38  N   UNL A   1      39.132  30.792  30.990  1.00  0.00    -0.354 N 
ATOM     39  C   UNL A   1      39.132  33.358  34.490  1.00  0.00     0.074 A 
ATOM     40  C   UNL A   1      38.132  34.396  34.372  1.00  0.00     0.031 C 
ATOM     41  C   UNL A   1      38.435  30.084  28.984  1.00  0.00     0.029 A 
ATOM     42  C   UNL A   1      39.406  29.835  30.042  1.00  0.00     0.049 A 
ATOM     43  H   UNL A   1      39.633  30.875  31.834  1.00  0.00     0.167 HD
ATOM     44  C   UNL A   1      39.967  33.216  35.547  1.00  0.00     0.031 A 
ATOM     45  C   UNL A   1      40.339  28.865  30.030  1.00  0.00     0.031 A 
ATOM     46  C   UNL A   1      40.958  32.178  35.650  1.00  0.00     0.049 A 
ATOM     47  C   UNL A   1      41.253  28.731  31.215  1.00  0.00     0.074 A 
ATOM     48  C   UNL A   1      41.836  31.921  36.689  1.00  0.00     0.029 A 
ATOM     49  N   UNL A   1      41.202  31.225  34.674  1.00  0.00    -0.354 N 
ATOM     50  N   UNL A   1      41.293  29.450  32.311  1.00  0.00    -0.248 NA
ATOM     51  C   UNL A   1      42.240  27.644  31.166  1.00  0.00     0.031 C 
ATOM     52  C   UNL A   1      42.641  30.838  36.321  1.00  0.00     0.029 A 
ATOM     53  C   UNL A   1      42.227  30.385  35.077  1.00  0.00     0.049 A 
ATOM     54  H   UNL A   1      40.718  31.153  33.819  1.00  0.00     0.167 HD
ATOM     55  C   UNL A   1      42.289  28.886  33.096  1.00  0.00     0.074 A 
ATOM     56  C   UNL A   1      42.814  27.757  32.356  1.00  0.00     0.031 C 
ATOM     57  C   UNL A   1      42.730  29.268  34.320  1.00  0.00     0.031 A 
BRANCH  44  58
ATOM     58  C   UNL A   1      39.848  34.223  36.658  1.00  0.00    -0.014 A 
ATOM     59  C   UNL A   1      39.030  33.982  37.775  1.00  0.00     0.009 A 
ATOM     60  C   UNL A   1      40.571  35.423  36.596  1.00  0.00     0.009 A 
ATOM     61  C   UNL A   1      38.906  34.942  38.782  1.00  0.00     0.001 A 
ATOM     62  C   UNL A   1      40.469  36.368  37.618  1.00  0.00     0.001 A 
ATOM     63  C   UNL A   1      39.627  36.132  38.705  1.00  0.00     0.000 A 
ENDBRANCH  44  58
BRANCH  45  64
ATOM     64  C   UNL A   1      40.434  27.934  28.874  1.00  0.00    -0.014 A 
ATOM     65  C   UNL A   1      41.218  28.264  27.757  1.00  0.00     0.009 A 
ATOM     66  C   UNL A   1      39.750  26.709  28.885  1.00  0.00     0.009 A 
ATOM     67  C   UNL A   1      41.292  27.396  26.665  1.00  0.00     0.001 A 
ATOM     68  C   UNL A   1      39.849  25.831  27.803  1.00  0.00     0.001 A 
ATOM     69  C   UNL A   1      40.612  26.179  26.690  1.00  0.00     0.000 A 
ENDBRANCH  45  64
BRANCH  57  70
ATOM     70  C   UNL A   1      43.806  28.429  34.945  1.00  0.00    -0.014 A 
ATOM     71  C   UNL A   1      43.496  27.311  35.734  1.00  0.00     0.009 A 
ATOM     72  C   UNL A   1      45.154  28.746  34.709  1.00  0.00     0.009 A 
ATOM     73  C   UNL A   1      44.516  26.548  36.306  1.00  0.00     0.001 A 
ATOM     74  C   UNL A   1      46.170  27.964  35.257  1.00  0.00     0.001 A 
ATOM     75  C   UNL A   1      45.851  26.872  36.063  1.00  0.00     0.000 A 
ENDBRANCH  57  70
ENDBRANCH  31  32
ENDBRANCH  23  26
ENDBRANCH  21  22
ENDBRANCH  20  21
ENDBRANCH  19  20
ENDBRANCH   3  19
TORSDOF 15
ENDMDL
MODEL 2
REMARK VINA RESULT:     -10.4      6.283     10.739
REMARK SMILES O=C(CC1(CSC[C@H]2C[C@H]3CC[C@@H]2C3)CC1)NCCCNC(=O)c1ccc(-c2c3nc(c(-c4ccccc4)c4ccc([nH]4)c(-c4ccccc4)c4nc(c(-c5ccccc5)c5ccc2[nH]5)C=C4)C=C3)cc1
REMARK SMILES IDX 1 1 2 2 17 3 3 5 4 6 15 7 16 8 5 9 6 10 7 11 8 12 9 13 13 14
REMARK SMILES IDX 10 15 12 16 14 17 11 18 18 19 19 20 20 21 21 22 22 23 23 25
REMARK SMILES IDX 24 26 25 27 71 28 26 29 70 30 27 31 28 32 29 33 64 34 30 35
REMARK SMILES IDX 69 36 63 37 65 38 31 39 68 40 62 41 61 42 32 44 54 45 39 46
REMARK SMILES IDX 53 47 40 48 43 49 52 50 66 51 41 52 42 53 51 55 67 56 44 57
REMARK SMILES IDX 33 58 34 59 38 60 35 61 37 62 36 63 55 64 56 65 60 66 57 67
REMARK SMILES IDX 59 68 58 69 45 70 46 71 50 72 47 73 49 74 48 75
REMARK H PARENT 17 4 21 24 65 43 43 54
REMARK Flexibility Score: inf
ROOT
ATOM      1  O   UNL A   1      36.370  23.942  25.405  1.00  0.00    -0.275 OA
ATOM      2  C   UNL A   1      35.737  22.962  25.794  1.00  0.00     0.220 C 
ATOM      3  N   UNL A   1      36.109  21.666  25.506  1.00  0.00    -0.356 N 
ATOM      4  H   UNL A   1      35.606  20.918  25.902  1.00  0.00     0.163 HD
ENDROOT
BRANCH   2   5
ATOM      5  C   UNL A   1      34.456  23.095  26.606  1.00  0.00     0.107 C 
BRANCH   5   6
ATOM      6  C   UNL A   1      33.253  23.592  25.802  1.00  0.00    -0.012 C 
ATOM      7  C   UNL A   1      32.122  24.200  26.625  1.00  0.00     0.009 C 
ATOM      8  C   UNL A   1      32.950  25.084  25.752  1.00  0.00     0.009 C 
BRANCH   6   9
ATOM      9  C   UNL A   1      32.809  22.726  24.640  1.00  0.00     0.077 C 
BRANCH   9  10
ATOM     10  S   UNL A   1      31.839  21.268  25.080  1.00  0.00    -0.161 SA
BRANCH  10  11
ATOM     11  C   UNL A   1      33.159  20.080  25.523  1.00  0.00     0.073 C 
BRANCH  11  12
ATOM     12  C   UNL A   1      33.577  19.175  24.366  1.00  0.00     0.002 C 
ATOM     13  C   UNL A   1      34.855  18.341  24.626  1.00  0.00     0.008 C 
ATOM     14  C   UNL A   1      32.545  18.067  24.026  1.00  0.00    -0.007 C 
ATOM     15  C   UNL A   1      34.433  16.909  24.234  1.00  0.00    -0.011 C 
ATOM     16  C   UNL A   1      32.275  17.139  25.230  1.00  0.00     0.004 C 
ATOM     17  C   UNL A   1      33.391  17.152  23.140  1.00  0.00     0.007 C 
ATOM     18  C   UNL A   1      33.570  16.336  25.365  1.00  0.00     0.004 C 
ENDBRANCH  11  12
ENDBRANCH  10  11
ENDBRANCH   9  10
ENDBRANCH   6   9
ENDBRANCH   5   6
ENDBRANCH   2   5
BRANCH   3  19
ATOM     19  C   UNL A   1      37.229  21.391  24.631  1.00  0.00     0.117 C 
BRANCH  19  20
ATOM     20  C   UNL A   1      37.968  20.100  24.964  1.00  0.00     0.042 C 
BRANCH  20  21
ATOM     21  C   UNL A   1      39.055  20.219  26.029  1.00  0.00     0.118 C 
BRANCH  21  22
ATOM     22  N   UNL A   1      40.080  19.194  25.916  1.00  0.00    -0.352 N 
ATOM     23  C   UNL A   1      41.439  19.257  26.078  1.00  0.00     0.251 C 
ATOM     24  H   UNL A   1      39.738  18.301  25.681  1.00  0.00     0.163 HD
ATOM     25  O   UNL A   1      42.114  18.254  25.851  1.00  0.00    -0.269 OA
BRANCH  23  26
ATOM     26  C   UNL A   1      42.127  20.511  26.439  1.00  0.00     0.039 A 
ATOM     27  C   UNL A   1      42.611  21.296  25.385  1.00  0.00     0.014 A 
ATOM     28  C   UNL A   1      42.300  20.935  27.758  1.00  0.00     0.014 A 
ATOM     29  C   UNL A   1      43.176  22.541  25.643  1.00  0.00     0.010 A 
ATOM     30  C   UNL A   1      42.797  22.211  28.013  1.00  0.00     0.010 A 
ATOM     31  C   UNL A   1      43.219  23.029  26.955  1.00  0.00    -0.014 A 
BRANCH  31  32
ATOM     32  C   UNL A   1      43.661  24.417  27.214  1.00  0.00     0.031 A 
ATOM     33  C   UNL A   1      42.673  25.461  27.639  1.00  0.00     0.074 A 
ATOM     34  C   UNL A   1      44.958  24.729  27.026  1.00  0.00     0.049 A 
ATOM     35  N   UNL A   1      42.874  26.728  27.895  1.00  0.00    -0.248 NA
ATOM     36  C   UNL A   1      41.272  25.032  27.773  1.00  0.00     0.031 C 
ATOM     37  C   UNL A   1      45.997  23.795  26.581  1.00  0.00     0.029 A 
ATOM     38  N   UNL A   1      45.628  25.914  27.189  1.00  0.00    -0.354 N 
ATOM     39  C   UNL A   1      41.625  27.249  28.207  1.00  0.00     0.074 A 
ATOM     40  C   UNL A   1      40.668  26.175  28.063  1.00  0.00     0.031 C 
ATOM     41  C   UNL A   1      47.177  24.434  26.542  1.00  0.00     0.029 A 
ATOM     42  C   UNL A   1      46.972  25.827  26.919  1.00  0.00     0.049 A 
ATOM     43  H   UNL A   1      45.187  26.748  27.474  1.00  0.00     0.167 HD
ATOM     44  C   UNL A   1      41.310  28.510  28.592  1.00  0.00     0.031 A 
ATOM     45  C   UNL A   1      47.932  26.769  26.970  1.00  0.00     0.031 A 
ATOM     46  C   UNL A   1      42.274  29.569  28.729  1.00  0.00     0.049 A 
ATOM     47  C   UNL A   1      47.554  28.158  27.399  1.00  0.00     0.074 A 
ATOM     48  C   UNL A   1      42.071  30.874  29.143  1.00  0.00     0.029 A 
ATOM     49  N   UNL A   1      43.627  29.442  28.452  1.00  0.00    -0.354 N 
ATOM     50  N   UNL A   1      46.378  28.624  27.743  1.00  0.00    -0.248 NA
ATOM     51  C   UNL A   1      48.639  29.147  27.460  1.00  0.00     0.031 C 
ATOM     52  C   UNL A   1      43.295  31.548  29.073  1.00  0.00     0.029 A 
ATOM     53  C   UNL A   1      44.270  30.648  28.671  1.00  0.00     0.049 A 
ATOM     54  H   UNL A   1      44.066  28.616  28.146  1.00  0.00     0.167 HD
ATOM     55  C   UNL A   1      46.584  29.952  28.089  1.00  0.00     0.074 A 
ATOM     56  C   UNL A   1      48.001  30.210  27.929  1.00  0.00     0.031 C 
ATOM     57  C   UNL A   1      45.683  30.876  28.504  1.00  0.00     0.031 A 
BRANCH  44  58
ATOM     58  C   UNL A   1      39.862  28.802  28.871  1.00  0.00    -0.014 A 
ATOM     59  C   UNL A   1      39.305  28.578  30.141  1.00  0.00     0.009 A 
ATOM     60  C   UNL A   1      39.044  29.319  27.855  1.00  0.00     0.009 A 
ATOM     61  C   UNL A   1      37.949  28.825  30.373  1.00  0.00     0.001 A 
ATOM     62  C   UNL A   1      37.697  29.593  28.099  1.00  0.00     0.001 A 
ATOM     63  C   UNL A   1      37.147  29.335  29.354  1.00  0.00     0.000 A 
ENDBRANCH  44  58
BRANCH  45  64
ATOM     64  C   UNL A   1      49.337  26.422  26.631  1.00  0.00    -0.014 A 
ATOM     65  C   UNL A   1      50.197  25.896  27.607  1.00  0.00     0.009 A 
ATOM     66  C   UNL A   1      49.825  26.608  25.328  1.00  0.00     0.009 A 
ATOM     67  C   UNL A   1      51.523  25.587  27.292  1.00  0.00     0.001 A 
ATOM     68  C   UNL A   1      51.143  26.271  25.008  1.00  0.00     0.001 A 
ATOM     69  C   UNL A   1      51.993  25.771  25.993  1.00  0.00     0.000 A 
ENDBRANCH  45  64
BRANCH  57  70
ATOM     70  C   UNL A   1      46.216  32.236  28.848  1.00  0.00    -0.014 A 
ATOM     71  C   UNL A   1      46.282  33.260  27.891  1.00  0.00     0.009 A 
ATOM     72  C   UNL A   1      46.628  32.504  30.164  1.00  0.00     0.009 A 
ATOM     73  C   UNL A   1      46.784  34.516  28.236  1.00  0.00     0.001 A 
ATOM     74  C   UNL A   1      47.101  33.769  30.512  1.00  0.00     0.001 A 
ATOM     75  C   UNL A   1      47.189  34.770  29.547  1.00  0.00     0.000 A 
ENDBRANCH  57  70
ENDBRANCH  31  32
ENDBRANCH  23  26
ENDBRANCH  21  22
ENDBRANCH  20  21
ENDBRANCH  19  20
ENDBRANCH   3  19
TORSDOF 15
ENDMDL
MODEL 3
REMARK VINA RESULT:     -10.3      6.162     11.188
REMARK SMILES O=C(CC1(CSC[C@H]2C[C@H]3CC[C@@H]2C3)CC1)NCCCNC(=O)c1ccc(-c2c3nc(c(-c4ccccc4)c4ccc([nH]4)c(-c4ccccc4)c4nc(c(-c5ccccc5)c5ccc2[nH]5)C=C4)C=C3)cc1
REMARK SMILES IDX 1 1 2 2 17 3 3 5 4 6 15 7 16 8 5 9 6 10 7 11 8 12 9 13 13 14
REMARK SMILES IDX 10 15 12 16 14 17 11 18 18 19 19 20 20 21 21 22 22 23 23 25
REMARK SMILES IDX 24 26 25 27 71 28 26 29 70 30 27 31 28 32 29 33 64 34 30 35
REMARK SMILES IDX 69 36 63 37 65 38 31 39 68 40 62 41 61 42 32 44 54 45 39 46
REMARK SMILES IDX 53 47 40 48 43 49 52 50 66 51 41 52 42 53 51 55 67 56 44 57
REMARK SMILES IDX 33 58 34 59 38 60 35 61 37 62 36 63 55 64 56 65 60 66 57 67
REMARK SMILES IDX 59 68 58 69 45 70 46 71 50 72 47 73 49 74 48 75
REMARK H PARENT 17 4 21 24 65 43 43 54
REMARK Flexibility Score: inf
ROOT
ATOM      1  O   UNL A   1      35.812  24.033  25.041  1.00  0.00    -0.275 OA
ATOM      2  C   UNL A   1      35.674  23.224  24.126  1.00  0.00     0.220 C 
ATOM      3  N   UNL A   1      36.512  22.144  23.948  1.00  0.00    -0.356 N 
ATOM      4  H   UNL A   1      36.314  21.487  23.241  1.00  0.00     0.163 HD
ENDROOT
BRANCH   2   5
ATOM      5  C   UNL A   1      34.577  23.362  23.080  1.00  0.00     0.107 C 
BRANCH   5   6
ATOM      6  C   UNL A   1      33.214  22.831  23.528  1.00  0.00    -0.012 C 
ATOM      7  C   UNL A   1      32.008  23.446  22.825  1.00  0.00     0.009 C 
ATOM      8  C   UNL A   1      32.368  22.022  22.554  1.00  0.00     0.009 C 
BRANCH   6   9
ATOM      9  C   UNL A   1      33.036  22.587  25.014  1.00  0.00     0.077 C 
BRANCH   9  10
ATOM     10  S   UNL A   1      32.416  20.953  25.467  1.00  0.00    -0.161 SA
BRANCH  10  11
ATOM     11  C   UNL A   1      33.955  19.962  25.425  1.00  0.00     0.073 C 
BRANCH  11  12
ATOM     12  C   UNL A   1      34.020  18.986  24.251  1.00  0.00     0.002 C 
ATOM     13  C   UNL A   1      35.143  17.926  24.354  1.00  0.00     0.008 C 
ATOM     14  C   UNL A   1      32.760  18.093  24.103  1.00  0.00    -0.007 C 
ATOM     15  C   UNL A   1      34.406  16.598  24.075  1.00  0.00    -0.011 C 
ATOM     16  C   UNL A   1      32.502  17.241  25.365  1.00  0.00     0.004 C 
ATOM     17  C   UNL A   1      33.279  17.028  23.136  1.00  0.00     0.007 C 
ATOM     18  C   UNL A   1      33.630  16.207  25.338  1.00  0.00     0.004 C 
ENDBRANCH  11  12
ENDBRANCH  10  11
ENDBRANCH   9  10
ENDBRANCH   6   9
ENDBRANCH   5   6
ENDBRANCH   2   5
BRANCH   3  19
ATOM     19  C   UNL A   1      37.678  21.961  24.787  1.00  0.00     0.117 C 
BRANCH  19  20
ATOM     20  C   UNL A   1      38.123  20.508  24.915  1.00  0.00     0.042 C 
BRANCH  20  21
ATOM     21  C   UNL A   1      38.896  20.166  26.186  1.00  0.00     0.118 C 
BRANCH  21  22
ATOM     22  N   UNL A   1      39.962  19.203  25.964  1.00  0.00    -0.352 N 
ATOM     23  C   UNL A   1      41.323  19.325  26.070  1.00  0.00     0.251 C 
ATOM     24  H   UNL A   1      39.653  18.310  25.689  1.00  0.00     0.163 HD
ATOM     25  O   UNL A   1      42.034  18.374  25.751  1.00  0.00    -0.269 OA
BRANCH  23  26
ATOM     26  C   UNL A   1      41.966  20.590  26.478  1.00  0.00     0.039 A 
ATOM     27  C   UNL A   1      42.316  21.482  25.457  1.00  0.00     0.014 A 
ATOM     28  C   UNL A   1      42.222  20.920  27.810  1.00  0.00     0.014 A 
ATOM     29  C   UNL A   1      42.828  22.737  25.772  1.00  0.00     0.010 A 
ATOM     30  C   UNL A   1      42.665  22.202  28.129  1.00  0.00     0.010 A 
ATOM     31  C   UNL A   1      42.951  23.124  27.112  1.00  0.00    -0.014 A 
BRANCH  31  32
ATOM     32  C   UNL A   1      43.333  24.514  27.449  1.00  0.00     0.031 A 
ATOM     33  C   UNL A   1      44.765  24.947  27.372  1.00  0.00     0.074 A 
ATOM     34  C   UNL A   1      42.374  25.366  27.861  1.00  0.00     0.049 A 
ATOM     35  N   UNL A   1      45.287  26.115  27.643  1.00  0.00    -0.248 NA
ATOM     36  C   UNL A   1      45.744  23.931  26.956  1.00  0.00     0.031 C 
ATOM     37  C   UNL A   1      40.952  25.035  28.004  1.00  0.00     0.029 A 
ATOM     38  N   UNL A   1      42.445  26.685  28.229  1.00  0.00    -0.354 N 
ATOM     39  C   UNL A   1      46.653  25.971  27.444  1.00  0.00     0.074 A 
ATOM     40  C   UNL A   1      46.885  24.592  27.074  1.00  0.00     0.031 C 
ATOM     41  C   UNL A   1      40.282  26.132  28.393  1.00  0.00     0.029 A 
ATOM     42  C   UNL A   1      41.228  27.227  28.566  1.00  0.00     0.049 A 
ATOM     43  H   UNL A   1      43.287  27.194  28.248  1.00  0.00     0.167 HD
ATOM     44  C   UNL A   1      47.624  26.910  27.547  1.00  0.00     0.031 A 
ATOM     45  C   UNL A   1      40.912  28.471  28.970  1.00  0.00     0.031 A 
ATOM     46  C   UNL A   1      47.378  28.278  27.918  1.00  0.00     0.049 A 
ATOM     47  C   UNL A   1      42.009  29.492  29.077  1.00  0.00     0.074 A 
ATOM     48  C   UNL A   1      48.281  29.321  28.022  1.00  0.00     0.029 A 
ATOM     49  N   UNL A   1      46.133  28.792  28.247  1.00  0.00    -0.354 N 
ATOM     50  N   UNL A   1      43.290  29.355  28.833  1.00  0.00    -0.248 NA
ATOM     51  C   UNL A   1      41.614  30.842  29.501  1.00  0.00     0.031 C 
ATOM     52  C   UNL A   1      47.588  30.456  28.458  1.00  0.00     0.029 A 
ATOM     53  C   UNL A   1      46.244  30.134  28.569  1.00  0.00     0.049 A 
ATOM     54  H   UNL A   1      45.292  28.279  28.249  1.00  0.00     0.167 HD
ATOM     55  C   UNL A   1      43.851  30.607  29.046  1.00  0.00     0.074 A 
ATOM     56  C   UNL A   1      42.767  31.492  29.422  1.00  0.00     0.031 C 
ATOM     57  C   UNL A   1      45.147  30.991  28.940  1.00  0.00     0.031 A 
BRANCH  44  58
ATOM     58  C   UNL A   1      49.036  26.473  27.272  1.00  0.00    -0.014 A 
ATOM     59  C   UNL A   1      49.568  26.503  25.972  1.00  0.00     0.009 A 
ATOM     60  C   UNL A   1      49.852  26.036  28.326  1.00  0.00     0.009 A 
ATOM     61  C   UNL A   1      50.871  26.062  25.729  1.00  0.00     0.001 A 
ATOM     62  C   UNL A   1      51.164  25.625  28.085  1.00  0.00     0.001 A 
ATOM     63  C   UNL A   1      51.669  25.627  26.785  1.00  0.00     0.000 A 
ENDBRANCH  44  58
BRANCH  45  64
ATOM     64  C   UNL A   1      39.500  28.822  29.275  1.00  0.00    -0.014 A 
ATOM     65  C   UNL A   1      38.663  29.341  28.276  1.00  0.00     0.009 A 
ATOM     66  C   UNL A   1      38.980  28.632  30.565  1.00  0.00     0.009 A 
ATOM     67  C   UNL A   1      37.341  29.687  28.569  1.00  0.00     0.001 A 
ATOM     68  C   UNL A   1      37.649  28.952  30.848  1.00  0.00     0.001 A 
ATOM     69  C   UNL A   1      36.834  29.488  29.853  1.00  0.00     0.000 A 
ENDBRANCH  45  64
BRANCH  57  70
ATOM     70  C   UNL A   1      45.448  32.439  29.196  1.00  0.00    -0.014 A 
ATOM     71  C   UNL A   1      45.390  33.391  28.167  1.00  0.00     0.009 A 
ATOM     72  C   UNL A   1      45.762  32.859  30.499  1.00  0.00     0.009 A 
ATOM     73  C   UNL A   1      45.676  34.732  28.431  1.00  0.00     0.001 A 
ATOM     74  C   UNL A   1      46.019  34.204  30.765  1.00  0.00     0.001 A 
ATOM     75  C   UNL A   1      45.986  35.137  29.730  1.00  0.00     0.000 A 
ENDBRANCH  57  70
ENDBRANCH  31  32
ENDBRANCH  23  26
ENDBRANCH  21  22
ENDBRANCH  20  21
ENDBRANCH  19  20
ENDBRANCH   3  19
TORSDOF 15
ENDMDL
