MODEL 1
REMARK VINA RESULT:      -8.6      0.000      0.000
REMARK SMILES CCCCCC[C@@H](C)N1C[C@H](C(=O)NCCCNC(=O)c2ccc(-c3c4nc(c(-c5ccccc5)c5ccc([nH]5)c(-c5ccccc5)c5nc(c(-c6ccccc6)c6ccc3[nH]6)C=C5)C=C4)cc2)CC1=O
REMARK SMILES IDX 12 1 13 2 14 3 11 5 9 6 10 7 70 8 69 9 71 10 7 11 8 12 6 13
REMARK SMILES IDX 5 14 4 15 3 16 2 17 1 18 15 19 16 20 17 21 18 22 19 23 20 25
REMARK SMILES IDX 21 26 22 27 68 28 23 29 67 30 24 31 25 32 26 33 61 34 27 35
REMARK SMILES IDX 66 36 60 37 62 38 28 39 65 40 59 41 58 42 29 44 51 45 36 46
REMARK SMILES IDX 50 47 37 48 40 49 49 50 63 51 38 52 39 53 48 55 64 56 41 57
REMARK SMILES IDX 30 58 31 59 35 60 32 61 34 62 33 63 52 64 53 65 57 66 54 67
REMARK SMILES IDX 56 68 55 69 42 70 43 71 47 72 44 73 46 74 45 75
REMARK H PARENT 14 4 18 24 62 43 40 54
REMARK Flexibility Score: inf
ROOT
ATOM      1  C   UNL A   1      35.690  34.965  33.068  1.00  0.00     0.225 C 
ATOM      2  O   UNL A   1      36.851  35.350  32.942  1.00  0.00    -0.275 OA
ATOM      3  N   UNL A   1      34.748  35.555  32.279  1.00  0.00    -0.356 N 
ATOM      4  H   UNL A   1      35.095  36.247  31.671  1.00  0.00     0.163 HD
ENDROOT
BRANCH   1   5
ATOM      5  C   UNL A   1      35.300  33.815  33.991  1.00  0.00     0.107 C 
ATOM      6  N   UNL A   1      36.995  32.188  34.040  1.00  0.00    -0.339 N 
ATOM      7  C   UNL A   1      35.713  32.460  33.424  1.00  0.00     0.133 C 
ATOM      8  C   UNL A   1      37.263  33.053  35.083  1.00  0.00     0.223 C 
ATOM      9  C   UNL A   1      36.014  33.846  35.335  1.00  0.00     0.115 C 
ATOM     10  O   UNL A   1      38.278  33.141  35.754  1.00  0.00    -0.275 OA
BRANCH   6  11
ATOM     11  C   UNL A   1      37.881  31.141  33.530  1.00  0.00     0.082 C 
ATOM     12  C   UNL A   1      37.122  30.069  32.740  1.00  0.00     0.031 C 
BRANCH  11  13
ATOM     13  C   UNL A   1      38.734  30.536  34.659  1.00  0.00     0.025 C 
BRANCH  13  14
ATOM     14  C   UNL A   1      40.240  30.492  34.361  1.00  0.00     0.002 C 
BRANCH  14  15
ATOM     15  C   UNL A   1      41.143  30.453  35.600  1.00  0.00     0.000 C 
BRANCH  15  16
ATOM     16  C   UNL A   1      42.448  29.671  35.423  1.00  0.00    -0.000 C 
BRANCH  16  17
ATOM     17  C   UNL A   1      42.492  28.320  36.140  1.00  0.00    -0.003 C 
ATOM     18  C   UNL A   1      42.014  27.164  35.273  1.00  0.00     0.004 C 
ENDBRANCH  16  17
ENDBRANCH  15  16
ENDBRANCH  14  15
ENDBRANCH  13  14
ENDBRANCH  11  13
ENDBRANCH   6  11
ENDBRANCH   1   5
BRANCH   3  19
ATOM     19  C   UNL A   1      33.317  35.330  32.188  1.00  0.00     0.117 C 
BRANCH  19  20
ATOM     20  C   UNL A   1      32.650  36.297  31.210  1.00  0.00     0.042 C 
BRANCH  20  21
ATOM     21  C   UNL A   1      33.251  36.281  29.811  1.00  0.00     0.118 C 
BRANCH  21  22
ATOM     22  N   UNL A   1      32.602  35.315  28.941  1.00  0.00    -0.352 N 
ATOM     23  C   UNL A   1      33.104  34.183  28.351  1.00  0.00     0.251 C 
ATOM     24  H   UNL A   1      31.655  35.503  28.745  1.00  0.00     0.163 HD
ATOM     25  O   UNL A   1      32.450  33.619  27.477  1.00  0.00    -0.269 OA
BRANCH  23  26
ATOM     26  C   UNL A   1      34.425  33.645  28.745  1.00  0.00     0.039 A 
ATOM     27  C   UNL A   1      34.494  32.777  29.838  1.00  0.00     0.014 A 
ATOM     28  C   UNL A   1      35.595  34.018  28.079  1.00  0.00     0.014 A 
ATOM     29  C   UNL A   1      35.726  32.248  30.230  1.00  0.00     0.010 A 
ATOM     30  C   UNL A   1      36.808  33.422  28.414  1.00  0.00     0.010 A 
ATOM     31  C   UNL A   1      36.890  32.543  29.502  1.00  0.00    -0.014 A 
BRANCH  31  32
ATOM     32  C   UNL A   1      38.198  31.945  29.877  1.00  0.00     0.031 A 
ATOM     33  C   UNL A   1      39.154  32.698  30.763  1.00  0.00     0.074 A 
ATOM     34  C   UNL A   1      38.544  30.740  29.385  1.00  0.00     0.049 A 
ATOM     35  N   UNL A   1      40.344  32.345  31.181  1.00  0.00    -0.248 NA
ATOM     36  C   UNL A   1      38.728  34.029  31.225  1.00  0.00     0.031 C 
ATOM     37  C   UNL A   1      37.727  29.926  28.483  1.00  0.00     0.029 A 
ATOM     38  N   UNL A   1      39.677  29.989  29.574  1.00  0.00    -0.354 N 
ATOM     39  C   UNL A   1      40.812  33.414  31.935  1.00  0.00     0.074 A 
ATOM     40  C   UNL A   1      39.803  34.447  31.876  1.00  0.00     0.031 C 
ATOM     41  C   UNL A   1      38.370  28.775  28.226  1.00  0.00     0.029 A 
ATOM     42  C   UNL A   1      39.660  28.789  28.905  1.00  0.00     0.049 A 
ATOM     43  H   UNL A   1      40.432  30.282  30.135  1.00  0.00     0.167 HD
ATOM     44  C   UNL A   1      41.968  33.518  32.634  1.00  0.00     0.031 A 
ATOM     45  C   UNL A   1      40.583  27.810  28.841  1.00  0.00     0.031 A 
ATOM     46  C   UNL A   1      42.972  32.489  32.695  1.00  0.00     0.049 A 
ATOM     47  C   UNL A   1      41.866  27.959  29.610  1.00  0.00     0.074 A 
ATOM     48  C   UNL A   1      44.153  32.479  33.419  1.00  0.00     0.029 A 
ATOM     49  N   UNL A   1      42.917  31.289  32.003  1.00  0.00    -0.354 N 
ATOM     50  N   UNL A   1      42.260  28.944  30.380  1.00  0.00    -0.248 NA
ATOM     51  C   UNL A   1      42.825  26.850  29.511  1.00  0.00     0.031 C 
ATOM     52  C   UNL A   1      44.841  31.299  33.115  1.00  0.00     0.029 A 
ATOM     53  C   UNL A   1      44.056  30.544  32.259  1.00  0.00     0.049 A 
ATOM     54  H   UNL A   1      42.178  31.009  31.416  1.00  0.00     0.167 HD
ATOM     55  C   UNL A   1      43.497  28.561  30.882  1.00  0.00     0.074 A 
ATOM     56  C   UNL A   1      43.777  27.246  30.345  1.00  0.00     0.031 C 
ATOM     57  C   UNL A   1      44.325  29.237  31.716  1.00  0.00     0.031 A 
BRANCH  44  58
ATOM     58  C   UNL A   1      42.216  34.803  33.378  1.00  0.00    -0.014 A 
ATOM     59  C   UNL A   1      41.674  35.025  34.654  1.00  0.00     0.009 A 
ATOM     60  C   UNL A   1      43.035  35.792  32.810  1.00  0.00     0.009 A 
ATOM     61  C   UNL A   1      41.914  36.225  35.327  1.00  0.00     0.001 A 
ATOM     62  C   UNL A   1      43.300  36.976  33.500  1.00  0.00     0.001 A 
ATOM     63  C   UNL A   1      42.731  37.197  34.753  1.00  0.00     0.000 A 
ENDBRANCH  44  58
BRANCH  45  64
ATOM     64  C   UNL A   1      40.321  26.592  28.029  1.00  0.00    -0.014 A 
ATOM     65  C   UNL A   1      40.848  26.469  26.734  1.00  0.00     0.009 A 
ATOM     66  C   UNL A   1      39.534  25.549  28.541  1.00  0.00     0.009 A 
ATOM     67  C   UNL A   1      40.565  25.342  25.958  1.00  0.00     0.001 A 
ATOM     68  C   UNL A   1      39.280  24.408  27.775  1.00  0.00     0.001 A 
ATOM     69  C   UNL A   1      39.787  24.312  26.481  1.00  0.00     0.000 A 
ENDBRANCH  45  64
BRANCH  57  70
ATOM     70  C   UNL A   1      45.595  28.546  32.133  1.00  0.00    -0.014 A 
ATOM     71  C   UNL A   1      45.643  27.718  33.266  1.00  0.00     0.009 A 
ATOM     72  C   UNL A   1      46.755  28.707  31.359  1.00  0.00     0.009 A 
ATOM     73  C   UNL A   1      46.840  27.100  33.637  1.00  0.00     0.001 A 
ATOM     74  C   UNL A   1      47.940  28.060  31.714  1.00  0.00     0.001 A 
ATOM     75  C   UNL A   1      47.985  27.268  32.859  1.00  0.00     0.000 A 
ENDBRANCH  57  70
ENDBRANCH  31  32
ENDBRANCH  23  26
ENDBRANCH  21  22
ENDBRANCH  20  21
ENDBRANCH  19  20
ENDBRANCH   3  19
TORSDOF 16
ENDMDL
MODEL 2
REMARK VINA RESULT:      -8.5      3.455      8.882
REMARK SMILES CCCCCC[C@@H](C)N1C[C@H](C(=O)NCCCNC(=O)c2ccc(-c3c4nc(c(-c5ccccc5)c5ccc([nH]5)c(-c5ccccc5)c5nc(c(-c6ccccc6)c6ccc3[nH]6)C=C5)C=C4)cc2)CC1=O
REMARK SMILES IDX 12 1 13 2 14 3 11 5 9 6 10 7 70 8 69 9 71 10 7 11 8 12 6 13
REMARK SMILES IDX 5 14 4 15 3 16 2 17 1 18 15 19 16 20 17 21 18 22 19 23 20 25
REMARK SMILES IDX 21 26 22 27 68 28 23 29 67 30 24 31 25 32 26 33 61 34 27 35
REMARK SMILES IDX 66 36 60 37 62 38 28 39 65 40 59 41 58 42 29 44 51 45 36 46
REMARK SMILES IDX 50 47 37 48 40 49 49 50 63 51 38 52 39 53 48 55 64 56 41 57
REMARK SMILES IDX 30 58 31 59 35 60 32 61 34 62 33 63 52 64 53 65 57 66 54 67
REMARK SMILES IDX 56 68 55 69 42 70 43 71 47 72 44 73 46 74 45 75
REMARK H PARENT 14 4 18 24 62 43 40 54
REMARK Flexibility Score: inf
ROOT
ATOM      1  C   UNL A   1      31.745  29.024  23.902  1.00  0.00     0.225 C 
ATOM      2  O   UNL A   1      31.057  28.773  22.914  1.00  0.00    -0.275 OA
ATOM      3  N   UNL A   1      31.113  29.569  24.980  1.00  0.00    -0.356 N 
ATOM      4  H   UNL A   1      30.147  29.713  24.862  1.00  0.00     0.163 HD
ENDROOT
BRANCH   1   5
ATOM      5  C   UNL A   1      33.225  28.667  23.986  1.00  0.00     0.107 C 
ATOM      6  N   UNL A   1      33.521  26.340  23.825  1.00  0.00    -0.339 N 
ATOM      7  C   UNL A   1      33.464  27.403  24.807  1.00  0.00     0.133 C 
ATOM      8  C   UNL A   1      33.621  26.830  22.537  1.00  0.00     0.223 C 
ATOM      9  C   UNL A   1      33.841  28.311  22.641  1.00  0.00     0.115 C 
ATOM     10  O   UNL A   1      33.613  26.211  21.486  1.00  0.00    -0.275 OA
BRANCH   6  11
ATOM     11  C   UNL A   1      33.422  24.933  24.214  1.00  0.00     0.082 C 
ATOM     12  C   UNL A   1      32.830  24.757  25.617  1.00  0.00     0.031 C 
BRANCH  11  13
ATOM     13  C   UNL A   1      34.776  24.218  24.059  1.00  0.00     0.025 C 
BRANCH  13  14
ATOM     14  C   UNL A   1      35.674  24.289  25.302  1.00  0.00     0.002 C 
BRANCH  14  15
ATOM     15  C   UNL A   1      36.131  22.930  25.848  1.00  0.00     0.000 C 
BRANCH  15  16
ATOM     16  C   UNL A   1      35.448  21.716  25.211  1.00  0.00    -0.000 C 
BRANCH  16  17
ATOM     17  C   UNL A   1      34.154  21.271  25.896  1.00  0.00    -0.003 C 
ATOM     18  C   UNL A   1      34.124  21.583  27.385  1.00  0.00     0.004 C 
ENDBRANCH  16  17
ENDBRANCH  15  16
ENDBRANCH  14  15
ENDBRANCH  13  14
ENDBRANCH  11  13
ENDBRANCH   6  11
ENDBRANCH   1   5
BRANCH   3  19
ATOM     19  C   UNL A   1      31.633  29.973  26.274  1.00  0.00     0.117 C 
BRANCH  19  20
ATOM     20  C   UNL A   1      31.419  31.464  26.532  1.00  0.00     0.042 C 
BRANCH  20  21
ATOM     21  C   UNL A   1      32.704  32.248  26.758  1.00  0.00     0.118 C 
BRANCH  21  22
ATOM     22  N   UNL A   1      32.462  33.547  27.362  1.00  0.00    -0.352 N 
ATOM     23  C   UNL A   1      33.135  34.191  28.368  1.00  0.00     0.251 C 
ATOM     24  H   UNL A   1      31.695  34.041  26.991  1.00  0.00     0.163 HD
ATOM     25  O   UNL A   1      32.640  35.192  28.880  1.00  0.00    -0.269 OA
BRANCH  23  26
ATOM     26  C   UNL A   1      34.440  33.686  28.851  1.00  0.00     0.039 A 
ATOM     27  C   UNL A   1      34.463  32.885  29.996  1.00  0.00     0.014 A 
ATOM     28  C   UNL A   1      35.636  34.027  28.217  1.00  0.00     0.014 A 
ATOM     29  C   UNL A   1      35.679  32.388  30.473  1.00  0.00     0.010 A 
ATOM     30  C   UNL A   1      36.836  33.460  28.640  1.00  0.00     0.010 A 
ATOM     31  C   UNL A   1      36.873  32.647  29.781  1.00  0.00    -0.014 A 
BRANCH  31  32
ATOM     32  C   UNL A   1      38.165  32.081  30.248  1.00  0.00     0.031 A 
ATOM     33  C   UNL A   1      38.665  30.771  29.702  1.00  0.00     0.074 A 
ATOM     34  C   UNL A   1      38.870  32.727  31.198  1.00  0.00     0.049 A 
ATOM     35  N   UNL A   1      39.758  30.115  30.003  1.00  0.00    -0.248 NA
ATOM     36  C   UNL A   1      37.820  30.098  28.702  1.00  0.00     0.031 C 
ATOM     37  C   UNL A   1      38.475  33.983  31.839  1.00  0.00     0.029 A 
ATOM     38  N   UNL A   1      40.067  32.413  31.790  1.00  0.00    -0.354 N 
ATOM     39  C   UNL A   1      39.721  28.949  29.246  1.00  0.00     0.074 A 
ATOM     40  C   UNL A   1      38.476  28.963  28.512  1.00  0.00     0.031 C 
ATOM     41  C   UNL A   1      39.429  34.350  32.709  1.00  0.00     0.029 A 
ATOM     42  C   UNL A   1      40.478  33.337  32.721  1.00  0.00     0.049 A 
ATOM     43  H   UNL A   1      40.583  31.604  31.570  1.00  0.00     0.167 HD
ATOM     44  C   UNL A   1      40.648  27.967  29.153  1.00  0.00     0.031 A 
ATOM     45  C   UNL A   1      41.575  33.363  33.502  1.00  0.00     0.031 A 
ATOM     46  C   UNL A   1      41.889  27.954  29.882  1.00  0.00     0.049 A 
ATOM     47  C   UNL A   1      42.581  32.250  33.393  1.00  0.00     0.074 A 
ATOM     48  C   UNL A   1      42.918  27.031  29.815  1.00  0.00     0.029 A 
ATOM     49  N   UNL A   1      42.267  28.908  30.815  1.00  0.00    -0.354 N 
ATOM     50  N   UNL A   1      42.566  31.194  32.617  1.00  0.00    -0.248 NA
ATOM     51  C   UNL A   1      43.763  32.344  34.261  1.00  0.00     0.031 C 
ATOM     52  C   UNL A   1      43.891  27.391  30.754  1.00  0.00     0.029 A 
ATOM     53  C   UNL A   1      43.501  28.578  31.352  1.00  0.00     0.049 A 
ATOM     54  H   UNL A   1      41.737  29.700  31.060  1.00  0.00     0.167 HD
ATOM     55  C   UNL A   1      43.748  30.515  32.878  1.00  0.00     0.074 A 
ATOM     56  C   UNL A   1      44.465  31.289  33.870  1.00  0.00     0.031 C 
ATOM     57  C   UNL A   1      44.202  29.355  32.342  1.00  0.00     0.031 A 
BRANCH  44  58
ATOM     58  C   UNL A   1      40.347  26.812  28.236  1.00  0.00    -0.014 A 
ATOM     59  C   UNL A   1      40.858  26.763  26.929  1.00  0.00     0.009 A 
ATOM     60  C   UNL A   1      39.569  25.738  28.699  1.00  0.00     0.009 A 
ATOM     61  C   UNL A   1      40.564  25.682  26.094  1.00  0.00     0.001 A 
ATOM     62  C   UNL A   1      39.305  24.645  27.873  1.00  0.00     0.001 A 
ATOM     63  C   UNL A   1      39.794  24.622  26.567  1.00  0.00     0.000 A 
ENDBRANCH  44  58
BRANCH  45  64
ATOM     64  C   UNL A   1      41.789  34.490  34.448  1.00  0.00    -0.014 A 
ATOM     65  C   UNL A   1      42.528  35.619  34.060  1.00  0.00     0.009 A 
ATOM     66  C   UNL A   1      41.264  34.440  35.749  1.00  0.00     0.009 A 
ATOM     67  C   UNL A   1      42.763  36.657  34.966  1.00  0.00     0.001 A 
ATOM     68  C   UNL A   1      41.472  35.494  36.641  1.00  0.00     0.001 A 
ATOM     69  C   UNL A   1      42.231  36.596  36.252  1.00  0.00     0.000 A 
ENDBRANCH  45  64
BRANCH  57  70
ATOM     70  C   UNL A   1      45.557  28.876  32.787  1.00  0.00    -0.014 A 
ATOM     71  C   UNL A   1      46.731  29.271  32.126  1.00  0.00     0.009 A 
ATOM     72  C   UNL A   1      45.659  28.034  33.907  1.00  0.00     0.009 A 
ATOM     73  C   UNL A   1      47.974  28.799  32.553  1.00  0.00     0.001 A 
ATOM     74  C   UNL A   1      46.905  27.593  34.352  1.00  0.00     0.001 A 
ATOM     75  C   UNL A   1      48.061  27.965  33.667  1.00  0.00     0.000 A 
ENDBRANCH  57  70
ENDBRANCH  31  32
ENDBRANCH  23  26
ENDBRANCH  21  22
ENDBRANCH  20  21
ENDBRANCH  19  20
ENDBRANCH   3  19
TORSDOF 16
ENDMDL
MODEL 3
REMARK VINA RESULT:      -8.5      5.323     10.958
REMARK SMILES CCCCCC[C@@H](C)N1C[C@H](C(=O)NCCCNC(=O)c2ccc(-c3c4nc(c(-c5ccccc5)c5ccc([nH]5)c(-c5ccccc5)c5nc(c(-c6ccccc6)c6ccc3[nH]6)C=C5)C=C4)cc2)CC1=O
REMARK SMILES IDX 12 1 13 2 14 3 11 5 9 6 10 7 70 8 69 9 71 10 7 11 8 12 6 13
REMARK SMILES IDX 5 14 4 15 3 16 2 17 1 18 15 19 16 20 17 21 18 22 19 23 20 25
REMARK SMILES IDX 21 26 22 27 68 28 23 29 67 30 24 31 25 32 26 33 61 34 27 35
REMARK SMILES IDX 66 36 60 37 62 38 28 39 65 40 59 41 58 42 29 44 51 45 36 46
REMARK SMILES IDX 50 47 37 48 40 49 49 50 63 51 38 52 39 53 48 55 64 56 41 57
REMARK SMILES IDX 30 58 31 59 35 60 32 61 34 62 33 63 52 64 53 65 57 66 54 67
REMARK SMILES IDX 56 68 55 69 42 70 43 71 47 72 44 73 46 74 45 75
REMARK H PARENT 14 4 18 24 62 43 40 54
REMARK Flexibility Score: inf
ROOT
ATOM      1  C   UNL A   1      34.411  20.896  25.863  1.00  0.00     0.225 C 
ATOM      2  O   UNL A   1      33.344  20.307  26.029  1.00  0.00    -0.275 OA
ATOM      3  N   UNL A   1      35.321  20.314  25.031  1.00  0.00    -0.356 N 
ATOM      4  H   UNL A   1      35.030  19.462  24.634  1.00  0.00     0.163 HD
ENDROOT
BRANCH   1   5
ATOM      5  C   UNL A   1      34.700  22.263  26.473  1.00  0.00     0.107 C 
ATOM      6  N   UNL A   1      33.090  23.830  25.781  1.00  0.00    -0.339 N 
ATOM      7  C   UNL A   1      34.440  23.397  25.486  1.00  0.00     0.133 C 
ATOM      8  C   UNL A   1      32.624  23.299  26.968  1.00  0.00     0.223 C 
ATOM      9  C   UNL A   1      33.782  22.616  27.635  1.00  0.00     0.115 C 
ATOM     10  O   UNL A   1      31.513  23.403  27.462  1.00  0.00    -0.275 OA
BRANCH   6  11
ATOM     11  C   UNL A   1      32.341  24.683  24.858  1.00  0.00     0.082 C 
ATOM     12  C   UNL A   1      31.214  23.925  24.148  1.00  0.00     0.031 C 
BRANCH  11  13
ATOM     13  C   UNL A   1      33.283  25.387  23.865  1.00  0.00     0.025 C 
BRANCH  13  14
ATOM     14  C   UNL A   1      33.645  26.829  24.250  1.00  0.00     0.002 C 
BRANCH  14  15
ATOM     15  C   UNL A   1      33.156  27.269  25.636  1.00  0.00     0.000 C 
BRANCH  15  16
ATOM     16  C   UNL A   1      33.868  28.497  26.212  1.00  0.00    -0.000 C 
BRANCH  16  17
ATOM     17  C   UNL A   1      33.065  29.279  27.254  1.00  0.00    -0.003 C 
ATOM     18  C   UNL A   1      33.360  30.772  27.243  1.00  0.00     0.004 C 
ENDBRANCH  16  17
ENDBRANCH  15  16
ENDBRANCH  14  15
ENDBRANCH  13  14
ENDBRANCH  11  13
ENDBRANCH   6  11
ENDBRANCH   1   5
BRANCH   3  19
ATOM     19  C   UNL A   1      36.648  20.747  24.634  1.00  0.00     0.117 C 
BRANCH  19  20
ATOM     20  C   UNL A   1      37.714  19.710  24.989  1.00  0.00     0.042 C 
BRANCH  20  21
ATOM     21  C   UNL A   1      38.879  20.265  25.796  1.00  0.00     0.118 C 
BRANCH  21  22
ATOM     22  N   UNL A   1      39.988  19.331  25.880  1.00  0.00    -0.352 N 
ATOM     23  C   UNL A   1      41.319  19.561  26.119  1.00  0.00     0.251 C 
ATOM     24  H   UNL A   1      39.747  18.386  25.746  1.00  0.00     0.163 HD
ATOM     25  O   UNL A   1      42.130  18.657  25.937  1.00  0.00    -0.269 OA
BRANCH  23  26
ATOM     26  C   UNL A   1      41.788  20.889  26.577  1.00  0.00     0.039 A 
ATOM     27  C   UNL A   1      42.183  21.825  25.617  1.00  0.00     0.014 A 
ATOM     28  C   UNL A   1      41.883  21.203  27.934  1.00  0.00     0.014 A 
ATOM     29  C   UNL A   1      42.624  23.088  26.018  1.00  0.00     0.010 A 
ATOM     30  C   UNL A   1      42.238  22.490  28.329  1.00  0.00     0.010 A 
ATOM     31  C   UNL A   1      42.627  23.443  27.377  1.00  0.00    -0.014 A 
BRANCH  31  32
ATOM     32  C   UNL A   1      43.044  24.800  27.812  1.00  0.00     0.031 A 
ATOM     33  C   UNL A   1      42.013  25.850  28.127  1.00  0.00     0.074 A 
ATOM     34  C   UNL A   1      44.355  25.103  27.883  1.00  0.00     0.049 A 
ATOM     35  N   UNL A   1      42.189  27.093  28.503  1.00  0.00    -0.248 NA
ATOM     36  C   UNL A   1      40.601  25.463  27.982  1.00  0.00     0.031 C 
ATOM     37  C   UNL A   1      45.454  24.189  27.564  1.00  0.00     0.029 A 
ATOM     38  N   UNL A   1      44.986  26.266  28.247  1.00  0.00    -0.354 N 
ATOM     39  C   UNL A   1      40.915  27.636  28.621  1.00  0.00     0.074 A 
ATOM     40  C   UNL A   1      39.979  26.607  28.228  1.00  0.00     0.031 C 
ATOM     41  C   UNL A   1      46.622  24.815  27.780  1.00  0.00     0.029 A 
ATOM     42  C   UNL A   1      46.357  26.184  28.206  1.00  0.00     0.049 A 
ATOM     43  H   UNL A   1      44.502  27.082  28.510  1.00  0.00     0.167 HD
ATOM     44  C   UNL A   1      40.554  28.873  29.040  1.00  0.00     0.031 A 
ATOM     45  C   UNL A   1      47.297  27.110  28.477  1.00  0.00     0.031 A 
ATOM     46  C   UNL A   1      41.485  29.897  29.434  1.00  0.00     0.049 A 
ATOM     47  C   UNL A   1      46.870  28.481  28.922  1.00  0.00     0.074 A 
ATOM     48  C   UNL A   1      41.216  31.163  29.925  1.00  0.00     0.029 A 
ATOM     49  N   UNL A   1      42.865  29.774  29.378  1.00  0.00    -0.354 N 
ATOM     50  N   UNL A   1      45.661  28.954  29.100  1.00  0.00    -0.248 NA
ATOM     51  C   UNL A   1      47.942  29.441  29.217  1.00  0.00     0.031 C 
ATOM     52  C   UNL A   1      42.433  31.829  30.106  1.00  0.00     0.029 A 
ATOM     53  C   UNL A   1      43.461  30.952  29.797  1.00  0.00     0.049 A 
ATOM     54  H   UNL A   1      43.349  28.969  29.083  1.00  0.00     0.167 HD
ATOM     55  C   UNL A   1      45.826  30.255  29.559  1.00  0.00     0.074 A 
ATOM     56  C   UNL A   1      47.253  30.488  29.648  1.00  0.00     0.031 C 
ATOM     57  C   UNL A   1      44.882  31.173  29.879  1.00  0.00     0.031 A 
BRANCH  44  58
ATOM     58  C   UNL A   1      39.083  29.191  29.079  1.00  0.00    -0.014 A 
ATOM     59  C   UNL A   1      38.395  29.609  27.928  1.00  0.00     0.009 A 
ATOM     60  C   UNL A   1      38.367  29.038  30.277  1.00  0.00     0.009 A 
ATOM     61  C   UNL A   1      37.030  29.902  27.986  1.00  0.00     0.001 A 
ATOM     62  C   UNL A   1      36.997  29.300  30.324  1.00  0.00     0.001 A 
ATOM     63  C   UNL A   1      36.332  29.742  29.181  1.00  0.00     0.000 A 
ENDBRANCH  44  58
BRANCH  45  64
ATOM     64  C   UNL A   1      48.738  26.767  28.350  1.00  0.00    -0.014 A 
ATOM     65  C   UNL A   1      49.446  26.236  29.439  1.00  0.00     0.009 A 
ATOM     66  C   UNL A   1      49.418  26.979  27.139  1.00  0.00     0.009 A 
ATOM     67  C   UNL A   1      50.811  25.955  29.328  1.00  0.00     0.001 A 
ATOM     68  C   UNL A   1      50.773  26.666  27.021  1.00  0.00     0.001 A 
ATOM     69  C   UNL A   1      51.470  26.164  28.119  1.00  0.00     0.000 A 
ENDBRANCH  45  64
BRANCH  57  70
ATOM     70  C   UNL A   1      45.362  32.501  30.398  1.00  0.00    -0.014 A 
ATOM     71  C   UNL A   1      45.594  32.715  31.766  1.00  0.00     0.009 A 
ATOM     72  C   UNL A   1      45.612  33.547  29.495  1.00  0.00     0.009 A 
ATOM     73  C   UNL A   1      46.026  33.963  32.222  1.00  0.00     0.001 A 
ATOM     74  C   UNL A   1      46.078  34.781  29.950  1.00  0.00     0.001 A 
ATOM     75  C   UNL A   1      46.272  34.992  31.314  1.00  0.00     0.000 A 
ENDBRANCH  57  70
ENDBRANCH  31  32
ENDBRANCH  23  26
ENDBRANCH  21  22
ENDBRANCH  20  21
ENDBRANCH  19  20
ENDBRANCH   3  19
TORSDOF 16
ENDMDL
