MODEL 1
REMARK VINA RESULT:     -11.0      0.000      0.000
REMARK SMILES CC[C@H](c1ccc(OC)cc1)[N@H+]1CC[C@H](C(=O)NCCCNC(=O)c2ccc(-c3c4nc(c(-c5ccccc5)c5ccc([nH]5)c(-c5ccccc5)c5nc(c(-c6ccccc6)c6ccc3[nH]6)C=C5)C=C4)cc2)[C@@H]1C
REMARK SMILES IDX 19 1 18 2 16 3 17 4 15 6 12 7 13 8 73 9 14 11 74 12 3 13
REMARK SMILES IDX 2 14 1 15 4 16 5 17 11 18 6 19 10 20 7 21 8 22 9 23 20 24
REMARK SMILES IDX 21 25 22 26 23 27 24 29 25 30 26 31 72 32 27 33 71 34 28 35
REMARK SMILES IDX 29 36 30 37 65 38 31 39 70 40 64 41 66 42 32 43 69 44 63 45
REMARK SMILES IDX 62 46 33 48 55 49 40 50 54 51 41 52 44 53 53 54 67 55 42 56
REMARK SMILES IDX 43 57 52 59 68 60 45 61 34 62 35 63 39 64 36 65 38 66 37 67
REMARK SMILES IDX 56 68 57 69 61 70 58 71 60 72 59 73 46 74 47 75 51 76 48 77
REMARK SMILES IDX 50 78 49 79
REMARK H PARENT 18 5 12 10 22 28 66 47 44 58
REMARK Flexibility Score: inf
ROOT
ATOM      1  C   UNL A   1      36.638  21.081  24.886  1.00  0.00     0.117 C 
ENDROOT
BRANCH   1   2
ATOM      2  N   UNL A   1      35.949  21.282  26.147  1.00  0.00    -0.356 N 
ATOM      3  C   UNL A   1      34.688  21.659  26.451  1.00  0.00     0.229 C 
ATOM      4  O   UNL A   1      34.378  21.547  27.646  1.00  0.00    -0.275 OA
ATOM      5  H   UNL A   1      36.512  21.109  26.936  1.00  0.00     0.163 HD
BRANCH   3   6
ATOM      6  C   UNL A   1      33.687  22.301  25.498  1.00  0.00     0.142 C 
ATOM      7  N   UNL A   1      32.501  24.322  26.130  1.00  0.00    -0.326 N 
ATOM      8  C   UNL A   1      31.774  23.143  26.644  1.00  0.00     0.264 C 
ATOM      9  C   UNL A   1      33.592  23.808  25.246  1.00  0.00     0.194 C 
ATOM     10  H   UNL A   1      32.886  24.841  26.918  1.00  0.00     0.348 HD
ATOM     11  C   UNL A   1      32.271  21.931  25.888  1.00  0.00     0.081 C 
ATOM     12  C   UNL A   1      34.928  24.554  25.307  1.00  0.00     0.076 C 
BRANCH   7  13
ATOM     13  C   UNL A   1      31.650  25.356  25.474  1.00  0.00     0.215 C 
BRANCH  13  14
ATOM     14  C   UNL A   1      31.697  25.191  23.932  1.00  0.00     0.067 C 
ATOM     15  C   UNL A   1      30.523  24.411  23.349  1.00  0.00     0.010 C 
ENDBRANCH  13  14
BRANCH  13  16
ATOM     16  C   UNL A   1      32.001  26.794  25.861  1.00  0.00     0.010 A 
ATOM     17  C   UNL A   1      31.463  27.423  26.992  1.00  0.00     0.014 A 
ATOM     18  C   UNL A   1      32.875  27.526  25.038  1.00  0.00     0.014 A 
ATOM     19  C   UNL A   1      31.801  28.747  27.289  1.00  0.00     0.047 A 
ATOM     20  C   UNL A   1      33.209  28.848  25.338  1.00  0.00     0.047 A 
ATOM     21  C   UNL A   1      32.681  29.463  26.472  1.00  0.00     0.118 A 
BRANCH  21  22
ATOM     22  O   UNL A   1      32.935  30.746  26.873  1.00  0.00    -0.497 OA
ATOM     23  C   UNL A   1      31.840  31.654  26.827  1.00  0.00     0.278 C 
ENDBRANCH  21  22
ENDBRANCH  13  16
ENDBRANCH   7  13
ENDBRANCH   3   6
ENDBRANCH   1   2
BRANCH   1  24
ATOM     24  C   UNL A   1      37.735  20.037  24.969  1.00  0.00     0.042 C 
BRANCH  24  25
ATOM     25  C   UNL A   1      38.949  20.483  25.768  1.00  0.00     0.118 C 
BRANCH  25  26
ATOM     26  N   UNL A   1      39.988  19.462  25.850  1.00  0.00    -0.352 N 
ATOM     27  C   UNL A   1      41.323  19.588  26.152  1.00  0.00     0.251 C 
ATOM     28  H   UNL A   1      39.688  18.544  25.661  1.00  0.00     0.163 HD
ATOM     29  O   UNL A   1      42.085  18.636  26.012  1.00  0.00    -0.269 OA
BRANCH  27  30
ATOM     30  C   UNL A   1      41.844  20.888  26.616  1.00  0.00     0.039 A 
ATOM     31  C   UNL A   1      42.317  21.812  25.681  1.00  0.00     0.014 A 
ATOM     32  C   UNL A   1      41.822  21.209  27.973  1.00  0.00     0.014 A 
ATOM     33  C   UNL A   1      42.672  23.096  26.100  1.00  0.00     0.010 A 
ATOM     34  C   UNL A   1      42.071  22.514  28.372  1.00  0.00     0.010 A 
ATOM     35  C   UNL A   1      42.499  23.473  27.441  1.00  0.00    -0.014 A 
BRANCH  35  36
ATOM     36  C   UNL A   1      42.759  24.855  27.917  1.00  0.00     0.031 A 
ATOM     37  C   UNL A   1      44.146  25.241  28.353  1.00  0.00     0.074 A 
ATOM     38  C   UNL A   1      41.736  25.719  28.070  1.00  0.00     0.049 A 
ATOM     39  N   UNL A   1      44.550  26.324  28.965  1.00  0.00    -0.248 NA
ATOM     40  C   UNL A   1      45.213  24.257  28.107  1.00  0.00     0.031 C 
ATOM     41  C   UNL A   1      40.336  25.456  27.729  1.00  0.00     0.029 A 
ATOM     42  N   UNL A   1      41.719  26.996  28.573  1.00  0.00    -0.354 N 
ATOM     43  C   UNL A   1      45.901  26.130  29.217  1.00  0.00     0.074 A 
ATOM     44  C   UNL A   1      46.239  24.809  28.733  1.00  0.00     0.031 C 
ATOM     45  C   UNL A   1      39.603  26.545  28.009  1.00  0.00     0.029 A 
ATOM     46  C   UNL A   1      40.467  27.564  28.593  1.00  0.00     0.049 A 
ATOM     47  H   UNL A   1      42.526  27.461  28.889  1.00  0.00     0.167 HD
ATOM     48  C   UNL A   1      46.789  26.980  29.784  1.00  0.00     0.031 A 
ATOM     49  C   UNL A   1      40.060  28.765  29.044  1.00  0.00     0.031 A 
ATOM     50  C   UNL A   1      46.462  28.307  30.226  1.00  0.00     0.049 A 
ATOM     51  C   UNL A   1      41.069  29.704  29.645  1.00  0.00     0.074 A 
ATOM     52  C   UNL A   1      47.302  29.274  30.749  1.00  0.00     0.029 A 
ATOM     53  N   UNL A   1      45.192  28.860  30.181  1.00  0.00    -0.354 N 
ATOM     54  N   UNL A   1      42.354  29.524  29.831  1.00  0.00    -0.248 NA
ATOM     55  C   UNL A   1      40.571  31.014  30.088  1.00  0.00     0.031 C 
ATOM     56  C   UNL A   1      46.533  30.401  31.053  1.00  0.00     0.029 A 
ATOM     57  C   UNL A   1      45.223  30.151  30.675  1.00  0.00     0.049 A 
ATOM     58  H   UNL A   1      44.387  28.401  29.848  1.00  0.00     0.167 HD
ATOM     59  C   UNL A   1      42.824  30.708  30.383  1.00  0.00     0.074 A 
ATOM     60  C   UNL A   1      41.689  31.601  30.494  1.00  0.00     0.031 C 
ATOM     61  C   UNL A   1      44.085  31.028  30.762  1.00  0.00     0.031 A 
BRANCH  48  62
ATOM     62  C   UNL A   1      48.200  26.492  29.956  1.00  0.00    -0.014 A 
ATOM     63  C   UNL A   1      48.597  25.802  31.113  1.00  0.00     0.009 A 
ATOM     64  C   UNL A   1      49.141  26.708  28.938  1.00  0.00     0.009 A 
ATOM     65  C   UNL A   1      49.918  25.377  31.265  1.00  0.00     0.001 A 
ATOM     66  C   UNL A   1      50.454  26.256  29.080  1.00  0.00     0.001 A 
ATOM     67  C   UNL A   1      50.844  25.601  30.247  1.00  0.00     0.000 A 
ENDBRANCH  48  62
BRANCH  49  68
ATOM     68  C   UNL A   1      38.633  29.160  28.927  1.00  0.00    -0.014 A 
ATOM     69  C   UNL A   1      38.137  29.667  27.715  1.00  0.00     0.009 A 
ATOM     70  C   UNL A   1      37.759  29.037  30.018  1.00  0.00     0.009 A 
ATOM     71  C   UNL A   1      36.804  30.064  27.605  1.00  0.00     0.001 A 
ATOM     72  C   UNL A   1      36.418  29.411  29.897  1.00  0.00     0.001 A 
ATOM     73  C   UNL A   1      35.944  29.933  28.694  1.00  0.00     0.000 A 
ENDBRANCH  49  68
BRANCH  61  74
ATOM     74  C   UNL A   1      44.317  32.418  31.280  1.00  0.00    -0.014 A 
ATOM     75  C   UNL A   1      44.644  33.472  30.416  1.00  0.00     0.009 A 
ATOM     76  C   UNL A   1      44.143  32.681  32.648  1.00  0.00     0.009 A 
ATOM     77  C   UNL A   1      44.820  34.763  30.919  1.00  0.00     0.001 A 
ATOM     78  C   UNL A   1      44.295  33.976  33.143  1.00  0.00     0.001 A 
ATOM     79  C   UNL A   1      44.639  35.015  32.279  1.00  0.00     0.000 A 
ENDBRANCH  61  74
ENDBRANCH  35  36
ENDBRANCH  27  30
ENDBRANCH  25  26
ENDBRANCH  24  25
ENDBRANCH   1  24
TORSDOF 14
ENDMDL
MODEL 2
REMARK VINA RESULT:     -10.8      3.319      9.096
REMARK SMILES CC[C@H](c1ccc(OC)cc1)[N@H+]1CC[C@H](C(=O)NCCCNC(=O)c2ccc(-c3c4nc(c(-c5ccccc5)c5ccc([nH]5)c(-c5ccccc5)c5nc(c(-c6ccccc6)c6ccc3[nH]6)C=C5)C=C4)cc2)[C@@H]1C
REMARK SMILES IDX 19 1 18 2 16 3 17 4 15 6 12 7 13 8 73 9 14 11 74 12 3 13
REMARK SMILES IDX 2 14 1 15 4 16 5 17 11 18 6 19 10 20 7 21 8 22 9 23 20 24
REMARK SMILES IDX 21 25 22 26 23 27 24 29 25 30 26 31 72 32 27 33 71 34 28 35
REMARK SMILES IDX 29 36 30 37 65 38 31 39 70 40 64 41 66 42 32 43 69 44 63 45
REMARK SMILES IDX 62 46 33 48 55 49 40 50 54 51 41 52 44 53 53 54 67 55 42 56
REMARK SMILES IDX 43 57 52 59 68 60 45 61 34 62 35 63 39 64 36 65 38 66 37 67
REMARK SMILES IDX 56 68 57 69 61 70 58 71 60 72 59 73 46 74 47 75 51 76 48 77
REMARK SMILES IDX 50 78 49 79
REMARK H PARENT 18 5 12 10 22 28 66 47 44 58
REMARK Flexibility Score: inf
ROOT
ATOM      1  C   UNL A   1      31.747  30.442  26.398  1.00  0.00     0.117 C 
ENDROOT
BRANCH   1   2
ATOM      2  N   UNL A   1      31.646  30.053  25.004  1.00  0.00    -0.356 N 
ATOM      3  C   UNL A   1      31.206  28.929  24.398  1.00  0.00     0.229 C 
ATOM      4  O   UNL A   1      31.085  29.006  23.166  1.00  0.00    -0.275 OA
ATOM      5  H   UNL A   1      31.961  30.744  24.377  1.00  0.00     0.163 HD
BRANCH   3   6
ATOM      6  C   UNL A   1      30.968  27.580  25.068  1.00  0.00     0.142 C 
ATOM      7  N   UNL A   1      32.136  25.596  24.299  1.00  0.00    -0.326 N 
ATOM      8  C   UNL A   1      30.916  25.795  23.489  1.00  0.00     0.264 C 
ATOM      9  C   UNL A   1      32.083  26.590  25.415  1.00  0.00     0.194 C 
ATOM     10  H   UNL A   1      32.952  25.756  23.710  1.00  0.00     0.348 HD
ATOM     11  C   UNL A   1      30.011  26.742  24.245  1.00  0.00     0.081 C 
ATOM     12  C   UNL A   1      33.411  27.235  25.818  1.00  0.00     0.076 C 
BRANCH   7  13
ATOM     13  C   UNL A   1      32.367  24.199  24.766  1.00  0.00     0.215 C 
BRANCH  13  14
ATOM     14  C   UNL A   1      31.661  23.964  26.127  1.00  0.00     0.067 C 
ATOM     15  C   UNL A   1      30.659  22.813  26.122  1.00  0.00     0.010 C 
ENDBRANCH  13  14
BRANCH  13  16
ATOM     16  C   UNL A   1      33.843  23.807  24.863  1.00  0.00     0.010 A 
ATOM     17  C   UNL A   1      34.523  23.729  26.085  1.00  0.00     0.014 A 
ATOM     18  C   UNL A   1      34.555  23.540  23.681  1.00  0.00     0.014 A 
ATOM     19  C   UNL A   1      35.879  23.386  26.116  1.00  0.00     0.047 A 
ATOM     20  C   UNL A   1      35.909  23.198  23.716  1.00  0.00     0.047 A 
ATOM     21  C   UNL A   1      36.575  23.111  24.937  1.00  0.00     0.118 A 
BRANCH  21  22
ATOM     22  O   UNL A   1      37.893  22.782  25.102  1.00  0.00    -0.497 OA
ATOM     23  C   UNL A   1      38.176  21.414  25.376  1.00  0.00     0.278 C 
ENDBRANCH  21  22
ENDBRANCH  13  16
ENDBRANCH   7  13
ENDBRANCH   3   6
ENDBRANCH   1   2
BRANCH   1  24
ATOM     24  C   UNL A   1      31.590  31.936  26.609  1.00  0.00     0.042 C 
BRANCH  24  25
ATOM     25  C   UNL A   1      32.819  32.607  27.199  1.00  0.00     0.118 C 
BRANCH  25  26
ATOM     26  N   UNL A   1      32.573  33.980  27.628  1.00  0.00    -0.352 N 
ATOM     27  C   UNL A   1      33.181  34.716  28.617  1.00  0.00     0.251 C 
ATOM     28  H   UNL A   1      31.865  34.452  27.133  1.00  0.00     0.163 HD
ATOM     29  O   UNL A   1      32.729  35.808  28.948  1.00  0.00    -0.269 OA
BRANCH  27  30
ATOM     30  C   UNL A   1      34.366  34.168  29.306  1.00  0.00     0.039 A 
ATOM     31  C   UNL A   1      34.196  33.400  30.460  1.00  0.00     0.014 A 
ATOM     32  C   UNL A   1      35.641  34.378  28.781  1.00  0.00     0.014 A 
ATOM     33  C   UNL A   1      35.299  32.760  31.029  1.00  0.00     0.010 A 
ATOM     34  C   UNL A   1      36.715  33.656  29.282  1.00  0.00     0.010 A 
ATOM     35  C   UNL A   1      36.557  32.838  30.411  1.00  0.00    -0.014 A 
BRANCH  35  36
ATOM     36  C   UNL A   1      37.737  32.089  30.914  1.00  0.00     0.031 A 
ATOM     37  C   UNL A   1      38.524  32.638  32.072  1.00  0.00     0.074 A 
ATOM     38  C   UNL A   1      38.166  30.991  30.261  1.00  0.00     0.049 A 
ATOM     39  N   UNL A   1      39.678  32.246  32.547  1.00  0.00    -0.248 NA
ATOM     40  C   UNL A   1      37.959  33.811  32.758  1.00  0.00     0.031 C 
ATOM     41  C   UNL A   1      37.520  30.381  29.096  1.00  0.00     0.029 A 
ATOM     42  N   UNL A   1      39.268  30.202  30.479  1.00  0.00    -0.354 N 
ATOM     43  C   UNL A   1      39.996  33.150  33.552  1.00  0.00     0.074 A 
ATOM     44  C   UNL A   1      38.938  34.135  33.588  1.00  0.00     0.031 C 
ATOM     45  C   UNL A   1      38.223  29.301  28.720  1.00  0.00     0.029 A 
ATOM     46  C   UNL A   1      39.392  29.169  29.581  1.00  0.00     0.049 A 
ATOM     47  H   UNL A   1      39.908  30.361  31.210  1.00  0.00     0.167 HD
ATOM     48  C   UNL A   1      41.064  33.152  34.383  1.00  0.00     0.031 A 
ATOM     49  C   UNL A   1      40.348  28.229  29.458  1.00  0.00     0.031 A 
ATOM     50  C   UNL A   1      42.093  32.150  34.375  1.00  0.00     0.049 A 
ATOM     51  C   UNL A   1      41.511  28.236  30.411  1.00  0.00     0.074 A 
ATOM     52  C   UNL A   1      43.179  32.022  35.222  1.00  0.00     0.029 A 
ATOM     53  N   UNL A   1      42.152  31.093  33.481  1.00  0.00    -0.354 N 
ATOM     54  N   UNL A   1      41.771  29.069  31.388  1.00  0.00    -0.248 NA
ATOM     55  C   UNL A   1      42.504  27.164  30.249  1.00  0.00     0.031 C 
ATOM     56  C   UNL A   1      43.916  30.904  34.817  1.00  0.00     0.029 A 
ATOM     57  C   UNL A   1      43.262  30.312  33.749  1.00  0.00     0.049 A 
ATOM     58  H   UNL A   1      41.502  30.923  32.761  1.00  0.00     0.167 HD
ATOM     59  C   UNL A   1      42.940  28.606  31.977  1.00  0.00     0.074 A 
ATOM     60  C   UNL A   1      43.333  27.415  31.254  1.00  0.00     0.031 C 
ATOM     61  C   UNL A   1      43.626  29.121  33.027  1.00  0.00     0.031 A 
BRANCH  48  62
ATOM     62  C   UNL A   1      41.166  34.280  35.372  1.00  0.00    -0.014 A 
ATOM     63  C   UNL A   1      40.611  34.173  36.658  1.00  0.00     0.009 A 
ATOM     64  C   UNL A   1      41.843  35.457  35.020  1.00  0.00     0.009 A 
ATOM     65  C   UNL A   1      40.695  35.240  37.555  1.00  0.00     0.001 A 
ATOM     66  C   UNL A   1      41.951  36.511  35.930  1.00  0.00     0.001 A 
ATOM     67  C   UNL A   1      41.368  36.406  37.191  1.00  0.00     0.000 A 
ENDBRANCH  48  62
BRANCH  49  68
ATOM     68  C   UNL A   1      40.238  27.188  28.404  1.00  0.00    -0.014 A 
ATOM     69  C   UNL A   1      39.475  26.031  28.630  1.00  0.00     0.009 A 
ATOM     70  C   UNL A   1      40.890  27.340  27.170  1.00  0.00     0.009 A 
ATOM     71  C   UNL A   1      39.388  25.037  27.654  1.00  0.00     0.001 A 
ATOM     72  C   UNL A   1      40.780  26.355  26.185  1.00  0.00     0.001 A 
ATOM     73  C   UNL A   1      40.037  25.201  26.431  1.00  0.00     0.000 A 
ENDBRANCH  49  68
BRANCH  61  74
ATOM     74  C   UNL A   1      44.840  28.371  33.491  1.00  0.00    -0.014 A 
ATOM     75  C   UNL A   1      46.118  28.680  33.005  1.00  0.00     0.009 A 
ATOM     76  C   UNL A   1      44.702  27.379  34.476  1.00  0.00     0.009 A 
ATOM     77  C   UNL A   1      47.235  27.991  33.480  1.00  0.00     0.001 A 
ATOM     78  C   UNL A   1      45.824  26.711  34.966  1.00  0.00     0.001 A 
ATOM     79  C   UNL A   1      47.089  27.012  34.463  1.00  0.00     0.000 A 
ENDBRANCH  61  74
ENDBRANCH  35  36
ENDBRANCH  27  30
ENDBRANCH  25  26
ENDBRANCH  24  25
ENDBRANCH   1  24
TORSDOF 14
ENDMDL
MODEL 3
REMARK VINA RESULT:     -10.7      3.113      8.867
REMARK SMILES CC[C@H](c1ccc(OC)cc1)[N@H+]1CC[C@H](C(=O)NCCCNC(=O)c2ccc(-c3c4nc(c(-c5ccccc5)c5ccc([nH]5)c(-c5ccccc5)c5nc(c(-c6ccccc6)c6ccc3[nH]6)C=C5)C=C4)cc2)[C@@H]1C
REMARK SMILES IDX 19 1 18 2 16 3 17 4 15 6 12 7 13 8 73 9 14 11 74 12 3 13
REMARK SMILES IDX 2 14 1 15 4 16 5 17 11 18 6 19 10 20 7 21 8 22 9 23 20 24
REMARK SMILES IDX 21 25 22 26 23 27 24 29 25 30 26 31 72 32 27 33 71 34 28 35
REMARK SMILES IDX 29 36 30 37 65 38 31 39 70 40 64 41 66 42 32 43 69 44 63 45
REMARK SMILES IDX 62 46 33 48 55 49 40 50 54 51 41 52 44 53 53 54 67 55 42 56
REMARK SMILES IDX 43 57 52 59 68 60 45 61 34 62 35 63 39 64 36 65 38 66 37 67
REMARK SMILES IDX 56 68 57 69 61 70 58 71 60 72 59 73 46 74 47 75 51 76 48 77
REMARK SMILES IDX 50 78 49 79
REMARK H PARENT 18 5 12 10 22 28 66 47 44 58
REMARK Flexibility Score: inf
ROOT
ATOM      1  C   UNL A   1      32.491  29.691  25.085  1.00  0.00     0.117 C 
ENDROOT
BRANCH   1   2
ATOM      2  N   UNL A   1      31.656  28.628  24.559  1.00  0.00    -0.356 N 
ATOM      3  C   UNL A   1      31.871  27.309  24.360  1.00  0.00     0.229 C 
ATOM      4  O   UNL A   1      30.865  26.649  24.062  1.00  0.00    -0.275 OA
ATOM      5  H   UNL A   1      30.756  28.927  24.294  1.00  0.00     0.163 HD
BRANCH   3   6
ATOM      6  C   UNL A   1      33.226  26.610  24.354  1.00  0.00     0.142 C 
ATOM      7  N   UNL A   1      33.376  24.204  24.642  1.00  0.00    -0.326 N 
ATOM      8  C   UNL A   1      33.334  24.858  25.967  1.00  0.00     0.264 C 
ATOM      9  C   UNL A   1      33.505  25.293  23.625  1.00  0.00     0.194 C 
ATOM     10  H   UNL A   1      32.512  23.681  24.506  1.00  0.00     0.348 HD
ATOM     11  C   UNL A   1      33.677  26.318  25.771  1.00  0.00     0.081 C 
ATOM     12  C   UNL A   1      32.727  25.104  22.321  1.00  0.00     0.076 C 
BRANCH   7  13
ATOM     13  C   UNL A   1      34.405  23.136  24.494  1.00  0.00     0.215 C 
BRANCH  13  14
ATOM     14  C   UNL A   1      35.327  23.441  23.285  1.00  0.00     0.067 C 
ATOM     15  C   UNL A   1      36.753  22.920  23.438  1.00  0.00     0.010 C 
ENDBRANCH  13  14
BRANCH  13  16
ATOM     16  C   UNL A   1      33.828  21.724  24.373  1.00  0.00     0.010 A 
ATOM     17  C   UNL A   1      34.328  20.639  25.106  1.00  0.00     0.014 A 
ATOM     18  C   UNL A   1      32.773  21.495  23.473  1.00  0.00     0.014 A 
ATOM     19  C   UNL A   1      33.777  19.364  24.942  1.00  0.00     0.047 A 
ATOM     20  C   UNL A   1      32.226  20.220  23.312  1.00  0.00     0.047 A 
ATOM     21  C   UNL A   1      32.720  19.149  24.054  1.00  0.00     0.118 A 
BRANCH  21  22
ATOM     22  O   UNL A   1      32.267  17.859  23.989  1.00  0.00    -0.497 OA
ATOM     23  C   UNL A   1      32.766  16.961  24.975  1.00  0.00     0.278 C 
ENDBRANCH  21  22
ENDBRANCH  13  16
ENDBRANCH   7  13
ENDBRANCH   3   6
ENDBRANCH   1   2
BRANCH   1  24
ATOM     24  C   UNL A   1      31.845  30.435  26.238  1.00  0.00     0.042 C 
BRANCH  24  25
ATOM     25  C   UNL A   1      32.830  31.201  27.106  1.00  0.00     0.118 C 
BRANCH  25  26
ATOM     26  N   UNL A   1      32.431  32.585  27.343  1.00  0.00    -0.352 N 
ATOM     27  C   UNL A   1      33.044  33.562  28.090  1.00  0.00     0.251 C 
ATOM     28  H   UNL A   1      31.596  32.860  26.900  1.00  0.00     0.163 HD
ATOM     29  O   UNL A   1      32.474  34.627  28.310  1.00  0.00    -0.269 OA
BRANCH  27  30
ATOM     30  C   UNL A   1      34.383  33.310  28.657  1.00  0.00     0.039 A 
ATOM     31  C   UNL A   1      34.499  32.614  29.863  1.00  0.00     0.014 A 
ATOM     32  C   UNL A   1      35.524  33.724  27.971  1.00  0.00     0.014 A 
ATOM     33  C   UNL A   1      35.764  32.246  30.326  1.00  0.00     0.010 A 
ATOM     34  C   UNL A   1      36.770  33.266  28.374  1.00  0.00     0.010 A 
ATOM     35  C   UNL A   1      36.905  32.522  29.556  1.00  0.00    -0.014 A 
BRANCH  35  36
ATOM     36  C   UNL A   1      38.260  32.058  29.950  1.00  0.00     0.031 A 
ATOM     37  C   UNL A   1      38.777  30.748  29.423  1.00  0.00     0.074 A 
ATOM     38  C   UNL A   1      38.969  32.748  30.865  1.00  0.00     0.049 A 
ATOM     39  N   UNL A   1      39.842  30.076  29.777  1.00  0.00    -0.248 NA
ATOM     40  C   UNL A   1      37.964  30.084  28.391  1.00  0.00     0.031 C 
ATOM     41  C   UNL A   1      38.561  34.009  31.490  1.00  0.00     0.029 A 
ATOM     42  N   UNL A   1      40.181  32.469  31.445  1.00  0.00    -0.354 N 
ATOM     43  C   UNL A   1      39.799  28.895  29.049  1.00  0.00     0.074 A 
ATOM     44  C   UNL A   1      38.583  28.921  28.267  1.00  0.00     0.031 C 
ATOM     45  C   UNL A   1      39.518  34.406  32.344  1.00  0.00     0.029 A 
ATOM     46  C   UNL A   1      40.580  33.407  32.367  1.00  0.00     0.049 A 
ATOM     47  H   UNL A   1      40.714  31.672  31.222  1.00  0.00     0.167 HD
ATOM     48  C   UNL A   1      40.700  27.885  29.018  1.00  0.00     0.031 A 
ATOM     49  C   UNL A   1      41.673  33.450  33.152  1.00  0.00     0.031 A 
ATOM     50  C   UNL A   1      41.929  27.879  29.762  1.00  0.00     0.049 A 
ATOM     51  C   UNL A   1      42.673  32.330  33.080  1.00  0.00     0.074 A 
ATOM     52  C   UNL A   1      42.942  26.938  29.747  1.00  0.00     0.029 A 
ATOM     53  N   UNL A   1      42.316  28.874  30.645  1.00  0.00    -0.354 N 
ATOM     54  N   UNL A   1      42.643  31.243  32.348  1.00  0.00    -0.248 NA
ATOM     55  C   UNL A   1      43.863  32.450  33.934  1.00  0.00     0.031 C 
ATOM     56  C   UNL A   1      43.929  27.346  30.649  1.00  0.00     0.029 A 
ATOM     57  C   UNL A   1      43.550  28.565  31.189  1.00  0.00     0.049 A 
ATOM     58  H   UNL A   1      41.791  29.680  30.856  1.00  0.00     0.167 HD
ATOM     59  C   UNL A   1      43.821  30.566  32.630  1.00  0.00     0.074 A 
ATOM     60  C   UNL A   1      44.548  31.367  33.592  1.00  0.00     0.031 C 
ATOM     61  C   UNL A   1      44.263  29.385  32.133  1.00  0.00     0.031 A 
BRANCH  48  62
ATOM     62  C   UNL A   1      40.382  26.703  28.145  1.00  0.00    -0.014 A 
ATOM     63  C   UNL A   1      40.892  26.603  26.841  1.00  0.00     0.009 A 
ATOM     64  C   UNL A   1      39.576  25.667  28.641  1.00  0.00     0.009 A 
ATOM     65  C   UNL A   1      40.566  25.509  26.036  1.00  0.00     0.001 A 
ATOM     66  C   UNL A   1      39.276  24.560  27.844  1.00  0.00     0.001 A 
ATOM     67  C   UNL A   1      39.762  24.488  26.540  1.00  0.00     0.000 A 
ENDBRANCH  48  62
BRANCH  49  68
ATOM     68  C   UNL A   1      41.893  34.605  34.060  1.00  0.00    -0.014 A 
ATOM     69  C   UNL A   1      41.453  34.550  35.392  1.00  0.00     0.009 A 
ATOM     70  C   UNL A   1      42.539  35.765  33.607  1.00  0.00     0.009 A 
ATOM     71  C   UNL A   1      41.634  35.641  36.244  1.00  0.00     0.001 A 
ATOM     72  C   UNL A   1      42.742  36.846  34.469  1.00  0.00     0.001 A 
ATOM     73  C   UNL A   1      42.281  36.787  35.784  1.00  0.00     0.000 A 
ENDBRANCH  49  68
BRANCH  61  74
ATOM     74  C   UNL A   1      45.617  28.914  32.578  1.00  0.00    -0.014 A 
ATOM     75  C   UNL A   1      45.767  28.074  33.690  1.00  0.00     0.009 A 
ATOM     76  C   UNL A   1      46.751  29.273  31.832  1.00  0.00     0.009 A 
ATOM     77  C   UNL A   1      47.035  27.621  34.062  1.00  0.00     0.001 A 
ATOM     78  C   UNL A   1      48.012  28.798  32.192  1.00  0.00     0.001 A 
ATOM     79  C   UNL A   1      48.154  27.978  33.310  1.00  0.00     0.000 A 
ENDBRANCH  61  74
ENDBRANCH  35  36
ENDBRANCH  27  30
ENDBRANCH  25  26
ENDBRANCH  24  25
ENDBRANCH   1  24
TORSDOF 14
ENDMDL
