MODEL 1
REMARK VINA RESULT:     -12.3      0.000      0.000
REMARK SMILES Cc1ccc(-n2c(C)cc(/C=C3/SC(=S)N(CC(=O)NCCCNC(=O)c4ccc(-c5c6nc(c(-c7ccccc7)c7ccc([nH]7)c(-c7ccccc7)c7nc(c(-c8ccccc8)c8ccc5[nH]8)C=C7)C=C6)cc4)C3=O)c2C)cc1
REMARK SMILES IDX 21 1 20 2 18 3 19 4 17 6 16 7 11 8 12 9 13 10 75 11 14 12
REMARK SMILES IDX 76 13 15 14 10 15 6 16 7 17 77 18 8 19 9 20 78 21 5 22 1 23
REMARK SMILES IDX 2 24 3 25 80 26 4 27 79 28 22 29 23 30 24 31 25 32 26 34
REMARK SMILES IDX 27 35 28 36 74 37 29 38 73 39 30 40 31 41 32 42 67 43 33 44
REMARK SMILES IDX 72 45 66 46 68 47 34 48 71 49 65 50 64 51 35 53 57 54 42 55
REMARK SMILES IDX 56 56 43 57 46 58 55 59 69 60 44 61 45 62 54 64 70 65 47 66
REMARK SMILES IDX 36 67 37 68 41 69 38 70 40 71 39 72 58 73 59 74 63 75 60 76
REMARK SMILES IDX 62 77 61 78 48 79 49 80 53 81 50 82 52 83 51 84
REMARK H PARENT 20 5 24 33 68 52 46 63
REMARK Flexibility Score: inf
ROOT
ATOM      1  C   UNL A   1      33.903  29.526  27.169  1.00  0.00     0.117 C 
ENDROOT
BRANCH   1   2
ATOM      2  N   UNL A   1      34.007  29.317  25.736  1.00  0.00    -0.354 N 
ATOM      3  C   UNL A   1      33.016  29.156  24.807  1.00  0.00     0.240 C 
ATOM      4  O   UNL A   1      33.320  29.331  23.625  1.00  0.00    -0.273 OA
ATOM      5  H   UNL A   1      34.924  29.289  25.380  1.00  0.00     0.163 HD
BRANCH   3   6
ATOM      6  C   UNL A   1      31.560  28.890  25.220  1.00  0.00     0.227 C 
BRANCH   6   7
ATOM      7  N   UNL A   1      30.975  27.721  24.559  1.00  0.00    -0.283 N 
ATOM      8  C   UNL A   1      31.065  24.086  24.181  1.00  0.00     0.031 C 
ATOM      9  C   UNL A   1      30.831  25.404  24.108  1.00  0.00     0.081 C 
ATOM     10  S   UNL A   1      29.606  26.092  23.107  1.00  0.00    -0.054 SA
ATOM     11  C   UNL A   1      31.566  26.492  24.817  1.00  0.00     0.266 C 
ATOM     12  C   UNL A   1      30.006  27.740  23.583  1.00  0.00     0.148 C 
ATOM     13  O   UNL A   1      32.557  26.336  25.504  1.00  0.00    -0.268 OA
ATOM     14  S   UNL A   1      29.259  29.058  22.886  1.00  0.00    -0.052 S 
BRANCH   8  15
ATOM     15  C   UNL A   1      32.084  23.461  24.955  1.00  0.00    -0.003 A 
ATOM     16  N   UNL A   1      34.110  22.773  25.617  1.00  0.00    -0.318 N 
ATOM     17  C   UNL A   1      33.215  22.503  26.649  1.00  0.00     0.020 A 
ATOM     18  C   UNL A   1      33.400  23.328  24.552  1.00  0.00     0.027 A 
ATOM     19  C   UNL A   1      33.617  22.033  28.006  1.00  0.00     0.065 C 
ATOM     20  C   UNL A   1      31.956  22.896  26.238  1.00  0.00     0.031 A 
ATOM     21  C   UNL A   1      34.002  23.677  23.231  1.00  0.00     0.065 C 
BRANCH  16  22
ATOM     22  C   UNL A   1      35.513  22.563  25.666  1.00  0.00     0.045 A 
ATOM     23  C   UNL A   1      39.768  21.950  25.805  1.00  0.00     0.044 C 
ATOM     24  C   UNL A   1      38.283  22.156  25.751  1.00  0.00    -0.051 A 
ATOM     25  C   UNL A   1      37.737  23.393  26.122  1.00  0.00     0.005 A 
ATOM     26  C   UNL A   1      37.427  21.123  25.350  1.00  0.00     0.005 A 
ATOM     27  C   UNL A   1      36.358  23.601  26.073  1.00  0.00     0.027 A 
ATOM     28  C   UNL A   1      36.046  21.320  25.312  1.00  0.00     0.027 A 
ENDBRANCH  16  22
ENDBRANCH   8  15
ENDBRANCH   6   7
ENDBRANCH   3   6
ENDBRANCH   1   2
BRANCH   1  29
ATOM     29  C   UNL A   1      33.408  30.920  27.524  1.00  0.00     0.042 C 
BRANCH  29  30
ATOM     30  C   UNL A   1      34.523  31.935  27.723  1.00  0.00     0.118 C 
BRANCH  30  31
ATOM     31  N   UNL A   1      34.799  32.262  29.118  1.00  0.00    -0.352 N 
ATOM     32  C   UNL A   1      35.672  31.650  30.001  1.00  0.00     0.251 C 
ATOM     33  H   UNL A   1      34.294  33.024  29.482  1.00  0.00     0.163 HD
ATOM     34  O   UNL A   1      35.776  32.061  31.148  1.00  0.00    -0.269 OA
BRANCH  32  35
ATOM     35  C   UNL A   1      36.571  30.576  29.510  1.00  0.00     0.039 A 
ATOM     36  C   UNL A   1      36.654  29.395  30.255  1.00  0.00     0.014 A 
ATOM     37  C   UNL A   1      37.463  30.813  28.469  1.00  0.00     0.014 A 
ATOM     38  C   UNL A   1      37.778  28.584  30.123  1.00  0.00     0.010 A 
ATOM     39  C   UNL A   1      38.628  30.075  28.414  1.00  0.00     0.010 A 
ATOM     40  C   UNL A   1      38.814  28.999  29.287  1.00  0.00    -0.014 A 
BRANCH  40  41
ATOM     41  C   UNL A   1      40.169  28.471  29.372  1.00  0.00     0.031 A 
ATOM     42  C   UNL A   1      40.523  27.170  28.774  1.00  0.00     0.074 A 
ATOM     43  C   UNL A   1      41.138  29.216  29.949  1.00  0.00     0.049 A 
ATOM     44  N   UNL A   1      41.516  26.445  29.170  1.00  0.00    -0.248 NA
ATOM     45  C   UNL A   1      39.749  26.552  27.704  1.00  0.00     0.031 C 
ATOM     46  C   UNL A   1      42.582  29.019  29.863  1.00  0.00     0.029 A 
ATOM     47  N   UNL A   1      40.986  30.202  30.915  1.00  0.00    -0.354 N 
ATOM     48  C   UNL A   1      41.699  25.456  28.234  1.00  0.00     0.074 A 
ATOM     49  C   UNL A   1      40.520  25.505  27.399  1.00  0.00     0.031 C 
ATOM     50  C   UNL A   1      43.172  29.670  30.878  1.00  0.00     0.029 A 
ATOM     51  C   UNL A   1      42.119  30.183  31.738  1.00  0.00     0.049 A 
ATOM     52  H   UNL A   1      40.216  30.809  31.005  1.00  0.00     0.167 HD
ATOM     53  C   UNL A   1      42.894  24.805  28.167  1.00  0.00     0.031 A 
ATOM     54  C   UNL A   1      42.017  29.927  33.076  1.00  0.00     0.031 A 
ATOM     55  C   UNL A   1      43.825  25.254  29.201  1.00  0.00     0.049 A 
ATOM     56  C   UNL A   1      42.759  28.687  33.522  1.00  0.00     0.074 A 
ATOM     57  C   UNL A   1      44.914  26.112  29.179  1.00  0.00     0.029 A 
ATOM     58  N   UNL A   1      43.527  25.031  30.538  1.00  0.00    -0.354 N 
ATOM     59  N   UNL A   1      43.174  27.755  32.710  1.00  0.00    -0.248 NA
ATOM     60  C   UNL A   1      43.057  28.374  34.917  1.00  0.00     0.031 C 
ATOM     61  C   UNL A   1      45.253  26.429  30.518  1.00  0.00     0.029 A 
ATOM     62  C   UNL A   1      44.383  25.749  31.350  1.00  0.00     0.049 A 
ATOM     63  H   UNL A   1      42.807  24.443  30.863  1.00  0.00     0.167 HD
ATOM     64  C   UNL A   1      43.774  26.749  33.423  1.00  0.00     0.074 A 
ATOM     65  C   UNL A   1      43.683  27.189  34.803  1.00  0.00     0.031 C 
ATOM     66  C   UNL A   1      44.281  25.644  32.802  1.00  0.00     0.031 A 
BRANCH  53  67
ATOM     67  C   UNL A   1      43.323  23.979  26.978  1.00  0.00    -0.014 A 
ATOM     68  C   UNL A   1      43.769  24.625  25.808  1.00  0.00     0.009 A 
ATOM     69  C   UNL A   1      43.269  22.578  26.922  1.00  0.00     0.009 A 
ATOM     70  C   UNL A   1      44.037  23.922  24.626  1.00  0.00     0.001 A 
ATOM     71  C   UNL A   1      43.496  21.870  25.733  1.00  0.00     0.001 A 
ATOM     72  C   UNL A   1      43.868  22.546  24.579  1.00  0.00     0.000 A 
ENDBRANCH  53  67
BRANCH  54  73
ATOM     73  C   UNL A   1      40.745  30.417  33.678  1.00  0.00    -0.014 A 
ATOM     74  C   UNL A   1      40.640  31.787  33.986  1.00  0.00     0.009 A 
ATOM     75  C   UNL A   1      39.569  29.658  33.586  1.00  0.00     0.009 A 
ATOM     76  C   UNL A   1      39.391  32.405  34.086  1.00  0.00     0.001 A 
ATOM     77  C   UNL A   1      38.319  30.280  33.697  1.00  0.00     0.001 A 
ATOM     78  C   UNL A   1      38.231  31.656  33.912  1.00  0.00     0.000 A 
ENDBRANCH  54  73
BRANCH  66  79
ATOM     79  C   UNL A   1      44.796  24.375  33.446  1.00  0.00    -0.014 A 
ATOM     80  C   UNL A   1      46.115  24.160  33.860  1.00  0.00     0.009 A 
ATOM     81  C   UNL A   1      43.867  23.354  33.767  1.00  0.00     0.009 A 
ATOM     82  C   UNL A   1      46.489  22.984  34.529  1.00  0.00     0.001 A 
ATOM     83  C   UNL A   1      44.225  22.202  34.469  1.00  0.00     0.001 A 
ATOM     84  C   UNL A   1      45.544  22.012  34.844  1.00  0.00     0.000 A 
ENDBRANCH  66  79
ENDBRANCH  40  41
ENDBRANCH  32  35
ENDBRANCH  30  31
ENDBRANCH  29  30
ENDBRANCH   1  29
TORSDOF 13
ENDMDL
MODEL 2
REMARK VINA RESULT:     -12.2      1.808      2.989
REMARK SMILES Cc1ccc(-n2c(C)cc(/C=C3/SC(=S)N(CC(=O)NCCCNC(=O)c4ccc(-c5c6nc(c(-c7ccccc7)c7ccc([nH]7)c(-c7ccccc7)c7nc(c(-c8ccccc8)c8ccc5[nH]8)C=C7)C=C6)cc4)C3=O)c2C)cc1
REMARK SMILES IDX 21 1 20 2 18 3 19 4 17 6 16 7 11 8 12 9 13 10 75 11 14 12
REMARK SMILES IDX 76 13 15 14 10 15 6 16 7 17 77 18 8 19 9 20 78 21 5 22 1 23
REMARK SMILES IDX 2 24 3 25 80 26 4 27 79 28 22 29 23 30 24 31 25 32 26 34
REMARK SMILES IDX 27 35 28 36 74 37 29 38 73 39 30 40 31 41 32 42 67 43 33 44
REMARK SMILES IDX 72 45 66 46 68 47 34 48 71 49 65 50 64 51 35 53 57 54 42 55
REMARK SMILES IDX 56 56 43 57 46 58 55 59 69 60 44 61 45 62 54 64 70 65 47 66
REMARK SMILES IDX 36 67 37 68 41 69 38 70 40 71 39 72 58 73 59 74 63 75 60 76
REMARK SMILES IDX 62 77 61 78 48 79 49 80 53 81 50 82 52 83 51 84
REMARK H PARENT 20 5 24 33 68 52 46 63
REMARK Flexibility Score: inf
ROOT
ATOM      1  C   UNL A   1      34.103  29.581  26.917  1.00  0.00     0.117 C 
ENDROOT
BRANCH   1   2
ATOM      2  N   UNL A   1      34.121  29.319  25.489  1.00  0.00    -0.354 N 
ATOM      3  C   UNL A   1      33.076  29.186  24.617  1.00  0.00     0.240 C 
ATOM      4  O   UNL A   1      33.328  29.302  23.416  1.00  0.00    -0.273 OA
ATOM      5  H   UNL A   1      35.015  29.224  25.090  1.00  0.00     0.163 HD
BRANCH   3   6
ATOM      6  C   UNL A   1      31.630  29.019  25.111  1.00  0.00     0.227 C 
BRANCH   6   7
ATOM      7  N   UNL A   1      30.952  27.855  24.536  1.00  0.00    -0.283 N 
ATOM      8  C   UNL A   1      30.824  24.207  24.341  1.00  0.00     0.031 C 
ATOM      9  C   UNL A   1      30.660  25.531  24.211  1.00  0.00     0.081 C 
ATOM     10  S   UNL A   1      29.431  26.238  23.229  1.00  0.00    -0.054 SA
ATOM     11  C   UNL A   1      31.486  26.608  24.831  1.00  0.00     0.266 C 
ATOM     12  C   UNL A   1      29.942  27.882  23.604  1.00  0.00     0.148 C 
ATOM     13  O   UNL A   1      32.497  26.429  25.482  1.00  0.00    -0.268 OA
ATOM     14  S   UNL A   1      29.237  29.205  22.872  1.00  0.00    -0.052 S 
BRANCH   8  15
ATOM     15  C   UNL A   1      31.842  23.563  25.102  1.00  0.00    -0.003 A 
ATOM     16  N   UNL A   1      33.852  22.782  25.704  1.00  0.00    -0.318 N 
ATOM     17  C   UNL A   1      32.999  22.635  26.795  1.00  0.00     0.020 A 
ATOM     18  C   UNL A   1      33.123  23.317  24.643  1.00  0.00     0.027 A 
ATOM     19  C   UNL A   1      33.444  22.223  28.157  1.00  0.00     0.065 C 
ATOM     20  C   UNL A   1      31.748  23.087  26.423  1.00  0.00     0.031 A 
ATOM     21  C   UNL A   1      33.673  23.543  23.273  1.00  0.00     0.065 C 
BRANCH  16  22
ATOM     22  C   UNL A   1      35.240  22.481  25.695  1.00  0.00     0.045 A 
ATOM     23  C   UNL A   1      39.448  21.591  25.660  1.00  0.00     0.044 C 
ATOM     24  C   UNL A   1      37.979  21.894  25.667  1.00  0.00    -0.051 A 
ATOM     25  C   UNL A   1      37.532  23.175  26.016  1.00  0.00     0.005 A 
ATOM     26  C   UNL A   1      37.039  20.907  25.345  1.00  0.00     0.005 A 
ATOM     27  C   UNL A   1      36.168  23.473  26.024  1.00  0.00     0.027 A 
ATOM     28  C   UNL A   1      35.673  21.193  25.363  1.00  0.00     0.027 A 
ENDBRANCH  16  22
ENDBRANCH   8  15
ENDBRANCH   6   7
ENDBRANCH   3   6
ENDBRANCH   1   2
BRANCH   1  29
ATOM     29  C   UNL A   1      33.425  30.899  27.263  1.00  0.00     0.042 C 
BRANCH  29  30
ATOM     30  C   UNL A   1      34.303  31.849  28.062  1.00  0.00     0.118 C 
BRANCH  30  31
ATOM     31  N   UNL A   1      33.598  33.004  28.608  1.00  0.00    -0.352 N 
ATOM     32  C   UNL A   1      34.001  33.883  29.599  1.00  0.00     0.251 C 
ATOM     33  H   UNL A   1      32.714  33.184  28.216  1.00  0.00     0.163 HD
ATOM     34  O   UNL A   1      33.273  34.807  29.936  1.00  0.00    -0.269 OA
BRANCH  32  35
ATOM     35  C   UNL A   1      35.370  33.773  30.159  1.00  0.00     0.039 A 
ATOM     36  C   UNL A   1      36.437  34.248  29.390  1.00  0.00     0.014 A 
ATOM     37  C   UNL A   1      35.613  33.029  31.310  1.00  0.00     0.014 A 
ATOM     38  C   UNL A   1      37.720  33.764  29.631  1.00  0.00     0.010 A 
ATOM     39  C   UNL A   1      36.859  32.462  31.483  1.00  0.00     0.010 A 
ATOM     40  C   UNL A   1      37.898  32.780  30.603  1.00  0.00    -0.014 A 
BRANCH  40  41
ATOM     41  C   UNL A   1      39.075  31.925  30.667  1.00  0.00     0.031 A 
ATOM     42  C   UNL A   1      39.110  30.617  29.986  1.00  0.00     0.074 A 
ATOM     43  C   UNL A   1      40.184  32.365  31.302  1.00  0.00     0.049 A 
ATOM     44  N   UNL A   1      39.880  29.643  30.342  1.00  0.00    -0.248 NA
ATOM     45  C   UNL A   1      38.237  30.281  28.868  1.00  0.00     0.031 C 
ATOM     46  C   UNL A   1      41.535  31.819  31.219  1.00  0.00     0.029 A 
ATOM     47  N   UNL A   1      40.256  33.296  32.331  1.00  0.00    -0.354 N 
ATOM     48  C   UNL A   1      39.836  28.700  29.344  1.00  0.00     0.074 A 
ATOM     49  C   UNL A   1      38.730  29.095  28.501  1.00  0.00     0.031 C 
ATOM     50  C   UNL A   1      42.241  32.237  32.282  1.00  0.00     0.029 A 
ATOM     51  C   UNL A   1      41.326  32.941  33.164  1.00  0.00     0.049 A 
ATOM     52  H   UNL A   1      39.660  34.070  32.454  1.00  0.00     0.167 HD
ATOM     53  C   UNL A   1      40.833  27.776  29.245  1.00  0.00     0.031 A 
ATOM     54  C   UNL A   1      41.126  32.636  34.480  1.00  0.00     0.031 A 
ATOM     55  C   UNL A   1      41.818  27.912  30.317  1.00  0.00     0.049 A 
ATOM     56  C   UNL A   1      41.524  31.224  34.849  1.00  0.00     0.074 A 
ATOM     57  C   UNL A   1      43.086  28.469  30.365  1.00  0.00     0.029 A 
ATOM     58  N   UNL A   1      41.437  27.687  31.633  1.00  0.00    -0.354 N 
ATOM     59  N   UNL A   1      41.715  30.271  33.980  1.00  0.00    -0.248 NA
ATOM     60  C   UNL A   1      41.696  30.760  36.223  1.00  0.00     0.031 C 
ATOM     61  C   UNL A   1      43.457  28.606  31.726  1.00  0.00     0.029 A 
ATOM     62  C   UNL A   1      42.422  28.115  32.501  1.00  0.00     0.049 A 
ATOM     63  H   UNL A   1      40.584  27.279  31.910  1.00  0.00     0.167 HD
ATOM     64  C   UNL A   1      42.025  29.104  34.630  1.00  0.00     0.074 A 
ATOM     65  C   UNL A   1      42.009  29.465  36.036  1.00  0.00     0.031 C 
ATOM     66  C   UNL A   1      42.258  27.949  33.941  1.00  0.00     0.031 A 
BRANCH  53  67
ATOM     67  C   UNL A   1      41.074  26.946  28.007  1.00  0.00    -0.014 A 
ATOM     68  C   UNL A   1      41.644  27.546  26.868  1.00  0.00     0.009 A 
ATOM     69  C   UNL A   1      40.725  25.593  27.878  1.00  0.00     0.009 A 
ATOM     70  C   UNL A   1      41.755  26.870  25.646  1.00  0.00     0.001 A 
ATOM     71  C   UNL A   1      40.794  24.920  26.649  1.00  0.00     0.001 A 
ATOM     72  C   UNL A   1      41.298  25.565  25.528  1.00  0.00     0.000 A 
ENDBRANCH  53  67
BRANCH  54  73
ATOM     73  C   UNL A   1      40.001  33.390  35.100  1.00  0.00    -0.014 A 
ATOM     74  C   UNL A   1      38.716  32.813  35.067  1.00  0.00     0.009 A 
ATOM     75  C   UNL A   1      40.248  34.425  36.013  1.00  0.00     0.009 A 
ATOM     76  C   UNL A   1      37.742  33.181  35.999  1.00  0.00     0.001 A 
ATOM     77  C   UNL A   1      39.264  34.798  36.938  1.00  0.00     0.001 A 
ATOM     78  C   UNL A   1      38.027  34.153  36.953  1.00  0.00     0.000 A 
ENDBRANCH  54  73
BRANCH  66  79
ATOM     79  C   UNL A   1      42.422  26.553  34.504  1.00  0.00    -0.014 A 
ATOM     80  C   UNL A   1      41.487  25.893  35.308  1.00  0.00     0.009 A 
ATOM     81  C   UNL A   1      43.552  25.793  34.109  1.00  0.00     0.009 A 
ATOM     82  C   UNL A   1      41.682  24.564  35.717  1.00  0.00     0.001 A 
ATOM     83  C   UNL A   1      43.730  24.459  34.478  1.00  0.00     0.001 A 
ATOM     84  C   UNL A   1      42.794  23.844  35.293  1.00  0.00     0.000 A 
ENDBRANCH  66  79
ENDBRANCH  40  41
ENDBRANCH  32  35
ENDBRANCH  30  31
ENDBRANCH  29  30
ENDBRANCH   1  29
TORSDOF 13
ENDMDL
MODEL 3
REMARK VINA RESULT:     -12.1      3.338      8.645
REMARK SMILES Cc1ccc(-n2c(C)cc(/C=C3/SC(=S)N(CC(=O)NCCCNC(=O)c4ccc(-c5c6nc(c(-c7ccccc7)c7ccc([nH]7)c(-c7ccccc7)c7nc(c(-c8ccccc8)c8ccc5[nH]8)C=C7)C=C6)cc4)C3=O)c2C)cc1
REMARK SMILES IDX 21 1 20 2 18 3 19 4 17 6 16 7 11 8 12 9 13 10 75 11 14 12
REMARK SMILES IDX 76 13 15 14 10 15 6 16 7 17 77 18 8 19 9 20 78 21 5 22 1 23
REMARK SMILES IDX 2 24 3 25 80 26 4 27 79 28 22 29 23 30 24 31 25 32 26 34
REMARK SMILES IDX 27 35 28 36 74 37 29 38 73 39 30 40 31 41 32 42 67 43 33 44
REMARK SMILES IDX 72 45 66 46 68 47 34 48 71 49 65 50 64 51 35 53 57 54 42 55
REMARK SMILES IDX 56 56 43 57 46 58 55 59 69 60 44 61 45 62 54 64 70 65 47 66
REMARK SMILES IDX 36 67 37 68 41 69 38 70 40 71 39 72 58 73 59 74 63 75 60 76
REMARK SMILES IDX 62 77 61 78 48 79 49 80 53 81 50 82 52 83 51 84
REMARK H PARENT 20 5 24 33 68 52 46 63
REMARK Flexibility Score: inf
ROOT
ATOM      1  C   UNL A   1      37.699  22.925  25.783  1.00  0.00     0.117 C 
ENDROOT
BRANCH   1   2
ATOM      2  N   UNL A   1      36.462  22.677  26.501  1.00  0.00    -0.354 N 
ATOM      3  C   UNL A   1      35.471  21.772  26.237  1.00  0.00     0.240 C 
ATOM      4  O   UNL A   1      34.691  21.509  27.154  1.00  0.00    -0.273 OA
ATOM      5  H   UNL A   1      36.315  23.241  27.293  1.00  0.00     0.163 HD
BRANCH   3   6
ATOM      6  C   UNL A   1      35.401  21.022  24.897  1.00  0.00     0.227 C 
BRANCH   6   7
ATOM      7  N   UNL A   1      34.121  21.192  24.204  1.00  0.00    -0.283 N 
ATOM      8  C   UNL A   1      31.754  23.561  22.741  1.00  0.00     0.031 C 
ATOM      9  C   UNL A   1      32.415  22.495  23.214  1.00  0.00     0.081 C 
ATOM     10  S   UNL A   1      31.834  20.878  23.061  1.00  0.00    -0.054 SA
ATOM     11  C   UNL A   1      33.707  22.494  23.960  1.00  0.00     0.266 C 
ATOM     12  C   UNL A   1      33.213  20.199  23.920  1.00  0.00     0.148 C 
ATOM     13  O   UNL A   1      34.305  23.486  24.327  1.00  0.00    -0.268 OA
ATOM     14  S   UNL A   1      33.301  18.574  24.288  1.00  0.00    -0.052 S 
BRANCH   8  15
ATOM     15  C   UNL A   1      32.159  24.920  22.870  1.00  0.00    -0.003 A 
ATOM     16  N   UNL A   1      32.556  26.927  23.780  1.00  0.00    -0.318 N 
ATOM     17  C   UNL A   1      33.144  26.913  22.518  1.00  0.00     0.020 A 
ATOM     18  C   UNL A   1      31.909  25.707  23.979  1.00  0.00     0.027 A 
ATOM     19  C   UNL A   1      34.042  27.985  22.000  1.00  0.00     0.065 C 
ATOM     20  C   UNL A   1      32.879  25.688  21.936  1.00  0.00     0.031 A 
ATOM     21  C   UNL A   1      31.093  25.375  25.184  1.00  0.00     0.065 C 
BRANCH  16  22
ATOM     22  C   UNL A   1      32.644  27.988  24.720  1.00  0.00     0.045 A 
ATOM     23  C   UNL A   1      32.904  31.217  27.550  1.00  0.00     0.044 C 
ATOM     24  C   UNL A   1      32.822  30.088  26.565  1.00  0.00    -0.051 A 
ATOM     25  C   UNL A   1      31.796  30.068  25.610  1.00  0.00     0.005 A 
ATOM     26  C   UNL A   1      33.750  29.039  26.593  1.00  0.00     0.005 A 
ATOM     27  C   UNL A   1      31.709  29.027  24.685  1.00  0.00     0.027 A 
ATOM     28  C   UNL A   1      33.661  27.988  25.680  1.00  0.00     0.027 A 
ENDBRANCH  16  22
ENDBRANCH   8  15
ENDBRANCH   6   7
ENDBRANCH   3   6
ENDBRANCH   1   2
BRANCH   1  29
ATOM     29  C   UNL A   1      38.511  21.657  25.557  1.00  0.00     0.042 C 
BRANCH  29  30
ATOM     30  C   UNL A   1      39.721  21.532  26.469  1.00  0.00     0.118 C 
BRANCH  30  31
ATOM     31  N   UNL A   1      40.663  20.488  26.080  1.00  0.00    -0.352 N 
ATOM     32  C   UNL A   1      42.044  20.476  26.183  1.00  0.00     0.251 C 
ATOM     33  H   UNL A   1      40.260  19.679  25.690  1.00  0.00     0.163 HD
ATOM     34  O   UNL A   1      42.681  19.504  25.802  1.00  0.00    -0.269 OA
BRANCH  32  35
ATOM     35  C   UNL A   1      42.732  21.593  26.875  1.00  0.00     0.039 A 
ATOM     36  C   UNL A   1      42.669  21.643  28.271  1.00  0.00     0.014 A 
ATOM     37  C   UNL A   1      43.240  22.672  26.158  1.00  0.00     0.014 A 
ATOM     38  C   UNL A   1      42.871  22.859  28.920  1.00  0.00     0.010 A 
ATOM     39  C   UNL A   1      43.332  23.900  26.782  1.00  0.00     0.010 A 
ATOM     40  C   UNL A   1      43.083  24.004  28.154  1.00  0.00    -0.014 A 
BRANCH  40  41
ATOM     41  C   UNL A   1      42.904  25.354  28.671  1.00  0.00     0.031 A 
ATOM     42  C   UNL A   1      41.695  26.140  28.360  1.00  0.00     0.074 A 
ATOM     43  C   UNL A   1      43.829  25.874  29.508  1.00  0.00     0.049 A 
ATOM     44  N   UNL A   1      41.653  27.430  28.383  1.00  0.00    -0.248 NA
ATOM     45  C   UNL A   1      40.438  25.530  27.946  1.00  0.00     0.031 C 
ATOM     46  C   UNL A   1      43.696  27.049  30.364  1.00  0.00     0.029 A 
ATOM     47  N   UNL A   1      45.175  25.541  29.594  1.00  0.00    -0.354 N 
ATOM     48  C   UNL A   1      40.332  27.798  28.302  1.00  0.00     0.074 A 
ATOM     49  C   UNL A   1      39.627  26.591  27.933  1.00  0.00     0.031 C 
ATOM     50  C   UNL A   1      44.920  27.482  30.704  1.00  0.00     0.029 A 
ATOM     51  C   UNL A   1      45.885  26.694  29.957  1.00  0.00     0.049 A 
ATOM     52  H   UNL A   1      45.563  24.652  29.429  1.00  0.00     0.167 HD
ATOM     53  C   UNL A   1      39.953  29.043  28.707  1.00  0.00     0.031 A 
ATOM     54  C   UNL A   1      46.850  27.214  29.143  1.00  0.00     0.031 A 
ATOM     55  C   UNL A   1      41.091  29.854  29.135  1.00  0.00     0.049 A 
ATOM     56  C   UNL A   1      46.554  28.618  28.662  1.00  0.00     0.074 A 
ATOM     57  C   UNL A   1      41.586  30.196  30.383  1.00  0.00     0.029 A 
ATOM     58  N   UNL A   1      42.068  30.208  28.214  1.00  0.00    -0.354 N 
ATOM     59  N   UNL A   1      45.375  29.172  28.713  1.00  0.00    -0.248 NA
ATOM     60  C   UNL A   1      47.549  29.494  28.048  1.00  0.00     0.031 C 
ATOM     61  C   UNL A   1      42.886  30.736  30.210  1.00  0.00     0.029 A 
ATOM     62  C   UNL A   1      43.170  30.737  28.857  1.00  0.00     0.049 A 
ATOM     63  H   UNL A   1      41.986  30.099  27.238  1.00  0.00     0.167 HD
ATOM     64  C   UNL A   1      45.427  30.429  28.166  1.00  0.00     0.074 A 
ATOM     65  C   UNL A   1      46.815  30.588  27.771  1.00  0.00     0.031 C 
ATOM     66  C   UNL A   1      44.313  31.214  28.087  1.00  0.00     0.031 A 
BRANCH  53  67
ATOM     67  C   UNL A   1      38.520  29.419  28.999  1.00  0.00    -0.014 A 
ATOM     68  C   UNL A   1      37.732  29.994  27.982  1.00  0.00     0.009 A 
ATOM     69  C   UNL A   1      37.900  29.282  30.250  1.00  0.00     0.009 A 
ATOM     70  C   UNL A   1      36.449  30.499  28.230  1.00  0.00     0.001 A 
ATOM     71  C   UNL A   1      36.633  29.821  30.518  1.00  0.00     0.001 A 
ATOM     72  C   UNL A   1      35.912  30.442  29.508  1.00  0.00     0.000 A 
ENDBRANCH  53  67
BRANCH  54  73
ATOM     73  C   UNL A   1      47.580  26.184  28.353  1.00  0.00    -0.014 A 
ATOM     74  C   UNL A   1      47.342  26.117  26.967  1.00  0.00     0.009 A 
ATOM     75  C   UNL A   1      48.732  25.570  28.867  1.00  0.00     0.009 A 
ATOM     76  C   UNL A   1      48.287  25.553  26.104  1.00  0.00     0.001 A 
ATOM     77  C   UNL A   1      49.671  24.997  27.999  1.00  0.00     0.001 A 
ATOM     78  C   UNL A   1      49.465  25.020  26.619  1.00  0.00     0.000 A 
ENDBRANCH  54  73
BRANCH  66  79
ATOM     79  C   UNL A   1      44.159  32.529  27.353  1.00  0.00    -0.014 A 
ATOM     80  C   UNL A   1      44.227  32.689  25.965  1.00  0.00     0.009 A 
ATOM     81  C   UNL A   1      43.807  33.682  28.097  1.00  0.00     0.009 A 
ATOM     82  C   UNL A   1      43.987  33.933  25.359  1.00  0.00     0.001 A 
ATOM     83  C   UNL A   1      43.526  34.911  27.497  1.00  0.00     0.001 A 
ATOM     84  C   UNL A   1      43.625  35.039  26.122  1.00  0.00     0.000 A 
ENDBRANCH  66  79
ENDBRANCH  40  41
ENDBRANCH  32  35
ENDBRANCH  30  31
ENDBRANCH  29  30
ENDBRANCH   1  29
TORSDOF 13
ENDMDL
