MODEL 1
REMARK VINA RESULT:     -10.9      0.000      0.000
REMARK SMILES C[C@H]1CC[C@@]1(C(=O)NCCCNC(=O)c1ccc(-c2c3nc(c(-c4ccccc4)c4ccc([nH]4)c(-c4ccccc4)c4nc(c(-c5ccccc5)c5ccc2[nH]5)C=C4)C=C3)cc1)c1cc(F)cc(F)c1
REMARK SMILES IDX 10 1 9 2 8 3 6 4 7 5 5 7 1 8 2 9 3 10 4 11 63 12 64 13 70 14
REMARK SMILES IDX 65 15 68 16 66 17 67 18 69 19 11 20 12 21 13 22 14 24 15 25
REMARK SMILES IDX 16 26 62 27 17 28 61 29 18 30 19 31 20 32 55 33 21 34 60 35
REMARK SMILES IDX 54 36 56 37 22 38 59 39 53 40 52 41 23 43 45 44 30 45 44 46
REMARK SMILES IDX 31 47 34 48 43 49 57 50 32 51 33 52 42 54 58 55 35 56 24 57
REMARK SMILES IDX 25 58 29 59 26 60 28 61 27 62 46 63 47 64 51 65 48 66 50 67
REMARK SMILES IDX 49 68 36 69 37 70 41 71 38 72 40 73 39 74
REMARK H PARENT 8 6 12 23 56 42 34 53
REMARK Flexibility Score: inf
ROOT
ATOM      1  C   UNL A   1      32.837  28.291  25.889  1.00  0.00     0.042 C 
ENDROOT
BRANCH   1   2
ATOM      2  C   UNL A   1      33.668  27.411  24.962  1.00  0.00     0.117 C 
BRANCH   2   3
ATOM      3  N   UNL A   1      32.896  26.807  23.891  1.00  0.00    -0.355 N 
ATOM      4  C   UNL A   1      32.440  25.517  23.734  1.00  0.00     0.230 C 
ATOM      5  O   UNL A   1      31.828  25.291  22.682  1.00  0.00    -0.274 OA
ATOM      6  H   UNL A   1      32.661  27.420  23.157  1.00  0.00     0.163 HD
BRANCH   4   7
ATOM      7  C   UNL A   1      32.733  24.417  24.867  1.00  0.00     0.077 C 
ATOM      8  C   UNL A   1      32.061  21.834  25.400  1.00  0.00     0.009 C 
ATOM      9  C   UNL A   1      31.679  23.207  24.858  1.00  0.00     0.006 C 
ATOM     10  C   UNL A   1      30.825  24.037  25.841  1.00  0.00     0.006 C 
ATOM     11  C   UNL A   1      32.109  24.761  26.277  1.00  0.00     0.022 C 
BRANCH   7  12
ATOM     12  C   UNL A   1      34.304  23.976  24.757  1.00  0.00    -0.026 A 
ATOM     13  C   UNL A   1      35.209  24.098  25.833  1.00  0.00     0.044 A 
ATOM     14  C   UNL A   1      34.857  23.424  23.575  1.00  0.00     0.044 A 
ATOM     15  C   UNL A   1      36.553  23.726  25.724  1.00  0.00     0.126 A 
ATOM     16  C   UNL A   1      36.208  23.086  23.469  1.00  0.00     0.126 A 
ATOM     17  F   UNL A   1      37.356  23.857  26.787  1.00  0.00    -0.207 F 
ATOM     18  C   UNL A   1      37.068  23.233  24.540  1.00  0.00     0.078 A 
ATOM     19  F   UNL A   1      36.679  22.627  22.302  1.00  0.00    -0.207 F 
ENDBRANCH   7  12
ENDBRANCH   4   7
ENDBRANCH   2   3
ENDBRANCH   1   2
BRANCH   1  20
ATOM     20  C   UNL A   1      33.451  28.549  27.259  1.00  0.00     0.118 C 
BRANCH  20  21
ATOM     21  N   UNL A   1      33.481  29.961  27.609  1.00  0.00    -0.352 N 
ATOM     22  C   UNL A   1      34.464  30.714  28.201  1.00  0.00     0.251 C 
ATOM     23  H   UNL A   1      32.662  30.459  27.382  1.00  0.00     0.163 HD
ATOM     24  O   UNL A   1      34.207  31.863  28.561  1.00  0.00    -0.269 OA
BRANCH  22  25
ATOM     25  C   UNL A   1      35.817  30.163  28.439  1.00  0.00     0.039 A 
ATOM     26  C   UNL A   1      36.738  30.171  27.385  1.00  0.00     0.014 A 
ATOM     27  C   UNL A   1      36.176  29.600  29.666  1.00  0.00     0.014 A 
ATOM     28  C   UNL A   1      38.032  29.679  27.583  1.00  0.00     0.010 A 
ATOM     29  C   UNL A   1      37.487  29.179  29.885  1.00  0.00     0.010 A 
ATOM     30  C   UNL A   1      38.429  29.211  28.845  1.00  0.00    -0.014 A 
BRANCH  30  31
ATOM     31  C   UNL A   1      39.819  28.750  29.093  1.00  0.00     0.031 A 
ATOM     32  C   UNL A   1      40.835  29.683  29.694  1.00  0.00     0.074 A 
ATOM     33  C   UNL A   1      40.188  27.508  28.722  1.00  0.00     0.049 A 
ATOM     34  N   UNL A   1      42.111  29.487  29.911  1.00  0.00    -0.248 NA
ATOM     35  C   UNL A   1      40.358  31.021  30.084  1.00  0.00     0.031 C 
ATOM     36  C   UNL A   1      39.315  26.514  28.096  1.00  0.00     0.029 A 
ATOM     37  N   UNL A   1      41.405  26.876  28.808  1.00  0.00    -0.354 N 
ATOM     38  C   UNL A   1      42.592  30.676  30.445  1.00  0.00     0.074 A 
ATOM     39  C   UNL A   1      41.481  31.603  30.477  1.00  0.00     0.031 C 
ATOM     40  C   UNL A   1      40.018  25.392  27.870  1.00  0.00     0.029 A 
ATOM     41  C   UNL A   1      41.398  25.600  28.298  1.00  0.00     0.049 A 
ATOM     42  H   UNL A   1      42.204  27.297  29.197  1.00  0.00     0.167 HD
ATOM     43  C   UNL A   1      43.838  30.967  30.887  1.00  0.00     0.031 A 
ATOM     44  C   UNL A   1      42.393  24.700  28.178  1.00  0.00     0.031 A 
ATOM     45  C   UNL A   1      44.945  30.048  30.866  1.00  0.00     0.049 A 
ATOM     46  C   UNL A   1      43.769  25.050  28.666  1.00  0.00     0.074 A 
ATOM     47  C   UNL A   1      46.236  30.241  31.327  1.00  0.00     0.029 A 
ATOM     48  N   UNL A   1      44.890  28.760  30.359  1.00  0.00    -0.354 N 
ATOM     49  N   UNL A   1      44.193  26.164  29.213  1.00  0.00    -0.248 NA
ATOM     50  C   UNL A   1      44.802  24.014  28.530  1.00  0.00     0.031 C 
ATOM     51  C   UNL A   1      46.973  29.081  31.065  1.00  0.00     0.029 A 
ATOM     52  C   UNL A   1      46.127  28.150  30.484  1.00  0.00     0.049 A 
ATOM     53  H   UNL A   1      44.089  28.339  29.968  1.00  0.00     0.167 HD
ATOM     54  C   UNL A   1      45.533  25.953  29.508  1.00  0.00     0.074 A 
ATOM     55  C   UNL A   1      45.849  24.601  29.095  1.00  0.00     0.031 C 
ATOM     56  C   UNL A   1      46.425  26.805  30.070  1.00  0.00     0.031 A 
BRANCH  43  57
ATOM     57  C   UNL A   1      44.070  32.347  31.436  1.00  0.00    -0.014 A 
ATOM     58  C   UNL A   1      44.458  33.403  30.596  1.00  0.00     0.009 A 
ATOM     59  C   UNL A   1      43.864  32.603  32.800  1.00  0.00     0.009 A 
ATOM     60  C   UNL A   1      44.669  34.680  31.118  1.00  0.00     0.001 A 
ATOM     61  C   UNL A   1      44.050  33.888  33.314  1.00  0.00     0.001 A 
ATOM     62  C   UNL A   1      44.461  34.923  32.475  1.00  0.00     0.000 A 
ENDBRANCH  43  57
BRANCH  44  63
ATOM     63  C   UNL A   1      42.123  23.372  27.569  1.00  0.00    -0.014 A 
ATOM     64  C   UNL A   1      42.460  23.119  26.230  1.00  0.00     0.009 A 
ATOM     65  C   UNL A   1      41.518  22.353  28.321  1.00  0.00     0.009 A 
ATOM     66  C   UNL A   1      42.170  21.883  25.650  1.00  0.00     0.001 A 
ATOM     67  C   UNL A   1      41.254  21.109  27.745  1.00  0.00     0.001 A 
ATOM     68  C   UNL A   1      41.571  20.879  26.408  1.00  0.00     0.000 A 
ENDBRANCH  44  63
BRANCH  56  69
ATOM     69  C   UNL A   1      47.815  26.286  30.303  1.00  0.00    -0.014 A 
ATOM     70  C   UNL A   1      48.782  26.319  29.287  1.00  0.00     0.009 A 
ATOM     71  C   UNL A   1      48.170  25.794  31.568  1.00  0.00     0.009 A 
ATOM     72  C   UNL A   1      50.071  25.838  29.526  1.00  0.00     0.001 A 
ATOM     73  C   UNL A   1      49.466  25.337  31.811  1.00  0.00     0.001 A 
ATOM     74  C   UNL A   1      50.413  25.351  30.789  1.00  0.00     0.000 A 
ENDBRANCH  56  69
ENDBRANCH  30  31
ENDBRANCH  22  25
ENDBRANCH  20  21
ENDBRANCH   1  20
TORSDOF 11
ENDMDL
MODEL 2
REMARK VINA RESULT:     -10.8      3.677      8.013
REMARK SMILES C[C@H]1CC[C@@]1(C(=O)NCCCNC(=O)c1ccc(-c2c3nc(c(-c4ccccc4)c4ccc([nH]4)c(-c4ccccc4)c4nc(c(-c5ccccc5)c5ccc2[nH]5)C=C4)C=C3)cc1)c1cc(F)cc(F)c1
REMARK SMILES IDX 10 1 9 2 8 3 6 4 7 5 5 7 1 8 2 9 3 10 4 11 63 12 64 13 70 14
REMARK SMILES IDX 65 15 68 16 66 17 67 18 69 19 11 20 12 21 13 22 14 24 15 25
REMARK SMILES IDX 16 26 62 27 17 28 61 29 18 30 19 31 20 32 55 33 21 34 60 35
REMARK SMILES IDX 54 36 56 37 22 38 59 39 53 40 52 41 23 43 45 44 30 45 44 46
REMARK SMILES IDX 31 47 34 48 43 49 57 50 32 51 33 52 42 54 58 55 35 56 24 57
REMARK SMILES IDX 25 58 29 59 26 60 28 61 27 62 46 63 47 64 51 65 48 66 50 67
REMARK SMILES IDX 49 68 36 69 37 70 41 71 38 72 40 73 39 74
REMARK H PARENT 8 6 12 23 56 42 34 53
REMARK Flexibility Score: inf
ROOT
ATOM      1  C   UNL A   1      31.340  31.584  26.525  1.00  0.00     0.042 C 
ENDROOT
BRANCH   1   2
ATOM      2  C   UNL A   1      31.547  30.551  25.423  1.00  0.00     0.117 C 
BRANCH   2   3
ATOM      3  N   UNL A   1      31.528  29.181  25.901  1.00  0.00    -0.355 N 
ATOM      4  C   UNL A   1      31.524  27.991  25.208  1.00  0.00     0.230 C 
ATOM      5  O   UNL A   1      31.471  26.968  25.903  1.00  0.00    -0.274 OA
ATOM      6  H   UNL A   1      31.515  29.088  26.881  1.00  0.00     0.163 HD
BRANCH   4   7
ATOM      7  C   UNL A   1      31.566  27.996  23.603  1.00  0.00     0.077 C 
ATOM      8  C   UNL A   1      31.521  26.182  21.573  1.00  0.00     0.009 C 
ATOM      9  C   UNL A   1      31.966  26.571  22.978  1.00  0.00     0.006 C 
ATOM     10  C   UNL A   1      33.438  27.033  23.049  1.00  0.00     0.006 C 
ATOM     11  C   UNL A   1      32.940  28.487  22.994  1.00  0.00     0.022 C 
BRANCH   7  12
ATOM     12  C   UNL A   1      30.161  28.628  23.056  1.00  0.00    -0.026 A 
ATOM     13  C   UNL A   1      30.111  29.692  22.131  1.00  0.00     0.044 A 
ATOM     14  C   UNL A   1      28.897  28.136  23.465  1.00  0.00     0.044 A 
ATOM     15  C   UNL A   1      28.902  30.231  21.678  1.00  0.00     0.126 A 
ATOM     16  C   UNL A   1      27.697  28.704  23.030  1.00  0.00     0.126 A 
ATOM     17  F   UNL A   1      28.925  31.233  20.789  1.00  0.00    -0.207 F 
ATOM     18  C   UNL A   1      27.687  29.755  22.134  1.00  0.00     0.078 A 
ATOM     19  F   UNL A   1      26.537  28.230  23.504  1.00  0.00    -0.207 F 
ENDBRANCH   7  12
ENDBRANCH   4   7
ENDBRANCH   2   3
ENDBRANCH   1   2
BRANCH   1  20
ATOM     20  C   UNL A   1      32.617  32.196  27.088  1.00  0.00     0.118 C 
BRANCH  20  21
ATOM     21  N   UNL A   1      32.431  33.560  27.560  1.00  0.00    -0.352 N 
ATOM     22  C   UNL A   1      33.167  34.307  28.445  1.00  0.00     0.251 C 
ATOM     23  H   UNL A   1      31.649  34.023  27.181  1.00  0.00     0.163 HD
ATOM     24  O   UNL A   1      32.724  35.389  28.831  1.00  0.00    -0.269 OA
BRANCH  22  25
ATOM     25  C   UNL A   1      34.466  33.826  28.964  1.00  0.00     0.039 A 
ATOM     26  C   UNL A   1      34.471  33.001  30.094  1.00  0.00     0.014 A 
ATOM     27  C   UNL A   1      35.678  34.212  28.385  1.00  0.00     0.014 A 
ATOM     28  C   UNL A   1      35.680  32.511  30.598  1.00  0.00     0.010 A 
ATOM     29  C   UNL A   1      36.876  33.664  28.841  1.00  0.00     0.010 A 
ATOM     30  C   UNL A   1      36.891  32.809  29.954  1.00  0.00    -0.014 A 
BRANCH  30  31
ATOM     31  C   UNL A   1      38.178  32.242  30.431  1.00  0.00     0.031 A 
ATOM     32  C   UNL A   1      38.697  30.948  29.864  1.00  0.00     0.074 A 
ATOM     33  C   UNL A   1      38.854  32.857  31.422  1.00  0.00     0.049 A 
ATOM     34  N   UNL A   1      39.755  30.260  30.210  1.00  0.00    -0.248 NA
ATOM     35  C   UNL A   1      37.911  30.337  28.779  1.00  0.00     0.031 C 
ATOM     36  C   UNL A   1      38.446  34.096  32.086  1.00  0.00     0.029 A 
ATOM     37  N   UNL A   1      40.025  32.512  32.051  1.00  0.00    -0.354 N 
ATOM     38  C   UNL A   1      39.754  29.131  29.400  1.00  0.00     0.074 A 
ATOM     39  C   UNL A   1      38.566  29.204  28.577  1.00  0.00     0.031 C 
ATOM     40  C   UNL A   1      39.360  34.416  33.017  1.00  0.00     0.029 A 
ATOM     41  C   UNL A   1      40.395  33.388  33.042  1.00  0.00     0.049 A 
ATOM     42  H   UNL A   1      40.549  31.713  31.814  1.00  0.00     0.167 HD
ATOM     43  C   UNL A   1      40.667  28.133  29.330  1.00  0.00     0.031 A 
ATOM     44  C   UNL A   1      41.445  33.363  33.885  1.00  0.00     0.031 A 
ATOM     45  C   UNL A   1      41.854  28.059  30.139  1.00  0.00     0.049 A 
ATOM     46  C   UNL A   1      42.439  32.240  33.796  1.00  0.00     0.074 A 
ATOM     47  C   UNL A   1      42.858  27.105  30.113  1.00  0.00     0.029 A 
ATOM     48  N   UNL A   1      42.202  28.977  31.116  1.00  0.00    -0.354 N 
ATOM     49  N   UNL A   1      42.446  31.206  32.990  1.00  0.00    -0.248 NA
ATOM     50  C   UNL A   1      43.575  32.287  34.727  1.00  0.00     0.031 C 
ATOM     51  C   UNL A   1      43.794  27.426  31.102  1.00  0.00     0.029 A 
ATOM     52  C   UNL A   1      43.396  28.606  31.710  1.00  0.00     0.049 A 
ATOM     53  H   UNL A   1      41.677  29.776  31.354  1.00  0.00     0.167 HD
ATOM     54  C   UNL A   1      43.597  30.495  33.299  1.00  0.00     0.074 A 
ATOM     55  C   UNL A   1      44.272  31.222  34.355  1.00  0.00     0.031 C 
ATOM     56  C   UNL A   1      44.055  29.340  32.757  1.00  0.00     0.031 A 
BRANCH  43  57
ATOM     57  C   UNL A   1      40.412  27.034  28.337  1.00  0.00    -0.014 A 
ATOM     58  C   UNL A   1      40.958  27.088  27.045  1.00  0.00     0.009 A 
ATOM     59  C   UNL A   1      39.649  25.917  28.707  1.00  0.00     0.009 A 
ATOM     60  C   UNL A   1      40.714  26.061  26.131  1.00  0.00     0.001 A 
ATOM     61  C   UNL A   1      39.429  24.878  27.800  1.00  0.00     0.001 A 
ATOM     62  C   UNL A   1      39.954  24.955  26.511  1.00  0.00     0.000 A 
ENDBRANCH  43  57
BRANCH  44  63
ATOM     63  C   UNL A   1      41.615  34.442  34.892  1.00  0.00    -0.014 A 
ATOM     64  C   UNL A   1      41.048  34.322  36.170  1.00  0.00     0.009 A 
ATOM     65  C   UNL A   1      42.337  35.604  34.576  1.00  0.00     0.009 A 
ATOM     66  C   UNL A   1      41.177  35.354  37.101  1.00  0.00     0.001 A 
ATOM     67  C   UNL A   1      42.486  36.623  35.518  1.00  0.00     0.001 A 
ATOM     68  C   UNL A   1      41.898  36.502  36.776  1.00  0.00     0.000 A 
ENDBRANCH  44  63
BRANCH  56  69
ATOM     69  C   UNL A   1      45.363  28.812  33.273  1.00  0.00    -0.014 A 
ATOM     70  C   UNL A   1      45.409  27.902  34.341  1.00  0.00     0.009 A 
ATOM     71  C   UNL A   1      46.561  29.203  32.657  1.00  0.00     0.009 A 
ATOM     72  C   UNL A   1      46.636  27.419  34.801  1.00  0.00     0.001 A 
ATOM     73  C   UNL A   1      47.784  28.698  33.103  1.00  0.00     0.001 A 
ATOM     74  C   UNL A   1      47.821  27.814  34.180  1.00  0.00     0.000 A 
ENDBRANCH  56  69
ENDBRANCH  30  31
ENDBRANCH  22  25
ENDBRANCH  20  21
ENDBRANCH   1  20
TORSDOF 11
ENDMDL
MODEL 3
REMARK VINA RESULT:     -10.8      2.789      7.402
REMARK SMILES C[C@H]1CC[C@@]1(C(=O)NCCCNC(=O)c1ccc(-c2c3nc(c(-c4ccccc4)c4ccc([nH]4)c(-c4ccccc4)c4nc(c(-c5ccccc5)c5ccc2[nH]5)C=C4)C=C3)cc1)c1cc(F)cc(F)c1
REMARK SMILES IDX 10 1 9 2 8 3 6 4 7 5 5 7 1 8 2 9 3 10 4 11 63 12 64 13 70 14
REMARK SMILES IDX 65 15 68 16 66 17 67 18 69 19 11 20 12 21 13 22 14 24 15 25
REMARK SMILES IDX 16 26 62 27 17 28 61 29 18 30 19 31 20 32 55 33 21 34 60 35
REMARK SMILES IDX 54 36 56 37 22 38 59 39 53 40 52 41 23 43 45 44 30 45 44 46
REMARK SMILES IDX 31 47 34 48 43 49 57 50 32 51 33 52 42 54 58 55 35 56 24 57
REMARK SMILES IDX 25 58 29 59 26 60 28 61 27 62 46 63 47 64 51 65 48 66 50 67
REMARK SMILES IDX 49 68 36 69 37 70 41 71 38 72 40 73 39 74
REMARK H PARENT 8 6 12 23 56 42 34 53
REMARK Flexibility Score: inf
ROOT
ATOM      1  C   UNL A   1      37.766  19.970  24.705  1.00  0.00     0.042 C 
ENDROOT
BRANCH   1   2
ATOM      2  C   UNL A   1      36.336  20.362  25.058  1.00  0.00     0.117 C 
BRANCH   2   3
ATOM      3  N   UNL A   1      35.881  21.564  24.383  1.00  0.00    -0.355 N 
ATOM      4  C   UNL A   1      34.673  22.224  24.448  1.00  0.00     0.230 C 
ATOM      5  O   UNL A   1      34.569  23.219  23.719  1.00  0.00    -0.274 OA
ATOM      6  H   UNL A   1      36.543  21.973  23.782  1.00  0.00     0.163 HD
BRANCH   4   7
ATOM      7  C   UNL A   1      33.508  21.677  25.408  1.00  0.00     0.077 C 
ATOM      8  C   UNL A   1      30.905  22.252  25.960  1.00  0.00     0.009 C 
ATOM      9  C   UNL A   1      32.310  22.727  25.607  1.00  0.00     0.006 C 
ATOM     10  C   UNL A   1      33.092  23.280  26.819  1.00  0.00     0.006 C 
ATOM     11  C   UNL A   1      33.777  21.910  26.947  1.00  0.00     0.022 C 
BRANCH   7  12
ATOM     12  C   UNL A   1      33.059  20.198  24.875  1.00  0.00    -0.026 A 
ATOM     13  C   UNL A   1      32.964  19.076  25.725  1.00  0.00     0.044 A 
ATOM     14  C   UNL A   1      32.717  19.949  23.523  1.00  0.00     0.044 A 
ATOM     15  C   UNL A   1      32.587  17.813  25.256  1.00  0.00     0.126 A 
ATOM     16  C   UNL A   1      32.374  18.677  23.060  1.00  0.00     0.126 A 
ATOM     17  F   UNL A   1      32.505  16.792  26.119  1.00  0.00    -0.207 F 
ATOM     18  C   UNL A   1      32.305  17.598  23.920  1.00  0.00     0.078 A 
ATOM     19  F   UNL A   1      32.123  18.498  21.756  1.00  0.00    -0.207 F 
ENDBRANCH   7  12
ENDBRANCH   4   7
ENDBRANCH   2   3
ENDBRANCH   1   2
BRANCH   1  20
ATOM     20  C   UNL A   1      38.815  20.337  25.747  1.00  0.00     0.118 C 
BRANCH  20  21
ATOM     21  N   UNL A   1      39.936  19.410  25.773  1.00  0.00    -0.352 N 
ATOM     22  C   UNL A   1      41.261  19.619  26.065  1.00  0.00     0.251 C 
ATOM     23  H   UNL A   1      39.707  18.480  25.544  1.00  0.00     0.163 HD
ATOM     24  O   UNL A   1      42.072  18.716  25.855  1.00  0.00    -0.269 OA
BRANCH  22  25
ATOM     25  C   UNL A   1      41.737  20.914  26.600  1.00  0.00     0.039 A 
ATOM     26  C   UNL A   1      42.184  21.886  25.699  1.00  0.00     0.014 A 
ATOM     27  C   UNL A   1      41.793  21.166  27.973  1.00  0.00     0.014 A 
ATOM     28  C   UNL A   1      42.620  23.129  26.169  1.00  0.00     0.010 A 
ATOM     29  C   UNL A   1      42.156  22.430  28.437  1.00  0.00     0.010 A 
ATOM     30  C   UNL A   1      42.576  23.424  27.541  1.00  0.00    -0.014 A 
BRANCH  30  31
ATOM     31  C   UNL A   1      42.968  24.762  28.054  1.00  0.00     0.031 A 
ATOM     32  C   UNL A   1      41.925  25.818  28.303  1.00  0.00     0.074 A 
ATOM     33  C   UNL A   1      44.271  25.052  28.239  1.00  0.00     0.049 A 
ATOM     34  N   UNL A   1      42.082  27.064  28.673  1.00  0.00    -0.248 NA
ATOM     35  C   UNL A   1      40.522  25.427  28.088  1.00  0.00     0.031 C 
ATOM     36  C   UNL A   1      45.387  24.135  28.001  1.00  0.00     0.029 A 
ATOM     37  N   UNL A   1      44.876  26.212  28.659  1.00  0.00    -0.354 N 
ATOM     38  C   UNL A   1      40.805  27.609  28.719  1.00  0.00     0.074 A 
ATOM     39  C   UNL A   1      39.888  26.572  28.296  1.00  0.00     0.031 C 
ATOM     40  C   UNL A   1      46.539  24.761  28.296  1.00  0.00     0.029 A 
ATOM     41  C   UNL A   1      46.247  26.131  28.704  1.00  0.00     0.049 A 
ATOM     42  H   UNL A   1      44.375  27.023  28.904  1.00  0.00     0.167 HD
ATOM     43  C   UNL A   1      40.424  28.852  29.097  1.00  0.00     0.031 A 
ATOM     44  C   UNL A   1      47.168  27.059  29.027  1.00  0.00     0.031 A 
ATOM     45  C   UNL A   1      41.328  29.885  29.526  1.00  0.00     0.049 A 
ATOM     46  C   UNL A   1      46.721  28.434  29.434  1.00  0.00     0.074 A 
ATOM     47  C   UNL A   1      41.032  31.165  29.965  1.00  0.00     0.029 A 
ATOM     48  N   UNL A   1      42.707  29.755  29.576  1.00  0.00    -0.354 N 
ATOM     49  N   UNL A   1      45.505  28.916  29.518  1.00  0.00    -0.248 NA
ATOM     50  C   UNL A   1      47.776  29.390  29.800  1.00  0.00     0.031 C 
ATOM     51  C   UNL A   1      42.235  31.822  30.244  1.00  0.00     0.029 A 
ATOM     52  C   UNL A   1      43.277  30.935  30.024  1.00  0.00     0.049 A 
ATOM     53  H   UNL A   1      43.208  28.944  29.329  1.00  0.00     0.167 HD
ATOM     54  C   UNL A   1      45.647  30.221  29.969  1.00  0.00     0.074 A 
ATOM     55  C   UNL A   1      47.065  30.451  30.157  1.00  0.00     0.031 C 
ATOM     56  C   UNL A   1      44.687  31.148  30.207  1.00  0.00     0.031 A 
BRANCH  43  57
ATOM     57  C   UNL A   1      38.954  29.163  29.062  1.00  0.00    -0.014 A 
ATOM     58  C   UNL A   1      38.159  29.022  30.211  1.00  0.00     0.009 A 
ATOM     59  C   UNL A   1      38.364  29.634  27.880  1.00  0.00     0.009 A 
ATOM     60  C   UNL A   1      36.794  29.314  30.166  1.00  0.00     0.001 A 
ATOM     61  C   UNL A   1      37.004  29.951  27.845  1.00  0.00     0.001 A 
ATOM     62  C   UNL A   1      36.219  29.782  28.985  1.00  0.00     0.000 A 
ENDBRANCH  43  57
BRANCH  44  63
ATOM     63  C   UNL A   1      48.613  26.717  28.984  1.00  0.00    -0.014 A 
ATOM     64  C   UNL A   1      49.251  26.173  30.109  1.00  0.00     0.009 A 
ATOM     65  C   UNL A   1      49.364  26.942  27.820  1.00  0.00     0.009 A 
ATOM     66  C   UNL A   1      50.617  25.888  30.079  1.00  0.00     0.001 A 
ATOM     67  C   UNL A   1      50.725  26.632  27.784  1.00  0.00     0.001 A 
ATOM     68  C   UNL A   1      51.352  26.115  28.916  1.00  0.00     0.000 A 
ENDBRANCH  44  63
BRANCH  56  69
ATOM     69  C   UNL A   1      45.138  32.483  30.729  1.00  0.00    -0.014 A 
ATOM     70  C   UNL A   1      45.264  32.720  32.106  1.00  0.00     0.009 A 
ATOM     71  C   UNL A   1      45.475  33.503  29.827  1.00  0.00     0.009 A 
ATOM     72  C   UNL A   1      45.690  33.966  32.569  1.00  0.00     0.001 A 
ATOM     73  C   UNL A   1      45.925  34.740  30.292  1.00  0.00     0.001 A 
ATOM     74  C   UNL A   1      46.024  34.973  31.663  1.00  0.00     0.000 A 
ENDBRANCH  56  69
ENDBRANCH  30  31
ENDBRANCH  22  25
ENDBRANCH  20  21
ENDBRANCH   1  20
TORSDOF 11
ENDMDL
