MODEL 1
REMARK VINA RESULT:     -13.1      0.000      0.000
REMARK SMILES Cc1ccc(S(=O)(=O)n2cc(C(=O)C(=O)NCC(=O)NCCCNC(=O)c3ccc(-c4c5nc(c(-c6ccccc6)c6ccc([nH]6)c(-c6ccccc6)c6nc(c(-c7ccccc7)c7ccc4[nH]7)C=C6)C=C5)cc3)c3ccccc32)cc1
REMARK SMILES IDX 18 1 19 2 20 3 17 5 16 6 14 7 15 8 12 10 13 11 11 12 9 13
REMARK SMILES IDX 10 14 80 15 75 16 79 17 76 18 78 19 77 20 6 21 7 22 8 23
REMARK SMILES IDX 5 24 1 25 2 26 3 27 82 28 4 29 81 30 21 31 22 32 23 33 24 34
REMARK SMILES IDX 25 35 26 37 27 38 28 39 74 40 29 41 73 42 30 43 31 44 32 45
REMARK SMILES IDX 67 46 33 47 72 48 66 49 68 50 34 51 71 52 65 53 64 54 35 56
REMARK SMILES IDX 57 57 42 58 56 59 43 60 46 61 55 62 69 63 44 64 45 65 54 67
REMARK SMILES IDX 70 68 47 69 36 70 37 71 41 72 38 73 40 74 39 75 58 76 59 77
REMARK SMILES IDX 63 78 60 79 62 80 61 81 48 82 49 83 53 84 50 85 52 86 51 87
REMARK H PARENT 20 4 16 9 24 36 68 55 46 66
REMARK Flexibility Score: inf
ROOT
ATOM      1  C   UNL A   1      35.520  22.254  25.792  1.00  0.00     0.239 C 
ATOM      2  O   UNL A   1      34.582  22.871  26.303  1.00  0.00    -0.273 OA
ATOM      3  N   UNL A   1      36.795  22.585  26.160  1.00  0.00    -0.355 N 
ATOM      4  H   UNL A   1      36.876  23.331  26.798  1.00  0.00     0.163 HD
ENDROOT
BRANCH   1   5
ATOM      5  C   UNL A   1      35.278  21.102  24.810  1.00  0.00     0.216 C 
BRANCH   5   6
ATOM      6  N   UNL A   1      34.231  20.191  25.261  1.00  0.00    -0.340 N 
ATOM      7  C   UNL A   1      32.959  19.952  24.787  1.00  0.00     0.292 C 
ATOM      8  O   UNL A   1      32.268  19.123  25.370  1.00  0.00    -0.265 OA
ATOM      9  H   UNL A   1      34.477  19.650  26.046  1.00  0.00     0.164 HD
BRANCH   7  10
ATOM     10  C   UNL A   1      32.390  20.731  23.572  1.00  0.00     0.252 C 
ATOM     11  O   UNL A   1      32.178  20.109  22.536  1.00  0.00    -0.283 OA
BRANCH  10  12
ATOM     12  C   UNL A   1      32.119  22.177  23.629  1.00  0.00     0.054 A 
ATOM     13  N   UNL A   1      32.124  24.373  23.203  1.00  0.00    -0.240 N 
ATOM     14  C   UNL A   1      32.532  23.150  22.733  1.00  0.00     0.117 A 
ATOM     15  C   UNL A   1      31.414  24.247  24.377  1.00  0.00     0.065 A 
ATOM     16  C   UNL A   1      31.398  22.874  24.668  1.00  0.00     0.012 A 
ATOM     17  C   UNL A   1      30.820  25.195  25.231  1.00  0.00     0.028 A 
ATOM     18  C   UNL A   1      30.743  22.450  25.847  1.00  0.00     0.011 A 
ATOM     19  C   UNL A   1      30.206  24.743  26.401  1.00  0.00     0.002 A 
ATOM     20  C   UNL A   1      30.160  23.389  26.703  1.00  0.00     0.001 A 
BRANCH  13  21
ATOM     21  S   UNL A   1      32.557  25.856  22.481  1.00  0.00     0.268 S 
ATOM     22  O   UNL A   1      31.414  26.240  21.684  1.00  0.00    -0.201 OA
ATOM     23  O   UNL A   1      33.870  25.635  21.891  1.00  0.00    -0.201 OA
BRANCH  21  24
ATOM     24  C   UNL A   1      32.757  27.061  23.768  1.00  0.00     0.088 A 
ATOM     25  C   UNL A   1      32.872  29.965  26.941  1.00  0.00     0.044 C 
ATOM     26  C   UNL A   1      32.849  28.961  25.826  1.00  0.00    -0.051 A 
ATOM     27  C   UNL A   1      31.880  29.057  24.820  1.00  0.00     0.005 A 
ATOM     28  C   UNL A   1      33.788  27.923  25.774  1.00  0.00     0.005 A 
ATOM     29  C   UNL A   1      31.829  28.109  23.797  1.00  0.00     0.022 A 
ATOM     30  C   UNL A   1      33.754  26.980  24.742  1.00  0.00     0.022 A 
ENDBRANCH  21  24
ENDBRANCH  13  21
ENDBRANCH  10  12
ENDBRANCH   7  10
ENDBRANCH   5   6
ENDBRANCH   1   5
BRANCH   3  31
ATOM     31  C   UNL A   1      38.042  21.981  25.732  1.00  0.00     0.117 C 
BRANCH  31  32
ATOM     32  C   UNL A   1      39.246  22.758  26.244  1.00  0.00     0.042 C 
BRANCH  32  33
ATOM     33  C   UNL A   1      40.176  21.905  27.087  1.00  0.00     0.118 C 
BRANCH  33  34
ATOM     34  N   UNL A   1      41.033  21.026  26.291  1.00  0.00    -0.352 N 
ATOM     35  C   UNL A   1      42.407  21.003  26.126  1.00  0.00     0.251 C 
ATOM     36  H   UNL A   1      40.550  20.331  25.787  1.00  0.00     0.163 HD
ATOM     37  O   UNL A   1      42.915  20.158  25.396  1.00  0.00    -0.269 OA
BRANCH  35  38
ATOM     38  C   UNL A   1      43.273  21.852  26.979  1.00  0.00     0.039 A 
ATOM     39  C   UNL A   1      42.967  21.848  28.347  1.00  0.00     0.014 A 
ATOM     40  C   UNL A   1      43.969  22.909  26.417  1.00  0.00     0.014 A 
ATOM     41  C   UNL A   1      43.003  23.046  29.038  1.00  0.00     0.010 A 
ATOM     42  C   UNL A   1      43.839  24.127  27.026  1.00  0.00     0.010 A 
ATOM     43  C   UNL A   1      43.283  24.190  28.306  1.00  0.00    -0.014 A 
BRANCH  43  44
ATOM     44  C   UNL A   1      43.126  25.531  28.808  1.00  0.00     0.031 A 
ATOM     45  C   UNL A   1      41.955  26.264  28.326  1.00  0.00     0.074 A 
ATOM     46  C   UNL A   1      43.946  25.966  29.788  1.00  0.00     0.049 A 
ATOM     47  N   UNL A   1      41.851  27.539  28.361  1.00  0.00    -0.248 NA
ATOM     48  C   UNL A   1      40.820  25.610  27.669  1.00  0.00     0.031 C 
ATOM     49  C   UNL A   1      43.784  27.113  30.672  1.00  0.00     0.029 A 
ATOM     50  N   UNL A   1      45.245  25.525  30.037  1.00  0.00    -0.354 N 
ATOM     51  C   UNL A   1      40.531  27.824  28.115  1.00  0.00     0.074 A 
ATOM     52  C   UNL A   1      39.986  26.639  27.508  1.00  0.00     0.031 C 
ATOM     53  C   UNL A   1      44.990  27.454  31.165  1.00  0.00     0.029 A 
ATOM     54  C   UNL A   1      45.981  26.648  30.470  1.00  0.00     0.049 A 
ATOM     55  H   UNL A   1      45.583  24.606  29.932  1.00  0.00     0.167 HD
ATOM     56  C   UNL A   1      40.024  28.967  28.645  1.00  0.00     0.031 A 
ATOM     57  C   UNL A   1      46.977  27.147  29.673  1.00  0.00     0.031 A 
ATOM     58  C   UNL A   1      41.089  29.773  29.244  1.00  0.00     0.049 A 
ATOM     59  C   UNL A   1      46.665  28.531  29.126  1.00  0.00     0.074 A 
ATOM     60  C   UNL A   1      41.484  30.029  30.546  1.00  0.00     0.029 A 
ATOM     61  N   UNL A   1      42.157  30.140  28.441  1.00  0.00    -0.354 N 
ATOM     62  N   UNL A   1      45.485  29.088  29.174  1.00  0.00    -0.248 NA
ATOM     63  C   UNL A   1      47.639  29.377  28.441  1.00  0.00     0.031 C 
ATOM     64  C   UNL A   1      42.817  30.541  30.505  1.00  0.00     0.029 A 
ATOM     65  C   UNL A   1      43.208  30.635  29.182  1.00  0.00     0.049 A 
ATOM     66  H   UNL A   1      42.164  30.059  27.459  1.00  0.00     0.167 HD
ATOM     67  C   UNL A   1      45.511  30.313  28.560  1.00  0.00     0.074 A 
ATOM     68  C   UNL A   1      46.881  30.433  28.087  1.00  0.00     0.031 C 
ATOM     69  C   UNL A   1      44.396  31.105  28.478  1.00  0.00     0.031 A 
BRANCH  56  70
ATOM     70  C   UNL A   1      38.558  29.254  28.835  1.00  0.00    -0.014 A 
ATOM     71  C   UNL A   1      37.811  29.697  27.730  1.00  0.00     0.009 A 
ATOM     72  C   UNL A   1      37.868  29.201  30.060  1.00  0.00     0.009 A 
ATOM     73  C   UNL A   1      36.472  30.089  27.847  1.00  0.00     0.001 A 
ATOM     74  C   UNL A   1      36.525  29.577  30.183  1.00  0.00     0.001 A 
ATOM     75  C   UNL A   1      35.827  30.030  29.075  1.00  0.00     0.000 A 
ENDBRANCH  56  70
BRANCH  57  76
ATOM     76  C   UNL A   1      47.693  26.052  28.938  1.00  0.00    -0.014 A 
ATOM     77  C   UNL A   1      47.357  25.858  27.578  1.00  0.00     0.009 A 
ATOM     78  C   UNL A   1      48.944  25.602  29.382  1.00  0.00     0.009 A 
ATOM     79  C   UNL A   1      48.317  25.423  26.657  1.00  0.00     0.001 A 
ATOM     80  C   UNL A   1      49.890  25.132  28.458  1.00  0.00     0.001 A 
ATOM     81  C   UNL A   1      49.598  25.103  27.093  1.00  0.00     0.000 A 
ENDBRANCH  57  76
BRANCH  69  82
ATOM     82  C   UNL A   1      44.274  32.397  27.696  1.00  0.00    -0.014 A 
ATOM     83  C   UNL A   1      44.007  33.644  28.265  1.00  0.00     0.009 A 
ATOM     84  C   UNL A   1      44.364  32.367  26.282  1.00  0.00     0.009 A 
ATOM     85  C   UNL A   1      43.929  34.802  27.475  1.00  0.00     0.001 A 
ATOM     86  C   UNL A   1      44.270  33.509  25.488  1.00  0.00     0.001 A 
ATOM     87  C   UNL A   1      44.071  34.736  26.090  1.00  0.00     0.000 A 
ENDBRANCH  69  82
ENDBRANCH  43  44
ENDBRANCH  35  38
ENDBRANCH  33  34
ENDBRANCH  32  33
ENDBRANCH  31  32
ENDBRANCH   3  31
TORSDOF 15
ENDMDL
MODEL 2
REMARK VINA RESULT:     -12.8      1.872      3.544
REMARK SMILES Cc1ccc(S(=O)(=O)n2cc(C(=O)C(=O)NCC(=O)NCCCNC(=O)c3ccc(-c4c5nc(c(-c6ccccc6)c6ccc([nH]6)c(-c6ccccc6)c6nc(c(-c7ccccc7)c7ccc4[nH]7)C=C6)C=C5)cc3)c3ccccc32)cc1
REMARK SMILES IDX 18 1 19 2 20 3 17 5 16 6 14 7 15 8 12 10 13 11 11 12 9 13
REMARK SMILES IDX 10 14 80 15 75 16 79 17 76 18 78 19 77 20 6 21 7 22 8 23
REMARK SMILES IDX 5 24 1 25 2 26 3 27 82 28 4 29 81 30 21 31 22 32 23 33 24 34
REMARK SMILES IDX 25 35 26 37 27 38 28 39 74 40 29 41 73 42 30 43 31 44 32 45
REMARK SMILES IDX 67 46 33 47 72 48 66 49 68 50 34 51 71 52 65 53 64 54 35 56
REMARK SMILES IDX 57 57 42 58 56 59 43 60 46 61 55 62 69 63 44 64 45 65 54 67
REMARK SMILES IDX 70 68 47 69 36 70 37 71 41 72 38 73 40 74 39 75 58 76 59 77
REMARK SMILES IDX 63 78 60 79 62 80 61 81 48 82 49 83 53 84 50 85 52 86 51 87
REMARK H PARENT 20 4 16 9 24 36 68 55 46 66
REMARK Flexibility Score: inf
ROOT
ATOM      1  C   UNL A   1      40.997  20.411  27.275  1.00  0.00     0.239 C 
ATOM      2  O   UNL A   1      40.792  21.065  28.299  1.00  0.00    -0.273 OA
ATOM      3  N   UNL A   1      41.902  19.387  27.325  1.00  0.00    -0.355 N 
ATOM      4  H   UNL A   1      42.359  19.263  28.189  1.00  0.00     0.163 HD
ENDROOT
BRANCH   1   5
ATOM      5  C   UNL A   1      40.222  20.687  25.981  1.00  0.00     0.216 C 
BRANCH   5   6
ATOM      6  N   UNL A   1      39.279  21.792  26.118  1.00  0.00    -0.340 N 
ATOM      7  C   UNL A   1      37.953  21.914  25.760  1.00  0.00     0.292 C 
ATOM      8  O   UNL A   1      37.387  22.979  25.984  1.00  0.00    -0.265 OA
ATOM      9  H   UNL A   1      39.658  22.596  26.542  1.00  0.00     0.164 HD
BRANCH   7  10
ATOM     10  C   UNL A   1      37.197  20.758  25.056  1.00  0.00     0.252 C 
ATOM     11  O   UNL A   1      37.849  19.794  24.666  1.00  0.00    -0.283 OA
BRANCH  10  12
ATOM     12  C   UNL A   1      35.741  20.797  24.834  1.00  0.00     0.054 A 
ATOM     13  N   UNL A   1      33.625  21.495  24.635  1.00  0.00    -0.240 N 
ATOM     14  C   UNL A   1      34.923  21.913  24.793  1.00  0.00     0.117 A 
ATOM     15  C   UNL A   1      33.552  20.123  24.533  1.00  0.00     0.065 A 
ATOM     16  C   UNL A   1      34.870  19.659  24.657  1.00  0.00     0.012 A 
ATOM     17  C   UNL A   1      32.464  19.241  24.386  1.00  0.00     0.028 A 
ATOM     18  C   UNL A   1      35.094  18.264  24.608  1.00  0.00     0.011 A 
ATOM     19  C   UNL A   1      32.719  17.869  24.369  1.00  0.00     0.002 A 
ATOM     20  C   UNL A   1      34.016  17.384  24.471  1.00  0.00     0.001 A 
BRANCH  13  21
ATOM     21  S   UNL A   1      32.281  22.541  24.688  1.00  0.00     0.268 S 
ATOM     22  O   UNL A   1      31.612  22.240  25.935  1.00  0.00    -0.201 OA
ATOM     23  O   UNL A   1      31.616  22.390  23.402  1.00  0.00    -0.201 OA
BRANCH  21  24
ATOM     24  C   UNL A   1      32.880  24.208  24.778  1.00  0.00     0.088 A 
ATOM     25  C   UNL A   1      34.082  28.340  24.728  1.00  0.00     0.044 C 
ATOM     26  C   UNL A   1      33.682  26.894  24.753  1.00  0.00    -0.051 A 
ATOM     27  C   UNL A   1      33.501  26.200  23.550  1.00  0.00     0.005 A 
ATOM     28  C   UNL A   1      33.487  26.222  25.965  1.00  0.00     0.005 A 
ATOM     29  C   UNL A   1      33.096  24.865  23.560  1.00  0.00     0.022 A 
ATOM     30  C   UNL A   1      33.099  24.878  25.983  1.00  0.00     0.022 A 
ENDBRANCH  21  24
ENDBRANCH  13  21
ENDBRANCH  10  12
ENDBRANCH   7  10
ENDBRANCH   5   6
ENDBRANCH   1   5
BRANCH   3  31
ATOM     31  C   UNL A   1      42.277  18.462  26.274  1.00  0.00     0.117 C 
BRANCH  31  32
ATOM     32  C   UNL A   1      43.772  18.507  25.993  1.00  0.00     0.042 C 
BRANCH  32  33
ATOM     33  C   UNL A   1      44.102  19.233  24.701  1.00  0.00     0.118 C 
BRANCH  33  34
ATOM     34  N   UNL A   1      45.325  20.032  24.784  1.00  0.00    -0.352 N 
ATOM     35  C   UNL A   1      45.511  21.395  24.941  1.00  0.00     0.251 C 
ATOM     36  H   UNL A   1      46.158  19.511  24.716  1.00  0.00     0.163 HD
ATOM     37  O   UNL A   1      46.650  21.849  24.985  1.00  0.00    -0.269 OA
BRANCH  35  38
ATOM     38  C   UNL A   1      44.359  22.271  25.262  1.00  0.00     0.039 A 
ATOM     39  C   UNL A   1      44.214  23.404  24.450  1.00  0.00     0.014 A 
ATOM     40  C   UNL A   1      43.801  22.237  26.530  1.00  0.00     0.014 A 
ATOM     41  C   UNL A   1      43.873  24.606  25.044  1.00  0.00     0.010 A 
ATOM     42  C   UNL A   1      43.641  23.437  27.165  1.00  0.00     0.010 A 
ATOM     43  C   UNL A   1      43.755  24.617  26.426  1.00  0.00    -0.014 A 
BRANCH  43  44
ATOM     44  C   UNL A   1      43.646  25.815  27.219  1.00  0.00     0.031 A 
ATOM     45  C   UNL A   1      42.363  26.515  27.151  1.00  0.00     0.074 A 
ATOM     46  C   UNL A   1      44.638  26.126  28.080  1.00  0.00     0.049 A 
ATOM     47  N   UNL A   1      42.207  27.744  27.474  1.00  0.00    -0.248 NA
ATOM     48  C   UNL A   1      41.146  25.899  26.618  1.00  0.00     0.031 C 
ATOM     49  C   UNL A   1      44.618  27.060  29.198  1.00  0.00     0.029 A 
ATOM     50  N   UNL A   1      45.981  25.767  27.960  1.00  0.00    -0.354 N 
ATOM     51  C   UNL A   1      40.853  27.948  27.568  1.00  0.00     0.074 A 
ATOM     52  C   UNL A   1      40.247  26.858  26.850  1.00  0.00     0.031 C 
ATOM     53  C   UNL A   1      45.884  27.409  29.494  1.00  0.00     0.029 A 
ATOM     54  C   UNL A   1      46.737  26.848  28.459  1.00  0.00     0.049 A 
ATOM     55  H   UNL A   1      46.333  24.922  27.598  1.00  0.00     0.167 HD
ATOM     56  C   UNL A   1      40.419  28.913  28.417  1.00  0.00     0.031 A 
ATOM     57  C   UNL A   1      47.509  27.583  27.598  1.00  0.00     0.031 A 
ATOM     58  C   UNL A   1      41.548  29.684  28.941  1.00  0.00     0.049 A 
ATOM     59  C   UNL A   1      47.017  29.012  27.429  1.00  0.00     0.074 A 
ATOM     60  C   UNL A   1      42.206  29.718  30.159  1.00  0.00     0.029 A 
ATOM     61  N   UNL A   1      42.395  30.297  28.032  1.00  0.00    -0.354 N 
ATOM     62  N   UNL A   1      45.850  29.437  27.832  1.00  0.00    -0.248 NA
ATOM     63  C   UNL A   1      47.774  30.062  26.752  1.00  0.00     0.031 C 
ATOM     64  C   UNL A   1      43.471  30.350  29.955  1.00  0.00     0.029 A 
ATOM     65  C   UNL A   1      43.557  30.734  28.629  1.00  0.00     0.049 A 
ATOM     66  H   UNL A   1      42.190  30.409  27.075  1.00  0.00     0.167 HD
ATOM     67  C   UNL A   1      45.680  30.755  27.496  1.00  0.00     0.074 A 
ATOM     68  C   UNL A   1      46.906  31.091  26.789  1.00  0.00     0.031 C 
ATOM     69  C   UNL A   1      44.537  31.440  27.812  1.00  0.00     0.031 A 
BRANCH  56  70
ATOM     70  C   UNL A   1      39.017  29.021  28.960  1.00  0.00    -0.014 A 
ATOM     71  C   UNL A   1      37.977  29.345  28.072  1.00  0.00     0.009 A 
ATOM     72  C   UNL A   1      38.656  28.907  30.315  1.00  0.00     0.009 A 
ATOM     73  C   UNL A   1      36.667  29.570  28.514  1.00  0.00     0.001 A 
ATOM     74  C   UNL A   1      37.345  29.116  30.762  1.00  0.00     0.001 A 
ATOM     75  C   UNL A   1      36.350  29.457  29.861  1.00  0.00     0.000 A 
ENDBRANCH  56  70
BRANCH  57  76
ATOM     76  C   UNL A   1      48.100  26.723  26.519  1.00  0.00    -0.014 A 
ATOM     77  C   UNL A   1      47.569  26.863  25.215  1.00  0.00     0.009 A 
ATOM     78  C   UNL A   1      49.396  26.209  26.654  1.00  0.00     0.009 A 
ATOM     79  C   UNL A   1      48.381  26.694  24.088  1.00  0.00     0.001 A 
ATOM     80  C   UNL A   1      50.194  26.007  25.517  1.00  0.00     0.001 A 
ATOM     81  C   UNL A   1      49.708  26.309  24.244  1.00  0.00     0.000 A 
ENDBRANCH  57  76
BRANCH  69  82
ATOM     82  C   UNL A   1      44.184  32.842  27.360  1.00  0.00    -0.014 A 
ATOM     83  C   UNL A   1      44.177  33.266  26.029  1.00  0.00     0.009 A 
ATOM     84  C   UNL A   1      43.901  33.837  28.329  1.00  0.00     0.009 A 
ATOM     85  C   UNL A   1      43.817  34.579  25.686  1.00  0.00     0.001 A 
ATOM     86  C   UNL A   1      43.560  35.148  27.998  1.00  0.00     0.001 A 
ATOM     87  C   UNL A   1      43.499  35.516  26.668  1.00  0.00     0.000 A 
ENDBRANCH  69  82
ENDBRANCH  43  44
ENDBRANCH  35  38
ENDBRANCH  33  34
ENDBRANCH  32  33
ENDBRANCH  31  32
ENDBRANCH   3  31
TORSDOF 15
ENDMDL
MODEL 3
REMARK VINA RESULT:     -12.6      3.917      8.827
REMARK SMILES Cc1ccc(S(=O)(=O)n2cc(C(=O)C(=O)NCC(=O)NCCCNC(=O)c3ccc(-c4c5nc(c(-c6ccccc6)c6ccc([nH]6)c(-c6ccccc6)c6nc(c(-c7ccccc7)c7ccc4[nH]7)C=C6)C=C5)cc3)c3ccccc32)cc1
REMARK SMILES IDX 18 1 19 2 20 3 17 5 16 6 14 7 15 8 12 10 13 11 11 12 9 13
REMARK SMILES IDX 10 14 80 15 75 16 79 17 76 18 78 19 77 20 6 21 7 22 8 23
REMARK SMILES IDX 5 24 1 25 2 26 3 27 82 28 4 29 81 30 21 31 22 32 23 33 24 34
REMARK SMILES IDX 25 35 26 37 27 38 28 39 74 40 29 41 73 42 30 43 31 44 32 45
REMARK SMILES IDX 67 46 33 47 72 48 66 49 68 50 34 51 71 52 65 53 64 54 35 56
REMARK SMILES IDX 57 57 42 58 56 59 43 60 46 61 55 62 69 63 44 64 45 65 54 67
REMARK SMILES IDX 70 68 47 69 36 70 37 71 41 72 38 73 40 74 39 75 58 76 59 77
REMARK SMILES IDX 63 78 60 79 62 80 61 81 48 82 49 83 53 84 50 85 52 86 51 87
REMARK H PARENT 20 4 16 9 24 36 68 55 46 66
REMARK Flexibility Score: inf
ROOT
ATOM      1  C   UNL A   1      31.758  30.579  25.914  1.00  0.00     0.239 C 
ATOM      2  O   UNL A   1      30.996  31.535  25.755  1.00  0.00    -0.273 OA
ATOM      3  N   UNL A   1      32.703  30.656  26.899  1.00  0.00    -0.355 N 
ATOM      4  H   UNL A   1      32.727  31.501  27.403  1.00  0.00     0.163 HD
ENDROOT
BRANCH   1   5
ATOM      5  C   UNL A   1      31.626  29.303  25.074  1.00  0.00     0.216 C 
BRANCH   5   6
ATOM      6  N   UNL A   1      31.179  29.572  23.712  1.00  0.00    -0.340 N 
ATOM      7  C   UNL A   1      30.343  28.872  22.868  1.00  0.00     0.292 C 
ATOM      8  O   UNL A   1      30.138  29.325  21.746  1.00  0.00    -0.265 OA
ATOM      9  H   UNL A   1      31.538  30.403  23.326  1.00  0.00     0.164 HD
BRANCH   7  10
ATOM     10  C   UNL A   1      29.705  27.525  23.297  1.00  0.00     0.252 C 
ATOM     11  O   UNL A   1      28.484  27.475  23.410  1.00  0.00    -0.283 OA
BRANCH  10  12
ATOM     12  C   UNL A   1      30.518  26.331  23.583  1.00  0.00     0.054 A 
ATOM     13  N   UNL A   1      31.979  24.646  23.413  1.00  0.00    -0.240 N 
ATOM     14  C   UNL A   1      31.543  25.803  22.816  1.00  0.00     0.117 A 
ATOM     15  C   UNL A   1      31.297  24.399  24.584  1.00  0.00     0.065 A 
ATOM     16  C   UNL A   1      30.369  25.444  24.713  1.00  0.00     0.012 A 
ATOM     17  C   UNL A   1      31.370  23.349  25.519  1.00  0.00     0.028 A 
ATOM     18  C   UNL A   1      29.507  25.435  25.834  1.00  0.00     0.011 A 
ATOM     19  C   UNL A   1      30.484  23.358  26.598  1.00  0.00     0.002 A 
ATOM     20  C   UNL A   1      29.569  24.390  26.760  1.00  0.00     0.001 A 
BRANCH  13  21
ATOM     21  S   UNL A   1      33.129  23.598  22.716  1.00  0.00     0.268 S 
ATOM     22  O   UNL A   1      33.500  24.218  21.463  1.00  0.00    -0.201 OA
ATOM     23  O   UNL A   1      32.534  22.271  22.772  1.00  0.00    -0.201 OA
BRANCH  21  24
ATOM     24  C   UNL A   1      34.562  23.575  23.760  1.00  0.00     0.088 A 
ATOM     25  C   UNL A   1      38.243  23.596  25.990  1.00  0.00     0.044 C 
ATOM     26  C   UNL A   1      36.951  23.576  25.227  1.00  0.00    -0.051 A 
ATOM     27  C   UNL A   1      36.875  22.900  24.003  1.00  0.00     0.005 A 
ATOM     28  C   UNL A   1      35.813  24.224  25.722  1.00  0.00     0.005 A 
ATOM     29  C   UNL A   1      35.688  22.903  23.269  1.00  0.00     0.022 A 
ATOM     30  C   UNL A   1      34.615  24.216  25.000  1.00  0.00     0.022 A 
ENDBRANCH  21  24
ENDBRANCH  13  21
ENDBRANCH  10  12
ENDBRANCH   7  10
ENDBRANCH   5   6
ENDBRANCH   1   5
BRANCH   3  31
ATOM     31  C   UNL A   1      33.673  29.655  27.299  1.00  0.00     0.117 C 
BRANCH  31  32
ATOM     32  C   UNL A   1      35.057  30.257  27.485  1.00  0.00     0.042 C 
BRANCH  32  33
ATOM     33  C   UNL A   1      35.231  30.914  28.842  1.00  0.00     0.118 C 
BRANCH  33  34
ATOM     34  N   UNL A   1      34.355  32.069  29.042  1.00  0.00    -0.352 N 
ATOM     35  C   UNL A   1      34.527  33.221  29.789  1.00  0.00     0.251 C 
ATOM     36  H   UNL A   1      33.496  32.017  28.562  1.00  0.00     0.163 HD
ATOM     37  O   UNL A   1      33.640  34.069  29.807  1.00  0.00    -0.269 OA
BRANCH  35  38
ATOM     38  C   UNL A   1      35.847  33.527  30.391  1.00  0.00     0.039 A 
ATOM     39  C   UNL A   1      36.842  33.938  29.493  1.00  0.00     0.014 A 
ATOM     40  C   UNL A   1      36.187  32.981  31.618  1.00  0.00     0.014 A 
ATOM     41  C   UNL A   1      38.124  33.442  29.654  1.00  0.00     0.010 A 
ATOM     42  C   UNL A   1      37.392  32.338  31.694  1.00  0.00     0.010 A 
ATOM     43  C   UNL A   1      38.323  32.517  30.667  1.00  0.00    -0.014 A 
BRANCH  43  44
ATOM     44  C   UNL A   1      39.519  31.729  30.821  1.00  0.00     0.031 A 
ATOM     45  C   UNL A   1      39.535  30.444  30.122  1.00  0.00     0.074 A 
ATOM     46  C   UNL A   1      40.587  32.271  31.443  1.00  0.00     0.049 A 
ATOM     47  N   UNL A   1      40.319  29.479  30.429  1.00  0.00    -0.248 NA
ATOM     48  C   UNL A   1      38.589  30.103  29.057  1.00  0.00     0.031 C 
ATOM     49  C   UNL A   1      41.975  31.827  31.429  1.00  0.00     0.029 A 
ATOM     50  N   UNL A   1      40.560  33.271  32.415  1.00  0.00    -0.354 N 
ATOM     51  C   UNL A   1      40.255  28.587  29.387  1.00  0.00     0.074 A 
ATOM     52  C   UNL A   1      39.048  28.911  28.674  1.00  0.00     0.031 C 
ATOM     53  C   UNL A   1      42.606  32.341  32.502  1.00  0.00     0.029 A 
ATOM     54  C   UNL A   1      41.595  32.980  33.329  1.00  0.00     0.049 A 
ATOM     55  H   UNL A   1      39.939  34.034  32.455  1.00  0.00     0.167 HD
ATOM     56  C   UNL A   1      41.346  27.814  29.152  1.00  0.00     0.031 A 
ATOM     57  C   UNL A   1      41.277  32.605  34.608  1.00  0.00     0.031 A 
ATOM     58  C   UNL A   1      42.335  27.982  30.218  1.00  0.00     0.049 A 
ATOM     59  C   UNL A   1      41.652  31.163  34.915  1.00  0.00     0.074 A 
ATOM     60  C   UNL A   1      43.545  28.649  30.311  1.00  0.00     0.029 A 
ATOM     61  N   UNL A   1      41.936  27.731  31.521  1.00  0.00    -0.354 N 
ATOM     62  N   UNL A   1      41.989  30.285  34.010  1.00  0.00    -0.248 NA
ATOM     63  C   UNL A   1      41.629  30.582  36.255  1.00  0.00     0.031 C 
ATOM     64  C   UNL A   1      43.852  28.807  31.697  1.00  0.00     0.029 A 
ATOM     65  C   UNL A   1      42.854  28.198  32.437  1.00  0.00     0.049 A 
ATOM     66  H   UNL A   1      41.099  27.273  31.764  1.00  0.00     0.167 HD
ATOM     67  C   UNL A   1      42.224  29.066  34.591  1.00  0.00     0.074 A 
ATOM     68  C   UNL A   1      41.951  29.299  36.001  1.00  0.00     0.031 C 
ATOM     69  C   UNL A   1      42.599  27.974  33.855  1.00  0.00     0.031 A 
BRANCH  56  70
ATOM     70  C   UNL A   1      41.631  27.091  27.862  1.00  0.00    -0.014 A 
ATOM     71  C   UNL A   1      42.058  27.841  26.752  1.00  0.00     0.009 A 
ATOM     72  C   UNL A   1      41.427  25.718  27.634  1.00  0.00     0.009 A 
ATOM     73  C   UNL A   1      42.240  27.262  25.490  1.00  0.00     0.001 A 
ATOM     74  C   UNL A   1      41.621  25.128  26.378  1.00  0.00     0.001 A 
ATOM     75  C   UNL A   1      42.020  25.904  25.302  1.00  0.00     0.000 A 
ENDBRANCH  56  70
BRANCH  57  76
ATOM     76  C   UNL A   1      40.055  33.321  35.103  1.00  0.00    -0.014 A 
ATOM     77  C   UNL A   1      38.827  32.619  35.049  1.00  0.00     0.009 A 
ATOM     78  C   UNL A   1      40.174  34.377  36.015  1.00  0.00     0.009 A 
ATOM     79  C   UNL A   1      37.838  32.832  36.016  1.00  0.00     0.001 A 
ATOM     80  C   UNL A   1      39.162  34.609  36.958  1.00  0.00     0.001 A 
ATOM     81  C   UNL A   1      38.026  33.798  36.998  1.00  0.00     0.000 A 
ENDBRANCH  57  76
BRANCH  69  82
ATOM     82  C   UNL A   1      42.734  26.555  34.369  1.00  0.00    -0.014 A 
ATOM     83  C   UNL A   1      43.821  25.719  34.106  1.00  0.00     0.009 A 
ATOM     84  C   UNL A   1      41.675  25.979  35.114  1.00  0.00     0.009 A 
ATOM     85  C   UNL A   1      43.885  24.420  34.635  1.00  0.00     0.001 A 
ATOM     86  C   UNL A   1      41.721  24.684  35.629  1.00  0.00     0.001 A 
ATOM     87  C   UNL A   1      42.842  23.907  35.405  1.00  0.00     0.000 A 
ENDBRANCH  69  82
ENDBRANCH  43  44
ENDBRANCH  35  38
ENDBRANCH  33  34
ENDBRANCH  32  33
ENDBRANCH  31  32
ENDBRANCH   3  31
TORSDOF 15
ENDMDL
