MODEL 1
REMARK VINA RESULT:     -12.3      0.000      0.000
REMARK SMILES C[C@@H]1CN(C(=O)Nc2ccc(O)c(C(=O)NCCCNC(=O)c3ccc(-c4c5nc(c(-c6ccccc6)c6ccc([nH]6)c(-c6ccccc6)c6nc(c(-c7ccccc7)c7ccc4[nH]7)C=C6)C=C5)cc3)c2)C[C@H]1C
REMARK SMILES IDX 18 1 17 2 16 3 14 4 15 5 13 7 8 8 9 9 71 10 10 11 11 12 7 13
REMARK SMILES IDX 1 14 2 15 3 16 73 17 4 18 72 19 74 20 5 21 6 22 12 24 19 26
REMARK SMILES IDX 20 27 21 28 22 30 23 31 24 32 70 33 25 34 69 35 26 36 27 37
REMARK SMILES IDX 28 38 63 39 29 40 68 41 62 42 64 43 30 44 67 45 61 46 60 47
REMARK SMILES IDX 31 49 53 50 38 51 52 52 39 53 42 54 51 55 65 56 40 57 41 58
REMARK SMILES IDX 50 60 66 61 43 62 32 63 33 64 37 65 34 66 36 67 35 68 54 69
REMARK SMILES IDX 55 70 59 71 56 72 58 73 57 74 44 75 45 76 49 77 46 78 48 79
REMARK SMILES IDX 47 80
REMARK H PARENT 16 6 7 23 12 25 20 29 64 48 42 59
REMARK Flexibility Score: inf
ROOT
ATOM      1  C   UNL A   1      31.403  31.943  26.500  1.00  0.00     0.042 C 
ENDROOT
BRANCH   1   2
ATOM      2  C   UNL A   1      31.443  30.431  26.284  1.00  0.00     0.118 C 
BRANCH   2   3
ATOM      3  N   UNL A   1      32.209  30.090  25.102  1.00  0.00    -0.352 N 
ATOM      4  C   UNL A   1      32.121  29.058  24.206  1.00  0.00     0.255 C 
ATOM      5  O   UNL A   1      32.940  29.069  23.282  1.00  0.00    -0.269 OA
ATOM      6  H   UNL A   1      32.936  30.724  24.905  1.00  0.00     0.163 HD
BRANCH   4   7
ATOM      7  C   UNL A   1      31.082  27.987  24.205  1.00  0.00     0.083 A 
ATOM      8  C   UNL A   1      30.252  26.065  25.465  1.00  0.00     0.043 A 
ATOM      9  C   UNL A   1      29.168  25.954  24.601  1.00  0.00     0.030 A 
ATOM     10  C   UNL A   1      31.153  27.118  25.315  1.00  0.00     0.044 A 
ATOM     11  C   UNL A   1      29.073  26.802  23.503  1.00  0.00     0.049 A 
ATOM     12  C   UNL A   1      30.040  27.792  23.290  1.00  0.00     0.128 A 
BRANCH   8  13
ATOM     13  N   UNL A   1      30.464  25.151  26.501  1.00  0.00    -0.308 N 
ATOM     14  C   UNL A   1      33.665  22.966  22.670  1.00  0.00     0.010 C 
ATOM     15  C   UNL A   1      32.429  22.604  23.474  1.00  0.00     0.010 C 
ATOM     16  C   UNL A   1      31.919  23.778  24.304  1.00  0.00     0.125 C 
ATOM     17  C   UNL A   1      32.634  21.530  24.544  1.00  0.00     0.010 C 
ATOM     18  N   UNL A   1      31.153  23.173  25.391  1.00  0.00    -0.324 N 
ATOM     19  C   UNL A   1      31.404  21.738  25.437  1.00  0.00     0.125 C 
ATOM     20  C   UNL A   1      32.737  20.122  23.988  1.00  0.00     0.010 C 
ATOM     21  C   UNL A   1      30.561  23.791  26.469  1.00  0.00     0.321 C 
ATOM     22  O   UNL A   1      30.229  23.164  27.477  1.00  0.00    -0.248 OA
ATOM     23  H   UNL A   1      30.558  25.552  27.395  1.00  0.00     0.171 HD
ENDBRANCH   8  13
BRANCH  12  24
ATOM     24  O   UNL A   1      29.884  28.556  22.176  1.00  0.00    -0.507 OA
ATOM     25  H   UNL A   1      30.516  29.216  21.970  1.00  0.00     0.293 HD
ENDBRANCH  12  24
ENDBRANCH   4   7
ENDBRANCH   2   3
ENDBRANCH   1   2
BRANCH   1  26
ATOM     26  C   UNL A   1      32.702  32.542  27.020  1.00  0.00     0.118 C 
BRANCH  26  27
ATOM     27  N   UNL A   1      32.506  33.847  27.626  1.00  0.00    -0.352 N 
ATOM     28  C   UNL A   1      33.184  34.456  28.654  1.00  0.00     0.251 C 
ATOM     29  H   UNL A   1      31.772  34.379  27.240  1.00  0.00     0.163 HD
ATOM     30  O   UNL A   1      32.722  35.475  29.158  1.00  0.00    -0.269 OA
BRANCH  28  31
ATOM     31  C   UNL A   1      34.456  33.896  29.174  1.00  0.00     0.039 A 
ATOM     32  C   UNL A   1      34.403  33.010  30.256  1.00  0.00     0.014 A 
ATOM     33  C   UNL A   1      35.696  34.275  28.653  1.00  0.00     0.014 A 
ATOM     34  C   UNL A   1      35.582  32.468  30.777  1.00  0.00     0.010 A 
ATOM     35  C   UNL A   1      36.865  33.677  29.123  1.00  0.00     0.010 A 
ATOM     36  C   UNL A   1      36.821  32.777  30.197  1.00  0.00    -0.014 A 
BRANCH  36  37
ATOM     37  C   UNL A   1      38.082  32.180  30.708  1.00  0.00     0.031 A 
ATOM     38  C   UNL A   1      38.635  30.927  30.086  1.00  0.00     0.074 A 
ATOM     39  C   UNL A   1      38.699  32.731  31.772  1.00  0.00     0.049 A 
ATOM     40  N   UNL A   1      39.680  30.220  30.438  1.00  0.00    -0.248 NA
ATOM     41  C   UNL A   1      37.904  30.383  28.930  1.00  0.00     0.031 C 
ATOM     42  C   UNL A   1      38.251  33.926  32.488  1.00  0.00     0.029 A 
ATOM     43  N   UNL A   1      39.834  32.346  32.443  1.00  0.00    -0.354 N 
ATOM     44  C   UNL A   1      39.717  29.140  29.564  1.00  0.00     0.074 A 
ATOM     45  C   UNL A   1      38.570  29.263  28.692  1.00  0.00     0.031 C 
ATOM     46  C   UNL A   1      39.113  34.190  33.484  1.00  0.00     0.029 A 
ATOM     47  C   UNL A   1      40.150  33.164  33.501  1.00  0.00     0.049 A 
ATOM     48  H   UNL A   1      40.371  31.561  32.189  1.00  0.00     0.167 HD
ATOM     49  C   UNL A   1      40.632  28.144  29.484  1.00  0.00     0.031 A 
ATOM     50  C   UNL A   1      41.156  33.089  34.392  1.00  0.00     0.031 A 
ATOM     51  C   UNL A   1      41.783  28.029  30.339  1.00  0.00     0.049 A 
ATOM     52  C   UNL A   1      42.154  31.971  34.288  1.00  0.00     0.074 A 
ATOM     53  C   UNL A   1      42.798  27.089  30.299  1.00  0.00     0.029 A 
ATOM     54  N   UNL A   1      42.070  28.883  31.393  1.00  0.00    -0.354 N 
ATOM     55  N   UNL A   1      42.208  30.992  33.418  1.00  0.00    -0.248 NA
ATOM     56  C   UNL A   1      43.235  31.953  35.283  1.00  0.00     0.031 C 
ATOM     57  C   UNL A   1      43.677  27.348  31.355  1.00  0.00     0.029 A 
ATOM     58  C   UNL A   1      43.235  28.479  32.022  1.00  0.00     0.049 A 
ATOM     59  H   UNL A   1      41.527  29.661  31.654  1.00  0.00     0.167 HD
ATOM     60  C   UNL A   1      43.339  30.257  33.745  1.00  0.00     0.074 A 
ATOM     61  C   UNL A   1      43.951  30.911  34.883  1.00  0.00     0.031 C 
ATOM     62  C   UNL A   1      43.829  29.140  33.155  1.00  0.00     0.031 A 
BRANCH  49  63
ATOM     63  C   UNL A   1      40.417  27.092  28.433  1.00  0.00    -0.014 A 
ATOM     64  C   UNL A   1      40.994  27.209  27.158  1.00  0.00     0.009 A 
ATOM     65  C   UNL A   1      39.656  25.951  28.731  1.00  0.00     0.009 A 
ATOM     66  C   UNL A   1      40.780  26.223  26.192  1.00  0.00     0.001 A 
ATOM     67  C   UNL A   1      39.467  24.954  27.772  1.00  0.00     0.001 A 
ATOM     68  C   UNL A   1      40.022  25.095  26.501  1.00  0.00     0.000 A 
ENDBRANCH  49  63
BRANCH  50  69
ATOM     69  C   UNL A   1      41.280  34.116  35.458  1.00  0.00    -0.014 A 
ATOM     70  C   UNL A   1      42.060  35.264  35.252  1.00  0.00     0.009 A 
ATOM     71  C   UNL A   1      40.621  33.954  36.688  1.00  0.00     0.009 A 
ATOM     72  C   UNL A   1      42.196  36.219  36.263  1.00  0.00     0.001 A 
ATOM     73  C   UNL A   1      40.738  34.923  37.686  1.00  0.00     0.001 A 
ATOM     74  C   UNL A   1      41.532  36.050  37.476  1.00  0.00     0.000 A 
ENDBRANCH  50  69
BRANCH  62  75
ATOM     75  C   UNL A   1      45.103  28.573  33.711  1.00  0.00    -0.014 A 
ATOM     76  C   UNL A   1      45.086  27.589  34.711  1.00  0.00     0.009 A 
ATOM     77  C   UNL A   1      46.337  29.003  33.198  1.00  0.00     0.009 A 
ATOM     78  C   UNL A   1      46.282  27.067  35.207  1.00  0.00     0.001 A 
ATOM     79  C   UNL A   1      47.530  28.462  33.678  1.00  0.00     0.001 A 
ATOM     80  C   UNL A   1      47.501  27.500  34.687  1.00  0.00     0.000 A 
ENDBRANCH  62  75
ENDBRANCH  36  37
ENDBRANCH  28  31
ENDBRANCH  26  27
ENDBRANCH   1  26
TORSDOF 12
ENDMDL
MODEL 2
REMARK VINA RESULT:     -12.1      4.165      9.353
REMARK SMILES C[C@@H]1CN(C(=O)Nc2ccc(O)c(C(=O)NCCCNC(=O)c3ccc(-c4c5nc(c(-c6ccccc6)c6ccc([nH]6)c(-c6ccccc6)c6nc(c(-c7ccccc7)c7ccc4[nH]7)C=C6)C=C5)cc3)c2)C[C@H]1C
REMARK SMILES IDX 18 1 17 2 16 3 14 4 15 5 13 7 8 8 9 9 71 10 10 11 11 12 7 13
REMARK SMILES IDX 1 14 2 15 3 16 73 17 4 18 72 19 74 20 5 21 6 22 12 24 19 26
REMARK SMILES IDX 20 27 21 28 22 30 23 31 24 32 70 33 25 34 69 35 26 36 27 37
REMARK SMILES IDX 28 38 63 39 29 40 68 41 62 42 64 43 30 44 67 45 61 46 60 47
REMARK SMILES IDX 31 49 53 50 38 51 52 52 39 53 42 54 51 55 65 56 40 57 41 58
REMARK SMILES IDX 50 60 66 61 43 62 32 63 33 64 37 65 34 66 36 67 35 68 54 69
REMARK SMILES IDX 55 70 59 71 56 72 58 73 57 74 44 75 45 76 49 77 46 78 48 79
REMARK SMILES IDX 47 80
REMARK H PARENT 16 6 7 23 12 25 20 29 64 48 42 59
REMARK Flexibility Score: inf
ROOT
ATOM      1  C   UNL A   1      37.907  19.556  24.998  1.00  0.00     0.042 C 
ENDROOT
BRANCH   1   2
ATOM      2  C   UNL A   1      36.804  20.547  24.625  1.00  0.00     0.118 C 
BRANCH   2   3
ATOM      3  N   UNL A   1      35.872  20.729  25.719  1.00  0.00    -0.352 N 
ATOM      4  C   UNL A   1      34.559  21.115  25.764  1.00  0.00     0.255 C 
ATOM      5  O   UNL A   1      34.041  21.159  26.885  1.00  0.00    -0.269 OA
ATOM      6  H   UNL A   1      36.258  20.540  26.605  1.00  0.00     0.163 HD
BRANCH   4   7
ATOM      7  C   UNL A   1      33.690  21.400  24.584  1.00  0.00     0.083 A 
ATOM      8  C   UNL A   1      33.359  22.953  22.727  1.00  0.00     0.043 A 
ATOM      9  C   UNL A   1      32.366  22.132  22.204  1.00  0.00     0.030 A 
ATOM     10  C   UNL A   1      34.066  22.550  23.859  1.00  0.00     0.044 A 
ATOM     11  C   UNL A   1      31.982  20.990  22.897  1.00  0.00     0.049 A 
ATOM     12  C   UNL A   1      32.619  20.642  24.094  1.00  0.00     0.128 A 
BRANCH   8  13
ATOM     13  N   UNL A   1      33.684  24.179  22.141  1.00  0.00    -0.308 N 
ATOM     14  C   UNL A   1      29.871  25.823  25.671  1.00  0.00     0.010 C 
ATOM     15  C   UNL A   1      30.103  25.781  24.171  1.00  0.00     0.010 C 
ATOM     16  C   UNL A   1      31.367  25.009  23.806  1.00  0.00     0.125 C 
ATOM     17  C   UNL A   1      30.361  27.135  23.508  1.00  0.00     0.010 C 
ATOM     18  N   UNL A   1      31.757  25.514  22.492  1.00  0.00    -0.324 N 
ATOM     19  C   UNL A   1      30.996  26.717  22.176  1.00  0.00     0.125 C 
ATOM     20  C   UNL A   1      29.113  27.981  23.335  1.00  0.00     0.010 C 
ATOM     21  C   UNL A   1      32.881  25.212  21.757  1.00  0.00     0.321 C 
ATOM     22  O   UNL A   1      33.265  25.929  20.830  1.00  0.00    -0.248 OA
ATOM     23  H   UNL A   1      34.645  24.321  21.981  1.00  0.00     0.171 HD
ENDBRANCH   8  13
BRANCH  12  24
ATOM     24  O   UNL A   1      32.159  19.525  24.719  1.00  0.00    -0.507 OA
ATOM     25  H   UNL A   1      31.311  19.527  25.116  1.00  0.00     0.293 HD
ENDBRANCH  12  24
ENDBRANCH   4   7
ENDBRANCH   2   3
ENDBRANCH   1   2
BRANCH   1  26
ATOM     26  C   UNL A   1      39.068  20.164  25.772  1.00  0.00     0.118 C 
BRANCH  26  27
ATOM     27  N   UNL A   1      40.208  19.267  25.852  1.00  0.00    -0.352 N 
ATOM     28  C   UNL A   1      41.527  19.537  26.127  1.00  0.00     0.251 C 
ATOM     29  H   UNL A   1      40.003  18.319  25.685  1.00  0.00     0.163 HD
ATOM     30  O   UNL A   1      42.370  18.666  25.935  1.00  0.00    -0.269 OA
BRANCH  28  31
ATOM     31  C   UNL A   1      41.951  20.864  26.636  1.00  0.00     0.039 A 
ATOM     32  C   UNL A   1      42.293  21.856  25.711  1.00  0.00     0.014 A 
ATOM     33  C   UNL A   1      42.073  21.125  28.003  1.00  0.00     0.014 A 
ATOM     34  C   UNL A   1      42.704  23.117  26.154  1.00  0.00     0.010 A 
ATOM     35  C   UNL A   1      42.409  22.405  28.444  1.00  0.00     0.010 A 
ATOM     36  C   UNL A   1      42.740  23.410  27.525  1.00  0.00    -0.014 A 
BRANCH  36  37
ATOM     37  C   UNL A   1      43.133  24.755  28.017  1.00  0.00     0.031 A 
ATOM     38  C   UNL A   1      42.084  25.799  28.292  1.00  0.00     0.074 A 
ATOM     39  C   UNL A   1      44.438  25.060  28.159  1.00  0.00     0.049 A 
ATOM     40  N   UNL A   1      42.236  27.048  28.656  1.00  0.00    -0.248 NA
ATOM     41  C   UNL A   1      40.682  25.393  28.112  1.00  0.00     0.031 C 
ATOM     42  C   UNL A   1      45.555  24.153  27.895  1.00  0.00     0.029 A 
ATOM     43  N   UNL A   1      45.044  26.229  28.551  1.00  0.00    -0.354 N 
ATOM     44  C   UNL A   1      40.955  27.579  28.726  1.00  0.00     0.074 A 
ATOM     45  C   UNL A   1      40.040  26.532  28.329  1.00  0.00     0.031 C 
ATOM     46  C   UNL A   1      46.709  24.789  28.154  1.00  0.00     0.029 A 
ATOM     47  C   UNL A   1      46.416  26.159  28.563  1.00  0.00     0.049 A 
ATOM     48  H   UNL A   1      44.543  27.038  28.802  1.00  0.00     0.167 HD
ATOM     49  C   UNL A   1      40.570  28.823  29.101  1.00  0.00     0.031 A 
ATOM     50  C   UNL A   1      47.336  27.095  28.860  1.00  0.00     0.031 A 
ATOM     51  C   UNL A   1      41.476  29.862  29.513  1.00  0.00     0.049 A 
ATOM     52  C   UNL A   1      46.886  28.470  29.266  1.00  0.00     0.074 A 
ATOM     53  C   UNL A   1      41.179  31.136  29.967  1.00  0.00     0.029 A 
ATOM     54  N   UNL A   1      42.857  29.747  29.519  1.00  0.00    -0.354 N 
ATOM     55  N   UNL A   1      45.667  28.938  29.384  1.00  0.00    -0.248 NA
ATOM     56  C   UNL A   1      47.938  29.443  29.588  1.00  0.00     0.031 C 
ATOM     57  C   UNL A   1      42.383  31.807  30.207  1.00  0.00     0.029 A 
ATOM     58  C   UNL A   1      43.427  30.933  29.948  1.00  0.00     0.049 A 
ATOM     59  H   UNL A   1      43.358  28.941  29.257  1.00  0.00     0.167 HD
ATOM     60  C   UNL A   1      45.805  30.249  29.817  1.00  0.00     0.074 A 
ATOM     61  C   UNL A   1      47.225  30.498  29.955  1.00  0.00     0.031 C 
ATOM     62  C   UNL A   1      44.842  31.166  30.078  1.00  0.00     0.031 A 
BRANCH  49  63
ATOM     63  C   UNL A   1      39.099  29.129  29.077  1.00  0.00    -0.014 A 
ATOM     64  C   UNL A   1      38.302  28.960  30.221  1.00  0.00     0.009 A 
ATOM     65  C   UNL A   1      38.507  29.624  27.904  1.00  0.00     0.009 A 
ATOM     66  C   UNL A   1      36.935  29.245  30.178  1.00  0.00     0.001 A 
ATOM     67  C   UNL A   1      37.147  29.934  27.873  1.00  0.00     0.001 A 
ATOM     68  C   UNL A   1      36.360  29.736  29.007  1.00  0.00     0.000 A 
ENDBRANCH  49  63
BRANCH  50  69
ATOM     69  C   UNL A   1      48.782  26.761  28.797  1.00  0.00    -0.014 A 
ATOM     70  C   UNL A   1      49.442  26.245  29.923  1.00  0.00     0.009 A 
ATOM     71  C   UNL A   1      49.511  26.957  27.613  1.00  0.00     0.009 A 
ATOM     72  C   UNL A   1      50.807  25.953  29.871  1.00  0.00     0.001 A 
ATOM     73  C   UNL A   1      50.869  26.639  27.558  1.00  0.00     0.001 A 
ATOM     74  C   UNL A   1      51.517  26.146  28.688  1.00  0.00     0.000 A 
ENDBRANCH  50  69
BRANCH  62  75
ATOM     75  C   UNL A   1      45.291  32.512  30.568  1.00  0.00    -0.014 A 
ATOM     76  C   UNL A   1      45.594  33.548  29.673  1.00  0.00     0.009 A 
ATOM     77  C   UNL A   1      45.373  32.756  31.949  1.00  0.00     0.009 A 
ATOM     78  C   UNL A   1      45.999  34.796  30.150  1.00  0.00     0.001 A 
ATOM     79  C   UNL A   1      45.755  34.012  32.422  1.00  0.00     0.001 A 
ATOM     80  C   UNL A   1      46.075  35.028  31.523  1.00  0.00     0.000 A 
ENDBRANCH  62  75
ENDBRANCH  36  37
ENDBRANCH  28  31
ENDBRANCH  26  27
ENDBRANCH   1  26
TORSDOF 12
ENDMDL
MODEL 3
REMARK VINA RESULT:     -12.1      0.811      5.947
REMARK SMILES C[C@@H]1CN(C(=O)Nc2ccc(O)c(C(=O)NCCCNC(=O)c3ccc(-c4c5nc(c(-c6ccccc6)c6ccc([nH]6)c(-c6ccccc6)c6nc(c(-c7ccccc7)c7ccc4[nH]7)C=C6)C=C5)cc3)c2)C[C@H]1C
REMARK SMILES IDX 18 1 17 2 16 3 14 4 15 5 13 7 8 8 9 9 71 10 10 11 11 12 7 13
REMARK SMILES IDX 1 14 2 15 3 16 73 17 4 18 72 19 74 20 5 21 6 22 12 24 19 26
REMARK SMILES IDX 20 27 21 28 22 30 23 31 24 32 70 33 25 34 69 35 26 36 27 37
REMARK SMILES IDX 28 38 63 39 29 40 68 41 62 42 64 43 30 44 67 45 61 46 60 47
REMARK SMILES IDX 31 49 53 50 38 51 52 52 39 53 42 54 51 55 65 56 40 57 41 58
REMARK SMILES IDX 50 60 66 61 43 62 32 63 33 64 37 65 34 66 36 67 35 68 54 69
REMARK SMILES IDX 55 70 59 71 56 72 58 73 57 74 44 75 45 76 49 77 46 78 48 79
REMARK SMILES IDX 47 80
REMARK H PARENT 16 6 7 23 12 25 20 29 64 48 42 59
REMARK Flexibility Score: inf
ROOT
ATOM      1  C   UNL A   1      31.388  32.192  26.658  1.00  0.00     0.042 C 
ENDROOT
BRANCH   1   2
ATOM      2  C   UNL A   1      31.505  30.677  26.488  1.00  0.00     0.118 C 
BRANCH   2   3
ATOM      3  N   UNL A   1      32.381  30.340  25.384  1.00  0.00    -0.352 N 
ATOM      4  C   UNL A   1      32.372  29.317  24.474  1.00  0.00     0.255 C 
ATOM      5  O   UNL A   1      33.278  29.328  23.634  1.00  0.00    -0.269 OA
ATOM      6  H   UNL A   1      33.129  30.969  25.265  1.00  0.00     0.163 HD
BRANCH   4   7
ATOM      7  C   UNL A   1      31.329  28.255  24.360  1.00  0.00     0.083 A 
ATOM      8  C   UNL A   1      30.399  26.297  25.487  1.00  0.00     0.043 A 
ATOM      9  C   UNL A   1      29.378  26.227  24.545  1.00  0.00     0.030 A 
ATOM     10  C   UNL A   1      31.316  27.347  25.439  1.00  0.00     0.044 A 
ATOM     11  C   UNL A   1      29.368  27.115  23.475  1.00  0.00     0.049 A 
ATOM     12  C   UNL A   1      30.354  28.103  23.367  1.00  0.00     0.128 A 
BRANCH   8  13
ATOM     13  N   UNL A   1      30.531  25.345  26.501  1.00  0.00    -0.308 N 
ATOM     14  C   UNL A   1      33.831  23.167  22.751  1.00  0.00     0.010 C 
ATOM     15  C   UNL A   1      32.548  22.824  23.486  1.00  0.00     0.010 C 
ATOM     16  C   UNL A   1      32.039  23.989  24.329  1.00  0.00     0.125 C 
ATOM     17  C   UNL A   1      32.665  21.711  24.529  1.00  0.00     0.010 C 
ATOM     18  N   UNL A   1      31.203  23.379  25.360  1.00  0.00    -0.324 N 
ATOM     19  C   UNL A   1      31.403  21.935  25.371  1.00  0.00     0.125 C 
ATOM     20  C   UNL A   1      32.746  20.318  23.932  1.00  0.00     0.010 C 
ATOM     21  C   UNL A   1      30.583  23.984  26.430  1.00  0.00     0.321 C 
ATOM     22  O   UNL A   1      30.183  23.339  27.401  1.00  0.00    -0.248 OA
ATOM     23  H   UNL A   1      30.598  25.714  27.411  1.00  0.00     0.171 HD
ENDBRANCH   8  13
BRANCH  12  24
ATOM     24  O   UNL A   1      30.282  28.909  22.274  1.00  0.00    -0.507 OA
ATOM     25  H   UNL A   1      30.098  29.821  22.377  1.00  0.00     0.293 HD
ENDBRANCH  12  24
ENDBRANCH   4   7
ENDBRANCH   2   3
ENDBRANCH   1   2
BRANCH   1  26
ATOM     26  C   UNL A   1      32.712  32.905  26.895  1.00  0.00     0.118 C 
BRANCH  26  27
ATOM     27  N   UNL A   1      32.546  34.150  27.626  1.00  0.00    -0.352 N 
ATOM     28  C   UNL A   1      33.166  34.593  28.769  1.00  0.00     0.251 C 
ATOM     29  H   UNL A   1      31.887  34.772  27.243  1.00  0.00     0.163 HD
ATOM     30  O   UNL A   1      32.727  35.584  29.345  1.00  0.00    -0.269 OA
BRANCH  28  31
ATOM     31  C   UNL A   1      34.347  33.888  29.326  1.00  0.00     0.039 A 
ATOM     32  C   UNL A   1      34.140  32.911  30.306  1.00  0.00     0.014 A 
ATOM     33  C   UNL A   1      35.650  34.215  28.942  1.00  0.00     0.014 A 
ATOM     34  C   UNL A   1      35.229  32.230  30.859  1.00  0.00     0.010 A 
ATOM     35  C   UNL A   1      36.730  33.484  29.438  1.00  0.00     0.010 A 
ATOM     36  C   UNL A   1      36.532  32.493  30.410  1.00  0.00    -0.014 A 
BRANCH  36  37
ATOM     37  C   UNL A   1      37.700  31.753  30.953  1.00  0.00     0.031 A 
ATOM     38  C   UNL A   1      38.250  32.097  32.311  1.00  0.00     0.074 A 
ATOM     39  C   UNL A   1      38.305  30.813  30.201  1.00  0.00     0.049 A 
ATOM     40  N   UNL A   1      39.303  31.614  32.923  1.00  0.00    -0.248 NA
ATOM     41  C   UNL A   1      37.538  33.136  33.072  1.00  0.00     0.031 C 
ATOM     42  C   UNL A   1      37.894  30.408  28.857  1.00  0.00     0.029 A 
ATOM     43  N   UNL A   1      39.407  30.035  30.461  1.00  0.00    -0.354 N 
ATOM     44  C   UNL A   1      39.390  32.305  34.125  1.00  0.00     0.074 A 
ATOM     45  C   UNL A   1      38.310  33.265  34.140  1.00  0.00     0.031 C 
ATOM     46  C   UNL A   1      38.716  29.441  28.418  1.00  0.00     0.029 A 
ATOM     47  C   UNL A   1      39.736  29.187  29.431  1.00  0.00     0.049 A 
ATOM     48  H   UNL A   1      39.912  30.080  31.304  1.00  0.00     0.167 HD
ATOM     49  C   UNL A   1      40.280  32.143  35.134  1.00  0.00     0.031 A 
ATOM     50  C   UNL A   1      40.749  28.310  29.312  1.00  0.00     0.031 A 
ATOM     51  C   UNL A   1      41.345  31.177  35.130  1.00  0.00     0.049 A 
ATOM     52  C   UNL A   1      41.728  28.155  30.441  1.00  0.00     0.074 A 
ATOM     53  C   UNL A   1      42.262  30.898  36.129  1.00  0.00     0.029 A 
ATOM     54  N   UNL A   1      41.637  30.331  34.071  1.00  0.00    -0.354 N 
ATOM     55  N   UNL A   1      41.761  28.774  31.595  1.00  0.00    -0.248 NA
ATOM     56  C   UNL A   1      42.805  27.173  30.253  1.00  0.00     0.031 C 
ATOM     57  C   UNL A   1      43.136  29.913  35.658  1.00  0.00     0.029 A 
ATOM     58  C   UNL A   1      42.733  29.545  34.385  1.00  0.00     0.049 A 
ATOM     59  H   UNL A   1      41.140  30.295  33.223  1.00  0.00     0.167 HD
ATOM     60  C   UNL A   1      42.843  28.240  32.281  1.00  0.00     0.074 A 
ATOM     61  C   UNL A   1      43.433  27.236  31.419  1.00  0.00     0.031 C 
ATOM     62  C   UNL A   1      43.308  28.552  33.515  1.00  0.00     0.031 A 
BRANCH  49  63
ATOM     63  C   UNL A   1      40.139  33.043  36.330  1.00  0.00    -0.014 A 
ATOM     64  C   UNL A   1      40.838  34.258  36.412  1.00  0.00     0.009 A 
ATOM     65  C   UNL A   1      39.271  32.687  37.374  1.00  0.00     0.009 A 
ATOM     66  C   UNL A   1      40.698  35.080  37.533  1.00  0.00     0.001 A 
ATOM     67  C   UNL A   1      39.113  33.524  38.480  1.00  0.00     0.001 A 
ATOM     68  C   UNL A   1      39.833  34.714  38.563  1.00  0.00     0.000 A 
ENDBRANCH  49  63
BRANCH  50  69
ATOM     69  C   UNL A   1      40.885  27.497  28.076  1.00  0.00    -0.014 A 
ATOM     70  C   UNL A   1      40.262  26.243  27.978  1.00  0.00     0.009 A 
ATOM     71  C   UNL A   1      41.638  27.967  26.988  1.00  0.00     0.009 A 
ATOM     72  C   UNL A   1      40.408  25.468  26.826  1.00  0.00     0.001 A 
ATOM     73  C   UNL A   1      41.761  27.200  25.828  1.00  0.00     0.001 A 
ATOM     74  C   UNL A   1      41.153  25.949  25.751  1.00  0.00     0.000 A 
ENDBRANCH  50  69
BRANCH  62  75
ATOM     75  C   UNL A   1      44.493  27.780  34.017  1.00  0.00    -0.014 A 
ATOM     76  C   UNL A   1      45.801  28.256  33.839  1.00  0.00     0.009 A 
ATOM     77  C   UNL A   1      44.294  26.576  34.712  1.00  0.00     0.009 A 
ATOM     78  C   UNL A   1      46.889  27.528  34.324  1.00  0.00     0.001 A 
ATOM     79  C   UNL A   1      45.382  25.863  35.217  1.00  0.00     0.001 A 
ATOM     80  C   UNL A   1      46.678  26.335  35.015  1.00  0.00     0.000 A 
ENDBRANCH  62  75
ENDBRANCH  36  37
ENDBRANCH  28  31
ENDBRANCH  26  27
ENDBRANCH   1  26
TORSDOF 12
ENDMDL
