MODEL 1
REMARK VINA RESULT:     -11.7      0.000      0.000
REMARK SMILES CC(=O)N[C@H](CSCC(=O)Nc1ccc2c(c1)N1CC[NH+]=C1S2)C(=O)NCCCNC(=O)c1ccc(-c2c3nc(c(-c4ccccc4)c4ccc([nH]4)c(-c4ccccc4)c4nc(c(-c5ccccc5)c5ccc2[nH]5)C=C4)C=C3)cc1
REMARK SMILES IDX 24 1 25 2 26 3 5 5 4 6 1 7 2 8 3 9 6 11 7 12 8 13 9 14 10 15
REMARK SMILES IDX 11 16 12 18 13 19 17 20 14 21 16 22 15 23 18 24 23 25 19 26
REMARK SMILES IDX 22 27 20 28 21 29 27 31 28 32 29 33 30 34 31 35 32 37 33 38
REMARK SMILES IDX 34 39 80 40 35 41 79 42 36 43 37 44 38 45 73 46 39 47 78 48
REMARK SMILES IDX 72 49 74 50 40 51 77 52 71 53 70 54 41 56 63 57 48 58 62 59
REMARK SMILES IDX 49 60 52 61 61 62 75 63 50 64 51 65 60 67 76 68 53 69 42 70
REMARK SMILES IDX 43 71 47 72 44 73 46 74 45 75 64 76 65 77 69 78 66 79 68 80
REMARK SMILES IDX 67 81 54 82 55 83 59 84 56 85 58 86 57 87
REMARK H PARENT 26 4 4 10 11 17 21 30 30 36 74 55 52 66
REMARK Flexibility Score: inf
ROOT
ATOM      1  C   UNL A   1      33.312  28.894  26.458  1.00  0.00     0.243 C 
ATOM      2  O   UNL A   1      34.332  28.636  27.104  1.00  0.00    -0.273 OA
ATOM      3  N   UNL A   1      32.733  30.115  26.665  1.00  0.00    -0.354 N 
ATOM      4  H   UNL A   1      33.210  30.678  27.316  1.00  0.00     0.163 HD
ENDROOT
BRANCH   1   5
ATOM      5  C   UNL A   1      32.704  27.853  25.494  1.00  0.00     0.181 C 
BRANCH   5   6
ATOM      6  N   UNL A   1      32.471  26.614  26.248  1.00  0.00    -0.344 N 
ATOM      7  C   UNL A   1      30.175  26.152  25.455  1.00  0.00     0.114 C 
ATOM      8  C   UNL A   1      31.380  25.804  26.280  1.00  0.00     0.217 C 
ATOM      9  O   UNL A   1      31.424  24.784  26.965  1.00  0.00    -0.275 OA
ATOM     10  H   UNL A   1      33.221  26.326  26.817  1.00  0.00     0.164 HD
ENDBRANCH   5   6
BRANCH   5  11
ATOM     11  C   UNL A   1      33.595  27.644  24.266  1.00  0.00     0.105 C 
BRANCH  11  12
ATOM     12  S   UNL A   1      32.722  27.841  22.671  1.00  0.00    -0.149 SA
BRANCH  12  13
ATOM     13  C   UNL A   1      32.119  26.162  22.340  1.00  0.00     0.169 C 
BRANCH  13  14
ATOM     14  C   UNL A   1      32.975  25.302  21.423  1.00  0.00     0.234 C 
ATOM     15  O   UNL A   1      33.043  25.558  20.216  1.00  0.00    -0.274 OA
ATOM     16  N   UNL A   1      33.780  24.311  21.919  1.00  0.00    -0.325 N 
ATOM     17  H   UNL A   1      34.448  23.952  21.291  1.00  0.00     0.169 HD
BRANCH  16  18
ATOM     18  C   UNL A   1      33.783  23.737  23.196  1.00  0.00     0.045 A 
ATOM     19  C   UNL A   1      34.364  24.384  24.298  1.00  0.00     0.027 A 
ATOM     20  C   UNL A   1      33.155  22.499  23.354  1.00  0.00     0.079 A 
ATOM     21  C   UNL A   1      34.448  23.761  25.544  1.00  0.00     0.022 A 
ATOM     22  C   UNL A   1      33.270  21.854  24.573  1.00  0.00     0.144 A 
ATOM     23  C   UNL A   1      33.926  22.489  25.654  1.00  0.00     0.067 A 
ATOM     24  N   UNL A   1      32.885  20.579  24.877  1.00  0.00    -0.216 N 
ATOM     25  S   UNL A   1      34.003  21.388  27.074  1.00  0.00     0.002 SA
ATOM     26  C   UNL A   1      32.185  19.547  24.184  1.00  0.00     0.289 C 
ATOM     27  C   UNL A   1      33.260  20.136  26.108  1.00  0.00     0.316 C 
ATOM     28  C   UNL A   1      32.528  18.345  25.102  1.00  0.00     0.280 C 
ATOM     29  N   UNL A   1      33.063  18.887  26.409  1.00  0.00    -0.264 N 
ATOM     30  H   UNL A   1      33.220  18.418  27.260  1.00  0.00     0.305 HD
ENDBRANCH  16  18
ENDBRANCH  13  14
ENDBRANCH  12  13
ENDBRANCH  11  12
ENDBRANCH   5  11
ENDBRANCH   1   5
BRANCH   3  31
ATOM     31  C   UNL A   1      31.542  30.736  26.106  1.00  0.00     0.117 C 
BRANCH  31  32
ATOM     32  C   UNL A   1      31.301  32.152  26.621  1.00  0.00     0.042 C 
BRANCH  32  33
ATOM     33  C   UNL A   1      32.511  32.814  27.265  1.00  0.00     0.118 C 
BRANCH  33  34
ATOM     34  N   UNL A   1      32.271  34.194  27.658  1.00  0.00    -0.352 N 
ATOM     35  C   UNL A   1      32.930  35.005  28.554  1.00  0.00     0.251 C 
ATOM     36  H   UNL A   1      31.507  34.621  27.206  1.00  0.00     0.163 HD
ATOM     37  O   UNL A   1      32.459  36.099  28.836  1.00  0.00    -0.269 OA
BRANCH  35  38
ATOM     38  C   UNL A   1      34.178  34.552  29.211  1.00  0.00     0.039 A 
ATOM     39  C   UNL A   1      35.424  34.735  28.611  1.00  0.00     0.014 A 
ATOM     40  C   UNL A   1      34.094  33.934  30.463  1.00  0.00     0.014 A 
ATOM     41  C   UNL A   1      36.550  34.130  29.161  1.00  0.00     0.010 A 
ATOM     42  C   UNL A   1      35.245  33.412  31.063  1.00  0.00     0.010 A 
ATOM     43  C   UNL A   1      36.473  33.451  30.387  1.00  0.00    -0.014 A 
BRANCH  43  44
ATOM     44  C   UNL A   1      37.680  32.773  30.927  1.00  0.00     0.031 A 
ATOM     45  C   UNL A   1      38.279  33.203  32.241  1.00  0.00     0.074 A 
ATOM     46  C   UNL A   1      38.195  31.714  30.274  1.00  0.00     0.049 A 
ATOM     47  N   UNL A   1      39.293  32.689  32.892  1.00  0.00    -0.248 NA
ATOM     48  C   UNL A   1      37.664  34.360  32.912  1.00  0.00     0.031 C 
ATOM     49  C   UNL A   1      37.688  31.179  29.010  1.00  0.00     0.029 A 
ATOM     50  N   UNL A   1      39.230  30.873  30.601  1.00  0.00    -0.354 N 
ATOM     51  C   UNL A   1      39.439  33.459  34.039  1.00  0.00     0.074 A 
ATOM     52  C   UNL A   1      38.440  34.503  33.978  1.00  0.00     0.031 C 
ATOM     53  C   UNL A   1      38.362  30.061  28.706  1.00  0.00     0.029 A 
ATOM     54  C   UNL A   1      39.394  29.837  29.714  1.00  0.00     0.049 A 
ATOM     55  H   UNL A   1      39.800  31.001  31.393  1.00  0.00     0.167 HD
ATOM     56  C   UNL A   1      40.314  33.302  35.062  1.00  0.00     0.031 A 
ATOM     57  C   UNL A   1      40.273  28.817  29.706  1.00  0.00     0.031 A 
ATOM     58  C   UNL A   1      41.311  32.266  35.123  1.00  0.00     0.049 A 
ATOM     59  C   UNL A   1      41.280  28.704  30.814  1.00  0.00     0.074 A 
ATOM     60  C   UNL A   1      42.247  32.035  36.116  1.00  0.00     0.029 A 
ATOM     61  N   UNL A   1      41.498  31.289  34.158  1.00  0.00    -0.354 N 
ATOM     62  N   UNL A   1      41.413  29.450  31.884  1.00  0.00    -0.248 NA
ATOM     63  C   UNL A   1      42.260  27.613  30.714  1.00  0.00     0.031 C 
ATOM     64  C   UNL A   1      43.039  30.952  35.724  1.00  0.00     0.029 A 
ATOM     65  C   UNL A   1      42.551  30.466  34.522  1.00  0.00     0.049 A 
ATOM     66  H   UNL A   1      40.964  31.194  33.338  1.00  0.00     0.167 HD
ATOM     67  C   UNL A   1      42.480  28.912  32.592  1.00  0.00     0.074 A 
ATOM     68  C   UNL A   1      42.947  27.766  31.839  1.00  0.00     0.031 C 
ATOM     69  C   UNL A   1      43.017  29.334  33.762  1.00  0.00     0.031 A 
BRANCH  56  70
ATOM     70  C   UNL A   1      40.245  34.285  36.199  1.00  0.00    -0.014 A 
ATOM     71  C   UNL A   1      39.450  34.003  37.322  1.00  0.00     0.009 A 
ATOM     72  C   UNL A   1      40.912  35.519  36.135  1.00  0.00     0.009 A 
ATOM     73  C   UNL A   1      39.318  34.936  38.352  1.00  0.00     0.001 A 
ATOM     74  C   UNL A   1      40.802  36.438  37.181  1.00  0.00     0.001 A 
ATOM     75  C   UNL A   1      40.000  36.149  38.285  1.00  0.00     0.000 A 
ENDBRANCH  56  70
BRANCH  57  76
ATOM     76  C   UNL A   1      40.206  27.812  28.614  1.00  0.00    -0.014 A 
ATOM     77  C   UNL A   1      39.505  26.608  28.792  1.00  0.00     0.009 A 
ATOM     78  C   UNL A   1      40.907  28.019  27.416  1.00  0.00     0.009 A 
ATOM     79  C   UNL A   1      39.538  25.616  27.809  1.00  0.00     0.001 A 
ATOM     80  C   UNL A   1      40.914  27.036  26.423  1.00  0.00     0.001 A 
ATOM     81  C   UNL A   1      40.241  25.832  26.626  1.00  0.00     0.000 A 
ENDBRANCH  57  76
BRANCH  69  82
ATOM     82  C   UNL A   1      44.174  28.555  34.324  1.00  0.00    -0.014 A 
ATOM     83  C   UNL A   1      45.484  28.881  33.938  1.00  0.00     0.009 A 
ATOM     84  C   UNL A   1      43.964  27.439  35.146  1.00  0.00     0.009 A 
ATOM     85  C   UNL A   1      46.561  28.094  34.350  1.00  0.00     0.001 A 
ATOM     86  C   UNL A   1      45.047  26.669  35.580  1.00  0.00     0.001 A 
ATOM     87  C   UNL A   1      46.342  26.990  35.172  1.00  0.00     0.000 A 
ENDBRANCH  69  82
ENDBRANCH  43  44
ENDBRANCH  35  38
ENDBRANCH  33  34
ENDBRANCH  32  33
ENDBRANCH  31  32
ENDBRANCH   3  31
TORSDOF 16
ENDMDL
MODEL 2
REMARK VINA RESULT:     -11.6      0.729      5.799
REMARK SMILES CC(=O)N[C@H](CSCC(=O)Nc1ccc2c(c1)N1CC[NH+]=C1S2)C(=O)NCCCNC(=O)c1ccc(-c2c3nc(c(-c4ccccc4)c4ccc([nH]4)c(-c4ccccc4)c4nc(c(-c5ccccc5)c5ccc2[nH]5)C=C4)C=C3)cc1
REMARK SMILES IDX 24 1 25 2 26 3 5 5 4 6 1 7 2 8 3 9 6 11 7 12 8 13 9 14 10 15
REMARK SMILES IDX 11 16 12 18 13 19 17 20 14 21 16 22 15 23 18 24 23 25 19 26
REMARK SMILES IDX 22 27 20 28 21 29 27 31 28 32 29 33 30 34 31 35 32 37 33 38
REMARK SMILES IDX 34 39 80 40 35 41 79 42 36 43 37 44 38 45 73 46 39 47 78 48
REMARK SMILES IDX 72 49 74 50 40 51 77 52 71 53 70 54 41 56 63 57 48 58 62 59
REMARK SMILES IDX 49 60 52 61 61 62 75 63 50 64 51 65 60 67 76 68 53 69 42 70
REMARK SMILES IDX 43 71 47 72 44 73 46 74 45 75 64 76 65 77 69 78 66 79 68 80
REMARK SMILES IDX 67 81 54 82 55 83 59 84 56 85 58 86 57 87
REMARK H PARENT 26 4 4 10 11 17 21 30 30 36 74 55 52 66
REMARK Flexibility Score: inf
ROOT
ATOM      1  C   UNL A   1      33.162  28.791  26.078  1.00  0.00     0.243 C 
ATOM      2  O   UNL A   1      34.250  28.421  26.529  1.00  0.00    -0.273 OA
ATOM      3  N   UNL A   1      32.788  30.082  26.329  1.00  0.00    -0.354 N 
ATOM      4  H   UNL A   1      33.449  30.596  26.847  1.00  0.00     0.163 HD
ENDROOT
BRANCH   1   5
ATOM      5  C   UNL A   1      32.255  27.814  25.302  1.00  0.00     0.181 C 
BRANCH   5   6
ATOM      6  N   UNL A   1      32.160  26.568  26.074  1.00  0.00    -0.344 N 
ATOM      7  C   UNL A   1      29.850  25.948  25.451  1.00  0.00     0.114 C 
ATOM      8  C   UNL A   1      31.131  25.687  26.188  1.00  0.00     0.217 C 
ATOM      9  O   UNL A   1      31.292  24.678  26.871  1.00  0.00    -0.275 OA
ATOM     10  H   UNL A   1      32.967  26.335  26.589  1.00  0.00     0.164 HD
ENDBRANCH   5   6
BRANCH   5  11
ATOM     11  C   UNL A   1      32.766  27.592  23.875  1.00  0.00     0.105 C 
BRANCH  11  12
ATOM     12  S   UNL A   1      31.440  27.366  22.636  1.00  0.00    -0.149 SA
BRANCH  12  13
ATOM     13  C   UNL A   1      31.609  25.615  22.191  1.00  0.00     0.169 C 
BRANCH  13  14
ATOM     14  C   UNL A   1      32.892  25.217  21.478  1.00  0.00     0.234 C 
ATOM     15  O   UNL A   1      33.086  25.563  20.308  1.00  0.00    -0.274 OA
ATOM     16  N   UNL A   1      33.907  24.579  22.140  1.00  0.00    -0.325 N 
ATOM     17  H   UNL A   1      34.770  24.549  21.666  1.00  0.00     0.169 HD
BRANCH  16  18
ATOM     18  C   UNL A   1      33.888  23.962  23.396  1.00  0.00     0.045 A 
ATOM     19  C   UNL A   1      34.460  24.566  24.527  1.00  0.00     0.027 A 
ATOM     20  C   UNL A   1      33.246  22.726  23.505  1.00  0.00     0.079 A 
ATOM     21  C   UNL A   1      34.521  23.901  25.753  1.00  0.00     0.022 A 
ATOM     22  C   UNL A   1      33.339  22.039  24.702  1.00  0.00     0.144 A 
ATOM     23  C   UNL A   1      33.985  22.631  25.813  1.00  0.00     0.067 A 
ATOM     24  N   UNL A   1      32.938  20.758  24.958  1.00  0.00    -0.216 N 
ATOM     25  S   UNL A   1      34.034  21.483  27.196  1.00  0.00     0.002 SA
ATOM     26  C   UNL A   1      32.239  19.756  24.221  1.00  0.00     0.289 C 
ATOM     27  C   UNL A   1      33.293  20.271  26.179  1.00  0.00     0.316 C 
ATOM     28  C   UNL A   1      32.558  18.522  25.103  1.00  0.00     0.280 C 
ATOM     29  N   UNL A   1      33.080  19.014  26.434  1.00  0.00    -0.264 N 
ATOM     30  H   UNL A   1      33.221  18.515  27.271  1.00  0.00     0.305 HD
ENDBRANCH  16  18
ENDBRANCH  13  14
ENDBRANCH  12  13
ENDBRANCH  11  12
ENDBRANCH   5  11
ENDBRANCH   1   5
BRANCH   3  31
ATOM     31  C   UNL A   1      31.596  30.838  25.976  1.00  0.00     0.117 C 
BRANCH  31  32
ATOM     32  C   UNL A   1      31.371  32.059  26.863  1.00  0.00     0.042 C 
BRANCH  32  33
ATOM     33  C   UNL A   1      32.637  32.801  27.265  1.00  0.00     0.118 C 
BRANCH  33  34
ATOM     34  N   UNL A   1      32.404  34.198  27.601  1.00  0.00    -0.352 N 
ATOM     35  C   UNL A   1      32.987  35.008  28.550  1.00  0.00     0.251 C 
ATOM     36  H   UNL A   1      31.711  34.639  27.057  1.00  0.00     0.163 HD
ATOM     37  O   UNL A   1      32.527  36.123  28.754  1.00  0.00    -0.269 OA
BRANCH  35  38
ATOM     38  C   UNL A   1      34.137  34.529  29.351  1.00  0.00     0.039 A 
ATOM     39  C   UNL A   1      35.424  34.471  28.817  1.00  0.00     0.014 A 
ATOM     40  C   UNL A   1      33.917  34.135  30.676  1.00  0.00     0.014 A 
ATOM     41  C   UNL A   1      36.439  33.840  29.529  1.00  0.00     0.010 A 
ATOM     42  C   UNL A   1      34.965  33.592  31.426  1.00  0.00     0.010 A 
ATOM     43  C   UNL A   1      36.220  33.382  30.837  1.00  0.00    -0.014 A 
BRANCH  43  44
ATOM     44  C   UNL A   1      37.308  32.668  31.556  1.00  0.00     0.031 A 
ATOM     45  C   UNL A   1      38.028  31.514  30.908  1.00  0.00     0.074 A 
ATOM     46  C   UNL A   1      37.703  33.107  32.766  1.00  0.00     0.049 A 
ATOM     47  N   UNL A   1      39.038  30.815  31.362  1.00  0.00    -0.248 NA
ATOM     48  C   UNL A   1      37.556  31.088  29.581  1.00  0.00     0.031 C 
ATOM     49  C   UNL A   1      37.108  34.234  33.487  1.00  0.00     0.029 A 
ATOM     50  N   UNL A   1      38.723  32.689  33.584  1.00  0.00    -0.354 N 
ATOM     51  C   UNL A   1      39.316  29.868  30.384  1.00  0.00     0.074 A 
ATOM     52  C   UNL A   1      38.343  30.051  29.330  1.00  0.00     0.031 C 
ATOM     53  C   UNL A   1      37.817  34.463  34.601  1.00  0.00     0.029 A 
ATOM     54  C   UNL A   1      38.872  33.461  34.711  1.00  0.00     0.049 A 
ATOM     55  H   UNL A   1      39.292  31.911  33.384  1.00  0.00     0.167 HD
ATOM     56  C   UNL A   1      40.303  28.940  30.355  1.00  0.00     0.031 A 
ATOM     57  C   UNL A   1      39.757  33.378  35.723  1.00  0.00     0.031 A 
ATOM     58  C   UNL A   1      41.269  28.754  31.405  1.00  0.00     0.049 A 
ATOM     59  C   UNL A   1      40.798  32.297  35.704  1.00  0.00     0.074 A 
ATOM     60  C   UNL A   1      42.301  27.832  31.468  1.00  0.00     0.029 A 
ATOM     61  N   UNL A   1      41.329  29.502  32.570  1.00  0.00    -0.354 N 
ATOM     62  N   UNL A   1      41.037  31.402  34.777  1.00  0.00    -0.248 NA
ATOM     63  C   UNL A   1      41.689  32.211  36.870  1.00  0.00     0.031 C 
ATOM     64  C   UNL A   1      42.948  27.986  32.696  1.00  0.00     0.029 A 
ATOM     65  C   UNL A   1      42.365  29.048  33.369  1.00  0.00     0.049 A 
ATOM     66  H   UNL A   1      40.724  30.245  32.796  1.00  0.00     0.167 HD
ATOM     67  C   UNL A   1      42.114  30.655  35.239  1.00  0.00     0.074 A 
ATOM     68  C   UNL A   1      42.492  31.214  36.521  1.00  0.00     0.031 C 
ATOM     69  C   UNL A   1      42.729  29.603  34.647  1.00  0.00     0.031 A 
BRANCH  56  70
ATOM     70  C   UNL A   1      40.382  28.039  29.154  1.00  0.00    -0.014 A 
ATOM     71  C   UNL A   1      41.098  28.448  28.017  1.00  0.00     0.009 A 
ATOM     72  C   UNL A   1      39.695  26.814  29.116  1.00  0.00     0.009 A 
ATOM     73  C   UNL A   1      41.120  27.655  26.868  1.00  0.00     0.001 A 
ATOM     74  C   UNL A   1      39.744  26.009  27.976  1.00  0.00     0.001 A 
ATOM     75  C   UNL A   1      40.450  26.433  26.851  1.00  0.00     0.000 A 
ENDBRANCH  56  70
BRANCH  57  76
ATOM     76  C   UNL A   1      39.696  34.379  36.820  1.00  0.00    -0.014 A 
ATOM     77  C   UNL A   1      40.398  35.592  36.722  1.00  0.00     0.009 A 
ATOM     78  C   UNL A   1      39.001  34.091  38.004  1.00  0.00     0.009 A 
ATOM     79  C   UNL A   1      40.434  36.479  37.798  1.00  0.00     0.001 A 
ATOM     80  C   UNL A   1      39.016  34.995  39.069  1.00  0.00     0.001 A 
ATOM     81  C   UNL A   1      39.742  36.181  38.970  1.00  0.00     0.000 A 
ENDBRANCH  57  76
BRANCH  69  82
ATOM     82  C   UNL A   1      43.892  28.976  35.365  1.00  0.00    -0.014 A 
ATOM     83  C   UNL A   1      43.661  27.960  36.308  1.00  0.00     0.009 A 
ATOM     84  C   UNL A   1      45.197  29.458  35.191  1.00  0.00     0.009 A 
ATOM     85  C   UNL A   1      44.711  27.452  37.074  1.00  0.00     0.001 A 
ATOM     86  C   UNL A   1      46.251  28.928  35.939  1.00  0.00     0.001 A 
ATOM     87  C   UNL A   1      46.005  27.934  36.887  1.00  0.00     0.000 A 
ENDBRANCH  69  82
ENDBRANCH  43  44
ENDBRANCH  35  38
ENDBRANCH  33  34
ENDBRANCH  32  33
ENDBRANCH  31  32
ENDBRANCH   3  31
TORSDOF 16
ENDMDL
MODEL 3
REMARK VINA RESULT:     -11.5      1.529      6.084
REMARK SMILES CC(=O)N[C@H](CSCC(=O)Nc1ccc2c(c1)N1CC[NH+]=C1S2)C(=O)NCCCNC(=O)c1ccc(-c2c3nc(c(-c4ccccc4)c4ccc([nH]4)c(-c4ccccc4)c4nc(c(-c5ccccc5)c5ccc2[nH]5)C=C4)C=C3)cc1
REMARK SMILES IDX 24 1 25 2 26 3 5 5 4 6 1 7 2 8 3 9 6 11 7 12 8 13 9 14 10 15
REMARK SMILES IDX 11 16 12 18 13 19 17 20 14 21 16 22 15 23 18 24 23 25 19 26
REMARK SMILES IDX 22 27 20 28 21 29 27 31 28 32 29 33 30 34 31 35 32 37 33 38
REMARK SMILES IDX 34 39 80 40 35 41 79 42 36 43 37 44 38 45 73 46 39 47 78 48
REMARK SMILES IDX 72 49 74 50 40 51 77 52 71 53 70 54 41 56 63 57 48 58 62 59
REMARK SMILES IDX 49 60 52 61 61 62 75 63 50 64 51 65 60 67 76 68 53 69 42 70
REMARK SMILES IDX 43 71 47 72 44 73 46 74 45 75 64 76 65 77 69 78 66 79 68 80
REMARK SMILES IDX 67 81 54 82 55 83 59 84 56 85 58 86 57 87
REMARK H PARENT 26 4 4 10 11 17 21 30 30 36 74 55 52 66
REMARK Flexibility Score: inf
ROOT
ATOM      1  C   UNL A   1      31.834  28.406  26.990  1.00  0.00     0.243 C 
ATOM      2  O   UNL A   1      31.667  27.756  28.027  1.00  0.00    -0.273 OA
ATOM      3  N   UNL A   1      31.609  29.752  27.054  1.00  0.00    -0.354 N 
ATOM      4  H   UNL A   1      31.342  30.072  27.946  1.00  0.00     0.163 HD
ENDROOT
BRANCH   1   5
ATOM      5  C   UNL A   1      32.237  27.705  25.675  1.00  0.00     0.181 C 
BRANCH   5   6
ATOM      6  N   UNL A   1      31.127  26.836  25.262  1.00  0.00    -0.344 N 
ATOM      7  C   UNL A   1      30.299  28.203  23.376  1.00  0.00     0.114 C 
ATOM      8  C   UNL A   1      30.229  26.987  24.254  1.00  0.00     0.217 C 
ATOM      9  O   UNL A   1      29.397  26.101  24.068  1.00  0.00    -0.275 OA
ATOM     10  H   UNL A   1      31.017  26.018  25.799  1.00  0.00     0.164 HD
ENDBRANCH   5   6
BRANCH   5  11
ATOM     11  C   UNL A   1      33.559  26.948  25.830  1.00  0.00     0.105 C 
BRANCH  11  12
ATOM     12  S   UNL A   1      33.679  25.442  24.801  1.00  0.00    -0.149 SA
BRANCH  12  13
ATOM     13  C   UNL A   1      33.419  24.114  26.011  1.00  0.00     0.169 C 
BRANCH  13  14
ATOM     14  C   UNL A   1      31.977  23.816  26.390  1.00  0.00     0.234 C 
ATOM     15  O   UNL A   1      31.409  24.491  27.254  1.00  0.00    -0.274 OA
ATOM     16  N   UNL A   1      31.238  22.885  25.709  1.00  0.00    -0.325 N 
ATOM     17  H   UNL A   1      30.268  22.906  25.878  1.00  0.00     0.169 HD
BRANCH  16  18
ATOM     18  C   UNL A   1      31.671  21.907  24.806  1.00  0.00     0.045 A 
ATOM     19  C   UNL A   1      31.715  22.142  23.423  1.00  0.00     0.027 A 
ATOM     20  C   UNL A   1      32.094  20.682  25.328  1.00  0.00     0.079 A 
ATOM     21  C   UNL A   1      32.055  21.130  22.525  1.00  0.00     0.022 A 
ATOM     22  C   UNL A   1      32.391  19.658  24.445  1.00  0.00     0.144 A 
ATOM     23  C   UNL A   1      32.359  19.891  23.050  1.00  0.00     0.067 A 
ATOM     24  N   UNL A   1      32.652  18.352  24.747  1.00  0.00    -0.216 N 
ATOM     25  S   UNL A   1      32.698  18.370  22.153  1.00  0.00     0.002 SA
ATOM     26  C   UNL A   1      32.820  17.612  25.955  1.00  0.00     0.289 C 
ATOM     27  C   UNL A   1      32.755  17.517  23.676  1.00  0.00     0.316 C 
ATOM     28  C   UNL A   1      32.697  16.173  25.392  1.00  0.00     0.280 C 
ATOM     29  N   UNL A   1      32.851  16.238  23.889  1.00  0.00    -0.264 N 
ATOM     30  H   UNL A   1      32.986  15.507  23.244  1.00  0.00     0.305 HD
ENDBRANCH  16  18
ENDBRANCH  13  14
ENDBRANCH  12  13
ENDBRANCH  11  12
ENDBRANCH   5  11
ENDBRANCH   1   5
BRANCH   3  31
ATOM     31  C   UNL A   1      31.688  30.803  26.049  1.00  0.00     0.117 C 
BRANCH  31  32
ATOM     32  C   UNL A   1      31.428  32.197  26.612  1.00  0.00     0.042 C 
BRANCH  32  33
ATOM     33  C   UNL A   1      32.633  32.860  27.264  1.00  0.00     0.118 C 
BRANCH  33  34
ATOM     34  N   UNL A   1      32.392  34.243  27.646  1.00  0.00    -0.352 N 
ATOM     35  C   UNL A   1      32.977  35.027  28.615  1.00  0.00     0.251 C 
ATOM     36  H   UNL A   1      31.691  34.696  27.123  1.00  0.00     0.163 HD
ATOM     37  O   UNL A   1      32.511  36.132  28.858  1.00  0.00    -0.269 OA
BRANCH  35  38
ATOM     38  C   UNL A   1      34.138  34.533  29.390  1.00  0.00     0.039 A 
ATOM     39  C   UNL A   1      35.429  34.552  28.862  1.00  0.00     0.014 A 
ATOM     40  C   UNL A   1      33.926  34.043  30.683  1.00  0.00     0.014 A 
ATOM     41  C   UNL A   1      36.461  33.908  29.536  1.00  0.00     0.010 A 
ATOM     42  C   UNL A   1      34.987  33.484  31.402  1.00  0.00     0.010 A 
ATOM     43  C   UNL A   1      36.251  33.355  30.809  1.00  0.00    -0.014 A 
BRANCH  43  44
ATOM     44  C   UNL A   1      37.358  32.630  31.486  1.00  0.00     0.031 A 
ATOM     45  C   UNL A   1      38.057  31.485  30.800  1.00  0.00     0.074 A 
ATOM     46  C   UNL A   1      37.790  33.051  32.689  1.00  0.00     0.049 A 
ATOM     47  N   UNL A   1      39.079  30.777  31.214  1.00  0.00    -0.248 NA
ATOM     48  C   UNL A   1      37.546  31.079  29.481  1.00  0.00     0.031 C 
ATOM     49  C   UNL A   1      37.218  34.167  33.444  1.00  0.00     0.029 A 
ATOM     50  N   UNL A   1      38.832  32.619  33.472  1.00  0.00    -0.354 N 
ATOM     51  C   UNL A   1      39.326  29.845  30.214  1.00  0.00     0.074 A 
ATOM     52  C   UNL A   1      38.323  30.045  29.192  1.00  0.00     0.031 C 
ATOM     53  C   UNL A   1      37.959  34.380  34.540  1.00  0.00     0.029 A 
ATOM     54  C   UNL A   1      39.015  33.375  34.604  1.00  0.00     0.049 A 
ATOM     55  H   UNL A   1      39.393  31.844  33.243  1.00  0.00     0.167 HD
ATOM     56  C   UNL A   1      40.311  28.916  30.144  1.00  0.00     0.031 A 
ATOM     57  C   UNL A   1      39.929  33.276  35.589  1.00  0.00     0.031 A 
ATOM     58  C   UNL A   1      41.307  28.713  31.162  1.00  0.00     0.049 A 
ATOM     59  C   UNL A   1      40.968  32.194  35.524  1.00  0.00     0.074 A 
ATOM     60  C   UNL A   1      42.338  27.790  31.182  1.00  0.00     0.029 A 
ATOM     61  N   UNL A   1      41.402  29.445  32.336  1.00  0.00    -0.354 N 
ATOM     62  N   UNL A   1      41.178  31.312  34.578  1.00  0.00    -0.248 NA
ATOM     63  C   UNL A   1      41.892  32.090  36.662  1.00  0.00     0.031 C 
ATOM     64  C   UNL A   1      43.022  27.925  32.393  1.00  0.00     0.029 A 
ATOM     65  C   UNL A   1      42.460  28.977  33.097  1.00  0.00     0.049 A 
ATOM     66  H   UNL A   1      40.806  30.185  32.590  1.00  0.00     0.167 HD
ATOM     67  C   UNL A   1      42.266  30.558  34.997  1.00  0.00     0.074 A 
ATOM     68  C   UNL A   1      42.683  31.097  36.275  1.00  0.00     0.031 C 
ATOM     69  C   UNL A   1      42.863  29.513  34.372  1.00  0.00     0.031 A 
BRANCH  56  70
ATOM     70  C   UNL A   1      40.354  28.032  28.927  1.00  0.00    -0.014 A 
ATOM     71  C   UNL A   1      39.729  26.775  28.952  1.00  0.00     0.009 A 
ATOM     72  C   UNL A   1      41.069  28.410  27.779  1.00  0.00     0.009 A 
ATOM     73  C   UNL A   1      39.823  25.913  27.858  1.00  0.00     0.001 A 
ATOM     74  C   UNL A   1      41.135  27.559  26.674  1.00  0.00     0.001 A 
ATOM     75  C   UNL A   1      40.519  26.309  26.716  1.00  0.00     0.000 A 
ENDBRANCH  56  70
BRANCH  57  76
ATOM     76  C   UNL A   1      39.902  34.260  36.702  1.00  0.00    -0.014 A 
ATOM     77  C   UNL A   1      39.197  33.983  37.885  1.00  0.00     0.009 A 
ATOM     78  C   UNL A   1      40.515  35.514  36.555  1.00  0.00     0.009 A 
ATOM     79  C   UNL A   1      39.076  34.953  38.882  1.00  0.00     0.001 A 
ATOM     80  C   UNL A   1      40.415  36.472  37.567  1.00  0.00     0.001 A 
ATOM     81  C   UNL A   1      39.686  36.195  38.722  1.00  0.00     0.000 A 
ENDBRANCH  57  76
BRANCH  69  82
ATOM     82  C   UNL A   1      44.044  28.874  35.046  1.00  0.00    -0.014 A 
ATOM     83  C   UNL A   1      43.838  27.864  36.000  1.00  0.00     0.009 A 
ATOM     84  C   UNL A   1      45.347  29.341  34.821  1.00  0.00     0.009 A 
ATOM     85  C   UNL A   1      44.911  27.345  36.727  1.00  0.00     0.001 A 
ATOM     86  C   UNL A   1      46.423  28.801  35.530  1.00  0.00     0.001 A 
ATOM     87  C   UNL A   1      46.203  27.812  36.489  1.00  0.00     0.000 A 
ENDBRANCH  69  82
ENDBRANCH  43  44
ENDBRANCH  35  38
ENDBRANCH  33  34
ENDBRANCH  32  33
ENDBRANCH  31  32
ENDBRANCH   3  31
TORSDOF 16
ENDMDL
