MODEL 1
REMARK VINA RESULT:      -9.7      0.000      0.000
REMARK SMILES CS(=O)(=O)c1ccc(O[C@@H](F)C(=O)NCCCNC(=O)c2ccc(-c3c4nc(c(-c5ccccc5)c5ccc([nH]5)c(-c5ccccc5)c5nc(c(-c6ccccc6)c6ccc3[nH]6)C=C5)C=C4)cc2)cc1
REMARK SMILES IDX 15 1 14 2 12 3 13 4 10 6 11 7 9 8 8 9 5 10 6 11 70 12 7 13
REMARK SMILES IDX 69 14 2 15 1 16 3 17 4 18 16 19 17 20 18 21 19 22 20 24
REMARK SMILES IDX 21 25 22 26 68 27 23 28 67 29 24 30 25 31 26 32 61 33 27 34
REMARK SMILES IDX 66 35 60 36 62 37 28 38 65 39 59 40 58 41 29 43 51 44 36 45
REMARK SMILES IDX 50 46 37 47 40 48 49 49 63 50 38 51 39 52 48 54 64 55 41 56
REMARK SMILES IDX 30 57 31 58 35 59 32 60 34 61 33 62 52 63 53 64 57 65 54 66
REMARK SMILES IDX 56 67 55 68 42 69 43 70 47 71 44 72 46 73 45 74
REMARK H PARENT 14 5 18 23 62 42 40 53
REMARK Flexibility Score: inf
ROOT
ATOM      1  C   UNL A   1      33.660  36.299  31.561  1.00  0.00     0.118 C 
ENDROOT
BRANCH   1   2
ATOM      2  N   UNL A   1      33.299  34.966  32.008  1.00  0.00    -0.350 N 
ATOM      3  C   UNL A   1      33.815  34.214  33.029  1.00  0.00     0.294 C 
ATOM      4  O   UNL A   1      33.458  33.031  33.077  1.00  0.00    -0.267 OA
ATOM      5  H   UNL A   1      32.574  34.537  31.500  1.00  0.00     0.163 HD
BRANCH   3   6
ATOM      6  C   UNL A   1      34.799  34.794  34.083  1.00  0.00     0.440 C 
ATOM      7  F   UNL A   1      34.351  35.935  34.685  1.00  0.00    -0.191 F 
BRANCH   6   8
ATOM      8  O   UNL A   1      36.170  34.926  33.707  1.00  0.00    -0.452 OA
BRANCH   8   9
ATOM      9  C   UNL A   1      37.042  33.972  34.138  1.00  0.00     0.123 A 
ATOM     10  C   UNL A   1      38.779  31.910  34.863  1.00  0.00     0.067 A 
ATOM     11  C   UNL A   1      37.738  31.651  33.968  1.00  0.00     0.024 A 
ATOM     12  C   UNL A   1      38.901  33.169  35.458  1.00  0.00     0.024 A 
ATOM     13  C   UNL A   1      36.867  32.688  33.615  1.00  0.00     0.048 A 
ATOM     14  C   UNL A   1      38.016  34.191  35.110  1.00  0.00     0.048 A 
BRANCH  10  15
ATOM     15  S   UNL A   1      40.034  30.699  35.204  1.00  0.00     0.175 S 
ATOM     16  C   UNL A   1      41.331  31.548  36.058  1.00  0.00     0.163 C 
ATOM     17  O   UNL A   1      40.541  30.247  33.932  1.00  0.00    -0.224 OA
ATOM     18  O   UNL A   1      39.452  29.770  36.164  1.00  0.00    -0.224 OA
ENDBRANCH  10  15
ENDBRANCH   8   9
ENDBRANCH   6   8
ENDBRANCH   3   6
ENDBRANCH   1   2
BRANCH   1  19
ATOM     19  C   UNL A   1      32.731  36.768  30.443  1.00  0.00     0.042 C 
BRANCH  19  20
ATOM     20  C   UNL A   1      33.250  36.488  29.038  1.00  0.00     0.118 C 
BRANCH  20  21
ATOM     21  N   UNL A   1      32.631  35.306  28.466  1.00  0.00    -0.352 N 
ATOM     22  C   UNL A   1      33.142  34.065  28.179  1.00  0.00     0.251 C 
ATOM     23  H   UNL A   1      31.678  35.413  28.244  1.00  0.00     0.163 HD
ATOM     24  O   UNL A   1      32.478  33.311  27.471  1.00  0.00    -0.269 OA
BRANCH  22  25
ATOM     25  C   UNL A   1      34.452  33.596  28.703  1.00  0.00     0.039 A 
ATOM     26  C   UNL A   1      35.612  33.989  28.024  1.00  0.00     0.014 A 
ATOM     27  C   UNL A   1      34.561  32.680  29.754  1.00  0.00     0.014 A 
ATOM     28  C   UNL A   1      36.859  33.470  28.388  1.00  0.00     0.010 A 
ATOM     29  C   UNL A   1      35.816  32.226  30.172  1.00  0.00     0.010 A 
ATOM     30  C   UNL A   1      36.976  32.585  29.471  1.00  0.00    -0.014 A 
BRANCH  30  31
ATOM     31  C   UNL A   1      38.292  31.990  29.831  1.00  0.00     0.031 A 
ATOM     32  C   UNL A   1      39.240  32.722  30.748  1.00  0.00     0.074 A 
ATOM     33  C   UNL A   1      38.654  30.795  29.326  1.00  0.00     0.049 A 
ATOM     34  N   UNL A   1      40.422  32.353  31.178  1.00  0.00    -0.248 NA
ATOM     35  C   UNL A   1      38.814  34.045  31.228  1.00  0.00     0.031 C 
ATOM     36  C   UNL A   1      37.851  29.985  28.412  1.00  0.00     0.029 A 
ATOM     37  N   UNL A   1      39.791  30.049  29.519  1.00  0.00    -0.354 N 
ATOM     38  C   UNL A   1      40.886  33.406  31.959  1.00  0.00     0.074 A 
ATOM     39  C   UNL A   1      39.881  34.445  31.904  1.00  0.00     0.031 C 
ATOM     40  C   UNL A   1      38.504  28.842  28.145  1.00  0.00     0.029 A 
ATOM     41  C   UNL A   1      39.777  28.846  28.857  1.00  0.00     0.049 A 
ATOM     42  H   UNL A   1      40.544  30.348  30.078  1.00  0.00     0.167 HD
ATOM     43  C   UNL A   1      42.032  33.496  32.678  1.00  0.00     0.031 A 
ATOM     44  C   UNL A   1      40.676  27.844  28.841  1.00  0.00     0.031 A 
ATOM     45  C   UNL A   1      43.024  32.459  32.766  1.00  0.00     0.049 A 
ATOM     46  C   UNL A   1      41.924  27.951  29.668  1.00  0.00     0.074 A 
ATOM     47  C   UNL A   1      44.191  32.440  33.511  1.00  0.00     0.029 A 
ATOM     48  N   UNL A   1      42.961  31.250  32.092  1.00  0.00    -0.354 N 
ATOM     49  N   UNL A   1      42.320  28.934  30.439  1.00  0.00    -0.248 NA
ATOM     50  C   UNL A   1      42.834  26.798  29.641  1.00  0.00     0.031 C 
ATOM     51  C   UNL A   1      44.848  31.228  33.265  1.00  0.00     0.029 A 
ATOM     52  C   UNL A   1      44.071  30.481  32.396  1.00  0.00     0.049 A 
ATOM     53  H   UNL A   1      42.234  30.979  31.486  1.00  0.00     0.167 HD
ATOM     54  C   UNL A   1      43.511  28.506  31.011  1.00  0.00     0.074 A 
ATOM     55  C   UNL A   1      43.767  27.173  30.505  1.00  0.00     0.031 C 
ATOM     56  C   UNL A   1      44.316  29.159  31.883  1.00  0.00     0.031 A 
BRANCH  43  57
ATOM     57  C   UNL A   1      42.268  34.776  33.430  1.00  0.00    -0.014 A 
ATOM     58  C   UNL A   1      41.791  34.948  34.739  1.00  0.00     0.009 A 
ATOM     59  C   UNL A   1      42.986  35.820  32.826  1.00  0.00     0.009 A 
ATOM     60  C   UNL A   1      41.993  36.154  35.413  1.00  0.00     0.001 A 
ATOM     61  C   UNL A   1      43.209  37.015  33.513  1.00  0.00     0.001 A 
ATOM     62  C   UNL A   1      42.704  37.185  34.801  1.00  0.00     0.000 A 
ENDBRANCH  43  57
BRANCH  44  63
ATOM     63  C   UNL A   1      40.392  26.617  28.056  1.00  0.00    -0.014 A 
ATOM     64  C   UNL A   1      39.607  25.593  28.608  1.00  0.00     0.009 A 
ATOM     65  C   UNL A   1      40.884  26.472  26.750  1.00  0.00     0.009 A 
ATOM     66  C   UNL A   1      39.332  24.439  27.872  1.00  0.00     0.001 A 
ATOM     67  C   UNL A   1      40.591  25.325  26.010  1.00  0.00     0.001 A 
ATOM     68  C   UNL A   1      39.820  24.309  26.573  1.00  0.00     0.000 A 
ENDBRANCH  44  63
BRANCH  56  69
ATOM     69  C   UNL A   1      45.532  28.425  32.367  1.00  0.00    -0.014 A 
ATOM     70  C   UNL A   1      46.759  28.529  31.693  1.00  0.00     0.009 A 
ATOM     71  C   UNL A   1      45.452  27.632  33.521  1.00  0.00     0.009 A 
ATOM     72  C   UNL A   1      47.875  27.823  32.149  1.00  0.00     0.001 A 
ATOM     73  C   UNL A   1      46.574  26.944  33.987  1.00  0.00     0.001 A 
ATOM     74  C   UNL A   1      47.781  27.032  33.295  1.00  0.00     0.000 A 
ENDBRANCH  56  69
ENDBRANCH  30  31
ENDBRANCH  22  25
ENDBRANCH  20  21
ENDBRANCH  19  20
ENDBRANCH   1  19
TORSDOF 13
ENDMDL
MODEL 2
REMARK VINA RESULT:      -9.0      0.658      6.117
REMARK SMILES CS(=O)(=O)c1ccc(O[C@@H](F)C(=O)NCCCNC(=O)c2ccc(-c3c4nc(c(-c5ccccc5)c5ccc([nH]5)c(-c5ccccc5)c5nc(c(-c6ccccc6)c6ccc3[nH]6)C=C5)C=C4)cc2)cc1
REMARK SMILES IDX 15 1 14 2 12 3 13 4 10 6 11 7 9 8 8 9 5 10 6 11 70 12 7 13
REMARK SMILES IDX 69 14 2 15 1 16 3 17 4 18 16 19 17 20 18 21 19 22 20 24
REMARK SMILES IDX 21 25 22 26 68 27 23 28 67 29 24 30 25 31 26 32 61 33 27 34
REMARK SMILES IDX 66 35 60 36 62 37 28 38 65 39 59 40 58 41 29 43 51 44 36 45
REMARK SMILES IDX 50 46 37 47 40 48 49 49 63 50 38 51 39 52 48 54 64 55 41 56
REMARK SMILES IDX 30 57 31 58 35 59 32 60 34 61 33 62 52 63 53 64 57 65 54 66
REMARK SMILES IDX 56 67 55 68 42 69 43 70 47 71 44 72 46 73 45 74
REMARK H PARENT 14 5 18 23 62 42 40 53
REMARK Flexibility Score: inf
ROOT
ATOM      1  C   UNL A   1      33.888  35.945  31.347  1.00  0.00     0.118 C 
ENDROOT
BRANCH   1   2
ATOM      2  N   UNL A   1      33.342  34.759  31.982  1.00  0.00    -0.350 N 
ATOM      3  C   UNL A   1      33.777  34.078  33.087  1.00  0.00     0.294 C 
ATOM      4  O   UNL A   1      33.242  32.984  33.306  1.00  0.00    -0.267 OA
ATOM      5  H   UNL A   1      32.538  34.388  31.553  1.00  0.00     0.163 HD
BRANCH   3   6
ATOM      6  C   UNL A   1      34.884  34.627  34.029  1.00  0.00     0.440 C 
ATOM      7  F   UNL A   1      34.576  35.830  34.597  1.00  0.00    -0.191 F 
BRANCH   6   8
ATOM      8  O   UNL A   1      36.227  34.627  33.544  1.00  0.00    -0.452 OA
BRANCH   8   9
ATOM      9  C   UNL A   1      37.114  33.776  34.131  1.00  0.00     0.123 A 
ATOM     10  C   UNL A   1      38.887  31.899  35.193  1.00  0.00     0.067 A 
ATOM     11  C   UNL A   1      37.857  31.473  34.351  1.00  0.00     0.024 A 
ATOM     12  C   UNL A   1      38.980  33.241  35.572  1.00  0.00     0.024 A 
ATOM     13  C   UNL A   1      36.968  32.420  33.828  1.00  0.00     0.048 A 
ATOM     14  C   UNL A   1      38.077  34.173  35.056  1.00  0.00     0.048 A 
BRANCH  10  15
ATOM     15  S   UNL A   1      40.163  30.787  35.735  1.00  0.00     0.175 S 
ATOM     16  C   UNL A   1      41.002  30.238  34.276  1.00  0.00     0.163 C 
ATOM     17  O   UNL A   1      39.507  29.655  36.341  1.00  0.00    -0.224 OA
ATOM     18  O   UNL A   1      41.121  31.598  36.476  1.00  0.00    -0.224 OA
ENDBRANCH  10  15
ENDBRANCH   8   9
ENDBRANCH   6   8
ENDBRANCH   3   6
ENDBRANCH   1   2
BRANCH   1  19
ATOM     19  C   UNL A   1      32.889  36.542  30.359  1.00  0.00     0.042 C 
BRANCH  19  20
ATOM     20  C   UNL A   1      33.249  36.325  28.895  1.00  0.00     0.118 C 
BRANCH  20  21
ATOM     21  N   UNL A   1      32.665  35.101  28.376  1.00  0.00    -0.352 N 
ATOM     22  C   UNL A   1      33.214  33.865  28.145  1.00  0.00     0.251 C 
ATOM     23  H   UNL A   1      31.709  35.169  28.152  1.00  0.00     0.163 HD
ATOM     24  O   UNL A   1      32.573  33.059  27.472  1.00  0.00    -0.269 OA
BRANCH  22  25
ATOM     25  C   UNL A   1      34.537  33.459  28.688  1.00  0.00     0.039 A 
ATOM     26  C   UNL A   1      35.686  33.876  28.003  1.00  0.00     0.014 A 
ATOM     27  C   UNL A   1      34.675  32.577  29.763  1.00  0.00     0.014 A 
ATOM     28  C   UNL A   1      36.949  33.415  28.387  1.00  0.00     0.010 A 
ATOM     29  C   UNL A   1      35.944  32.182  30.200  1.00  0.00     0.010 A 
ATOM     30  C   UNL A   1      37.093  32.565  29.494  1.00  0.00    -0.014 A 
BRANCH  30  31
ATOM     31  C   UNL A   1      38.428  32.029  29.877  1.00  0.00     0.031 A 
ATOM     32  C   UNL A   1      38.888  30.684  29.374  1.00  0.00     0.074 A 
ATOM     33  C   UNL A   1      39.232  32.738  30.692  1.00  0.00     0.049 A 
ATOM     34  N   UNL A   1      40.021  30.062  29.596  1.00  0.00    -0.248 NA
ATOM     35  C   UNL A   1      37.949  29.931  28.530  1.00  0.00     0.031 C 
ATOM     36  C   UNL A   1      38.912  34.041  31.272  1.00  0.00     0.029 A 
ATOM     37  N   UNL A   1      40.491  32.464  31.168  1.00  0.00    -0.354 N 
ATOM     38  C   UNL A   1      39.919  28.842  28.938  1.00  0.00     0.074 A 
ATOM     39  C   UNL A   1      38.598  28.791  28.350  1.00  0.00     0.031 C 
ATOM     40  C   UNL A   1      39.955  34.469  32.001  1.00  0.00     0.029 A 
ATOM     41  C   UNL A   1      41.012  33.465  31.952  1.00  0.00     0.049 A 
ATOM     42  H   UNL A   1      40.975  31.631  30.966  1.00  0.00     0.167 HD
ATOM     43  C   UNL A   1      40.845  27.860  28.811  1.00  0.00     0.031 A 
ATOM     44  C   UNL A   1      42.213  33.576  32.547  1.00  0.00     0.031 A 
ATOM     45  C   UNL A   1      42.171  27.912  29.364  1.00  0.00     0.049 A 
ATOM     46  C   UNL A   1      43.236  32.491  32.369  1.00  0.00     0.074 A 
ATOM     47  C   UNL A   1      43.196  26.988  29.242  1.00  0.00     0.029 A 
ATOM     48  N   UNL A   1      42.662  28.952  30.137  1.00  0.00    -0.354 N 
ATOM     49  N   UNL A   1      43.137  31.368  31.700  1.00  0.00    -0.248 NA
ATOM     50  C   UNL A   1      44.542  32.705  33.006  1.00  0.00     0.031 C 
ATOM     51  C   UNL A   1      44.298  27.458  29.967  1.00  0.00     0.029 A 
ATOM     52  C   UNL A   1      43.970  28.690  30.507  1.00  0.00     0.049 A 
ATOM     53  H   UNL A   1      42.154  29.758  30.387  1.00  0.00     0.167 HD
ATOM     54  C   UNL A   1      44.378  30.754  31.813  1.00  0.00     0.074 A 
ATOM     55  C   UNL A   1      45.213  31.633  32.606  1.00  0.00     0.031 C 
ATOM     56  C   UNL A   1      44.788  29.570  31.298  1.00  0.00     0.031 A 
BRANCH  43  57
ATOM     57  C   UNL A   1      40.442  26.638  28.035  1.00  0.00    -0.014 A 
ATOM     58  C   UNL A   1      39.627  25.649  28.608  1.00  0.00     0.009 A 
ATOM     59  C   UNL A   1      40.873  26.478  26.708  1.00  0.00     0.009 A 
ATOM     60  C   UNL A   1      39.286  24.505  27.884  1.00  0.00     0.001 A 
ATOM     61  C   UNL A   1      40.508  25.344  25.978  1.00  0.00     0.001 A 
ATOM     62  C   UNL A   1      39.724  24.355  26.569  1.00  0.00     0.000 A 
ENDBRANCH  43  57
BRANCH  44  63
ATOM     63  C   UNL A   1      42.538  34.800  33.321  1.00  0.00    -0.014 A 
ATOM     64  C   UNL A   1      42.215  34.878  34.685  1.00  0.00     0.009 A 
ATOM     65  C   UNL A   1      43.188  35.883  32.710  1.00  0.00     0.009 A 
ATOM     66  C   UNL A   1      42.524  36.024  35.419  1.00  0.00     0.001 A 
ATOM     67  C   UNL A   1      43.513  37.020  33.452  1.00  0.00     0.001 A 
ATOM     68  C   UNL A   1      43.176  37.092  34.803  1.00  0.00     0.000 A 
ENDBRANCH  44  63
BRANCH  56  69
ATOM     69  C   UNL A   1      46.213  29.175  31.553  1.00  0.00    -0.014 A 
ATOM     70  C   UNL A   1      47.240  29.552  30.672  1.00  0.00     0.009 A 
ATOM     71  C   UNL A   1      46.535  28.431  32.698  1.00  0.00     0.009 A 
ATOM     72  C   UNL A   1      48.557  29.158  30.916  1.00  0.00     0.001 A 
ATOM     73  C   UNL A   1      47.856  28.058  32.951  1.00  0.00     0.001 A 
ATOM     74  C   UNL A   1      48.864  28.413  32.056  1.00  0.00     0.000 A 
ENDBRANCH  56  69
ENDBRANCH  30  31
ENDBRANCH  22  25
ENDBRANCH  20  21
ENDBRANCH  19  20
ENDBRANCH   1  19
TORSDOF 13
ENDMDL
MODEL 3
REMARK VINA RESULT:      -8.8      2.076      3.264
REMARK SMILES CS(=O)(=O)c1ccc(O[C@@H](F)C(=O)NCCCNC(=O)c2ccc(-c3c4nc(c(-c5ccccc5)c5ccc([nH]5)c(-c5ccccc5)c5nc(c(-c6ccccc6)c6ccc3[nH]6)C=C5)C=C4)cc2)cc1
REMARK SMILES IDX 15 1 14 2 12 3 13 4 10 6 11 7 9 8 8 9 5 10 6 11 70 12 7 13
REMARK SMILES IDX 69 14 2 15 1 16 3 17 4 18 16 19 17 20 18 21 19 22 20 24
REMARK SMILES IDX 21 25 22 26 68 27 23 28 67 29 24 30 25 31 26 32 61 33 27 34
REMARK SMILES IDX 66 35 60 36 62 37 28 38 65 39 59 40 58 41 29 43 51 44 36 45
REMARK SMILES IDX 50 46 37 47 40 48 49 49 63 50 38 51 39 52 48 54 64 55 41 56
REMARK SMILES IDX 30 57 31 58 35 59 32 60 34 61 33 62 52 63 53 64 57 65 54 66
REMARK SMILES IDX 56 67 55 68 42 69 43 70 47 71 44 72 46 73 45 74
REMARK H PARENT 14 5 18 23 62 42 40 53
REMARK Flexibility Score: inf
ROOT
ATOM      1  C   UNL A   1      33.732  35.470  28.983  1.00  0.00     0.118 C 
ENDROOT
BRANCH   1   2
ATOM      2  N   UNL A   1      32.775  36.113  29.866  1.00  0.00    -0.350 N 
ATOM      3  C   UNL A   1      32.641  36.024  31.225  1.00  0.00     0.294 C 
ATOM      4  O   UNL A   1      31.619  36.525  31.711  1.00  0.00    -0.267 OA
ATOM      5  H   UNL A   1      32.124  36.701  29.420  1.00  0.00     0.163 HD
BRANCH   3   6
ATOM      6  C   UNL A   1      33.700  35.335  32.130  1.00  0.00     0.440 C 
ATOM      7  F   UNL A   1      34.965  35.820  31.963  1.00  0.00    -0.191 F 
BRANCH   6   8
ATOM      8  O   UNL A   1      33.707  33.908  32.171  1.00  0.00    -0.452 OA
BRANCH   8   9
ATOM      9  C   UNL A   1      34.829  33.292  32.637  1.00  0.00     0.123 A 
ATOM     10  C   UNL A   1      37.074  32.082  33.774  1.00  0.00     0.067 A 
ATOM     11  C   UNL A   1      36.378  33.056  34.494  1.00  0.00     0.024 A 
ATOM     12  C   UNL A   1      36.702  31.774  32.463  1.00  0.00     0.024 A 
ATOM     13  C   UNL A   1      35.259  33.664  33.914  1.00  0.00     0.048 A 
ATOM     14  C   UNL A   1      35.593  32.398  31.889  1.00  0.00     0.048 A 
BRANCH  10  15
ATOM     15  S   UNL A   1      38.380  31.134  34.518  1.00  0.00     0.175 S 
ATOM     16  C   UNL A   1      38.093  31.169  36.264  1.00  0.00     0.163 C 
ATOM     17  O   UNL A   1      39.614  31.826  34.241  1.00  0.00    -0.224 OA
ATOM     18  O   UNL A   1      38.171  29.754  34.098  1.00  0.00    -0.224 OA
ENDBRANCH  10  15
ENDBRANCH   8   9
ENDBRANCH   6   8
ENDBRANCH   3   6
ENDBRANCH   1   2
BRANCH   1  19
ATOM     19  C   UNL A   1      33.209  34.117  28.507  1.00  0.00     0.042 C 
BRANCH  19  20
ATOM     20  C   UNL A   1      34.287  33.056  28.328  1.00  0.00     0.118 C 
BRANCH  20  21
ATOM     21  N   UNL A   1      33.720  31.778  27.937  1.00  0.00    -0.352 N 
ATOM     22  C   UNL A   1      34.300  30.548  27.757  1.00  0.00     0.251 C 
ATOM     23  H   UNL A   1      32.750  31.797  27.771  1.00  0.00     0.163 HD
ATOM     24  O   UNL A   1      33.649  29.674  27.186  1.00  0.00    -0.269 OA
BRANCH  22  25
ATOM     25  C   UNL A   1      35.670  30.227  28.239  1.00  0.00     0.039 A 
ATOM     26  C   UNL A   1      36.743  30.449  27.366  1.00  0.00     0.014 A 
ATOM     27  C   UNL A   1      35.912  29.597  29.462  1.00  0.00     0.014 A 
ATOM     28  C   UNL A   1      38.036  30.042  27.712  1.00  0.00     0.010 A 
ATOM     29  C   UNL A   1      37.217  29.265  29.844  1.00  0.00     0.010 A 
ATOM     30  C   UNL A   1      38.288  29.448  28.958  1.00  0.00    -0.014 A 
BRANCH  30  31
ATOM     31  C   UNL A   1      39.651  28.966  29.312  1.00  0.00     0.031 A 
ATOM     32  C   UNL A   1      40.566  29.809  30.166  1.00  0.00     0.074 A 
ATOM     33  C   UNL A   1      40.087  27.776  28.857  1.00  0.00     0.049 A 
ATOM     34  N   UNL A   1      41.781  29.547  30.582  1.00  0.00    -0.248 NA
ATOM     35  C   UNL A   1      40.057  31.121  30.592  1.00  0.00     0.031 C 
ATOM     36  C   UNL A   1      39.323  26.866  28.004  1.00  0.00     0.029 A 
ATOM     37  N   UNL A   1      41.279  27.123  29.055  1.00  0.00    -0.354 N 
ATOM     38  C   UNL A   1      42.186  30.668  31.297  1.00  0.00     0.074 A 
ATOM     39  C   UNL A   1      41.108  31.629  31.219  1.00  0.00     0.031 C 
ATOM     40  C   UNL A   1      40.049  25.760  27.776  1.00  0.00     0.029 A 
ATOM     41  C   UNL A   1      41.335  25.889  28.453  1.00  0.00     0.049 A 
ATOM     42  H   UNL A   1      42.021  27.502  29.579  1.00  0.00     0.167 HD
ATOM     43  C   UNL A   1      43.339  30.875  31.980  1.00  0.00     0.031 A 
ATOM     44  C   UNL A   1      42.303  24.954  28.462  1.00  0.00     0.031 A 
ATOM     45  C   UNL A   1      44.405  29.916  32.092  1.00  0.00     0.049 A 
ATOM     46  C   UNL A   1      43.559  25.190  29.249  1.00  0.00     0.074 A 
ATOM     47  C   UNL A   1      45.587  30.017  32.806  1.00  0.00     0.029 A 
ATOM     48  N   UNL A   1      44.413  28.673  31.480  1.00  0.00    -0.354 N 
ATOM     49  N   UNL A   1      43.902  26.237  29.960  1.00  0.00    -0.248 NA
ATOM     50  C   UNL A   1      44.549  24.104  29.254  1.00  0.00     0.031 C 
ATOM     51  C   UNL A   1      46.324  28.844  32.602  1.00  0.00     0.029 A 
ATOM     52  C   UNL A   1      45.582  28.001  31.791  1.00  0.00     0.049 A 
ATOM     53  H   UNL A   1      43.694  28.321  30.907  1.00  0.00     0.167 HD
ATOM     54  C   UNL A   1      45.134  25.923  30.520  1.00  0.00     0.074 A 
ATOM     55  C   UNL A   1      45.473  24.587  30.073  1.00  0.00     0.031 C 
ATOM     56  C   UNL A   1      45.910  26.675  31.338  1.00  0.00     0.031 A 
BRANCH  43  57
ATOM     57  C   UNL A   1      43.500  32.205  32.662  1.00  0.00    -0.014 A 
ATOM     58  C   UNL A   1      43.068  32.401  33.983  1.00  0.00     0.009 A 
ATOM     59  C   UNL A   1      44.103  33.272  31.979  1.00  0.00     0.009 A 
ATOM     60  C   UNL A   1      43.198  33.650  34.592  1.00  0.00     0.001 A 
ATOM     61  C   UNL A   1      44.254  34.514  32.601  1.00  0.00     0.001 A 
ATOM     62  C   UNL A   1      43.793  34.704  33.902  1.00  0.00     0.000 A 
ENDBRANCH  43  57
BRANCH  44  63
ATOM     63  C   UNL A   1      42.090  23.671  27.746  1.00  0.00    -0.014 A 
ATOM     64  C   UNL A   1      42.528  23.523  26.422  1.00  0.00     0.009 A 
ATOM     65  C   UNL A   1      41.469  22.588  28.387  1.00  0.00     0.009 A 
ATOM     66  C   UNL A   1      42.336  22.317  25.746  1.00  0.00     0.001 A 
ATOM     67  C   UNL A   1      41.296  21.377  27.714  1.00  0.00     0.001 A 
ATOM     68  C   UNL A   1      41.724  21.244  26.394  1.00  0.00     0.000 A 
ENDBRANCH  44  63
BRANCH  56  69
ATOM     69  C   UNL A   1      47.186  26.053  31.824  1.00  0.00    -0.014 A 
ATOM     70  C   UNL A   1      47.242  25.379  33.054  1.00  0.00     0.009 A 
ATOM     71  C   UNL A   1      48.342  26.130  31.034  1.00  0.00     0.009 A 
ATOM     72  C   UNL A   1      48.445  24.823  33.498  1.00  0.00     0.001 A 
ATOM     73  C   UNL A   1      49.537  25.556  31.470  1.00  0.00     0.001 A 
ATOM     74  C   UNL A   1      49.589  24.911  32.705  1.00  0.00     0.000 A 
ENDBRANCH  56  69
ENDBRANCH  30  31
ENDBRANCH  22  25
ENDBRANCH  20  21
ENDBRANCH  19  20
ENDBRANCH   1  19
TORSDOF 13
ENDMDL
