MODEL 1
REMARK VINA RESULT:     -11.2      0.000      0.000
REMARK SMILES O=C(COc1ccccc1C[N@@H+]1C[C@@H]2[C@H]3CC[C@H](C3)[C@@H]2C1)NCCCNC(=O)c1ccc(-c2c3nc(c(-c4ccccc4)c4ccc([nH]4)c(-c4ccccc4)c4nc(c(-c5ccccc5)c5ccc2[nH]5)C=C4)C=C3)cc1
REMARK SMILES IDX 23 1 22 2 1 3 2 4 3 6 4 7 5 8 6 9 10 10 7 11 9 12 8 13 11 14
REMARK SMILES IDX 12 15 13 16 21 17 14 19 20 20 15 21 18 22 16 23 19 24 17 25
REMARK SMILES IDX 24 26 25 27 26 28 27 29 28 31 29 32 30 33 76 34 31 35 75 36
REMARK SMILES IDX 32 37 33 38 34 39 69 40 35 41 74 42 68 43 70 44 36 45 73 46
REMARK SMILES IDX 67 47 66 48 37 50 59 51 44 52 58 53 45 54 48 55 57 56 71 57
REMARK SMILES IDX 46 58 47 59 56 61 72 62 49 63 38 64 39 65 43 66 40 67 42 68
REMARK SMILES IDX 41 69 60 70 61 71 65 72 62 73 64 74 63 75 50 76 51 77 55 78
REMARK SMILES IDX 52 79 54 80 53 81
REMARK H PARENT 22 5 12 18 26 30 70 49 48 60
REMARK Flexibility Score: inf
ROOT
ATOM      1  C   UNL A   1      31.474  29.494  25.422  1.00  0.00     0.117 C 
ENDROOT
BRANCH   1   2
ATOM      2  N   UNL A   1      31.357  28.174  24.825  1.00  0.00    -0.353 N 
ATOM      3  O   UNL A   1      31.056  26.994  26.780  1.00  0.00    -0.271 OA
ATOM      4  C   UNL A   1      30.958  27.068  25.559  1.00  0.00     0.257 C 
ATOM      5  H   UNL A   1      31.568  28.061  23.870  1.00  0.00     0.163 HD
BRANCH   4   6
ATOM      6  C   UNL A   1      30.340  25.940  24.718  1.00  0.00     0.329 C 
BRANCH   6   7
ATOM      7  O   UNL A   1      31.045  24.706  24.890  1.00  0.00    -0.483 OA
BRANCH   7   8
ATOM      8  C   UNL A   1      31.859  24.391  23.827  1.00  0.00     0.128 A 
ATOM      9  C   UNL A   1      31.912  25.313  22.776  1.00  0.00     0.047 A 
ATOM     10  C   UNL A   1      32.446  23.118  23.686  1.00  0.00     0.048 A 
ATOM     11  C   UNL A   1      32.597  25.002  21.600  1.00  0.00     0.004 A 
ATOM     12  C   UNL A   1      33.175  22.845  22.513  1.00  0.00     0.013 A 
ATOM     13  C   UNL A   1      33.244  23.776  21.475  1.00  0.00     0.001 A 
BRANCH  10  14
ATOM     14  C   UNL A   1      32.238  21.997  24.680  1.00  0.00     0.302 C 
BRANCH  14  15
ATOM     15  N   UNL A   1      33.345  21.718  25.599  1.00  0.00    -0.331 N 
ATOM     16  C   UNL A   1      33.903  22.883  26.263  1.00  0.00     0.266 C 
ATOM     17  C   UNL A   1      34.401  20.820  25.159  1.00  0.00     0.266 C 
ATOM     18  H   UNL A   1      32.828  21.171  26.288  1.00  0.00     0.348 HD
ATOM     19  C   UNL A   1      35.409  22.699  26.335  1.00  0.00     0.056 C 
ATOM     20  C   UNL A   1      35.708  21.303  25.777  1.00  0.00     0.056 C 
ATOM     21  C   UNL A   1      36.240  23.622  25.409  1.00  0.00    -0.002 C 
ATOM     22  C   UNL A   1      36.801  21.583  24.720  1.00  0.00    -0.002 C 
ATOM     23  C   UNL A   1      37.709  23.508  25.846  1.00  0.00     0.004 C 
ATOM     24  C   UNL A   1      36.300  22.875  24.076  1.00  0.00     0.008 C 
ATOM     25  C   UNL A   1      38.077  22.074  25.424  1.00  0.00     0.004 C 
ENDBRANCH  14  15
ENDBRANCH  10  14
ENDBRANCH   7   8
ENDBRANCH   6   7
ENDBRANCH   4   6
ENDBRANCH   1   2
BRANCH   1  26
ATOM     26  C   UNL A   1      32.886  29.926  25.779  1.00  0.00     0.042 C 
BRANCH  26  27
ATOM     27  C   UNL A   1      33.325  29.699  27.222  1.00  0.00     0.118 C 
BRANCH  27  28
ATOM     28  N   UNL A   1      33.615  30.904  27.988  1.00  0.00    -0.352 N 
ATOM     29  C   UNL A   1      34.773  31.331  28.603  1.00  0.00     0.251 C 
ATOM     30  H   UNL A   1      32.853  31.521  28.083  1.00  0.00     0.163 HD
ATOM     31  O   UNL A   1      34.798  32.431  29.153  1.00  0.00    -0.269 OA
BRANCH  29  32
ATOM     32  C   UNL A   1      35.956  30.445  28.696  1.00  0.00     0.039 A 
ATOM     33  C   UNL A   1      36.838  30.412  27.611  1.00  0.00     0.014 A 
ATOM     34  C   UNL A   1      36.246  29.712  29.845  1.00  0.00     0.014 A 
ATOM     35  C   UNL A   1      38.072  29.769  27.735  1.00  0.00     0.010 A 
ATOM     36  C   UNL A   1      37.513  29.156  30.005  1.00  0.00     0.010 A 
ATOM     37  C   UNL A   1      38.452  29.209  28.963  1.00  0.00    -0.014 A 
BRANCH  37  38
ATOM     38  C   UNL A   1      39.843  28.742  29.204  1.00  0.00     0.031 A 
ATOM     39  C   UNL A   1      40.873  29.670  29.782  1.00  0.00     0.074 A 
ATOM     40  C   UNL A   1      40.205  27.505  28.806  1.00  0.00     0.049 A 
ATOM     41  N   UNL A   1      42.156  29.473  29.957  1.00  0.00    -0.248 NA
ATOM     42  C   UNL A   1      40.408  31.005  30.193  1.00  0.00     0.031 C 
ATOM     43  C   UNL A   1      39.319  26.517  28.185  1.00  0.00     0.029 A 
ATOM     44  N   UNL A   1      41.423  26.871  28.851  1.00  0.00    -0.354 N 
ATOM     45  C   UNL A   1      42.654  30.661  30.474  1.00  0.00     0.074 A 
ATOM     46  C   UNL A   1      41.545  31.588  30.547  1.00  0.00     0.031 C 
ATOM     47  C   UNL A   1      40.013  25.397  27.934  1.00  0.00     0.029 A 
ATOM     48  C   UNL A   1      41.402  25.600  28.328  1.00  0.00     0.049 A 
ATOM     49  H   UNL A   1      42.233  27.287  29.223  1.00  0.00     0.167 HD
ATOM     50  C   UNL A   1      43.917  30.952  30.867  1.00  0.00     0.031 A 
ATOM     51  C   UNL A   1      42.391  24.702  28.167  1.00  0.00     0.031 A 
ATOM     52  C   UNL A   1      45.019  30.030  30.811  1.00  0.00     0.049 A 
ATOM     53  C   UNL A   1      43.786  25.054  28.599  1.00  0.00     0.074 A 
ATOM     54  C   UNL A   1      46.320  30.215  31.250  1.00  0.00     0.029 A 
ATOM     55  N   UNL A   1      44.954  28.751  30.282  1.00  0.00    -0.354 N 
ATOM     56  N   UNL A   1      44.224  26.161  29.145  1.00  0.00    -0.248 NA
ATOM     57  C   UNL A   1      44.820  24.029  28.393  1.00  0.00     0.031 C 
ATOM     58  C   UNL A   1      47.052  29.063  30.944  1.00  0.00     0.029 A 
ATOM     59  C   UNL A   1      46.197  28.144  30.359  1.00  0.00     0.049 A 
ATOM     60  H   UNL A   1      44.144  28.335  29.908  1.00  0.00     0.167 HD
ATOM     61  C   UNL A   1      45.580  25.961  29.366  1.00  0.00     0.074 A 
ATOM     62  C   UNL A   1      45.888  24.619  28.912  1.00  0.00     0.031 C 
ATOM     63  C   UNL A   1      46.489  26.814  29.897  1.00  0.00     0.031 A 
BRANCH  50  64
ATOM     64  C   UNL A   1      44.173  32.338  31.390  1.00  0.00    -0.014 A 
ATOM     65  C   UNL A   1      44.553  33.379  30.527  1.00  0.00     0.009 A 
ATOM     66  C   UNL A   1      44.000  32.614  32.755  1.00  0.00     0.009 A 
ATOM     67  C   UNL A   1      44.792  34.660  31.030  1.00  0.00     0.001 A 
ATOM     68  C   UNL A   1      44.213  33.901  33.249  1.00  0.00     0.001 A 
ATOM     69  C   UNL A   1      44.619  34.921  32.388  1.00  0.00     0.000 A 
ENDBRANCH  50  64
BRANCH  51  70
ATOM     70  C   UNL A   1      42.100  23.373  27.569  1.00  0.00    -0.014 A 
ATOM     71  C   UNL A   1      42.417  23.115  26.225  1.00  0.00     0.009 A 
ATOM     72  C   UNL A   1      41.501  22.359  28.331  1.00  0.00     0.009 A 
ATOM     73  C   UNL A   1      42.118  21.878  25.652  1.00  0.00     0.001 A 
ATOM     74  C   UNL A   1      41.226  21.113  27.761  1.00  0.00     0.001 A 
ATOM     75  C   UNL A   1      41.528  20.877  26.421  1.00  0.00     0.000 A 
ENDBRANCH  51  70
BRANCH  63  76
ATOM     76  C   UNL A   1      47.898  26.312  30.034  1.00  0.00    -0.014 A 
ATOM     77  C   UNL A   1      48.359  25.766  31.242  1.00  0.00     0.009 A 
ATOM     78  C   UNL A   1      48.764  26.352  28.929  1.00  0.00     0.009 A 
ATOM     79  C   UNL A   1      49.671  25.300  31.349  1.00  0.00     0.001 A 
ATOM     80  C   UNL A   1      50.065  25.861  29.033  1.00  0.00     0.001 A 
ATOM     81  C   UNL A   1      50.520  25.343  30.243  1.00  0.00     0.000 A 
ENDBRANCH  63  76
ENDBRANCH  37  38
ENDBRANCH  29  32
ENDBRANCH  27  28
ENDBRANCH  26  27
ENDBRANCH   1  26
TORSDOF 14
ENDMDL
MODEL 2
REMARK VINA RESULT:     -11.2      5.166     11.201
REMARK SMILES O=C(COc1ccccc1C[N@@H+]1C[C@@H]2[C@H]3CC[C@H](C3)[C@@H]2C1)NCCCNC(=O)c1ccc(-c2c3nc(c(-c4ccccc4)c4ccc([nH]4)c(-c4ccccc4)c4nc(c(-c5ccccc5)c5ccc2[nH]5)C=C4)C=C3)cc1
REMARK SMILES IDX 23 1 22 2 1 3 2 4 3 6 4 7 5 8 6 9 10 10 7 11 9 12 8 13 11 14
REMARK SMILES IDX 12 15 13 16 21 17 14 19 20 20 15 21 18 22 16 23 19 24 17 25
REMARK SMILES IDX 24 26 25 27 26 28 27 29 28 31 29 32 30 33 76 34 31 35 75 36
REMARK SMILES IDX 32 37 33 38 34 39 69 40 35 41 74 42 68 43 70 44 36 45 73 46
REMARK SMILES IDX 67 47 66 48 37 50 59 51 44 52 58 53 45 54 48 55 57 56 71 57
REMARK SMILES IDX 46 58 47 59 56 61 72 62 49 63 38 64 39 65 43 66 40 67 42 68
REMARK SMILES IDX 41 69 60 70 61 71 65 72 62 73 64 74 63 75 50 76 51 77 55 78
REMARK SMILES IDX 52 79 54 80 53 81
REMARK H PARENT 22 5 12 18 26 30 70 49 48 60
REMARK Flexibility Score: inf
ROOT
ATOM      1  C   UNL A   1      32.654  35.767  32.553  1.00  0.00     0.117 C 
ENDROOT
BRANCH   1   2
ATOM      2  N   UNL A   1      33.809  35.412  33.360  1.00  0.00    -0.353 N 
ATOM      3  O   UNL A   1      33.622  33.126  33.150  1.00  0.00    -0.271 OA
ATOM      4  C   UNL A   1      34.297  34.116  33.415  1.00  0.00     0.257 C 
ATOM      5  H   UNL A   1      34.259  36.113  33.885  1.00  0.00     0.163 HD
BRANCH   4   6
ATOM      6  C   UNL A   1      35.780  34.014  33.803  1.00  0.00     0.329 C 
BRANCH   6   7
ATOM      7  O   UNL A   1      35.968  33.197  34.964  1.00  0.00    -0.483 OA
BRANCH   7   8
ATOM      8  C   UNL A   1      37.100  32.419  34.905  1.00  0.00     0.128 A 
ATOM      9  C   UNL A   1      37.245  31.599  33.781  1.00  0.00     0.047 A 
ATOM     10  C   UNL A   1      37.970  32.279  36.005  1.00  0.00     0.048 A 
ATOM     11  C   UNL A   1      38.288  30.673  33.715  1.00  0.00     0.004 A 
ATOM     12  C   UNL A   1      39.045  31.376  35.895  1.00  0.00     0.013 A 
ATOM     13  C   UNL A   1      39.199  30.574  34.764  1.00  0.00     0.001 A 
BRANCH  10  14
ATOM     14  C   UNL A   1      37.740  32.965  37.333  1.00  0.00     0.302 C 
BRANCH  14  15
ATOM     15  N   UNL A   1      38.057  32.192  38.537  1.00  0.00    -0.331 N 
ATOM     16  C   UNL A   1      37.032  31.253  38.954  1.00  0.00     0.266 C 
ATOM     17  C   UNL A   1      38.613  32.892  39.684  1.00  0.00     0.266 C 
ATOM     18  H   UNL A   1      38.847  31.663  38.165  1.00  0.00     0.348 HD
ATOM     19  C   UNL A   1      36.968  31.279  40.471  1.00  0.00     0.056 C 
ATOM     20  C   UNL A   1      38.094  32.206  40.942  1.00  0.00     0.056 C 
ATOM     21  C   UNL A   1      35.705  31.943  41.075  1.00  0.00    -0.002 C 
ATOM     22  C   UNL A   1      37.363  33.179  41.895  1.00  0.00    -0.002 C 
ATOM     23  C   UNL A   1      35.678  31.598  42.573  1.00  0.00     0.004 C 
ATOM     24  C   UNL A   1      36.052  33.430  41.151  1.00  0.00     0.008 C 
ATOM     25  C   UNL A   1      36.864  32.406  43.127  1.00  0.00     0.004 C 
ENDBRANCH  14  15
ENDBRANCH  10  14
ENDBRANCH   7   8
ENDBRANCH   6   7
ENDBRANCH   4   6
ENDBRANCH   1   2
BRANCH   1  26
ATOM     26  C   UNL A   1      32.928  36.728  31.408  1.00  0.00     0.042 C 
BRANCH  26  27
ATOM     27  C   UNL A   1      33.713  36.173  30.225  1.00  0.00     0.118 C 
BRANCH  27  28
ATOM     28  N   UNL A   1      32.913  35.576  29.163  1.00  0.00    -0.352 N 
ATOM     29  C   UNL A   1      33.058  34.389  28.478  1.00  0.00     0.251 C 
ATOM     30  H   UNL A   1      32.134  36.112  28.888  1.00  0.00     0.163 HD
ATOM     31  O   UNL A   1      32.212  34.060  27.648  1.00  0.00    -0.269 OA
BRANCH  29  32
ATOM     32  C   UNL A   1      34.266  33.550  28.655  1.00  0.00     0.039 A 
ATOM     33  C   UNL A   1      35.385  33.837  27.867  1.00  0.00     0.014 A 
ATOM     34  C   UNL A   1      34.340  32.548  29.621  1.00  0.00     0.014 A 
ATOM     35  C   UNL A   1      36.610  33.227  28.146  1.00  0.00     0.010 A 
ATOM     36  C   UNL A   1      35.578  32.012  29.964  1.00  0.00     0.010 A 
ATOM     37  C   UNL A   1      36.734  32.372  29.252  1.00  0.00    -0.014 A 
BRANCH  37  38
ATOM     38  C   UNL A   1      38.063  31.906  29.726  1.00  0.00     0.031 A 
ATOM     39  C   UNL A   1      38.626  30.594  29.260  1.00  0.00     0.074 A 
ATOM     40  C   UNL A   1      38.721  32.623  30.660  1.00  0.00     0.049 A 
ATOM     41  N   UNL A   1      39.713  29.977  29.651  1.00  0.00    -0.248 NA
ATOM     42  C   UNL A   1      37.854  29.865  28.242  1.00  0.00     0.031 C 
ATOM     43  C   UNL A   1      38.267  33.891  31.238  1.00  0.00     0.029 A 
ATOM     44  N   UNL A   1      39.911  32.379  31.302  1.00  0.00    -0.354 N 
ATOM     45  C   UNL A   1      39.744  28.782  28.947  1.00  0.00     0.074 A 
ATOM     46  C   UNL A   1      38.546  28.739  28.135  1.00  0.00     0.031 C 
ATOM     47  C   UNL A   1      39.177  34.325  32.124  1.00  0.00     0.029 A 
ATOM     48  C   UNL A   1      40.254  33.346  32.216  1.00  0.00     0.049 A 
ATOM     49  H   UNL A   1      40.467  31.586  31.123  1.00  0.00     0.167 HD
ATOM     50  C   UNL A   1      40.688  27.811  28.961  1.00  0.00     0.031 A 
ATOM     51  C   UNL A   1      41.307  33.433  33.049  1.00  0.00     0.031 A 
ATOM     52  C   UNL A   1      41.887  27.855  29.755  1.00  0.00     0.049 A 
ATOM     53  C   UNL A   1      42.335  32.337  33.056  1.00  0.00     0.074 A 
ATOM     54  C   UNL A   1      42.934  26.950  29.784  1.00  0.00     0.029 A 
ATOM     55  N   UNL A   1      42.199  28.856  30.661  1.00  0.00    -0.354 N 
ATOM     56  N   UNL A   1      42.378  31.244  32.335  1.00  0.00    -0.248 NA
ATOM     57  C   UNL A   1      43.459  32.490  33.990  1.00  0.00     0.031 C 
ATOM     58  C   UNL A   1      43.858  27.380  30.742  1.00  0.00     0.029 A 
ATOM     59  C   UNL A   1      43.410  28.578  31.274  1.00  0.00     0.049 A 
ATOM     60  H   UNL A   1      41.643  29.648  30.842  1.00  0.00     0.167 HD
ATOM     61  C   UNL A   1      43.542  30.588  32.714  1.00  0.00     0.074 A 
ATOM     62  C   UNL A   1      44.184  31.416  33.715  1.00  0.00     0.031 C 
ATOM     63  C   UNL A   1      44.032  29.405  32.273  1.00  0.00     0.031 A 
BRANCH  50  64
ATOM     64  C   UNL A   1      40.454  26.610  28.090  1.00  0.00    -0.014 A 
ATOM     65  C   UNL A   1      41.062  26.498  26.829  1.00  0.00     0.009 A 
ATOM     66  C   UNL A   1      39.642  25.561  28.549  1.00  0.00     0.009 A 
ATOM     67  C   UNL A   1      40.831  25.377  26.031  1.00  0.00     0.001 A 
ATOM     68  C   UNL A   1      39.435  24.430  27.759  1.00  0.00     0.001 A 
ATOM     69  C   UNL A   1      40.021  24.342  26.497  1.00  0.00     0.000 A 
ENDBRANCH  50  64
BRANCH  51  70
ATOM     70  C   UNL A   1      41.450  34.605  33.951  1.00  0.00    -0.014 A 
ATOM     71  C   UNL A   1      40.755  34.650  35.171  1.00  0.00     0.009 A 
ATOM     72  C   UNL A   1      42.272  35.685  33.598  1.00  0.00     0.009 A 
ATOM     73  C   UNL A   1      40.864  35.764  36.006  1.00  0.00     0.001 A 
ATOM     74  C   UNL A   1      42.399  36.787  34.448  1.00  0.00     0.001 A 
ATOM     75  C   UNL A   1      41.689  36.828  35.647  1.00  0.00     0.000 A 
ENDBRANCH  51  70
BRANCH  63  76
ATOM     76  C   UNL A   1      45.338  28.947  32.856  1.00  0.00    -0.014 A 
ATOM     77  C   UNL A   1      46.562  29.329  32.283  1.00  0.00     0.009 A 
ATOM     78  C   UNL A   1      45.345  28.154  34.014  1.00  0.00     0.009 A 
ATOM     79  C   UNL A   1      47.766  28.898  32.842  1.00  0.00     0.001 A 
ATOM     80  C   UNL A   1      46.551  27.747  34.585  1.00  0.00     0.001 A 
ATOM     81  C   UNL A   1      47.760  28.112  33.995  1.00  0.00     0.000 A 
ENDBRANCH  63  76
ENDBRANCH  37  38
ENDBRANCH  29  32
ENDBRANCH  27  28
ENDBRANCH  26  27
ENDBRANCH   1  26
TORSDOF 14
ENDMDL
MODEL 3
REMARK VINA RESULT:     -11.1      3.027      8.312
REMARK SMILES O=C(COc1ccccc1C[N@@H+]1C[C@@H]2[C@H]3CC[C@H](C3)[C@@H]2C1)NCCCNC(=O)c1ccc(-c2c3nc(c(-c4ccccc4)c4ccc([nH]4)c(-c4ccccc4)c4nc(c(-c5ccccc5)c5ccc2[nH]5)C=C4)C=C3)cc1
REMARK SMILES IDX 23 1 22 2 1 3 2 4 3 6 4 7 5 8 6 9 10 10 7 11 9 12 8 13 11 14
REMARK SMILES IDX 12 15 13 16 21 17 14 19 20 20 15 21 18 22 16 23 19 24 17 25
REMARK SMILES IDX 24 26 25 27 26 28 27 29 28 31 29 32 30 33 76 34 31 35 75 36
REMARK SMILES IDX 32 37 33 38 34 39 69 40 35 41 74 42 68 43 70 44 36 45 73 46
REMARK SMILES IDX 67 47 66 48 37 50 59 51 44 52 58 53 45 54 48 55 57 56 71 57
REMARK SMILES IDX 46 58 47 59 56 61 72 62 49 63 38 64 39 65 43 66 40 67 42 68
REMARK SMILES IDX 41 69 60 70 61 71 65 72 62 73 64 74 63 75 50 76 51 77 55 78
REMARK SMILES IDX 52 79 54 80 53 81
REMARK H PARENT 22 5 12 18 26 30 70 49 48 60
REMARK Flexibility Score: inf
ROOT
ATOM      1  C   UNL A   1      36.693  22.385  23.904  1.00  0.00     0.117 C 
ENDROOT
BRANCH   1   2
ATOM      2  N   UNL A   1      35.250  22.344  24.071  1.00  0.00    -0.353 N 
ATOM      3  O   UNL A   1      34.750  24.163  22.751  1.00  0.00    -0.271 OA
ATOM      4  C   UNL A   1      34.399  23.128  23.309  1.00  0.00     0.257 C 
ATOM      5  H   UNL A   1      34.864  21.740  24.747  1.00  0.00     0.163 HD
BRANCH   4   6
ATOM      6  C   UNL A   1      32.971  22.576  23.184  1.00  0.00     0.329 C 
BRANCH   6   7
ATOM      7  O   UNL A   1      32.007  23.627  23.055  1.00  0.00    -0.483 OA
BRANCH   7   8
ATOM      8  C   UNL A   1      31.429  23.986  24.250  1.00  0.00     0.128 A 
ATOM      9  C   UNL A   1      31.260  22.974  25.201  1.00  0.00     0.047 A 
ATOM     10  C   UNL A   1      30.838  25.250  24.445  1.00  0.00     0.048 A 
ATOM     11  C   UNL A   1      30.551  23.223  26.377  1.00  0.00     0.004 A 
ATOM     12  C   UNL A   1      30.172  25.495  25.661  1.00  0.00     0.013 A 
ATOM     13  C   UNL A   1      30.022  24.489  26.616  1.00  0.00     0.001 A 
BRANCH  10  14
ATOM     14  C   UNL A   1      30.787  26.314  23.370  1.00  0.00     0.302 C 
BRANCH  14  15
ATOM     15  N   UNL A   1      31.694  27.453  23.529  1.00  0.00    -0.331 N 
ATOM     16  C   UNL A   1      33.014  27.123  24.037  1.00  0.00     0.266 C 
ATOM     17  C   UNL A   1      31.186  28.661  24.160  1.00  0.00     0.266 C 
ATOM     18  H   UNL A   1      31.782  27.707  22.545  1.00  0.00     0.348 HD
ATOM     19  C   UNL A   1      33.431  28.225  24.996  1.00  0.00     0.056 C 
ATOM     20  C   UNL A   1      32.329  29.290  24.946  1.00  0.00     0.056 C 
ATOM     21  C   UNL A   1      33.455  27.831  26.494  1.00  0.00    -0.002 C 
ATOM     22  C   UNL A   1      31.985  29.499  26.438  1.00  0.00    -0.002 C 
ATOM     23  C   UNL A   1      34.185  28.953  27.251  1.00  0.00     0.004 C 
ATOM     24  C   UNL A   1      32.025  28.070  26.978  1.00  0.00     0.008 C 
ATOM     25  C   UNL A   1      33.192  30.125  27.157  1.00  0.00     0.004 C 
ENDBRANCH  14  15
ENDBRANCH  10  14
ENDBRANCH   7   8
ENDBRANCH   6   7
ENDBRANCH   4   6
ENDBRANCH   1   2
BRANCH   1  26
ATOM     26  C   UNL A   1      37.490  21.575  24.913  1.00  0.00     0.042 C 
BRANCH  26  27
ATOM     27  C   UNL A   1      38.329  22.365  25.912  1.00  0.00     0.118 C 
BRANCH  27  28
ATOM     28  N   UNL A   1      39.773  22.248  25.752  1.00  0.00    -0.352 N 
ATOM     29  C   UNL A   1      40.801  23.061  26.180  1.00  0.00     0.251 C 
ATOM     30  H   UNL A   1      40.066  21.451  25.254  1.00  0.00     0.163 HD
ATOM     31  O   UNL A   1      41.966  22.724  25.975  1.00  0.00    -0.269 OA
BRANCH  29  32
ATOM     32  C   UNL A   1      40.523  24.379  26.795  1.00  0.00     0.039 A 
ATOM     33  C   UNL A   1      39.683  24.418  27.912  1.00  0.00     0.014 A 
ATOM     34  C   UNL A   1      41.125  25.552  26.341  1.00  0.00     0.014 A 
ATOM     35  C   UNL A   1      39.566  25.595  28.656  1.00  0.00     0.010 A 
ATOM     36  C   UNL A   1      41.087  26.696  27.134  1.00  0.00     0.010 A 
ATOM     37  C   UNL A   1      40.335  26.719  28.319  1.00  0.00    -0.014 A 
BRANCH  37  38
ATOM     38  C   UNL A   1      40.427  27.894  29.225  1.00  0.00     0.031 A 
ATOM     39  C   UNL A   1      41.498  27.972  30.274  1.00  0.00     0.074 A 
ATOM     40  C   UNL A   1      39.476  28.850  29.167  1.00  0.00     0.049 A 
ATOM     41  N   UNL A   1      41.664  28.863  31.220  1.00  0.00    -0.248 NA
ATOM     42  C   UNL A   1      42.501  26.894  30.280  1.00  0.00     0.031 C 
ATOM     43  C   UNL A   1      38.350  28.875  28.230  1.00  0.00     0.029 A 
ATOM     44  N   UNL A   1      39.297  29.981  29.925  1.00  0.00    -0.354 N 
ATOM     45  C   UNL A   1      42.771  28.442  31.945  1.00  0.00     0.074 A 
ATOM     46  C   UNL A   1      43.213  27.195  31.357  1.00  0.00     0.031 C 
ATOM     47  C   UNL A   1      37.616  29.977  28.450  1.00  0.00     0.029 A 
ATOM     48  C   UNL A   1      38.187  30.711  29.573  1.00  0.00     0.049 A 
ATOM     49  H   UNL A   1      39.906  30.245  30.652  1.00  0.00     0.167 HD
ATOM     50  C   UNL A   1      43.375  29.044  32.996  1.00  0.00     0.031 A 
ATOM     51  C   UNL A   1      37.674  31.838  30.102  1.00  0.00     0.031 A 
ATOM     52  C   UNL A   1      42.950  30.290  33.576  1.00  0.00     0.049 A 
ATOM     53  C   UNL A   1      38.355  32.479  31.276  1.00  0.00     0.074 A 
ATOM     54  C   UNL A   1      43.540  31.010  34.600  1.00  0.00     0.029 A 
ATOM     55  N   UNL A   1      41.826  31.000  33.184  1.00  0.00    -0.354 N 
ATOM     56  N   UNL A   1      39.439  32.100  31.908  1.00  0.00    -0.248 NA
ATOM     57  C   UNL A   1      37.743  33.705  31.808  1.00  0.00     0.031 C 
ATOM     58  C   UNL A   1      42.748  32.133  34.859  1.00  0.00     0.029 A 
ATOM     59  C   UNL A   1      41.691  32.137  33.963  1.00  0.00     0.049 A 
ATOM     60  H   UNL A   1      41.215  30.736  32.459  1.00  0.00     0.167 HD
ATOM     61  C   UNL A   1      39.649  33.049  32.899  1.00  0.00     0.074 A 
ATOM     62  C   UNL A   1      38.592  34.032  32.772  1.00  0.00     0.031 C 
ATOM     63  C   UNL A   1      40.630  33.101  33.831  1.00  0.00     0.031 A 
BRANCH  50  64
ATOM     64  C   UNL A   1      44.567  28.351  33.595  1.00  0.00    -0.014 A 
ATOM     65  C   UNL A   1      44.427  27.486  34.693  1.00  0.00     0.009 A 
ATOM     66  C   UNL A   1      45.840  28.539  33.035  1.00  0.00     0.009 A 
ATOM     67  C   UNL A   1      45.545  26.853  35.239  1.00  0.00     0.001 A 
ATOM     68  C   UNL A   1      46.950  27.884  33.567  1.00  0.00     0.001 A 
ATOM     69  C   UNL A   1      46.805  27.050  34.675  1.00  0.00     0.000 A 
ENDBRANCH  50  64
BRANCH  51  70
ATOM     70  C   UNL A   1      36.444  32.439  29.523  1.00  0.00    -0.014 A 
ATOM     71  C   UNL A   1      35.188  32.163  30.085  1.00  0.00     0.009 A 
ATOM     72  C   UNL A   1      36.517  33.284  28.405  1.00  0.00     0.009 A 
ATOM     73  C   UNL A   1      34.028  32.704  29.525  1.00  0.00     0.001 A 
ATOM     74  C   UNL A   1      35.357  33.844  27.863  1.00  0.00     0.001 A 
ATOM     75  C   UNL A   1      34.114  33.546  28.419  1.00  0.00     0.000 A 
ENDBRANCH  51  70
BRANCH  63  76
ATOM     76  C   UNL A   1      40.617  34.270  34.774  1.00  0.00    -0.014 A 
ATOM     77  C   UNL A   1      41.350  35.434  34.495  1.00  0.00     0.009 A 
ATOM     78  C   UNL A   1      39.832  34.220  35.936  1.00  0.00     0.009 A 
ATOM     79  C   UNL A   1      41.321  36.514  35.380  1.00  0.00     0.001 A 
ATOM     80  C   UNL A   1      39.784  35.311  36.805  1.00  0.00     0.001 A 
ATOM     81  C   UNL A   1      40.535  36.453  36.530  1.00  0.00     0.000 A 
ENDBRANCH  63  76
ENDBRANCH  37  38
ENDBRANCH  29  32
ENDBRANCH  27  28
ENDBRANCH  26  27
ENDBRANCH   1  26
TORSDOF 14
ENDMDL
