MODEL 1
REMARK VINA RESULT:     -12.2      0.000      0.000
REMARK SMILES N#C/C(=C/c1ccc(-c2cccc(C(=O)NCCCNC(=O)c3ccc(-c4c5nc(c(-c6ccccc6)c6ccc([nH]6)c(-c6ccccc6)c6nc(c(-c7ccccc7)c7ccc4[nH]7)C=C6)C=C5)cc3)c2)o1)c1ccc(F)cc1
REMARK SMILES IDX 17 1 16 2 14 3 15 4 13 6 9 7 10 8 71 9 11 10 12 11 8 12 5 13
REMARK SMILES IDX 6 14 72 15 7 16 4 17 3 18 2 19 1 20 73 21 74 22 79 23 75 24
REMARK SMILES IDX 78 25 76 26 77 27 18 28 19 29 20 30 21 31 22 33 23 34 24 35
REMARK SMILES IDX 70 36 25 37 69 38 26 39 27 40 28 41 63 42 29 43 68 44 62 45
REMARK SMILES IDX 64 46 30 47 67 48 61 49 60 50 31 52 53 53 38 54 52 55 39 56
REMARK SMILES IDX 42 57 51 58 65 59 40 60 41 61 50 63 66 64 43 65 32 66 33 67
REMARK SMILES IDX 37 68 34 69 36 70 35 71 54 72 55 73 59 74 56 75 58 76 57 77
REMARK SMILES IDX 44 78 45 79 49 80 46 81 48 82 47 83
REMARK H PARENT 16 5 20 32 64 51 42 62
REMARK Flexibility Score: inf
ROOT
ATOM      1  C   UNL A   1      36.718  20.880  24.822  1.00  0.00     0.118 C 
ENDROOT
BRANCH   1   2
ATOM      2  N   UNL A   1      35.841  21.040  25.979  1.00  0.00    -0.352 N 
ATOM      3  C   UNL A   1      34.521  21.409  26.152  1.00  0.00     0.251 C 
ATOM      4  O   UNL A   1      34.090  21.456  27.304  1.00  0.00    -0.269 OA
ATOM      5  H   UNL A   1      36.293  20.838  26.831  1.00  0.00     0.163 HD
BRANCH   3   6
ATOM      6  C   UNL A   1      33.627  21.817  25.034  1.00  0.00     0.040 A 
ATOM      7  C   UNL A   1      31.990  23.375  24.137  1.00  0.00     0.018 A 
ATOM      8  C   UNL A   1      31.591  22.426  23.199  1.00  0.00     0.012 A 
ATOM      9  C   UNL A   1      33.112  23.098  24.926  1.00  0.00     0.025 A 
ATOM     10  C   UNL A   1      32.266  21.202  23.122  1.00  0.00     0.002 A 
ATOM     11  C   UNL A   1      33.245  20.879  24.071  1.00  0.00     0.014 A 
BRANCH   7  12
ATOM     12  C   UNL A   1      31.245  24.587  24.464  1.00  0.00     0.134 A 
ATOM     13  C   UNL A   1      30.029  26.375  23.930  1.00  0.00     0.128 A 
ATOM     14  C   UNL A   1      29.789  26.070  25.266  1.00  0.00     0.051 A 
ATOM     15  O   UNL A   1      30.902  25.423  23.437  1.00  0.00    -0.457 OA
ATOM     16  C   UNL A   1      30.612  24.988  25.621  1.00  0.00     0.051 A 
BRANCH  13  17
ATOM     17  C   UNL A   1      29.552  27.499  23.186  1.00  0.00     0.067 C 
ATOM     18  C   UNL A   1      30.155  28.703  23.286  1.00  0.00     0.063 C 
BRANCH  18  19
ATOM     19  C   UNL A   1      29.621  29.930  22.565  1.00  0.00     0.100 C 
ATOM     20  N   UNL A   1      29.178  30.948  21.967  1.00  0.00    -0.192 NA
ENDBRANCH  18  19
BRANCH  18  21
ATOM     21  C   UNL A   1      31.420  28.919  24.056  1.00  0.00    -0.007 A 
ATOM     22  C   UNL A   1      32.652  28.423  23.578  1.00  0.00     0.012 A 
ATOM     23  C   UNL A   1      31.401  29.576  25.297  1.00  0.00     0.012 A 
ATOM     24  C   UNL A   1      33.804  28.484  24.364  1.00  0.00     0.040 A 
ATOM     25  C   UNL A   1      32.565  29.665  26.068  1.00  0.00     0.040 A 
ATOM     26  C   UNL A   1      33.748  29.098  25.607  1.00  0.00     0.123 A 
ATOM     27  F   UNL A   1      34.844  29.135  26.374  1.00  0.00    -0.207 F 
ENDBRANCH  18  21
ENDBRANCH  13  17
ENDBRANCH   7  12
ENDBRANCH   3   6
ENDBRANCH   1   2
BRANCH   1  28
ATOM     28  C   UNL A   1      37.798  19.825  24.993  1.00  0.00     0.042 C 
BRANCH  28  29
ATOM     29  C   UNL A   1      38.994  20.291  25.804  1.00  0.00     0.118 C 
BRANCH  29  30
ATOM     30  N   UNL A   1      40.045  19.278  25.887  1.00  0.00    -0.352 N 
ATOM     31  C   UNL A   1      41.402  19.396  26.073  1.00  0.00     0.251 C 
ATOM     32  H   UNL A   1      39.726  18.351  25.795  1.00  0.00     0.163 HD
ATOM     33  O   UNL A   1      42.125  18.424  25.887  1.00  0.00    -0.269 OA
BRANCH  31  34
ATOM     34  C   UNL A   1      41.999  20.687  26.479  1.00  0.00     0.039 A 
ATOM     35  C   UNL A   1      42.435  21.581  25.496  1.00  0.00     0.014 A 
ATOM     36  C   UNL A   1      42.150  21.011  27.827  1.00  0.00     0.014 A 
ATOM     37  C   UNL A   1      42.944  22.828  25.868  1.00  0.00     0.010 A 
ATOM     38  C   UNL A   1      42.550  22.291  28.192  1.00  0.00     0.010 A 
ATOM     39  C   UNL A   1      42.959  23.212  27.218  1.00  0.00    -0.014 A 
BRANCH  39  40
ATOM     40  C   UNL A   1      43.408  24.559  27.647  1.00  0.00     0.031 A 
ATOM     41  C   UNL A   1      42.392  25.608  28.014  1.00  0.00     0.074 A 
ATOM     42  C   UNL A   1      44.720  24.865  27.626  1.00  0.00     0.049 A 
ATOM     43  N   UNL A   1      42.576  26.871  28.306  1.00  0.00    -0.248 NA
ATOM     44  C   UNL A   1      40.978  25.192  28.021  1.00  0.00     0.031 C 
ATOM     45  C   UNL A   1      45.802  23.950  27.255  1.00  0.00     0.029 A 
ATOM     46  N   UNL A   1      45.368  26.041  27.914  1.00  0.00    -0.354 N 
ATOM     47  C   UNL A   1      41.307  27.398  28.512  1.00  0.00     0.074 A 
ATOM     48  C   UNL A   1      40.359  26.339  28.252  1.00  0.00     0.031 C 
ATOM     49  C   UNL A   1      46.978  24.588  27.369  1.00  0.00     0.029 A 
ATOM     50  C   UNL A   1      46.732  25.969  27.769  1.00  0.00     0.049 A 
ATOM     51  H   UNL A   1      44.898  26.859  28.198  1.00  0.00     0.167 HD
ATOM     52  C   UNL A   1      40.961  28.647  28.907  1.00  0.00     0.031 A 
ATOM     53  C   UNL A   1      47.677  26.914  27.927  1.00  0.00     0.031 A 
ATOM     54  C   UNL A   1      41.905  29.696  29.175  1.00  0.00     0.049 A 
ATOM     55  C   UNL A   1      47.264  28.302  28.333  1.00  0.00     0.074 A 
ATOM     56  C   UNL A   1      41.660  30.982  29.625  1.00  0.00     0.029 A 
ATOM     57  N   UNL A   1      43.278  29.580  29.020  1.00  0.00    -0.354 N 
ATOM     58  N   UNL A   1      46.064  28.767  28.583  1.00  0.00    -0.248 NA
ATOM     59  C   UNL A   1      48.337  29.293  28.487  1.00  0.00     0.031 C 
ATOM     60  C   UNL A   1      42.881  31.661  29.689  1.00  0.00     0.029 A 
ATOM     61  C   UNL A   1      43.891  30.778  29.342  1.00  0.00     0.049 A 
ATOM     62  H   UNL A   1      43.747  28.766  28.724  1.00  0.00     0.167 HD
ATOM     63  C   UNL A   1      46.242  30.093  28.957  1.00  0.00     0.074 A 
ATOM     64  C   UNL A   1      47.667  30.352  28.916  1.00  0.00     0.031 C 
ATOM     65  C   UNL A   1      45.311  31.014  29.305  1.00  0.00     0.031 A 
BRANCH  52  66
ATOM     66  C   UNL A   1      39.496  28.942  29.070  1.00  0.00    -0.014 A 
ATOM     67  C   UNL A   1      38.726  29.419  27.996  1.00  0.00     0.009 A 
ATOM     68  C   UNL A   1      38.866  28.705  30.302  1.00  0.00     0.009 A 
ATOM     69  C   UNL A   1      37.365  29.686  28.163  1.00  0.00     0.001 A 
ATOM     70  C   UNL A   1      37.498  28.942  30.457  1.00  0.00     0.001 A 
ATOM     71  C   UNL A   1      36.752  29.441  29.391  1.00  0.00     0.000 A 
ENDBRANCH  52  66
BRANCH  53  72
ATOM     72  C   UNL A   1      49.113  26.586  27.712  1.00  0.00    -0.014 A 
ATOM     73  C   UNL A   1      49.675  26.663  26.427  1.00  0.00     0.009 A 
ATOM     74  C   UNL A   1      49.922  26.169  28.779  1.00  0.00     0.009 A 
ATOM     75  C   UNL A   1      51.005  26.297  26.212  1.00  0.00     0.001 A 
ATOM     76  C   UNL A   1      51.262  25.835  28.567  1.00  0.00     0.001 A 
ATOM     77  C   UNL A   1      51.798  25.886  27.282  1.00  0.00     0.000 A 
ENDBRANCH  53  72
BRANCH  65  78
ATOM     78  C   UNL A   1      45.804  32.372  29.718  1.00  0.00    -0.014 A 
ATOM     79  C   UNL A   1      46.112  32.665  31.056  1.00  0.00     0.009 A 
ATOM     80  C   UNL A   1      46.012  33.358  28.740  1.00  0.00     0.009 A 
ATOM     81  C   UNL A   1      46.585  33.930  31.409  1.00  0.00     0.001 A 
ATOM     82  C   UNL A   1      46.516  34.610  29.092  1.00  0.00     0.001 A 
ATOM     83  C   UNL A   1      46.793  34.898  30.427  1.00  0.00     0.000 A 
ENDBRANCH  65  78
ENDBRANCH  39  40
ENDBRANCH  31  34
ENDBRANCH  29  30
ENDBRANCH  28  29
ENDBRANCH   1  28
TORSDOF 14
ENDMDL
MODEL 2
REMARK VINA RESULT:     -12.0      1.767      6.193
REMARK SMILES N#C/C(=C/c1ccc(-c2cccc(C(=O)NCCCNC(=O)c3ccc(-c4c5nc(c(-c6ccccc6)c6ccc([nH]6)c(-c6ccccc6)c6nc(c(-c7ccccc7)c7ccc4[nH]7)C=C6)C=C5)cc3)c2)o1)c1ccc(F)cc1
REMARK SMILES IDX 17 1 16 2 14 3 15 4 13 6 9 7 10 8 71 9 11 10 12 11 8 12 5 13
REMARK SMILES IDX 6 14 72 15 7 16 4 17 3 18 2 19 1 20 73 21 74 22 79 23 75 24
REMARK SMILES IDX 78 25 76 26 77 27 18 28 19 29 20 30 21 31 22 33 23 34 24 35
REMARK SMILES IDX 70 36 25 37 69 38 26 39 27 40 28 41 63 42 29 43 68 44 62 45
REMARK SMILES IDX 64 46 30 47 67 48 61 49 60 50 31 52 53 53 38 54 52 55 39 56
REMARK SMILES IDX 42 57 51 58 65 59 40 60 41 61 50 63 66 64 43 65 32 66 33 67
REMARK SMILES IDX 37 68 34 69 36 70 35 71 54 72 55 73 59 74 56 75 58 76 57 77
REMARK SMILES IDX 44 78 45 79 49 80 46 81 48 82 47 83
REMARK H PARENT 16 5 20 32 64 51 42 62
REMARK Flexibility Score: inf
ROOT
ATOM      1  C   UNL A   1      36.944  20.814  24.745  1.00  0.00     0.118 C 
ENDROOT
BRANCH   1   2
ATOM      2  N   UNL A   1      35.842  20.768  25.703  1.00  0.00    -0.352 N 
ATOM      3  C   UNL A   1      34.488  21.032  25.637  1.00  0.00     0.251 C 
ATOM      4  O   UNL A   1      33.832  20.901  26.670  1.00  0.00    -0.269 OA
ATOM      5  H   UNL A   1      36.130  20.484  26.601  1.00  0.00     0.163 HD
BRANCH   3   6
ATOM      6  C   UNL A   1      33.804  21.529  24.411  1.00  0.00     0.040 A 
ATOM      7  C   UNL A   1      33.103  23.403  23.031  1.00  0.00     0.018 A 
ATOM      8  C   UNL A   1      32.168  22.592  22.393  1.00  0.00     0.012 A 
ATOM      9  C   UNL A   1      34.009  22.805  23.914  1.00  0.00     0.025 A 
ATOM     10  C   UNL A   1      32.107  21.228  22.704  1.00  0.00     0.002 A 
ATOM     11  C   UNL A   1      32.886  20.710  23.747  1.00  0.00     0.014 A 
BRANCH   7  12
ATOM     12  C   UNL A   1      33.128  24.861  22.959  1.00  0.00     0.134 A 
ATOM     13  C   UNL A   1      33.470  26.886  23.821  1.00  0.00     0.128 A 
ATOM     14  C   UNL A   1      33.548  26.985  22.435  1.00  0.00     0.051 A 
ATOM     15  O   UNL A   1      33.250  25.556  24.131  1.00  0.00    -0.457 OA
ATOM     16  C   UNL A   1      33.259  25.722  21.891  1.00  0.00     0.051 A 
BRANCH  13  17
ATOM     17  C   UNL A   1      33.520  27.945  24.781  1.00  0.00     0.067 C 
ATOM     18  C   UNL A   1      32.464  28.768  24.959  1.00  0.00     0.063 C 
BRANCH  18  19
ATOM     19  C   UNL A   1      32.519  29.946  25.918  1.00  0.00     0.100 C 
ATOM     20  N   UNL A   1      32.565  30.923  26.714  1.00  0.00    -0.192 NA
ENDBRANCH  18  19
BRANCH  18  21
ATOM     21  C   UNL A   1      31.145  28.560  24.283  1.00  0.00    -0.007 A 
ATOM     22  C   UNL A   1      30.561  29.582  23.506  1.00  0.00     0.012 A 
ATOM     23  C   UNL A   1      30.437  27.359  24.449  1.00  0.00     0.012 A 
ATOM     24  C   UNL A   1      29.264  29.450  23.004  1.00  0.00     0.040 A 
ATOM     25  C   UNL A   1      29.151  27.217  23.917  1.00  0.00     0.040 A 
ATOM     26  C   UNL A   1      28.568  28.271  23.223  1.00  0.00     0.123 A 
ATOM     27  F   UNL A   1      27.315  28.151  22.765  1.00  0.00    -0.207 F 
ENDBRANCH  18  21
ENDBRANCH  13  17
ENDBRANCH   7  12
ENDBRANCH   3   6
ENDBRANCH   1   2
BRANCH   1  28
ATOM     28  C   UNL A   1      38.003  19.746  24.954  1.00  0.00     0.042 C 
BRANCH  28  29
ATOM     29  C   UNL A   1      39.047  20.104  25.996  1.00  0.00     0.118 C 
BRANCH  29  30
ATOM     30  N   UNL A   1      40.255  19.289  25.884  1.00  0.00    -0.352 N 
ATOM     31  C   UNL A   1      41.584  19.625  25.984  1.00  0.00     0.251 C 
ATOM     32  H   UNL A   1      40.089  18.335  25.709  1.00  0.00     0.163 HD
ATOM     33  O   UNL A   1      42.440  18.820  25.634  1.00  0.00    -0.269 OA
BRANCH  31  34
ATOM     34  C   UNL A   1      41.992  20.953  26.492  1.00  0.00     0.039 A 
ATOM     35  C   UNL A   1      42.379  21.945  25.585  1.00  0.00     0.014 A 
ATOM     36  C   UNL A   1      42.015  21.217  27.861  1.00  0.00     0.014 A 
ATOM     37  C   UNL A   1      42.706  23.221  26.051  1.00  0.00     0.010 A 
ATOM     38  C   UNL A   1      42.231  22.513  28.313  1.00  0.00     0.010 A 
ATOM     39  C   UNL A   1      42.587  23.528  27.416  1.00  0.00    -0.014 A 
BRANCH  39  40
ATOM     40  C   UNL A   1      42.840  24.894  27.939  1.00  0.00     0.031 A 
ATOM     41  C   UNL A   1      44.227  25.285  28.376  1.00  0.00     0.074 A 
ATOM     42  C   UNL A   1      41.813  25.750  28.101  1.00  0.00     0.049 A 
ATOM     43  N   UNL A   1      44.630  26.385  28.959  1.00  0.00    -0.248 NA
ATOM     44  C   UNL A   1      45.297  24.296  28.158  1.00  0.00     0.031 C 
ATOM     45  C   UNL A   1      40.416  25.479  27.751  1.00  0.00     0.029 A 
ATOM     46  N   UNL A   1      41.783  27.023  28.613  1.00  0.00    -0.354 N 
ATOM     47  C   UNL A   1      45.989  26.211  29.192  1.00  0.00     0.074 A 
ATOM     48  C   UNL A   1      46.330  24.880  28.745  1.00  0.00     0.031 C 
ATOM     49  C   UNL A   1      39.674  26.563  28.029  1.00  0.00     0.029 A 
ATOM     50  C   UNL A   1      40.529  27.584  28.623  1.00  0.00     0.049 A 
ATOM     51  H   UNL A   1      42.585  27.490  28.942  1.00  0.00     0.167 HD
ATOM     52  C   UNL A   1      46.880  27.090  29.709  1.00  0.00     0.031 A 
ATOM     53  C   UNL A   1      40.113  28.783  29.074  1.00  0.00     0.031 A 
ATOM     54  C   UNL A   1      46.543  28.418  30.143  1.00  0.00     0.049 A 
ATOM     55  C   UNL A   1      41.117  29.727  29.675  1.00  0.00     0.074 A 
ATOM     56  C   UNL A   1      47.380  29.403  30.637  1.00  0.00     0.029 A 
ATOM     57  N   UNL A   1      45.261  28.948  30.132  1.00  0.00    -0.354 N 
ATOM     58  N   UNL A   1      42.409  29.570  29.831  1.00  0.00    -0.248 NA
ATOM     59  C   UNL A   1      40.606  31.019  30.154  1.00  0.00     0.031 C 
ATOM     60  C   UNL A   1      46.596  30.509  30.978  1.00  0.00     0.029 A 
ATOM     61  C   UNL A   1      45.282  30.238  30.634  1.00  0.00     0.049 A 
ATOM     62  H   UNL A   1      44.457  28.477  29.815  1.00  0.00     0.167 HD
ATOM     63  C   UNL A   1      42.869  30.755  30.393  1.00  0.00     0.074 A 
ATOM     64  C   UNL A   1      41.721  31.625  30.535  1.00  0.00     0.031 C 
ATOM     65  C   UNL A   1      44.130  31.093  30.758  1.00  0.00     0.031 A 
BRANCH  52  66
ATOM     66  C   UNL A   1      48.310  26.638  29.832  1.00  0.00    -0.014 A 
ATOM     67  C   UNL A   1      48.726  25.828  30.902  1.00  0.00     0.009 A 
ATOM     68  C   UNL A   1      49.245  26.994  28.848  1.00  0.00     0.009 A 
ATOM     69  C   UNL A   1      50.056  25.414  31.001  1.00  0.00     0.001 A 
ATOM     70  C   UNL A   1      50.566  26.551  28.933  1.00  0.00     0.001 A 
ATOM     71  C   UNL A   1      50.973  25.770  30.013  1.00  0.00     0.000 A 
ENDBRANCH  52  66
BRANCH  53  72
ATOM     72  C   UNL A   1      38.680  29.169  28.970  1.00  0.00    -0.014 A 
ATOM     73  C   UNL A   1      38.180  29.735  27.785  1.00  0.00     0.009 A 
ATOM     74  C   UNL A   1      37.809  29.001  30.057  1.00  0.00     0.009 A 
ATOM     75  C   UNL A   1      36.851  30.155  27.705  1.00  0.00     0.001 A 
ATOM     76  C   UNL A   1      36.471  29.391  29.963  1.00  0.00     0.001 A 
ATOM     77  C   UNL A   1      35.996  29.980  28.792  1.00  0.00     0.000 A 
ENDBRANCH  53  72
BRANCH  65  78
ATOM     78  C   UNL A   1      44.344  32.478  31.298  1.00  0.00    -0.014 A 
ATOM     79  C   UNL A   1      44.604  33.564  30.448  1.00  0.00     0.009 A 
ATOM     80  C   UNL A   1      44.231  32.706  32.679  1.00  0.00     0.009 A 
ATOM     81  C   UNL A   1      44.782  34.845  30.976  1.00  0.00     0.001 A 
ATOM     82  C   UNL A   1      44.376  33.992  33.200  1.00  0.00     0.001 A 
ATOM     83  C   UNL A   1      44.660  35.058  32.349  1.00  0.00     0.000 A 
ENDBRANCH  65  78
ENDBRANCH  39  40
ENDBRANCH  31  34
ENDBRANCH  29  30
ENDBRANCH  28  29
ENDBRANCH   1  28
TORSDOF 14
ENDMDL
MODEL 3
REMARK VINA RESULT:     -11.9      4.176      9.336
REMARK SMILES N#C/C(=C/c1ccc(-c2cccc(C(=O)NCCCNC(=O)c3ccc(-c4c5nc(c(-c6ccccc6)c6ccc([nH]6)c(-c6ccccc6)c6nc(c(-c7ccccc7)c7ccc4[nH]7)C=C6)C=C5)cc3)c2)o1)c1ccc(F)cc1
REMARK SMILES IDX 17 1 16 2 14 3 15 4 13 6 9 7 10 8 71 9 11 10 12 11 8 12 5 13
REMARK SMILES IDX 6 14 72 15 7 16 4 17 3 18 2 19 1 20 73 21 74 22 79 23 75 24
REMARK SMILES IDX 78 25 76 26 77 27 18 28 19 29 20 30 21 31 22 33 23 34 24 35
REMARK SMILES IDX 70 36 25 37 69 38 26 39 27 40 28 41 63 42 29 43 68 44 62 45
REMARK SMILES IDX 64 46 30 47 67 48 61 49 60 50 31 52 53 53 38 54 52 55 39 56
REMARK SMILES IDX 42 57 51 58 65 59 40 60 41 61 50 63 66 64 43 65 32 66 33 67
REMARK SMILES IDX 37 68 34 69 36 70 35 71 54 72 55 73 59 74 56 75 58 76 57 77
REMARK SMILES IDX 44 78 45 79 49 80 46 81 48 82 47 83
REMARK H PARENT 16 5 20 32 64 51 42 62
REMARK Flexibility Score: inf
ROOT
ATOM      1  C   UNL A   1      31.088  31.164  25.813  1.00  0.00     0.118 C 
ENDROOT
BRANCH   1   2
ATOM      2  N   UNL A   1      32.255  30.412  25.358  1.00  0.00    -0.352 N 
ATOM      3  C   UNL A   1      32.453  29.145  24.844  1.00  0.00     0.251 C 
ATOM      4  O   UNL A   1      33.607  28.816  24.570  1.00  0.00    -0.269 OA
ATOM      5  H   UNL A   1      33.093  30.925  25.436  1.00  0.00     0.163 HD
BRANCH   3   6
ATOM      6  C   UNL A   1      31.362  28.146  24.674  1.00  0.00     0.040 A 
ATOM      7  C   UNL A   1      30.519  25.897  25.052  1.00  0.00     0.018 A 
ATOM      8  C   UNL A   1      29.589  26.067  24.029  1.00  0.00     0.012 A 
ATOM      9  C   UNL A   1      31.275  27.004  25.454  1.00  0.00     0.025 A 
ATOM     10  C   UNL A   1      29.487  27.305  23.384  1.00  0.00     0.002 A 
ATOM     11  C   UNL A   1      30.406  28.323  23.669  1.00  0.00     0.014 A 
BRANCH   7  12
ATOM     12  C   UNL A   1      30.872  24.614  25.652  1.00  0.00     0.134 A 
ATOM     13  C   UNL A   1      31.526  22.487  25.550  1.00  0.00     0.128 A 
ATOM     14  C   UNL A   1      31.817  22.970  26.823  1.00  0.00     0.051 A 
ATOM     15  O   UNL A   1      30.979  23.530  24.825  1.00  0.00    -0.457 OA
ATOM     16  C   UNL A   1      31.336  24.288  26.908  1.00  0.00     0.051 A 
BRANCH  13  17
ATOM     17  C   UNL A   1      31.672  21.150  25.064  1.00  0.00     0.067 C 
ATOM     18  C   UNL A   1      32.862  20.706  24.605  1.00  0.00     0.063 C 
BRANCH  18  19
ATOM     19  C   UNL A   1      33.025  19.315  24.014  1.00  0.00     0.100 C 
ATOM     20  N   UNL A   1      33.160  18.161  23.524  1.00  0.00    -0.192 NA
ENDBRANCH  18  19
BRANCH  18  21
ATOM     21  C   UNL A   1      34.121  21.511  24.694  1.00  0.00    -0.007 A 
ATOM     22  C   UNL A   1      34.431  22.480  23.717  1.00  0.00     0.012 A 
ATOM     23  C   UNL A   1      35.046  21.282  25.726  1.00  0.00     0.012 A 
ATOM     24  C   UNL A   1      35.672  23.120  23.709  1.00  0.00     0.040 A 
ATOM     25  C   UNL A   1      36.275  21.950  25.733  1.00  0.00     0.040 A 
ATOM     26  C   UNL A   1      36.587  22.842  24.713  1.00  0.00     0.123 A 
ATOM     27  F   UNL A   1      37.787  23.435  24.694  1.00  0.00    -0.207 F 
ENDBRANCH  18  21
ENDBRANCH  13  17
ENDBRANCH   7  12
ENDBRANCH   3   6
ENDBRANCH   1   2
BRANCH   1  28
ATOM     28  C   UNL A   1      31.317  31.977  27.075  1.00  0.00     0.042 C 
BRANCH  28  29
ATOM     29  C   UNL A   1      32.635  32.729  27.095  1.00  0.00     0.118 C 
BRANCH  29  30
ATOM     30  N   UNL A   1      32.501  34.084  27.628  1.00  0.00    -0.352 N 
ATOM     31  C   UNL A   1      33.169  34.727  28.643  1.00  0.00     0.251 C 
ATOM     32  H   UNL A   1      31.815  34.631  27.181  1.00  0.00     0.163 HD
ATOM     33  O   UNL A   1      32.740  35.793  29.070  1.00  0.00    -0.269 OA
BRANCH  31  34
ATOM     34  C   UNL A   1      34.389  34.137  29.236  1.00  0.00     0.039 A 
ATOM     35  C   UNL A   1      34.286  33.384  30.410  1.00  0.00     0.014 A 
ATOM     36  C   UNL A   1      35.638  34.344  28.651  1.00  0.00     0.014 A 
ATOM     37  C   UNL A   1      35.423  32.773  30.943  1.00  0.00     0.010 A 
ATOM     38  C   UNL A   1      36.745  33.645  29.117  1.00  0.00     0.010 A 
ATOM     39  C   UNL A   1      36.654  32.858  30.272  1.00  0.00    -0.014 A 
BRANCH  39  40
ATOM     40  C   UNL A   1      37.865  32.151  30.758  1.00  0.00     0.031 A 
ATOM     41  C   UNL A   1      38.684  32.746  31.873  1.00  0.00     0.074 A 
ATOM     42  C   UNL A   1      38.273  31.024  30.145  1.00  0.00     0.049 A 
ATOM     43  N   UNL A   1      39.829  32.343  32.363  1.00  0.00    -0.248 NA
ATOM     44  C   UNL A   1      38.165  33.975  32.498  1.00  0.00     0.031 C 
ATOM     45  C   UNL A   1      37.588  30.366  29.029  1.00  0.00     0.029 A 
ATOM     46  N   UNL A   1      39.374  30.235  30.366  1.00  0.00    -0.354 N 
ATOM     47  C   UNL A   1      40.171  33.274  33.335  1.00  0.00     0.074 A 
ATOM     48  C   UNL A   1      39.149  34.296  33.324  1.00  0.00     0.031 C 
ATOM     49  C   UNL A   1      38.266  29.259  28.687  1.00  0.00     0.029 A 
ATOM     50  C   UNL A   1      39.459  29.156  29.520  1.00  0.00     0.049 A 
ATOM     51  H   UNL A   1      40.041  30.425  31.066  1.00  0.00     0.167 HD
ATOM     52  C   UNL A   1      41.231  33.269  34.179  1.00  0.00     0.031 A 
ATOM     53  C   UNL A   1      40.400  28.198  29.418  1.00  0.00     0.031 A 
ATOM     54  C   UNL A   1      42.241  32.248  34.196  1.00  0.00     0.049 A 
ATOM     55  C   UNL A   1      41.584  28.235  30.345  1.00  0.00     0.074 A 
ATOM     56  C   UNL A   1      43.329  32.125  35.043  1.00  0.00     0.029 A 
ATOM     57  N   UNL A   1      42.287  31.170  33.325  1.00  0.00    -0.354 N 
ATOM     58  N   UNL A   1      41.861  29.090  31.300  1.00  0.00    -0.248 NA
ATOM     59  C   UNL A   1      42.581  27.167  30.186  1.00  0.00     0.031 C 
ATOM     60  C   UNL A   1      44.063  31.003  34.648  1.00  0.00     0.029 A 
ATOM     61  C   UNL A   1      43.397  30.391  33.599  1.00  0.00     0.049 A 
ATOM     62  H   UNL A   1      41.628  30.986  32.617  1.00  0.00     0.167 HD
ATOM     63  C   UNL A   1      43.043  28.644  31.877  1.00  0.00     0.074 A 
ATOM     64  C   UNL A   1      43.421  27.434  31.175  1.00  0.00     0.031 C 
ATOM     65  C   UNL A   1      43.752  29.185  32.896  1.00  0.00     0.031 A 
BRANCH  52  66
ATOM     66  C   UNL A   1      41.347  34.408  35.155  1.00  0.00    -0.014 A 
ATOM     67  C   UNL A   1      42.072  35.568  34.835  1.00  0.00     0.009 A 
ATOM     68  C   UNL A   1      40.691  34.339  36.394  1.00  0.00     0.009 A 
ATOM     69  C   UNL A   1      42.167  36.618  35.751  1.00  0.00     0.001 A 
ATOM     70  C   UNL A   1      40.762  35.404  37.294  1.00  0.00     0.001 A 
ATOM     71  C   UNL A   1      41.508  36.538  36.976  1.00  0.00     0.000 A 
ENDBRANCH  52  66
BRANCH  53  72
ATOM     72  C   UNL A   1      40.264  27.115  28.408  1.00  0.00    -0.014 A 
ATOM     73  C   UNL A   1      40.830  27.259  27.130  1.00  0.00     0.009 A 
ATOM     74  C   UNL A   1      39.549  25.944  28.701  1.00  0.00     0.009 A 
ATOM     75  C   UNL A   1      40.652  26.270  26.160  1.00  0.00     0.001 A 
ATOM     76  C   UNL A   1      39.401  24.941  27.740  1.00  0.00     0.001 A 
ATOM     77  C   UNL A   1      39.940  25.111  26.466  1.00  0.00     0.000 A 
ENDBRANCH  53  72
BRANCH  65  78
ATOM     78  C   UNL A   1      44.981  28.448  33.350  1.00  0.00    -0.014 A 
ATOM     79  C   UNL A   1      46.238  28.696  32.777  1.00  0.00     0.009 A 
ATOM     80  C   UNL A   1      44.883  27.527  34.405  1.00  0.00     0.009 A 
ATOM     81  C   UNL A   1      47.365  28.008  33.230  1.00  0.00     0.001 A 
ATOM     82  C   UNL A   1      46.016  26.866  34.877  1.00  0.00     0.001 A 
ATOM     83  C   UNL A   1      47.255  27.101  34.283  1.00  0.00     0.000 A 
ENDBRANCH  65  78
ENDBRANCH  39  40
ENDBRANCH  31  34
ENDBRANCH  29  30
ENDBRANCH  28  29
ENDBRANCH   1  28
TORSDOF 14
ENDMDL
