MODEL 1
REMARK VINA RESULT:     -10.7      0.000      0.000
REMARK SMILES C=CCOc1ccccc1/C=C/c1cc(C(=O)NCCCNC(=O)c2ccc(-c3c4nc(c(-c5ccccc5)c5ccc([nH]5)c(-c5ccccc5)c5nc(c(-c6ccccc6)c6ccc3[nH]6)C=C5)C=C4)cc2)ncn1
REMARK SMILES IDX 16 1 17 2 18 3 15 5 13 6 14 7 75 8 74 9 73 10 12 11 11 12
REMARK SMILES IDX 10 13 5 14 6 15 7 16 9 17 8 18 4 19 3 20 2 21 1 22 19 23
REMARK SMILES IDX 20 24 21 25 22 26 23 27 24 29 25 30 26 31 72 32 27 33 71 34
REMARK SMILES IDX 28 35 29 36 30 37 65 38 31 39 70 40 64 41 66 42 32 43 69 44
REMARK SMILES IDX 63 45 62 46 33 48 55 49 40 50 54 51 41 52 44 53 53 54 67 55
REMARK SMILES IDX 42 56 43 57 52 59 68 60 45 61 34 62 35 63 39 64 36 65 38 66
REMARK SMILES IDX 37 67 56 68 57 69 61 70 58 71 60 72 59 73 46 74 47 75 51 76
REMARK SMILES IDX 48 77 50 78 49 79
REMARK H PARENT 18 4 22 28 66 47 44 58
REMARK Flexibility Score: inf
ROOT
ATOM      1  C   UNL A   1      31.686  28.379  26.933  1.00  0.00     0.270 C 
ATOM      2  O   UNL A   1      31.628  27.798  28.018  1.00  0.00    -0.268 OA
ATOM      3  N   UNL A   1      31.513  29.748  26.953  1.00  0.00    -0.351 N 
ATOM      4  H   UNL A   1      31.322  30.109  27.849  1.00  0.00     0.163 HD
ENDROOT
BRANCH   1   5
ATOM      5  C   UNL A   1      31.986  27.604  25.683  1.00  0.00     0.132 A 
ATOM      6  C   UNL A   1      33.256  26.136  24.383  1.00  0.00     0.067 A 
ATOM      7  C   UNL A   1      33.200  27.003  25.453  1.00  0.00     0.062 A 
ATOM      8  N   UNL A   1      32.259  26.029  23.486  1.00  0.00    -0.237 NA
ATOM      9  C   UNL A   1      31.160  26.751  23.737  1.00  0.00     0.223 A 
ATOM     10  N   UNL A   1      30.954  27.509  24.815  1.00  0.00    -0.231 NA
BRANCH   6  11
ATOM     11  C   UNL A   1      34.335  25.149  24.220  1.00  0.00     0.029 C 
ATOM     12  C   UNL A   1      34.795  24.414  25.247  1.00  0.00     0.014 C 
BRANCH  12  13
ATOM     13  C   UNL A   1      35.627  23.204  25.149  1.00  0.00     0.017 A 
ATOM     14  C   UNL A   1      35.008  21.937  25.153  1.00  0.00     0.126 A 
ATOM     15  C   UNL A   1      35.761  20.762  25.096  1.00  0.00     0.047 A 
ATOM     16  C   UNL A   1      37.148  20.839  25.004  1.00  0.00     0.004 A 
ATOM     17  C   UNL A   1      37.023  23.260  25.067  1.00  0.00     0.012 A 
ATOM     18  C   UNL A   1      37.777  22.083  24.988  1.00  0.00     0.001 A 
BRANCH  14  19
ATOM     19  O   UNL A   1      33.641  21.826  25.269  1.00  0.00    -0.489 OA
BRANCH  19  20
ATOM     20  C   UNL A   1      33.110  20.903  24.307  1.00  0.00     0.257 C 
BRANCH  20  21
ATOM     21  C   UNL A   1      32.667  21.679  23.101  1.00  0.00     0.006 C 
ATOM     22  C   UNL A   1      31.735  22.640  23.117  1.00  0.00     0.007 C 
ENDBRANCH  20  21
ENDBRANCH  19  20
ENDBRANCH  14  19
ENDBRANCH  12  13
ENDBRANCH   6  11
ENDBRANCH   1   5
BRANCH   3  23
ATOM     23  C   UNL A   1      31.557  30.762  25.913  1.00  0.00     0.118 C 
BRANCH  23  24
ATOM     24  C   UNL A   1      31.406  32.164  26.501  1.00  0.00     0.042 C 
BRANCH  24  25
ATOM     25  C   UNL A   1      32.652  32.645  27.239  1.00  0.00     0.118 C 
BRANCH  25  26
ATOM     26  N   UNL A   1      32.506  34.008  27.730  1.00  0.00    -0.352 N 
ATOM     27  C   UNL A   1      33.215  34.681  28.691  1.00  0.00     0.251 C 
ATOM     28  H   UNL A   1      31.786  34.527  27.305  1.00  0.00     0.163 HD
ATOM     29  O   UNL A   1      32.796  35.763  29.106  1.00  0.00    -0.269 OA
BRANCH  27  30
ATOM     30  C   UNL A   1      34.468  34.124  29.245  1.00  0.00     0.039 A 
ATOM     31  C   UNL A   1      34.400  33.315  30.384  1.00  0.00     0.014 A 
ATOM     32  C   UNL A   1      35.711  34.429  28.682  1.00  0.00     0.014 A 
ATOM     33  C   UNL A   1      35.568  32.770  30.923  1.00  0.00     0.010 A 
ATOM     34  C   UNL A   1      36.865  33.826  29.176  1.00  0.00     0.010 A 
ATOM     35  C   UNL A   1      36.808  32.995  30.304  1.00  0.00    -0.014 A 
BRANCH  35  36
ATOM     36  C   UNL A   1      38.053  32.374  30.823  1.00  0.00     0.031 A 
ATOM     37  C   UNL A   1      38.604  31.128  30.186  1.00  0.00     0.074 A 
ATOM     38  C   UNL A   1      38.654  32.896  31.910  1.00  0.00     0.049 A 
ATOM     39  N   UNL A   1      39.636  30.405  30.542  1.00  0.00    -0.248 NA
ATOM     40  C   UNL A   1      37.886  30.611  29.009  1.00  0.00     0.031 C 
ATOM     41  C   UNL A   1      38.201  34.081  32.644  1.00  0.00     0.029 A 
ATOM     42  N   UNL A   1      39.773  32.490  32.594  1.00  0.00    -0.354 N 
ATOM     43  C   UNL A   1      39.680  29.342  29.647  1.00  0.00     0.074 A 
ATOM     44  C   UNL A   1      38.546  29.489  28.762  1.00  0.00     0.031 C 
ATOM     45  C   UNL A   1      39.048  34.319  33.659  1.00  0.00     0.029 A 
ATOM     46  C   UNL A   1      40.077  33.283  33.673  1.00  0.00     0.049 A 
ATOM     47  H   UNL A   1      40.307  31.704  32.335  1.00  0.00     0.167 HD
ATOM     48  C   UNL A   1      40.592  28.344  29.560  1.00  0.00     0.031 A 
ATOM     49  C   UNL A   1      41.066  33.185  34.581  1.00  0.00     0.031 A 
ATOM     50  C   UNL A   1      41.727  28.205  30.432  1.00  0.00     0.049 A 
ATOM     51  C   UNL A   1      42.057  32.060  34.469  1.00  0.00     0.074 A 
ATOM     52  C   UNL A   1      42.738  27.259  30.387  1.00  0.00     0.029 A 
ATOM     53  N   UNL A   1      42.002  29.034  31.508  1.00  0.00    -0.354 N 
ATOM     54  N   UNL A   1      42.120  31.100  33.579  1.00  0.00    -0.248 NA
ATOM     55  C   UNL A   1      43.119  32.012  35.484  1.00  0.00     0.031 C 
ATOM     56  C   UNL A   1      43.598  27.487  31.467  1.00  0.00     0.029 A 
ATOM     57  C   UNL A   1      43.153  28.608  32.150  1.00  0.00     0.049 A 
ATOM     58  H   UNL A   1      41.459  29.810  31.777  1.00  0.00     0.167 HD
ATOM     59  C   UNL A   1      43.241  30.350  33.910  1.00  0.00     0.074 A 
ATOM     60  C   UNL A   1      43.837  30.977  35.071  1.00  0.00     0.031 C 
ATOM     61  C   UNL A   1      43.732  29.241  33.305  1.00  0.00     0.031 A 
BRANCH  48  62
ATOM     62  C   UNL A   1      40.390  27.315  28.482  1.00  0.00    -0.014 A 
ATOM     63  C   UNL A   1      40.980  27.462  27.216  1.00  0.00     0.009 A 
ATOM     64  C   UNL A   1      39.630  26.165  28.746  1.00  0.00     0.009 A 
ATOM     65  C   UNL A   1      40.782  26.498  26.226  1.00  0.00     0.001 A 
ATOM     66  C   UNL A   1      39.458  25.188  27.763  1.00  0.00     0.001 A 
ATOM     67  C   UNL A   1      40.026  25.359  26.502  1.00  0.00     0.000 A 
ENDBRANCH  48  62
BRANCH  49  68
ATOM     68  C   UNL A   1      41.180  34.188  35.671  1.00  0.00    -0.014 A 
ATOM     69  C   UNL A   1      42.000  35.316  35.516  1.00  0.00     0.009 A 
ATOM     70  C   UNL A   1      40.477  34.020  36.875  1.00  0.00     0.009 A 
ATOM     71  C   UNL A   1      42.135  36.241  36.553  1.00  0.00     0.001 A 
ATOM     72  C   UNL A   1      40.592  34.962  37.899  1.00  0.00     0.001 A 
ATOM     73  C   UNL A   1      41.427  36.065  37.742  1.00  0.00     0.000 A 
ENDBRANCH  49  68
BRANCH  61  74
ATOM     74  C   UNL A   1      44.995  28.655  33.871  1.00  0.00    -0.014 A 
ATOM     75  C   UNL A   1      44.957  27.651  34.851  1.00  0.00     0.009 A 
ATOM     76  C   UNL A   1      46.239  29.088  33.388  1.00  0.00     0.009 A 
ATOM     77  C   UNL A   1      46.143  27.117  35.358  1.00  0.00     0.001 A 
ATOM     78  C   UNL A   1      47.421  28.533  33.876  1.00  0.00     0.001 A 
ATOM     79  C   UNL A   1      47.373  27.554  34.867  1.00  0.00     0.000 A 
ENDBRANCH  61  74
ENDBRANCH  35  36
ENDBRANCH  27  30
ENDBRANCH  25  26
ENDBRANCH  24  25
ENDBRANCH  23  24
ENDBRANCH   3  23
TORSDOF 15
ENDMDL
MODEL 2
REMARK VINA RESULT:     -10.6      2.942      7.054
REMARK SMILES C=CCOc1ccccc1/C=C/c1cc(C(=O)NCCCNC(=O)c2ccc(-c3c4nc(c(-c5ccccc5)c5ccc([nH]5)c(-c5ccccc5)c5nc(c(-c6ccccc6)c6ccc3[nH]6)C=C5)C=C4)cc2)ncn1
REMARK SMILES IDX 16 1 17 2 18 3 15 5 13 6 14 7 75 8 74 9 73 10 12 11 11 12
REMARK SMILES IDX 10 13 5 14 6 15 7 16 9 17 8 18 4 19 3 20 2 21 1 22 19 23
REMARK SMILES IDX 20 24 21 25 22 26 23 27 24 29 25 30 26 31 72 32 27 33 71 34
REMARK SMILES IDX 28 35 29 36 30 37 65 38 31 39 70 40 64 41 66 42 32 43 69 44
REMARK SMILES IDX 63 45 62 46 33 48 55 49 40 50 54 51 41 52 44 53 53 54 67 55
REMARK SMILES IDX 42 56 43 57 52 59 68 60 45 61 34 62 35 63 39 64 36 65 38 66
REMARK SMILES IDX 37 67 56 68 57 69 61 70 58 71 60 72 59 73 46 74 47 75 51 76
REMARK SMILES IDX 48 77 50 78 49 79
REMARK H PARENT 18 4 22 28 66 47 44 58
REMARK Flexibility Score: inf
ROOT
ATOM      1  C   UNL A   1      31.371  28.942  23.555  1.00  0.00     0.270 C 
ATOM      2  O   UNL A   1      31.061  29.325  22.426  1.00  0.00    -0.268 OA
ATOM      3  N   UNL A   1      31.383  29.896  24.552  1.00  0.00    -0.351 N 
ATOM      4  H   UNL A   1      31.172  30.803  24.233  1.00  0.00     0.163 HD
ENDROOT
BRANCH   1   5
ATOM      5  C   UNL A   1      31.662  27.490  23.800  1.00  0.00     0.132 A 
ATOM      6  C   UNL A   1      33.084  25.654  24.061  1.00  0.00     0.067 A 
ATOM      7  C   UNL A   1      32.896  26.930  23.573  1.00  0.00     0.062 A 
ATOM      8  N   UNL A   1      32.073  24.910  24.544  1.00  0.00    -0.237 NA
ATOM      9  C   UNL A   1      30.879  25.509  24.613  1.00  0.00     0.223 A 
ATOM     10  N   UNL A   1      30.625  26.781  24.299  1.00  0.00    -0.231 NA
BRANCH   6  11
ATOM     11  C   UNL A   1      34.419  25.061  24.234  1.00  0.00     0.029 C 
ATOM     12  C   UNL A   1      34.701  24.211  25.237  1.00  0.00     0.014 C 
BRANCH  12  13
ATOM     13  C   UNL A   1      35.877  23.330  25.328  1.00  0.00     0.017 A 
ATOM     14  C   UNL A   1      35.781  21.998  24.874  1.00  0.00     0.126 A 
ATOM     15  C   UNL A   1      36.861  21.119  24.974  1.00  0.00     0.047 A 
ATOM     16  C   UNL A   1      38.068  21.571  25.501  1.00  0.00     0.004 A 
ATOM     17  C   UNL A   1      37.096  23.762  25.865  1.00  0.00     0.012 A 
ATOM     18  C   UNL A   1      38.186  22.887  25.944  1.00  0.00     0.001 A 
BRANCH  14  19
ATOM     19  O   UNL A   1      34.595  21.514  24.372  1.00  0.00    -0.489 OA
BRANCH  19  20
ATOM     20  C   UNL A   1      34.308  20.206  24.887  1.00  0.00     0.257 C 
BRANCH  20  21
ATOM     21  C   UNL A   1      32.972  19.770  24.355  1.00  0.00     0.006 C 
ATOM     22  C   UNL A   1      32.756  18.627  23.691  1.00  0.00     0.007 C 
ENDBRANCH  20  21
ENDBRANCH  19  20
ENDBRANCH  14  19
ENDBRANCH  12  13
ENDBRANCH   6  11
ENDBRANCH   1   5
BRANCH   3  23
ATOM     23  C   UNL A   1      31.645  29.825  25.980  1.00  0.00     0.118 C 
BRANCH  23  24
ATOM     24  C   UNL A   1      32.456  28.579  26.332  1.00  0.00     0.042 C 
BRANCH  24  25
ATOM     25  C   UNL A   1      33.672  28.877  27.204  1.00  0.00     0.118 C 
BRANCH  25  26
ATOM     26  N   UNL A   1      33.668  30.247  27.700  1.00  0.00    -0.352 N 
ATOM     27  C   UNL A   1      34.613  30.926  28.424  1.00  0.00     0.251 C 
ATOM     28  H   UNL A   1      32.861  30.765  27.482  1.00  0.00     0.163 HD
ATOM     29  O   UNL A   1      34.325  32.014  28.925  1.00  0.00    -0.269 OA
BRANCH  27  30
ATOM     30  C   UNL A   1      35.969  30.368  28.623  1.00  0.00     0.039 A 
ATOM     31  C   UNL A   1      36.881  30.420  27.565  1.00  0.00     0.014 A 
ATOM     32  C   UNL A   1      36.332  29.754  29.825  1.00  0.00     0.014 A 
ATOM     33  C   UNL A   1      38.170  29.907  27.730  1.00  0.00     0.010 A 
ATOM     34  C   UNL A   1      37.639  29.309  30.013  1.00  0.00     0.010 A 
ATOM     35  C   UNL A   1      38.571  29.376  28.966  1.00  0.00    -0.014 A 
BRANCH  35  36
ATOM     36  C   UNL A   1      39.955  28.884  29.182  1.00  0.00     0.031 A 
ATOM     37  C   UNL A   1      41.000  29.788  29.775  1.00  0.00     0.074 A 
ATOM     38  C   UNL A   1      40.288  27.639  28.786  1.00  0.00     0.049 A 
ATOM     39  N   UNL A   1      42.274  29.560  29.973  1.00  0.00    -0.248 NA
ATOM     40  C   UNL A   1      40.563  31.136  30.173  1.00  0.00     0.031 C 
ATOM     41  C   UNL A   1      39.378  26.674  28.165  1.00  0.00     0.029 A 
ATOM     42  N   UNL A   1      41.489  26.977  28.839  1.00  0.00    -0.354 N 
ATOM     43  C   UNL A   1      42.791  30.737  30.500  1.00  0.00     0.074 A 
ATOM     44  C   UNL A   1      41.706  31.691  30.548  1.00  0.00     0.031 C 
ATOM     45  C   UNL A   1      40.047  25.536  27.918  1.00  0.00     0.029 A 
ATOM     46  C   UNL A   1      41.439  25.705  28.323  1.00  0.00     0.049 A 
ATOM     47  H   UNL A   1      42.309  27.376  29.211  1.00  0.00     0.167 HD
ATOM     48  C   UNL A   1      44.053  30.996  30.923  1.00  0.00     0.031 A 
ATOM     49  C   UNL A   1      42.406  24.779  28.182  1.00  0.00     0.031 A 
ATOM     50  C   UNL A   1      45.130  30.043  30.888  1.00  0.00     0.049 A 
ATOM     51  C   UNL A   1      43.800  25.096  28.646  1.00  0.00     0.074 A 
ATOM     52  C   UNL A   1      46.428  30.192  31.345  1.00  0.00     0.029 A 
ATOM     53  N   UNL A   1      45.035  28.763  30.364  1.00  0.00    -0.354 N 
ATOM     54  N   UNL A   1      44.257  26.192  29.201  1.00  0.00    -0.248 NA
ATOM     55  C   UNL A   1      44.809  24.041  28.473  1.00  0.00     0.031 C 
ATOM     56  C   UNL A   1      47.132  29.019  31.054  1.00  0.00     0.029 A 
ATOM     57  C   UNL A   1      46.257  28.121  30.465  1.00  0.00     0.049 A 
ATOM     58  H   UNL A   1      44.219  28.370  29.977  1.00  0.00     0.167 HD
ATOM     59  C   UNL A   1      45.599  25.950  29.465  1.00  0.00     0.074 A 
ATOM     60  C   UNL A   1      45.877  24.598  29.028  1.00  0.00     0.031 C 
ATOM     61  C   UNL A   1      46.518  26.775  30.023  1.00  0.00     0.031 A 
BRANCH  48  62
ATOM     62  C   UNL A   1      44.336  32.373  31.454  1.00  0.00    -0.014 A 
ATOM     63  C   UNL A   1      44.757  33.409  30.605  1.00  0.00     0.009 A 
ATOM     64  C   UNL A   1      44.145  32.650  32.817  1.00  0.00     0.009 A 
ATOM     65  C   UNL A   1      45.017  34.682  31.115  1.00  0.00     0.001 A 
ATOM     66  C   UNL A   1      44.377  33.932  33.319  1.00  0.00     0.001 A 
ATOM     67  C   UNL A   1      44.822  34.944  32.471  1.00  0.00     0.000 A 
ENDBRANCH  48  62
BRANCH  49  68
ATOM     68  C   UNL A   1      42.090  23.456  27.584  1.00  0.00    -0.014 A 
ATOM     69  C   UNL A   1      41.607  22.411  28.386  1.00  0.00     0.009 A 
ATOM     70  C   UNL A   1      42.276  23.228  26.211  1.00  0.00     0.009 A 
ATOM     71  C   UNL A   1      41.343  21.157  27.831  1.00  0.00     0.001 A 
ATOM     72  C   UNL A   1      41.983  21.981  25.654  1.00  0.00     0.001 A 
ATOM     73  C   UNL A   1      41.527  20.944  26.465  1.00  0.00     0.000 A 
ENDBRANCH  49  68
BRANCH  61  74
ATOM     74  C   UNL A   1      47.902  26.225  30.220  1.00  0.00    -0.014 A 
ATOM     75  C   UNL A   1      48.302  25.682  31.450  1.00  0.00     0.009 A 
ATOM     76  C   UNL A   1      48.807  26.218  29.146  1.00  0.00     0.009 A 
ATOM     77  C   UNL A   1      49.592  25.171  31.609  1.00  0.00     0.001 A 
ATOM     78  C   UNL A   1      50.084  25.681  29.300  1.00  0.00     0.001 A 
ATOM     79  C   UNL A   1      50.479  25.166  30.534  1.00  0.00     0.000 A 
ENDBRANCH  61  74
ENDBRANCH  35  36
ENDBRANCH  27  30
ENDBRANCH  25  26
ENDBRANCH  24  25
ENDBRANCH  23  24
ENDBRANCH   3  23
TORSDOF 15
ENDMDL
MODEL 3
REMARK VINA RESULT:     -10.4      1.067      5.993
REMARK SMILES C=CCOc1ccccc1/C=C/c1cc(C(=O)NCCCNC(=O)c2ccc(-c3c4nc(c(-c5ccccc5)c5ccc([nH]5)c(-c5ccccc5)c5nc(c(-c6ccccc6)c6ccc3[nH]6)C=C5)C=C4)cc2)ncn1
REMARK SMILES IDX 16 1 17 2 18 3 15 5 13 6 14 7 75 8 74 9 73 10 12 11 11 12
REMARK SMILES IDX 10 13 5 14 6 15 7 16 9 17 8 18 4 19 3 20 2 21 1 22 19 23
REMARK SMILES IDX 20 24 21 25 22 26 23 27 24 29 25 30 26 31 72 32 27 33 71 34
REMARK SMILES IDX 28 35 29 36 30 37 65 38 31 39 70 40 64 41 66 42 32 43 69 44
REMARK SMILES IDX 63 45 62 46 33 48 55 49 40 50 54 51 41 52 44 53 53 54 67 55
REMARK SMILES IDX 42 56 43 57 52 59 68 60 45 61 34 62 35 63 39 64 36 65 38 66
REMARK SMILES IDX 37 67 56 68 57 69 61 70 58 71 60 72 59 73 46 74 47 75 51 76
REMARK SMILES IDX 48 77 50 78 49 79
REMARK H PARENT 18 4 22 28 66 47 44 58
REMARK Flexibility Score: inf
ROOT
ATOM      1  C   UNL A   1      31.671  28.498  26.902  1.00  0.00     0.270 C 
ATOM      2  O   UNL A   1      31.705  27.890  27.973  1.00  0.00    -0.268 OA
ATOM      3  N   UNL A   1      31.414  29.852  26.965  1.00  0.00    -0.351 N 
ATOM      4  H   UNL A   1      31.247  30.180  27.878  1.00  0.00     0.163 HD
ENDROOT
BRANCH   1   5
ATOM      5  C   UNL A   1      31.955  27.772  25.619  1.00  0.00     0.132 A 
ATOM      6  C   UNL A   1      33.140  26.266  24.282  1.00  0.00     0.067 A 
ATOM      7  C   UNL A   1      33.116  27.071  25.401  1.00  0.00     0.062 A 
ATOM      8  N   UNL A   1      32.180  26.308  23.341  1.00  0.00    -0.237 NA
ATOM      9  C   UNL A   1      31.143  27.116  23.591  1.00  0.00     0.223 A 
ATOM     10  N   UNL A   1      30.959  27.827  24.705  1.00  0.00    -0.231 NA
BRANCH   6  11
ATOM     11  C   UNL A   1      34.128  25.191  24.102  1.00  0.00     0.029 C 
ATOM     12  C   UNL A   1      34.715  24.574  25.143  1.00  0.00     0.014 C 
BRANCH  12  13
ATOM     13  C   UNL A   1      35.459  23.305  25.098  1.00  0.00     0.017 A 
ATOM     14  C   UNL A   1      34.803  22.106  25.443  1.00  0.00     0.126 A 
ATOM     15  C   UNL A   1      35.480  20.885  25.447  1.00  0.00     0.047 A 
ATOM     16  C   UNL A   1      36.821  20.841  25.074  1.00  0.00     0.004 A 
ATOM     17  C   UNL A   1      36.811  23.242  24.737  1.00  0.00     0.012 A 
ATOM     18  C   UNL A   1      37.484  22.016  24.720  1.00  0.00     0.001 A 
BRANCH  14  19
ATOM     19  O   UNL A   1      33.485  22.118  25.841  1.00  0.00    -0.489 OA
BRANCH  19  20
ATOM     20  C   UNL A   1      32.679  21.286  24.994  1.00  0.00     0.257 C 
BRANCH  20  21
ATOM     21  C   UNL A   1      32.101  22.141  23.902  1.00  0.00     0.006 C 
ATOM     22  C   UNL A   1      32.407  22.024  22.604  1.00  0.00     0.007 C 
ENDBRANCH  20  21
ENDBRANCH  19  20
ENDBRANCH  14  19
ENDBRANCH  12  13
ENDBRANCH   6  11
ENDBRANCH   1   5
BRANCH   3  23
ATOM     23  C   UNL A   1      31.342  30.889  25.950  1.00  0.00     0.118 C 
BRANCH  23  24
ATOM     24  C   UNL A   1      31.252  32.277  26.584  1.00  0.00     0.042 C 
BRANCH  24  25
ATOM     25  C   UNL A   1      32.613  32.856  26.962  1.00  0.00     0.118 C 
BRANCH  25  26
ATOM     26  N   UNL A   1      32.490  34.043  27.796  1.00  0.00    -0.352 N 
ATOM     27  C   UNL A   1      33.243  34.451  28.867  1.00  0.00     0.251 C 
ATOM     28  H   UNL A   1      31.752  34.647  27.554  1.00  0.00     0.163 HD
ATOM     29  O   UNL A   1      32.844  35.383  29.567  1.00  0.00    -0.269 OA
BRANCH  27  30
ATOM     30  C   UNL A   1      34.520  33.783  29.201  1.00  0.00     0.039 A 
ATOM     31  C   UNL A   1      35.662  34.101  28.459  1.00  0.00     0.014 A 
ATOM     32  C   UNL A   1      34.591  32.815  30.207  1.00  0.00     0.014 A 
ATOM     33  C   UNL A   1      36.881  33.490  28.760  1.00  0.00     0.010 A 
ATOM     34  C   UNL A   1      35.821  32.261  30.554  1.00  0.00     0.010 A 
ATOM     35  C   UNL A   1      36.979  32.588  29.831  1.00  0.00    -0.014 A 
BRANCH  35  36
ATOM     36  C   UNL A   1      38.277  31.975  30.209  1.00  0.00     0.031 A 
ATOM     37  C   UNL A   1      39.216  32.695  31.137  1.00  0.00     0.074 A 
ATOM     38  C   UNL A   1      38.641  30.797  29.665  1.00  0.00     0.049 A 
ATOM     39  N   UNL A   1      40.420  32.352  31.524  1.00  0.00    -0.248 NA
ATOM     40  C   UNL A   1      38.754  33.982  31.683  1.00  0.00     0.031 C 
ATOM     41  C   UNL A   1      37.837  30.013  28.723  1.00  0.00     0.029 A 
ATOM     42  N   UNL A   1      39.786  30.057  29.819  1.00  0.00    -0.354 N 
ATOM     43  C   UNL A   1      40.863  33.386  32.340  1.00  0.00     0.074 A 
ATOM     44  C   UNL A   1      39.821  34.388  32.356  1.00  0.00     0.031 C 
ATOM     45  C   UNL A   1      38.504  28.892  28.404  1.00  0.00     0.029 A 
ATOM     46  C   UNL A   1      39.796  28.897  29.084  1.00  0.00     0.049 A 
ATOM     47  H   UNL A   1      40.531  30.332  30.403  1.00  0.00     0.167 HD
ATOM     48  C   UNL A   1      42.026  33.485  33.029  1.00  0.00     0.031 A 
ATOM     49  C   UNL A   1      40.742  27.947  28.961  1.00  0.00     0.031 A 
ATOM     50  C   UNL A   1      43.058  32.483  33.024  1.00  0.00     0.049 A 
ATOM     51  C   UNL A   1      42.029  28.087  29.725  1.00  0.00     0.074 A 
ATOM     52  C   UNL A   1      44.247  32.466  33.734  1.00  0.00     0.029 A 
ATOM     53  N   UNL A   1      43.025  31.320  32.271  1.00  0.00    -0.354 N 
ATOM     54  N   UNL A   1      42.404  29.041  30.542  1.00  0.00    -0.248 NA
ATOM     55  C   UNL A   1      43.017  27.013  29.555  1.00  0.00     0.031 C 
ATOM     56  C   UNL A   1      44.955  31.315  33.372  1.00  0.00     0.029 A 
ATOM     57  C   UNL A   1      44.183  30.590  32.480  1.00  0.00     0.049 A 
ATOM     58  H   UNL A   1      42.287  31.053  31.675  1.00  0.00     0.167 HD
ATOM     59  C   UNL A   1      43.661  28.669  31.003  1.00  0.00     0.074 A 
ATOM     60  C   UNL A   1      43.974  27.396  30.389  1.00  0.00     0.031 C 
ATOM     61  C   UNL A   1      44.481  29.325  31.860  1.00  0.00     0.031 A 
BRANCH  48  62
ATOM     62  C   UNL A   1      42.245  34.731  33.842  1.00  0.00    -0.014 A 
ATOM     63  C   UNL A   1      42.846  35.869  33.281  1.00  0.00     0.009 A 
ATOM     64  C   UNL A   1      41.813  34.780  35.176  1.00  0.00     0.009 A 
ATOM     65  C   UNL A   1      43.043  37.018  34.051  1.00  0.00     0.001 A 
ATOM     66  C   UNL A   1      41.985  35.939  35.935  1.00  0.00     0.001 A 
ATOM     67  C   UNL A   1      42.608  37.054  35.375  1.00  0.00     0.000 A 
ENDBRANCH  48  62
BRANCH  49  68
ATOM     68  C   UNL A   1      40.505  26.769  28.087  1.00  0.00    -0.014 A 
ATOM     69  C   UNL A   1      40.941  26.772  26.754  1.00  0.00     0.009 A 
ATOM     70  C   UNL A   1      39.834  25.637  28.579  1.00  0.00     0.009 A 
ATOM     71  C   UNL A   1      40.688  25.679  25.923  1.00  0.00     0.001 A 
ATOM     72  C   UNL A   1      39.608  24.534  27.754  1.00  0.00     0.001 A 
ATOM     73  C   UNL A   1      40.025  24.559  26.425  1.00  0.00     0.000 A 
ENDBRANCH  49  68
BRANCH  61  74
ATOM     74  C   UNL A   1      45.782  28.659  32.208  1.00  0.00    -0.014 A 
ATOM     75  C   UNL A   1      46.951  28.918  31.478  1.00  0.00     0.009 A 
ATOM     76  C   UNL A   1      45.844  27.788  33.307  1.00  0.00     0.009 A 
ATOM     77  C   UNL A   1      48.151  28.292  31.822  1.00  0.00     0.001 A 
ATOM     78  C   UNL A   1      47.050  27.186  33.666  1.00  0.00     0.001 A 
ATOM     79  C   UNL A   1      48.200  27.431  32.919  1.00  0.00     0.000 A 
ENDBRANCH  61  74
ENDBRANCH  35  36
ENDBRANCH  27  30
ENDBRANCH  25  26
ENDBRANCH  24  25
ENDBRANCH  23  24
ENDBRANCH   3  23
TORSDOF 15
ENDMDL
