MODEL 1
REMARK VINA RESULT:     -11.0      0.000      0.000
REMARK SMILES COc1ccc(C(=O)NCCCNC(=O)c2ccc(-c3c4nc(c(-c5ccccc5)c5ccc([nH]5)c(-c5ccccc5)c5nc(c(-c6ccccc6)c6ccc3[nH]6)C=C5)C=C4)cc2)cc1CN1CC(=O)N(C)CC1=O
REMARK SMILES IDX 11 1 10 2 9 3 7 4 8 5 6 7 3 8 4 9 65 10 5 11 64 12 2 13 1 14
REMARK SMILES IDX 66 15 67 16 68 17 74 18 69 19 73 20 75 21 70 22 71 23 72 24
REMARK SMILES IDX 12 25 13 26 14 27 15 29 16 30 17 31 63 32 18 33 62 34 19 35
REMARK SMILES IDX 20 36 21 37 56 38 22 39 61 40 55 41 57 42 23 43 60 44 54 45
REMARK SMILES IDX 53 46 24 48 46 49 31 50 45 51 32 52 35 53 44 54 58 55 33 56
REMARK SMILES IDX 34 57 43 59 59 60 36 61 25 62 26 63 30 64 27 65 29 66 28 67
REMARK SMILES IDX 47 68 48 69 52 70 49 71 51 72 50 73 37 74 38 75 42 76 39 77
REMARK SMILES IDX 41 78 40 79
REMARK H PARENT 9 6 13 28 57 47 35 58
REMARK Flexibility Score: inf
ROOT
ATOM      1  C   UNL A   1      38.276  19.825  24.734  1.00  0.00     0.042 C 
ENDROOT
BRANCH   1   2
ATOM      2  C   UNL A   1      37.221  20.927  24.603  1.00  0.00     0.118 C 
BRANCH   2   3
ATOM      3  N   UNL A   1      37.694  22.199  25.127  1.00  0.00    -0.352 N 
ATOM      4  C   UNL A   1      37.058  23.256  25.729  1.00  0.00     0.251 C 
ATOM      5  O   UNL A   1      37.772  24.153  26.183  1.00  0.00    -0.269 OA
ATOM      6  H   UNL A   1      38.665  22.327  25.031  1.00  0.00     0.163 HD
BRANCH   4   7
ATOM      7  C   UNL A   1      35.577  23.380  25.874  1.00  0.00     0.040 A 
ATOM      8  C   UNL A   1      32.805  23.591  26.332  1.00  0.00     0.123 A 
ATOM      9  C   UNL A   1      33.580  22.724  27.104  1.00  0.00     0.047 A 
ATOM     10  C   UNL A   1      33.396  24.388  25.349  1.00  0.00     0.014 A 
ATOM     11  C   UNL A   1      34.954  22.613  26.870  1.00  0.00     0.017 A 
ATOM     12  C   UNL A   1      34.788  24.272  25.144  1.00  0.00     0.023 A 
BRANCH   8  13
ATOM     13  O   UNL A   1      31.475  23.717  26.626  1.00  0.00    -0.496 OA
ATOM     14  C   UNL A   1      30.737  22.588  26.155  1.00  0.00     0.278 C 
ENDBRANCH   8  13
BRANCH  10  15
ATOM     15  C   UNL A   1      32.606  25.366  24.509  1.00  0.00     0.159 C 
BRANCH  15  16
ATOM     16  N   UNL A   1      32.597  26.694  25.108  1.00  0.00    -0.327 N 
ATOM     17  C   UNL A   1      31.562  26.990  26.085  1.00  0.00     0.220 C 
ATOM     18  C   UNL A   1      33.293  27.734  24.509  1.00  0.00     0.242 C 
ATOM     19  C   UNL A   1      31.803  28.182  27.013  1.00  0.00     0.242 C 
ATOM     20  C   UNL A   1      33.600  28.895  25.456  1.00  0.00     0.219 C 
ATOM     21  O   UNL A   1      33.851  27.636  23.430  1.00  0.00    -0.273 OA
ATOM     22  O   UNL A   1      31.108  28.341  28.015  1.00  0.00    -0.273 OA
ATOM     23  N   UNL A   1      32.666  29.155  26.539  1.00  0.00    -0.335 N 
ATOM     24  C   UNL A   1      32.834  30.396  27.271  1.00  0.00     0.147 C 
ENDBRANCH  15  16
ENDBRANCH  10  15
ENDBRANCH   4   7
ENDBRANCH   2   3
ENDBRANCH   1   2
BRANCH   1  25
ATOM     25  C   UNL A   1      39.117  19.908  26.008  1.00  0.00     0.118 C 
BRANCH  25  26
ATOM     26  N   UNL A   1      40.365  19.172  25.883  1.00  0.00    -0.352 N 
ATOM     27  C   UNL A   1      41.668  19.594  25.958  1.00  0.00     0.251 C 
ATOM     28  H   UNL A   1      40.258  18.208  25.715  1.00  0.00     0.163 HD
ATOM     29  O   UNL A   1      42.559  18.825  25.597  1.00  0.00    -0.269 OA
BRANCH  27  30
ATOM     30  C   UNL A   1      42.039  20.938  26.464  1.00  0.00     0.039 A 
ATOM     31  C   UNL A   1      41.956  21.168  27.843  1.00  0.00     0.014 A 
ATOM     32  C   UNL A   1      42.355  21.998  25.610  1.00  0.00     0.014 A 
ATOM     33  C   UNL A   1      42.214  22.440  28.365  1.00  0.00     0.010 A 
ATOM     34  C   UNL A   1      42.660  23.258  26.136  1.00  0.00     0.010 A 
ATOM     35  C   UNL A   1      42.579  23.496  27.517  1.00  0.00    -0.014 A 
BRANCH  35  36
ATOM     36  C   UNL A   1      42.865  24.847  28.068  1.00  0.00     0.031 A 
ATOM     37  C   UNL A   1      44.267  25.240  28.449  1.00  0.00     0.074 A 
ATOM     38  C   UNL A   1      41.855  25.718  28.254  1.00  0.00     0.049 A 
ATOM     39  N   UNL A   1      44.697  26.370  28.956  1.00  0.00    -0.248 NA
ATOM     40  C   UNL A   1      45.319  24.231  28.254  1.00  0.00     0.031 C 
ATOM     41  C   UNL A   1      40.446  25.460  27.955  1.00  0.00     0.029 A 
ATOM     42  N   UNL A   1      41.862  27.001  28.743  1.00  0.00    -0.354 N 
ATOM     43  C   UNL A   1      46.061  26.199  29.162  1.00  0.00     0.074 A 
ATOM     44  C   UNL A   1      46.383  24.849  28.748  1.00  0.00     0.031 C 
ATOM     45  C   UNL A   1      39.728  26.558  28.243  1.00  0.00     0.029 A 
ATOM     46  C   UNL A   1      40.620  27.585  28.772  1.00  0.00     0.049 A 
ATOM     47  H   UNL A   1      42.680  27.459  29.044  1.00  0.00     0.167 HD
ATOM     48  C   UNL A   1      46.966  27.085  29.641  1.00  0.00     0.031 A 
ATOM     49  C   UNL A   1      40.239  28.811  29.178  1.00  0.00     0.031 A 
ATOM     50  C   UNL A   1      46.665  28.440  30.022  1.00  0.00     0.049 A 
ATOM     51  C   UNL A   1      41.265  29.779  29.689  1.00  0.00     0.074 A 
ATOM     52  C   UNL A   1      47.535  29.432  30.443  1.00  0.00     0.029 A 
ATOM     53  N   UNL A   1      45.395  28.992  30.029  1.00  0.00    -0.354 N 
ATOM     54  N   UNL A   1      42.560  29.621  29.811  1.00  0.00    -0.248 NA
ATOM     55  C   UNL A   1      40.776  31.101  30.109  1.00  0.00     0.031 C 
ATOM     56  C   UNL A   1      46.785  30.576  30.738  1.00  0.00     0.029 A 
ATOM     57  C   UNL A   1      45.455  30.304  30.468  1.00  0.00     0.049 A 
ATOM     58  H   UNL A   1      44.572  28.523  29.762  1.00  0.00     0.167 HD
ATOM     59  C   UNL A   1      43.043  30.828  30.300  1.00  0.00     0.074 A 
ATOM     60  C   UNL A   1      41.905  31.712  30.441  1.00  0.00     0.031 C 
ATOM     61  C   UNL A   1      44.316  31.173  30.604  1.00  0.00     0.031 A 
BRANCH  48  62
ATOM     62  C   UNL A   1      48.385  26.616  29.789  1.00  0.00    -0.014 A 
ATOM     63  C   UNL A   1      49.322  26.798  28.760  1.00  0.00     0.009 A 
ATOM     64  C   UNL A   1      48.801  26.032  30.995  1.00  0.00     0.009 A 
ATOM     65  C   UNL A   1      50.643  26.379  28.928  1.00  0.00     0.001 A 
ATOM     66  C   UNL A   1      50.128  25.633  31.168  1.00  0.00     0.001 A 
ATOM     67  C   UNL A   1      51.046  25.801  30.132  1.00  0.00     0.000 A 
ENDBRANCH  48  62
BRANCH  49  68
ATOM     68  C   UNL A   1      38.811  29.208  29.098  1.00  0.00    -0.014 A 
ATOM     69  C   UNL A   1      37.971  29.048  30.211  1.00  0.00     0.009 A 
ATOM     70  C   UNL A   1      38.278  29.729  27.910  1.00  0.00     0.009 A 
ATOM     71  C   UNL A   1      36.618  29.382  30.127  1.00  0.00     0.001 A 
ATOM     72  C   UNL A   1      36.930  30.082  27.837  1.00  0.00     0.001 A 
ATOM     73  C   UNL A   1      36.099  29.901  28.941  1.00  0.00     0.000 A 
ENDBRANCH  49  68
BRANCH  61  74
ATOM     74  C   UNL A   1      44.546  32.571  31.095  1.00  0.00    -0.014 A 
ATOM     75  C   UNL A   1      44.808  33.618  30.198  1.00  0.00     0.009 A 
ATOM     76  C   UNL A   1      44.481  32.848  32.468  1.00  0.00     0.009 A 
ATOM     77  C   UNL A   1      45.029  34.912  30.672  1.00  0.00     0.001 A 
ATOM     78  C   UNL A   1      44.682  34.147  32.937  1.00  0.00     0.001 A 
ATOM     79  C   UNL A   1      44.964  35.176  32.040  1.00  0.00     0.000 A 
ENDBRANCH  61  74
ENDBRANCH  35  36
ENDBRANCH  27  30
ENDBRANCH  25  26
ENDBRANCH   1  25
TORSDOF 13
ENDMDL
MODEL 2
REMARK VINA RESULT:     -10.7      2.874      8.902
REMARK SMILES COc1ccc(C(=O)NCCCNC(=O)c2ccc(-c3c4nc(c(-c5ccccc5)c5ccc([nH]5)c(-c5ccccc5)c5nc(c(-c6ccccc6)c6ccc3[nH]6)C=C5)C=C4)cc2)cc1CN1CC(=O)N(C)CC1=O
REMARK SMILES IDX 11 1 10 2 9 3 7 4 8 5 6 7 3 8 4 9 65 10 5 11 64 12 2 13 1 14
REMARK SMILES IDX 66 15 67 16 68 17 74 18 69 19 73 20 75 21 70 22 71 23 72 24
REMARK SMILES IDX 12 25 13 26 14 27 15 29 16 30 17 31 63 32 18 33 62 34 19 35
REMARK SMILES IDX 20 36 21 37 56 38 22 39 61 40 55 41 57 42 23 43 60 44 54 45
REMARK SMILES IDX 53 46 24 48 46 49 31 50 45 51 32 52 35 53 44 54 58 55 33 56
REMARK SMILES IDX 34 57 43 59 59 60 36 61 25 62 26 63 30 64 27 65 29 66 28 67
REMARK SMILES IDX 47 68 48 69 52 70 49 71 51 72 50 73 37 74 38 75 42 76 39 77
REMARK SMILES IDX 41 78 40 79
REMARK H PARENT 9 6 13 28 57 47 35 58
REMARK Flexibility Score: inf
ROOT
ATOM      1  C   UNL A   1      31.402  32.037  26.895  1.00  0.00     0.042 C 
ENDROOT
BRANCH   1   2
ATOM      2  C   UNL A   1      31.721  30.635  26.369  1.00  0.00     0.118 C 
BRANCH   2   3
ATOM      3  N   UNL A   1      32.960  30.114  26.925  1.00  0.00    -0.352 N 
ATOM      4  C   UNL A   1      33.862  29.178  26.483  1.00  0.00     0.251 C 
ATOM      5  O   UNL A   1      34.899  29.048  27.137  1.00  0.00    -0.269 OA
ATOM      6  H   UNL A   1      33.200  30.513  27.792  1.00  0.00     0.163 HD
BRANCH   4   7
ATOM      7  C   UNL A   1      33.672  28.329  25.270  1.00  0.00     0.040 A 
ATOM      8  C   UNL A   1      33.454  26.817  22.902  1.00  0.00     0.123 A 
ATOM      9  C   UNL A   1      33.807  28.166  22.843  1.00  0.00     0.047 A 
ATOM     10  C   UNL A   1      33.240  26.191  24.133  1.00  0.00     0.014 A 
ATOM     11  C   UNL A   1      33.905  28.917  24.018  1.00  0.00     0.017 A 
ATOM     12  C   UNL A   1      33.364  26.967  25.305  1.00  0.00     0.023 A 
BRANCH   8  13
ATOM     13  O   UNL A   1      33.423  26.097  21.739  1.00  0.00    -0.496 OA
ATOM     14  C   UNL A   1      32.111  26.094  21.174  1.00  0.00     0.278 C 
ENDBRANCH   8  13
BRANCH  10  15
ATOM     15  C   UNL A   1      32.889  24.725  24.251  1.00  0.00     0.159 C 
BRANCH  15  16
ATOM     16  N   UNL A   1      34.072  23.915  24.510  1.00  0.00    -0.327 N 
ATOM     17  C   UNL A   1      34.784  23.370  23.367  1.00  0.00     0.220 C 
ATOM     18  C   UNL A   1      34.288  23.381  25.772  1.00  0.00     0.242 C 
ATOM     19  C   UNL A   1      36.224  22.910  23.598  1.00  0.00     0.242 C 
ATOM     20  C   UNL A   1      35.743  22.989  26.033  1.00  0.00     0.219 C 
ATOM     21  O   UNL A   1      33.484  23.462  26.685  1.00  0.00    -0.273 OA
ATOM     22  O   UNL A   1      36.964  22.677  22.645  1.00  0.00    -0.273 OA
ATOM     23  N   UNL A   1      36.547  22.563  24.899  1.00  0.00    -0.335 N 
ATOM     24  C   UNL A   1      37.835  21.963  25.192  1.00  0.00     0.147 C 
ENDBRANCH  15  16
ENDBRANCH  10  15
ENDBRANCH   4   7
ENDBRANCH   2   3
ENDBRANCH   1   2
BRANCH   1  25
ATOM     25  C   UNL A   1      32.532  33.050  26.713  1.00  0.00     0.118 C 
BRANCH  25  26
ATOM     26  N   UNL A   1      32.409  34.172  27.632  1.00  0.00    -0.352 N 
ATOM     27  C   UNL A   1      33.138  34.505  28.745  1.00  0.00     0.251 C 
ATOM     28  H   UNL A   1      31.678  34.796  27.420  1.00  0.00     0.163 HD
ATOM     29  O   UNL A   1      32.705  35.383  29.492  1.00  0.00    -0.269 OA
BRANCH  27  30
ATOM     30  C   UNL A   1      34.428  33.853  29.073  1.00  0.00     0.039 A 
ATOM     31  C   UNL A   1      34.456  32.948  30.142  1.00  0.00     0.014 A 
ATOM     32  C   UNL A   1      35.622  34.190  28.430  1.00  0.00     0.014 A 
ATOM     33  C   UNL A   1      35.662  32.368  30.548  1.00  0.00     0.010 A 
ATOM     34  C   UNL A   1      36.821  33.573  28.804  1.00  0.00     0.010 A 
ATOM     35  C   UNL A   1      36.855  32.667  29.875  1.00  0.00    -0.014 A 
BRANCH  35  36
ATOM     36  C   UNL A   1      38.138  32.043  30.294  1.00  0.00     0.031 A 
ATOM     37  C   UNL A   1      39.014  32.705  31.324  1.00  0.00     0.074 A 
ATOM     38  C   UNL A   1      38.535  30.888  29.726  1.00  0.00     0.049 A 
ATOM     39  N   UNL A   1      40.170  32.310  31.799  1.00  0.00    -0.248 NA
ATOM     40  C   UNL A   1      38.541  33.982  31.881  1.00  0.00     0.031 C 
ATOM     41  C   UNL A   1      37.800  30.153  28.696  1.00  0.00     0.029 A 
ATOM     42  N   UNL A   1      39.660  30.131  29.937  1.00  0.00    -0.354 N 
ATOM     43  C   UNL A   1      40.573  33.300  32.688  1.00  0.00     0.074 A 
ATOM     44  C   UNL A   1      39.550  34.324  32.670  1.00  0.00     0.031 C 
ATOM     45  C   UNL A   1      38.481  29.038  28.382  1.00  0.00     0.029 A 
ATOM     46  C   UNL A   1      39.711  28.995  29.167  1.00  0.00     0.049 A 
ATOM     47  H   UNL A   1      40.365  30.378  30.578  1.00  0.00     0.167 HD
ATOM     48  C   UNL A   1      41.686  33.349  33.459  1.00  0.00     0.031 A 
ATOM     49  C   UNL A   1      40.641  28.024  29.100  1.00  0.00     0.031 A 
ATOM     50  C   UNL A   1      42.691  32.321  33.512  1.00  0.00     0.049 A 
ATOM     51  C   UNL A   1      41.857  28.094  29.977  1.00  0.00     0.074 A 
ATOM     52  C   UNL A   1      43.812  32.252  34.323  1.00  0.00     0.029 A 
ATOM     53  N   UNL A   1      42.700  31.185  32.721  1.00  0.00    -0.354 N 
ATOM     54  N   UNL A   1      42.185  29.004  30.861  1.00  0.00    -0.248 NA
ATOM     55  C   UNL A   1      42.827  26.996  29.853  1.00  0.00     0.031 C 
ATOM     56  C   UNL A   1      44.517  31.087  33.998  1.00  0.00     0.029 A 
ATOM     57  C   UNL A   1      43.816  30.418  33.009  1.00  0.00     0.049 A 
ATOM     58  H   UNL A   1      42.013  30.955  32.054  1.00  0.00     0.167 HD
ATOM     59  C   UNL A   1      43.385  28.578  31.413  1.00  0.00     0.074 A 
ATOM     60  C   UNL A   1      43.722  27.323  30.774  1.00  0.00     0.031 C 
ATOM     61  C   UNL A   1      44.141  29.173  32.366  1.00  0.00     0.031 A 
BRANCH  48  62
ATOM     62  C   UNL A   1      41.884  34.567  34.314  1.00  0.00    -0.014 A 
ATOM     63  C   UNL A   1      41.409  34.614  35.634  1.00  0.00     0.009 A 
ATOM     64  C   UNL A   1      42.603  35.661  33.809  1.00  0.00     0.009 A 
ATOM     65  C   UNL A   1      41.627  35.745  36.423  1.00  0.00     0.001 A 
ATOM     66  C   UNL A   1      42.837  36.783  34.606  1.00  0.00     0.001 A 
ATOM     67  C   UNL A   1      42.344  36.827  35.910  1.00  0.00     0.000 A 
ENDBRANCH  48  62
BRANCH  49  68
ATOM     68  C   UNL A   1      40.452  26.878  28.176  1.00  0.00    -0.014 A 
ATOM     69  C   UNL A   1      39.727  25.749  28.589  1.00  0.00     0.009 A 
ATOM     70  C   UNL A   1      41.007  26.900  26.887  1.00  0.00     0.009 A 
ATOM     71  C   UNL A   1      39.582  24.654  27.736  1.00  0.00     0.001 A 
ATOM     72  C   UNL A   1      40.840  25.811  26.030  1.00  0.00     0.001 A 
ATOM     73  C   UNL A   1      40.136  24.687  26.456  1.00  0.00     0.000 A 
ENDBRANCH  49  68
BRANCH  61  74
ATOM     74  C   UNL A   1      45.390  28.460  32.791  1.00  0.00    -0.014 A 
ATOM     75  C   UNL A   1      46.619  28.724  32.169  1.00  0.00     0.009 A 
ATOM     76  C   UNL A   1      45.340  27.527  33.837  1.00  0.00     0.009 A 
ATOM     77  C   UNL A   1      47.772  28.044  32.570  1.00  0.00     0.001 A 
ATOM     78  C   UNL A   1      46.497  26.865  34.250  1.00  0.00     0.001 A 
ATOM     79  C   UNL A   1      47.709  27.118  33.610  1.00  0.00     0.000 A 
ENDBRANCH  61  74
ENDBRANCH  35  36
ENDBRANCH  27  30
ENDBRANCH  25  26
ENDBRANCH   1  25
TORSDOF 13
ENDMDL
MODEL 3
REMARK VINA RESULT:     -10.7      0.444      5.941
REMARK SMILES COc1ccc(C(=O)NCCCNC(=O)c2ccc(-c3c4nc(c(-c5ccccc5)c5ccc([nH]5)c(-c5ccccc5)c5nc(c(-c6ccccc6)c6ccc3[nH]6)C=C5)C=C4)cc2)cc1CN1CC(=O)N(C)CC1=O
REMARK SMILES IDX 11 1 10 2 9 3 7 4 8 5 6 7 3 8 4 9 65 10 5 11 64 12 2 13 1 14
REMARK SMILES IDX 66 15 67 16 68 17 74 18 69 19 73 20 75 21 70 22 71 23 72 24
REMARK SMILES IDX 12 25 13 26 14 27 15 29 16 30 17 31 63 32 18 33 62 34 19 35
REMARK SMILES IDX 20 36 21 37 56 38 22 39 61 40 55 41 57 42 23 43 60 44 54 45
REMARK SMILES IDX 53 46 24 48 46 49 31 50 45 51 32 52 35 53 44 54 58 55 33 56
REMARK SMILES IDX 34 57 43 59 59 60 36 61 25 62 26 63 30 64 27 65 29 66 28 67
REMARK SMILES IDX 47 68 48 69 52 70 49 71 51 72 50 73 37 74 38 75 42 76 39 77
REMARK SMILES IDX 41 78 40 79
REMARK H PARENT 9 6 13 28 57 47 35 58
REMARK Flexibility Score: inf
ROOT
ATOM      1  C   UNL A   1      38.288  19.640  24.861  1.00  0.00     0.042 C 
ENDROOT
BRANCH   1   2
ATOM      2  C   UNL A   1      37.296  20.780  24.616  1.00  0.00     0.118 C 
BRANCH   2   3
ATOM      3  N   UNL A   1      37.788  22.049  25.130  1.00  0.00    -0.352 N 
ATOM      4  C   UNL A   1      37.165  23.126  25.710  1.00  0.00     0.251 C 
ATOM      5  O   UNL A   1      37.891  24.015  26.162  1.00  0.00    -0.269 OA
ATOM      6  H   UNL A   1      38.763  22.156  25.044  1.00  0.00     0.163 HD
BRANCH   4   7
ATOM      7  C   UNL A   1      35.685  23.280  25.835  1.00  0.00     0.040 A 
ATOM      8  C   UNL A   1      32.912  23.549  26.254  1.00  0.00     0.123 A 
ATOM      9  C   UNL A   1      33.658  22.668  27.039  1.00  0.00     0.047 A 
ATOM     10  C   UNL A   1      33.533  24.332  25.278  1.00  0.00     0.014 A 
ATOM     11  C   UNL A   1      35.033  22.528  26.823  1.00  0.00     0.017 A 
ATOM     12  C   UNL A   1      34.924  24.186  25.093  1.00  0.00     0.023 A 
BRANCH   8  13
ATOM     13  O   UNL A   1      31.581  23.703  26.530  1.00  0.00    -0.496 OA
ATOM     14  C   UNL A   1      30.832  22.570  26.089  1.00  0.00     0.278 C 
ENDBRANCH   8  13
BRANCH  10  15
ATOM     15  C   UNL A   1      32.774  25.324  24.425  1.00  0.00     0.159 C 
BRANCH  15  16
ATOM     16  N   UNL A   1      32.729  26.638  25.053  1.00  0.00    -0.327 N 
ATOM     17  C   UNL A   1      31.691  26.883  26.040  1.00  0.00     0.220 C 
ATOM     18  C   UNL A   1      33.392  27.710  24.474  1.00  0.00     0.242 C 
ATOM     19  C   UNL A   1      31.901  28.061  26.993  1.00  0.00     0.242 C 
ATOM     20  C   UNL A   1      33.670  28.859  25.443  1.00  0.00     0.219 C 
ATOM     21  O   UNL A   1      33.948  27.652  23.390  1.00  0.00    -0.273 OA
ATOM     22  O   UNL A   1      31.207  28.178  28.000  1.00  0.00    -0.273 OA
ATOM     23  N   UNL A   1      32.734  29.069  26.536  1.00  0.00    -0.335 N 
ATOM     24  C   UNL A   1      32.869  30.298  27.294  1.00  0.00     0.147 C 
ENDBRANCH  15  16
ENDBRANCH  10  15
ENDBRANCH   4   7
ENDBRANCH   2   3
ENDBRANCH   1   2
BRANCH   1  25
ATOM     25  C   UNL A   1      39.141  19.807  26.119  1.00  0.00     0.118 C 
BRANCH  25  26
ATOM     26  N   UNL A   1      40.438  19.161  25.986  1.00  0.00    -0.352 N 
ATOM     27  C   UNL A   1      41.708  19.669  26.077  1.00  0.00     0.251 C 
ATOM     28  H   UNL A   1      40.397  18.195  25.798  1.00  0.00     0.163 HD
ATOM     29  O   UNL A   1      42.651  18.970  25.704  1.00  0.00    -0.269 OA
BRANCH  27  30
ATOM     30  C   UNL A   1      41.984  21.024  26.612  1.00  0.00     0.039 A 
ATOM     31  C   UNL A   1      42.109  22.080  25.700  1.00  0.00     0.014 A 
ATOM     32  C   UNL A   1      42.230  21.257  27.968  1.00  0.00     0.014 A 
ATOM     33  C   UNL A   1      42.452  23.362  26.143  1.00  0.00     0.010 A 
ATOM     34  C   UNL A   1      42.524  22.550  28.417  1.00  0.00     0.010 A 
ATOM     35  C   UNL A   1      42.652  23.611  27.509  1.00  0.00    -0.014 A 
BRANCH  35  36
ATOM     36  C   UNL A   1      43.004  24.975  27.986  1.00  0.00     0.031 A 
ATOM     37  C   UNL A   1      41.930  25.988  28.277  1.00  0.00     0.074 A 
ATOM     38  C   UNL A   1      44.299  25.316  28.133  1.00  0.00     0.049 A 
ATOM     39  N   UNL A   1      42.055  27.227  28.689  1.00  0.00    -0.248 NA
ATOM     40  C   UNL A   1      40.537  25.564  28.064  1.00  0.00     0.031 C 
ATOM     41  C   UNL A   1      45.442  24.443  27.861  1.00  0.00     0.029 A 
ATOM     42  N   UNL A   1      44.870  26.493  28.549  1.00  0.00    -0.354 N 
ATOM     43  C   UNL A   1      40.764  27.736  28.758  1.00  0.00     0.074 A 
ATOM     44  C   UNL A   1      39.871  26.681  28.325  1.00  0.00     0.031 C 
ATOM     45  C   UNL A   1      46.576  25.107  28.140  1.00  0.00     0.029 A 
ATOM     46  C   UNL A   1      46.242  26.456  28.583  1.00  0.00     0.049 A 
ATOM     47  H   UNL A   1      44.345  27.288  28.798  1.00  0.00     0.167 HD
ATOM     48  C   UNL A   1      40.354  28.964  29.157  1.00  0.00     0.031 A 
ATOM     49  C   UNL A   1      47.134  27.403  28.933  1.00  0.00     0.031 A 
ATOM     50  C   UNL A   1      41.228  30.008  29.622  1.00  0.00     0.049 A 
ATOM     51  C   UNL A   1      46.652  28.750  29.385  1.00  0.00     0.074 A 
ATOM     52  C   UNL A   1      40.892  31.256  30.120  1.00  0.00     0.029 A 
ATOM     53  N   UNL A   1      42.610  29.926  29.646  1.00  0.00    -0.354 N 
ATOM     54  N   UNL A   1      45.423  29.188  29.510  1.00  0.00    -0.248 NA
ATOM     55  C   UNL A   1      47.683  29.730  29.757  1.00  0.00     0.031 C 
ATOM     56  C   UNL A   1      42.075  31.944  30.414  1.00  0.00     0.029 A 
ATOM     57  C   UNL A   1      43.143  31.109  30.131  1.00  0.00     0.049 A 
ATOM     58  H   UNL A   1      43.136  29.143  29.363  1.00  0.00     0.167 HD
ATOM     59  C   UNL A   1      45.533  30.485  29.994  1.00  0.00     0.074 A 
ATOM     60  C   UNL A   1      46.946  30.759  30.152  1.00  0.00     0.031 C 
ATOM     61  C   UNL A   1      44.550  31.370  30.282  1.00  0.00     0.031 A 
BRANCH  48  62
ATOM     62  C   UNL A   1      38.882  29.256  29.101  1.00  0.00    -0.014 A 
ATOM     63  C   UNL A   1      38.067  29.099  30.232  1.00  0.00     0.009 A 
ATOM     64  C   UNL A   1      38.315  29.745  27.915  1.00  0.00     0.009 A 
ATOM     65  C   UNL A   1      36.705  29.402  30.168  1.00  0.00     0.001 A 
ATOM     66  C   UNL A   1      36.957  30.067  27.859  1.00  0.00     0.001 A 
ATOM     67  C   UNL A   1      36.153  29.889  28.984  1.00  0.00     0.000 A 
ENDBRANCH  48  62
BRANCH  49  68
ATOM     68  C   UNL A   1      48.587  27.104  28.889  1.00  0.00    -0.014 A 
ATOM     69  C   UNL A   1      49.327  27.364  27.726  1.00  0.00     0.009 A 
ATOM     70  C   UNL A   1      49.235  26.543  30.000  1.00  0.00     0.009 A 
ATOM     71  C   UNL A   1      50.685  27.046  27.668  1.00  0.00     0.001 A 
ATOM     72  C   UNL A   1      50.598  26.246  29.945  1.00  0.00     0.001 A 
ATOM     73  C   UNL A   1      51.320  26.490  28.779  1.00  0.00     0.000 A 
ENDBRANCH  49  68
BRANCH  61  74
ATOM     74  C   UNL A   1      44.969  32.705  30.821  1.00  0.00    -0.014 A 
ATOM     75  C   UNL A   1      45.190  33.793  29.964  1.00  0.00     0.009 A 
ATOM     76  C   UNL A   1      45.127  32.881  32.204  1.00  0.00     0.009 A 
ATOM     77  C   UNL A   1      45.591  35.027  30.482  1.00  0.00     0.001 A 
ATOM     78  C   UNL A   1      45.506  34.120  32.720  1.00  0.00     0.001 A 
ATOM     79  C   UNL A   1      45.746  35.190  31.858  1.00  0.00     0.000 A 
ENDBRANCH  61  74
ENDBRANCH  35  36
ENDBRANCH  27  30
ENDBRANCH  25  26
ENDBRANCH   1  25
TORSDOF 13
ENDMDL
