MODEL 1
REMARK VINA RESULT:     -10.6      0.000      0.000
REMARK SMILES COCc1cc(SCC(=O)NCCCNC(=O)c2ccc(-c3c4nc(c(-c5ccccc5)c5ccc([nH]5)c(-c5ccccc5)c5nc(c(-c6ccccc6)c6ccc3[nH]6)C=C5)C=C4)cc2)nc(-c2cccnc2)n1
REMARK SMILES IDX 12 1 11 2 9 3 10 4 8 6 7 7 6 8 4 9 5 10 74 11 67 12 66 13
REMARK SMILES IDX 3 14 2 15 1 16 68 17 69 18 73 19 70 20 72 21 71 22 13 23
REMARK SMILES IDX 14 24 15 25 16 26 17 28 18 29 19 30 65 31 20 32 64 33 21 34
REMARK SMILES IDX 22 35 23 36 58 37 24 38 63 39 57 40 59 41 25 42 62 43 56 44
REMARK SMILES IDX 55 45 26 47 48 48 33 49 47 50 34 51 37 52 46 53 60 54 35 55
REMARK SMILES IDX 36 56 45 58 61 59 38 60 27 61 28 62 32 63 29 64 31 65 30 66
REMARK SMILES IDX 49 67 50 68 54 69 51 70 53 71 52 72 39 73 40 74 44 75 41 76
REMARK SMILES IDX 43 77 42 78
REMARK H PARENT 11 5 15 27 59 46 37 57
REMARK Flexibility Score: inf
ROOT
ATOM      1  C   UNL A   1      34.584  23.964  25.287  1.00  0.00     0.117 C 
ENDROOT
BRANCH   1   2
ATOM      2  N   UNL A   1      34.422  23.407  23.958  1.00  0.00    -0.355 N 
ATOM      3  C   UNL A   1      33.856  23.949  22.847  1.00  0.00     0.230 C 
ATOM      4  O   UNL A   1      33.777  23.235  21.843  1.00  0.00    -0.274 OA
ATOM      5  H   UNL A   1      34.778  22.496  23.842  1.00  0.00     0.163 HD
BRANCH   3   6
ATOM      6  C   UNL A   1      33.400  25.395  22.811  1.00  0.00     0.176 C 
BRANCH   6   7
ATOM      7  S   UNL A   1      31.678  25.640  22.281  1.00  0.00    -0.096 SA
BRANCH   7   8
ATOM      8  C   UNL A   1      31.219  27.259  22.860  1.00  0.00     0.101 A 
ATOM      9  C   UNL A   1      29.897  29.205  23.011  1.00  0.00     0.071 A 
ATOM     10  C   UNL A   1      30.195  28.027  22.349  1.00  0.00     0.062 A 
ATOM     11  N   UNL A   1      30.601  29.606  24.086  1.00  0.00    -0.230 NA
ATOM     12  C   UNL A   1      31.646  28.852  24.454  1.00  0.00     0.162 A 
ATOM     13  N   UNL A   1      31.978  27.682  23.891  1.00  0.00    -0.222 NA
BRANCH   9  14
ATOM     14  C   UNL A   1      28.688  30.015  22.578  1.00  0.00     0.215 C 
BRANCH  14  15
ATOM     15  O   UNL A   1      28.569  30.212  21.167  1.00  0.00    -0.378 OA
ATOM     16  C   UNL A   1      27.985  31.462  20.821  1.00  0.00     0.195 C 
ENDBRANCH  14  15
ENDBRANCH   9  14
BRANCH  12  17
ATOM     17  C   UNL A   1      32.481  29.360  25.535  1.00  0.00     0.038 A 
ATOM     18  C   UNL A   1      33.662  28.722  25.936  1.00  0.00     0.015 A 
ATOM     19  C   UNL A   1      32.159  30.541  26.201  1.00  0.00     0.123 A 
ATOM     20  C   UNL A   1      34.454  29.277  26.940  1.00  0.00     0.021 A 
ATOM     21  N   UNL A   1      32.894  31.097  27.197  1.00  0.00    -0.264 NA
ATOM     22  C   UNL A   1      34.029  30.452  27.538  1.00  0.00     0.111 A 
ENDBRANCH  12  17
ENDBRANCH   7   8
ENDBRANCH   6   7
ENDBRANCH   3   6
ENDBRANCH   1   2
BRANCH   1  23
ATOM     23  C   UNL A   1      35.866  23.472  25.956  1.00  0.00     0.042 C 
BRANCH  23  24
ATOM     24  C   UNL A   1      37.130  23.637  25.110  1.00  0.00     0.118 C 
BRANCH  24  25
ATOM     25  N   UNL A   1      38.198  22.726  25.496  1.00  0.00    -0.352 N 
ATOM     26  C   UNL A   1      39.354  22.963  26.195  1.00  0.00     0.251 C 
ATOM     27  H   UNL A   1      38.071  21.792  25.210  1.00  0.00     0.163 HD
ATOM     28  O   UNL A   1      40.203  22.072  26.276  1.00  0.00    -0.269 OA
BRANCH  26  29
ATOM     29  C   UNL A   1      39.609  24.271  26.835  1.00  0.00     0.039 A 
ATOM     30  C   UNL A   1      39.111  24.496  28.124  1.00  0.00     0.014 A 
ATOM     31  C   UNL A   1      40.297  25.288  26.169  1.00  0.00     0.014 A 
ATOM     32  C   UNL A   1      39.362  25.710  28.767  1.00  0.00     0.010 A 
ATOM     33  C   UNL A   1      40.600  26.475  26.835  1.00  0.00     0.010 A 
ATOM     34  C   UNL A   1      40.140  26.697  28.141  1.00  0.00    -0.014 A 
BRANCH  34  35
ATOM     35  C   UNL A   1      40.498  27.955  28.844  1.00  0.00     0.031 A 
ATOM     36  C   UNL A   1      41.831  28.099  29.525  1.00  0.00     0.074 A 
ATOM     37  C   UNL A   1      39.591  28.947  28.934  1.00  0.00     0.049 A 
ATOM     38  N   UNL A   1      42.286  29.091  30.248  1.00  0.00    -0.248 NA
ATOM     39  C   UNL A   1      42.767  26.971  29.395  1.00  0.00     0.031 C 
ATOM     40  C   UNL A   1      38.247  28.921  28.353  1.00  0.00     0.029 A 
ATOM     41  N   UNL A   1      39.659  30.166  29.561  1.00  0.00    -0.354 N 
ATOM     42  C   UNL A   1      43.548  28.699  30.678  1.00  0.00     0.074 A 
ATOM     43  C   UNL A   1      43.772  27.365  30.164  1.00  0.00     0.031 C 
ATOM     44  C   UNL A   1      37.624  30.076  28.638  1.00  0.00     0.029 A 
ATOM     45  C   UNL A   1      38.507  30.906  29.452  1.00  0.00     0.049 A 
ATOM     46  H   UNL A   1      40.458  30.481  30.043  1.00  0.00     0.167 HD
ATOM     47  C   UNL A   1      44.444  29.391  31.422  1.00  0.00     0.031 A 
ATOM     48  C   UNL A   1      38.187  32.111  29.961  1.00  0.00     0.031 A 
ATOM     49  C   UNL A   1      44.230  30.722  31.924  1.00  0.00     0.049 A 
ATOM     50  C   UNL A   1      39.195  32.854  30.790  1.00  0.00     0.074 A 
ATOM     51  C   UNL A   1      45.107  31.530  32.628  1.00  0.00     0.029 A 
ATOM     52  N   UNL A   1      43.053  31.440  31.783  1.00  0.00    -0.354 N 
ATOM     53  N   UNL A   1      40.411  32.499  31.126  1.00  0.00    -0.248 NA
ATOM     54  C   UNL A   1      38.787  34.169  31.303  1.00  0.00     0.031 C 
ATOM     55  C   UNL A   1      44.444  32.718  32.954  1.00  0.00     0.029 A 
ATOM     56  C   UNL A   1      43.172  32.670  32.409  1.00  0.00     0.049 A 
ATOM     57  H   UNL A   1      42.251  31.123  31.307  1.00  0.00     0.167 HD
ATOM     58  C   UNL A   1      40.920  33.553  31.872  1.00  0.00     0.074 A 
ATOM     59  C   UNL A   1      39.888  34.568  31.924  1.00  0.00     0.031 C 
ATOM     60  C   UNL A   1      42.136  33.668  32.461  1.00  0.00     0.031 A 
BRANCH  47  61
ATOM     61  C   UNL A   1      45.742  28.708  31.750  1.00  0.00    -0.014 A 
ATOM     62  C   UNL A   1      45.900  27.975  32.937  1.00  0.00     0.009 A 
ATOM     63  C   UNL A   1      46.812  28.771  30.844  1.00  0.00     0.009 A 
ATOM     64  C   UNL A   1      47.116  27.350  33.226  1.00  0.00     0.001 A 
ATOM     65  C   UNL A   1      48.016  28.124  31.122  1.00  0.00     0.001 A 
ATOM     66  C   UNL A   1      48.171  27.423  32.317  1.00  0.00     0.000 A 
ENDBRANCH  47  61
BRANCH  48  67
ATOM     67  C   UNL A   1      36.848  32.694  29.694  1.00  0.00    -0.014 A 
ATOM     68  C   UNL A   1      36.614  33.426  28.520  1.00  0.00     0.009 A 
ATOM     69  C   UNL A   1      35.797  32.518  30.607  1.00  0.00     0.009 A 
ATOM     70  C   UNL A   1      35.359  33.989  28.276  1.00  0.00     0.001 A 
ATOM     71  C   UNL A   1      34.536  33.060  30.346  1.00  0.00     0.001 A 
ATOM     72  C   UNL A   1      34.321  33.801  29.186  1.00  0.00     0.000 A 
ENDBRANCH  48  67
BRANCH  60  73
ATOM     73  C   UNL A   1      42.423  34.947  33.194  1.00  0.00    -0.014 A 
ATOM     74  C   UNL A   1      43.120  35.997  32.578  1.00  0.00     0.009 A 
ATOM     75  C   UNL A   1      41.957  35.116  34.507  1.00  0.00     0.009 A 
ATOM     76  C   UNL A   1      43.372  37.181  33.273  1.00  0.00     0.001 A 
ATOM     77  C   UNL A   1      42.187  36.312  35.191  1.00  0.00     0.001 A 
ATOM     78  C   UNL A   1      42.902  37.339  34.576  1.00  0.00     0.000 A 
ENDBRANCH  60  73
ENDBRANCH  34  35
ENDBRANCH  26  29
ENDBRANCH  24  25
ENDBRANCH  23  24
ENDBRANCH   1  23
TORSDOF 15
ENDMDL
MODEL 2
REMARK VINA RESULT:     -10.5      2.874      8.348
REMARK SMILES COCc1cc(SCC(=O)NCCCNC(=O)c2ccc(-c3c4nc(c(-c5ccccc5)c5ccc([nH]5)c(-c5ccccc5)c5nc(c(-c6ccccc6)c6ccc3[nH]6)C=C5)C=C4)cc2)nc(-c2cccnc2)n1
REMARK SMILES IDX 12 1 11 2 9 3 10 4 8 6 7 7 6 8 4 9 5 10 74 11 67 12 66 13
REMARK SMILES IDX 3 14 2 15 1 16 68 17 69 18 73 19 70 20 72 21 71 22 13 23
REMARK SMILES IDX 14 24 15 25 16 26 17 28 18 29 19 30 65 31 20 32 64 33 21 34
REMARK SMILES IDX 22 35 23 36 58 37 24 38 63 39 57 40 59 41 25 42 62 43 56 44
REMARK SMILES IDX 55 45 26 47 48 48 33 49 47 50 34 51 37 52 46 53 60 54 35 55
REMARK SMILES IDX 36 56 45 58 61 59 38 60 27 61 28 62 32 63 29 64 31 65 30 66
REMARK SMILES IDX 49 67 50 68 54 69 51 70 53 71 52 72 39 73 40 74 44 75 41 76
REMARK SMILES IDX 43 77 42 78
REMARK H PARENT 11 5 15 27 59 46 37 57
REMARK Flexibility Score: inf
ROOT
ATOM      1  C   UNL A   1      31.708  27.513  25.891  1.00  0.00     0.117 C 
ENDROOT
BRANCH   1   2
ATOM      2  N   UNL A   1      31.768  26.278  26.650  1.00  0.00    -0.355 N 
ATOM      3  C   UNL A   1      31.260  25.051  26.361  1.00  0.00     0.230 C 
ATOM      4  O   UNL A   1      31.387  24.168  27.214  1.00  0.00    -0.274 OA
ATOM      5  H   UNL A   1      32.251  26.338  27.506  1.00  0.00     0.163 HD
BRANCH   3   6
ATOM      6  C   UNL A   1      30.625  24.748  25.018  1.00  0.00     0.176 C 
BRANCH   6   7
ATOM      7  S   UNL A   1      31.801  24.440  23.667  1.00  0.00    -0.096 SA
BRANCH   7   8
ATOM      8  C   UNL A   1      32.666  22.947  24.108  1.00  0.00     0.101 A 
ATOM      9  C   UNL A   1      32.983  20.624  24.341  1.00  0.00     0.071 A 
ATOM     10  C   UNL A   1      32.125  21.681  24.095  1.00  0.00     0.062 A 
ATOM     11  N   UNL A   1      34.285  20.824  24.620  1.00  0.00    -0.230 NA
ATOM     12  C   UNL A   1      34.706  22.093  24.713  1.00  0.00     0.162 A 
ATOM     13  N   UNL A   1      33.949  23.169  24.454  1.00  0.00    -0.222 NA
BRANCH   9  14
ATOM     14  C   UNL A   1      32.472  19.202  24.198  1.00  0.00     0.215 C 
BRANCH  14  15
ATOM     15  O   UNL A   1      33.364  18.190  24.671  1.00  0.00    -0.378 OA
ATOM     16  C   UNL A   1      32.772  17.321  25.628  1.00  0.00     0.195 C 
ENDBRANCH  14  15
ENDBRANCH   9  14
BRANCH  12  17
ATOM     17  C   UNL A   1      36.083  22.304  25.142  1.00  0.00     0.038 A 
ATOM     18  C   UNL A   1      36.538  23.536  25.628  1.00  0.00     0.015 A 
ATOM     19  C   UNL A   1      37.010  21.264  25.127  1.00  0.00     0.123 A 
ATOM     20  C   UNL A   1      37.851  23.673  26.077  1.00  0.00     0.021 A 
ATOM     21  N   UNL A   1      38.300  21.367  25.534  1.00  0.00    -0.264 NA
ATOM     22  C   UNL A   1      38.688  22.571  26.006  1.00  0.00     0.111 A 
ENDBRANCH  12  17
ENDBRANCH   7   8
ENDBRANCH   6   7
ENDBRANCH   3   6
ENDBRANCH   1   2
BRANCH   1  23
ATOM     23  C   UNL A   1      33.035  28.269  25.933  1.00  0.00     0.042 C 
BRANCH  23  24
ATOM     24  C   UNL A   1      33.571  28.539  27.339  1.00  0.00     0.118 C 
BRANCH  24  25
ATOM     25  N   UNL A   1      33.592  29.954  27.680  1.00  0.00    -0.352 N 
ATOM     26  C   UNL A   1      34.578  30.712  28.258  1.00  0.00     0.251 C 
ATOM     27  H   UNL A   1      32.767  30.446  27.461  1.00  0.00     0.163 HD
ATOM     28  O   UNL A   1      34.325  31.868  28.604  1.00  0.00    -0.269 OA
BRANCH  26  29
ATOM     29  C   UNL A   1      35.930  30.161  28.492  1.00  0.00     0.039 A 
ATOM     30  C   UNL A   1      36.859  30.198  27.446  1.00  0.00     0.014 A 
ATOM     31  C   UNL A   1      36.280  29.578  29.712  1.00  0.00     0.014 A 
ATOM     32  C   UNL A   1      38.155  29.713  27.646  1.00  0.00     0.010 A 
ATOM     33  C   UNL A   1      37.590  29.153  29.930  1.00  0.00     0.010 A 
ATOM     34  C   UNL A   1      38.541  29.219  28.901  1.00  0.00    -0.014 A 
BRANCH  34  35
ATOM     35  C   UNL A   1      39.939  28.789  29.161  1.00  0.00     0.031 A 
ATOM     36  C   UNL A   1      40.931  29.738  29.774  1.00  0.00     0.074 A 
ATOM     37  C   UNL A   1      40.338  27.561  28.777  1.00  0.00     0.049 A 
ATOM     38  N   UNL A   1      42.208  29.562  30.005  1.00  0.00    -0.248 NA
ATOM     39  C   UNL A   1      40.428  31.066  30.159  1.00  0.00     0.031 C 
ATOM     40  C   UNL A   1      39.488  26.556  28.135  1.00  0.00     0.029 A 
ATOM     41  N   UNL A   1      41.567  26.955  28.858  1.00  0.00    -0.354 N 
ATOM     42  C   UNL A   1      42.665  30.762  30.538  1.00  0.00     0.074 A 
ATOM     43  C   UNL A   1      41.537  31.668  30.563  1.00  0.00     0.031 C 
ATOM     44  C   UNL A   1      40.217  25.454  27.895  1.00  0.00     0.029 A 
ATOM     45  C   UNL A   1      41.591  25.688  28.328  1.00  0.00     0.049 A 
ATOM     46  H   UNL A   1      42.356  27.387  29.257  1.00  0.00     0.167 HD
ATOM     47  C   UNL A   1      43.907  31.077  30.977  1.00  0.00     0.031 A 
ATOM     48  C   UNL A   1      42.606  24.813  28.193  1.00  0.00     0.031 A 
ATOM     49  C   UNL A   1      45.028  30.175  30.965  1.00  0.00     0.049 A 
ATOM     50  C   UNL A   1      43.975  25.189  28.680  1.00  0.00     0.074 A 
ATOM     51  C   UNL A   1      46.307  30.382  31.452  1.00  0.00     0.029 A 
ATOM     52  N   UNL A   1      45.007  28.897  30.430  1.00  0.00    -0.354 N 
ATOM     53  N   UNL A   1      44.373  26.301  29.248  1.00  0.00    -0.248 NA
ATOM     54  C   UNL A   1      45.035  24.184  28.514  1.00  0.00     0.031 C 
ATOM     55  C   UNL A   1      47.073  29.246  31.170  1.00  0.00     0.029 A 
ATOM     56  C   UNL A   1      46.257  28.313  30.552  1.00  0.00     0.049 A 
ATOM     57  H   UNL A   1      44.220  28.467  30.023  1.00  0.00     0.167 HD
ATOM     58  C   UNL A   1      45.722  26.124  29.524  1.00  0.00     0.074 A 
ATOM     59  C   UNL A   1      46.070  24.790  29.079  1.00  0.00     0.031 C 
ATOM     60  C   UNL A   1      46.594  26.989  30.097  1.00  0.00     0.031 A 
BRANCH  47  61
ATOM     61  C   UNL A   1      44.121  32.469  31.501  1.00  0.00    -0.014 A 
ATOM     62  C   UNL A   1      43.900  32.781  32.852  1.00  0.00     0.009 A 
ATOM     63  C   UNL A   1      44.581  33.476  30.638  1.00  0.00     0.009 A 
ATOM     64  C   UNL A   1      44.101  34.082  33.320  1.00  0.00     0.001 A 
ATOM     65  C   UNL A   1      44.807  34.768  31.114  1.00  0.00     0.001 A 
ATOM     66  C   UNL A   1      44.557  35.073  32.451  1.00  0.00     0.000 A 
ENDBRANCH  47  61
BRANCH  48  67
ATOM     67  C   UNL A   1      42.361  23.487  27.570  1.00  0.00    -0.014 A 
ATOM     68  C   UNL A   1      42.579  23.296  26.198  1.00  0.00     0.009 A 
ATOM     69  C   UNL A   1      41.913  22.407  28.345  1.00  0.00     0.009 A 
ATOM     70  C   UNL A   1      42.333  22.054  25.609  1.00  0.00     0.001 A 
ATOM     71  C   UNL A   1      41.694  21.158  27.758  1.00  0.00     0.001 A 
ATOM     72  C   UNL A   1      41.896  20.985  26.390  1.00  0.00     0.000 A 
ENDBRANCH  48  67
BRANCH  60  73
ATOM     73  C   UNL A   1      48.004  26.510  30.295  1.00  0.00    -0.014 A 
ATOM     74  C   UNL A   1      48.988  26.727  29.319  1.00  0.00     0.009 A 
ATOM     75  C   UNL A   1      48.358  25.865  31.490  1.00  0.00     0.009 A 
ATOM     76  C   UNL A   1      50.294  26.280  29.524  1.00  0.00     0.001 A 
ATOM     77  C   UNL A   1      49.672  25.443  31.703  1.00  0.00     0.001 A 
ATOM     78  C   UNL A   1      50.636  25.643  30.716  1.00  0.00     0.000 A 
ENDBRANCH  60  73
ENDBRANCH  34  35
ENDBRANCH  26  29
ENDBRANCH  24  25
ENDBRANCH  23  24
ENDBRANCH   1  23
TORSDOF 15
ENDMDL
MODEL 3
REMARK VINA RESULT:     -10.5      3.199      8.853
REMARK SMILES COCc1cc(SCC(=O)NCCCNC(=O)c2ccc(-c3c4nc(c(-c5ccccc5)c5ccc([nH]5)c(-c5ccccc5)c5nc(c(-c6ccccc6)c6ccc3[nH]6)C=C5)C=C4)cc2)nc(-c2cccnc2)n1
REMARK SMILES IDX 12 1 11 2 9 3 10 4 8 6 7 7 6 8 4 9 5 10 74 11 67 12 66 13
REMARK SMILES IDX 3 14 2 15 1 16 68 17 69 18 73 19 70 20 72 21 71 22 13 23
REMARK SMILES IDX 14 24 15 25 16 26 17 28 18 29 19 30 65 31 20 32 64 33 21 34
REMARK SMILES IDX 22 35 23 36 58 37 24 38 63 39 57 40 59 41 25 42 62 43 56 44
REMARK SMILES IDX 55 45 26 47 48 48 33 49 47 50 34 51 37 52 46 53 60 54 35 55
REMARK SMILES IDX 36 56 45 58 61 59 38 60 27 61 28 62 32 63 29 64 31 65 30 66
REMARK SMILES IDX 49 67 50 68 54 69 51 70 53 71 52 72 39 73 40 74 44 75 41 76
REMARK SMILES IDX 43 77 42 78
REMARK H PARENT 11 5 15 27 59 46 37 57
REMARK Flexibility Score: inf
ROOT
ATOM      1  C   UNL A   1      31.777  27.436  26.334  1.00  0.00     0.117 C 
ENDROOT
BRANCH   1   2
ATOM      2  N   UNL A   1      31.394  26.178  26.946  1.00  0.00    -0.355 N 
ATOM      3  C   UNL A   1      31.544  24.905  26.491  1.00  0.00     0.230 C 
ATOM      4  O   UNL A   1      31.065  23.997  27.176  1.00  0.00    -0.274 OA
ATOM      5  H   UNL A   1      30.959  26.257  27.826  1.00  0.00     0.163 HD
BRANCH   3   6
ATOM      6  C   UNL A   1      32.328  24.597  25.230  1.00  0.00     0.176 C 
BRANCH   6   7
ATOM      7  S   UNL A   1      31.871  23.043  24.406  1.00  0.00    -0.096 SA
BRANCH   7   8
ATOM      8  C   UNL A   1      33.336  22.033  24.428  1.00  0.00     0.101 A 
ATOM      9  C   UNL A   1      35.649  21.582  24.483  1.00  0.00     0.071 A 
ATOM     10  C   UNL A   1      34.627  22.500  24.312  1.00  0.00     0.062 A 
ATOM     11  N   UNL A   1      35.396  20.280  24.715  1.00  0.00    -0.230 NA
ATOM     12  C   UNL A   1      34.113  19.893  24.709  1.00  0.00     0.162 A 
ATOM     13  N   UNL A   1      33.066  20.722  24.588  1.00  0.00    -0.222 NA
BRANCH   9  14
ATOM     14  C   UNL A   1      37.087  22.068  24.509  1.00  0.00     0.215 C 
BRANCH  14  15
ATOM     15  O   UNL A   1      37.731  21.979  25.783  1.00  0.00    -0.378 OA
ATOM     16  C   UNL A   1      38.289  23.213  26.218  1.00  0.00     0.195 C 
ENDBRANCH  14  15
ENDBRANCH   9  14
BRANCH  12  17
ATOM     17  C   UNL A   1      33.852  18.464  24.830  1.00  0.00     0.038 A 
ATOM     18  C   UNL A   1      34.742  17.495  24.351  1.00  0.00     0.015 A 
ATOM     19  C   UNL A   1      32.710  17.991  25.473  1.00  0.00     0.123 A 
ATOM     20  C   UNL A   1      34.473  16.140  24.538  1.00  0.00     0.021 A 
ATOM     21  N   UNL A   1      32.405  16.682  25.654  1.00  0.00    -0.264 NA
ATOM     22  C   UNL A   1      33.300  15.786  25.186  1.00  0.00     0.111 A 
ENDBRANCH  12  17
ENDBRANCH   7   8
ENDBRANCH   6   7
ENDBRANCH   3   6
ENDBRANCH   1   2
BRANCH   1  23
ATOM     23  C   UNL A   1      32.023  28.522  27.380  1.00  0.00     0.042 C 
BRANCH  23  24
ATOM     24  C   UNL A   1      33.460  29.043  27.430  1.00  0.00     0.118 C 
BRANCH  24  25
ATOM     25  N   UNL A   1      33.546  30.449  27.799  1.00  0.00    -0.352 N 
ATOM     26  C   UNL A   1      34.565  31.150  28.390  1.00  0.00     0.251 C 
ATOM     27  H   UNL A   1      32.743  30.981  27.590  1.00  0.00     0.163 HD
ATOM     28  O   UNL A   1      34.365  32.309  28.759  1.00  0.00    -0.269 OA
BRANCH  26  29
ATOM     29  C   UNL A   1      35.891  30.534  28.613  1.00  0.00     0.039 A 
ATOM     30  C   UNL A   1      36.827  30.564  27.573  1.00  0.00     0.014 A 
ATOM     31  C   UNL A   1      36.207  29.896  29.814  1.00  0.00     0.014 A 
ATOM     32  C   UNL A   1      38.099  30.018  27.763  1.00  0.00     0.010 A 
ATOM     33  C   UNL A   1      37.497  29.408  30.025  1.00  0.00     0.010 A 
ATOM     34  C   UNL A   1      38.456  29.467  29.003  1.00  0.00    -0.014 A 
BRANCH  34  35
ATOM     35  C   UNL A   1      39.832  28.969  29.256  1.00  0.00     0.031 A 
ATOM     36  C   UNL A   1      40.873  29.868  29.862  1.00  0.00     0.074 A 
ATOM     37  C   UNL A   1      40.168  27.723  28.870  1.00  0.00     0.049 A 
ATOM     38  N   UNL A   1      42.142  29.630  30.085  1.00  0.00    -0.248 NA
ATOM     39  C   UNL A   1      40.439  31.220  30.248  1.00  0.00     0.031 C 
ATOM     40  C   UNL A   1      39.265  26.760  28.235  1.00  0.00     0.029 A 
ATOM     41  N   UNL A   1      41.366  27.056  28.945  1.00  0.00    -0.354 N 
ATOM     42  C   UNL A   1      42.660  30.806  30.614  1.00  0.00     0.074 A 
ATOM     43  C   UNL A   1      41.578  31.767  30.645  1.00  0.00     0.031 C 
ATOM     44  C   UNL A   1      39.938  25.623  27.992  1.00  0.00     0.029 A 
ATOM     45  C   UNL A   1      41.324  25.789  28.417  1.00  0.00     0.049 A 
ATOM     46  H   UNL A   1      42.178  27.449  29.339  1.00  0.00     0.167 HD
ATOM     47  C   UNL A   1      43.919  31.060  31.045  1.00  0.00     0.031 A 
ATOM     48  C   UNL A   1      42.294  24.866  28.277  1.00  0.00     0.031 A 
ATOM     49  C   UNL A   1      44.994  30.104  31.028  1.00  0.00     0.049 A 
ATOM     50  C   UNL A   1      43.683  25.174  28.756  1.00  0.00     0.074 A 
ATOM     51  C   UNL A   1      46.284  30.248  31.508  1.00  0.00     0.029 A 
ATOM     52  N   UNL A   1      44.907  28.828  30.495  1.00  0.00    -0.354 N 
ATOM     53  N   UNL A   1      44.139  26.266  29.320  1.00  0.00    -0.248 NA
ATOM     54  C   UNL A   1      44.691  24.118  28.585  1.00  0.00     0.031 C 
ATOM     55  C   UNL A   1      46.992  29.075  31.222  1.00  0.00     0.029 A 
ATOM     56  C   UNL A   1      46.127  28.183  30.610  1.00  0.00     0.049 A 
ATOM     57  H   UNL A   1      44.097  28.437  30.094  1.00  0.00     0.167 HD
ATOM     58  C   UNL A   1      45.479  26.022  29.589  1.00  0.00     0.074 A 
ATOM     59  C   UNL A   1      45.758  24.672  29.143  1.00  0.00     0.031 C 
ATOM     60  C   UNL A   1      46.395  26.844  30.156  1.00  0.00     0.031 A 
BRANCH  47  61
ATOM     61  C   UNL A   1      44.205  32.441  31.566  1.00  0.00    -0.014 A 
ATOM     62  C   UNL A   1      43.916  32.793  32.895  1.00  0.00     0.009 A 
ATOM     63  C   UNL A   1      44.801  33.394  30.726  1.00  0.00     0.009 A 
ATOM     64  C   UNL A   1      44.185  34.082  33.359  1.00  0.00     0.001 A 
ATOM     65  C   UNL A   1      45.094  34.673  31.201  1.00  0.00     0.001 A 
ATOM     66  C   UNL A   1      44.776  35.019  32.513  1.00  0.00     0.000 A 
ENDBRANCH  47  61
BRANCH  48  67
ATOM     67  C   UNL A   1      41.980  23.552  27.658  1.00  0.00    -0.014 A 
ATOM     68  C   UNL A   1      41.446  22.512  28.432  1.00  0.00     0.009 A 
ATOM     69  C   UNL A   1      42.208  23.335  26.290  1.00  0.00     0.009 A 
ATOM     70  C   UNL A   1      41.166  21.272  27.854  1.00  0.00     0.001 A 
ATOM     71  C   UNL A   1      41.902  22.103  25.710  1.00  0.00     0.001 A 
ATOM     72  C   UNL A   1      41.389  21.070  26.493  1.00  0.00     0.000 A 
ENDBRANCH  48  67
BRANCH  60  73
ATOM     73  C   UNL A   1      47.781  26.296  30.346  1.00  0.00    -0.014 A 
ATOM     74  C   UNL A   1      48.728  26.340  29.311  1.00  0.00     0.009 A 
ATOM     75  C   UNL A   1      48.154  25.762  31.589  1.00  0.00     0.009 A 
ATOM     76  C   UNL A   1      50.013  25.832  29.509  1.00  0.00     0.001 A 
ATOM     77  C   UNL A   1      49.448  25.278  31.792  1.00  0.00     0.001 A 
ATOM     78  C   UNL A   1      50.373  25.306  30.749  1.00  0.00     0.000 A 
ENDBRANCH  60  73
ENDBRANCH  34  35
ENDBRANCH  26  29
ENDBRANCH  24  25
ENDBRANCH  23  24
ENDBRANCH   1  23
TORSDOF 15
ENDMDL
