MODEL 1
REMARK VINA RESULT:     -11.5      0.000      0.000
REMARK SMILES C[C@@H]1CC[C@@](C(=O)NCCCNC(=O)c2ccc(-c3c4nc(c(-c5ccccc5)c5ccc([nH]5)c(-c5ccccc5)c5nc(c(-c6ccccc6)c6ccc3[nH]6)C=C5)C=C4)cc2)([C@@H]2CCC[C@H](S(C)(=O)=O)C2)C1
REMARK SMILES IDX 10 1 9 2 8 3 6 4 7 5 5 7 1 8 2 9 3 10 73 11 4 12 63 13 64 14
REMARK SMILES IDX 72 15 65 16 67 17 66 18 68 19 69 20 70 21 71 22 11 23 12 24
REMARK SMILES IDX 13 25 14 27 15 28 16 29 62 30 17 31 61 32 18 33 19 34 20 35
REMARK SMILES IDX 55 36 21 37 60 38 54 39 56 40 22 41 59 42 53 43 52 44 23 46
REMARK SMILES IDX 45 47 30 48 44 49 31 50 34 51 43 52 57 53 32 54 33 55 42 57
REMARK SMILES IDX 58 58 35 59 24 60 25 61 29 62 26 63 28 64 27 65 46 66 47 67
REMARK SMILES IDX 51 68 48 69 50 70 49 71 36 72 37 73 41 74 38 75 40 76 39 77
REMARK H PARENT 8 6 12 26 56 45 34 56
REMARK Flexibility Score: inf
ROOT
ATOM      1  C   UNL A   1      37.478  20.702  24.663  1.00  0.00     0.042 C 
ENDROOT
BRANCH   1   2
ATOM      2  C   UNL A   1      36.083  20.625  25.255  1.00  0.00     0.117 C 
BRANCH   2   3
ATOM      3  N   UNL A   1      35.830  21.645  26.250  1.00  0.00    -0.356 N 
ATOM      4  C   UNL A   1      34.804  22.514  26.434  1.00  0.00     0.226 C 
ATOM      5  O   UNL A   1      34.787  23.061  27.544  1.00  0.00    -0.274 OA
ATOM      6  H   UNL A   1      36.542  21.725  26.925  1.00  0.00     0.163 HD
BRANCH   4   7
ATOM      7  C   UNL A   1      33.656  22.750  25.409  1.00  0.00     0.052 C 
ATOM      8  C   UNL A   1      32.467  19.364  25.089  1.00  0.00     0.007 C 
ATOM      9  C   UNL A   1      32.222  20.823  24.690  1.00  0.00    -0.013 C 
ATOM     10  C   UNL A   1      33.037  21.306  23.489  1.00  0.00     0.004 C 
ATOM     11  C   UNL A   1      32.492  21.811  25.828  1.00  0.00     0.020 C 
ATOM     12  C   UNL A   1      34.013  22.382  23.958  1.00  0.00     0.017 C 
BRANCH   7  13
ATOM     13  C   UNL A   1      33.225  24.279  25.506  1.00  0.00     0.006 C 
ATOM     14  C   UNL A   1      31.839  24.506  26.155  1.00  0.00     0.005 C 
ATOM     15  C   UNL A   1      33.259  24.994  24.126  1.00  0.00     0.024 C 
ATOM     16  C   UNL A   1      31.498  25.991  26.257  1.00  0.00     0.002 C 
ATOM     17  C   UNL A   1      32.896  26.484  24.218  1.00  0.00     0.108 C 
ATOM     18  C   UNL A   1      31.541  26.675  24.896  1.00  0.00     0.020 C 
BRANCH  17  19
ATOM     19  S   UNL A   1      32.929  27.216  22.564  1.00  0.00     0.150 S 
ATOM     20  C   UNL A   1      33.729  28.789  22.781  1.00  0.00     0.158 C 
ATOM     21  O   UNL A   1      33.811  26.413  21.737  1.00  0.00    -0.229 OA
ATOM     22  O   UNL A   1      31.565  27.475  22.148  1.00  0.00    -0.229 OA
ENDBRANCH  17  19
ENDBRANCH   7  13
ENDBRANCH   4   7
ENDBRANCH   2   3
ENDBRANCH   1   2
BRANCH   1  23
ATOM     23  C   UNL A   1      38.549  20.917  25.720  1.00  0.00     0.118 C 
BRANCH  23  24
ATOM     24  N   UNL A   1      39.560  19.861  25.715  1.00  0.00    -0.352 N 
ATOM     25  C   UNL A   1      40.910  19.905  25.976  1.00  0.00     0.251 C 
ATOM     26  H   UNL A   1      39.217  18.967  25.487  1.00  0.00     0.163 HD
ATOM     27  O   UNL A   1      41.619  18.942  25.700  1.00  0.00    -0.269 OA
BRANCH  25  28
ATOM     28  C   UNL A   1      41.512  21.118  26.565  1.00  0.00     0.039 A 
ATOM     29  C   UNL A   1      42.031  22.112  25.728  1.00  0.00     0.014 A 
ATOM     30  C   UNL A   1      41.561  21.276  27.947  1.00  0.00     0.014 A 
ATOM     31  C   UNL A   1      42.503  23.305  26.283  1.00  0.00     0.010 A 
ATOM     32  C   UNL A   1      41.912  22.504  28.486  1.00  0.00     0.010 A 
ATOM     33  C   UNL A   1      42.395  23.532  27.662  1.00  0.00    -0.014 A 
BRANCH  33  34
ATOM     34  C   UNL A   1      42.794  24.810  28.306  1.00  0.00     0.031 A 
ATOM     35  C   UNL A   1      41.747  25.864  28.556  1.00  0.00     0.074 A 
ATOM     36  C   UNL A   1      44.094  25.077  28.536  1.00  0.00     0.049 A 
ATOM     37  N   UNL A   1      41.899  27.122  28.879  1.00  0.00    -0.248 NA
ATOM     38  C   UNL A   1      40.343  25.459  28.365  1.00  0.00     0.031 C 
ATOM     39  C   UNL A   1      45.212  24.159  28.308  1.00  0.00     0.029 A 
ATOM     40  N   UNL A   1      44.698  26.223  28.994  1.00  0.00    -0.354 N 
ATOM     41  C   UNL A   1      40.621  27.668  28.866  1.00  0.00     0.074 A 
ATOM     42  C   UNL A   1      39.712  26.617  28.469  1.00  0.00     0.031 C 
ATOM     43  C   UNL A   1      46.360  24.766  28.650  1.00  0.00     0.029 A 
ATOM     44  C   UNL A   1      46.069  26.133  29.066  1.00  0.00     0.049 A 
ATOM     45  H   UNL A   1      44.198  27.031  29.248  1.00  0.00     0.167 HD
ATOM     46  C   UNL A   1      40.237  28.928  29.174  1.00  0.00     0.031 A 
ATOM     47  C   UNL A   1      46.986  27.056  29.407  1.00  0.00     0.031 A 
ATOM     48  C   UNL A   1      41.137  29.951  29.629  1.00  0.00     0.049 A 
ATOM     49  C   UNL A   1      46.531  28.442  29.773  1.00  0.00     0.074 A 
ATOM     50  C   UNL A   1      40.838  31.235  30.050  1.00  0.00     0.029 A 
ATOM     51  N   UNL A   1      42.509  29.799  29.736  1.00  0.00    -0.354 N 
ATOM     52  N   UNL A   1      45.315  28.930  29.805  1.00  0.00    -0.248 NA
ATOM     53  C   UNL A   1      47.576  29.404  30.155  1.00  0.00     0.031 C 
ATOM     54  C   UNL A   1      42.037  31.873  30.379  1.00  0.00     0.029 A 
ATOM     55  C   UNL A   1      43.074  30.968  30.209  1.00  0.00     0.049 A 
ATOM     56  H   UNL A   1      43.008  28.980  29.510  1.00  0.00     0.167 HD
ATOM     57  C   UNL A   1      45.444  30.240  30.250  1.00  0.00     0.074 A 
ATOM     58  C   UNL A   1      46.855  30.470  30.476  1.00  0.00     0.031 C 
ATOM     59  C   UNL A   1      44.479  31.166  30.457  1.00  0.00     0.031 A 
BRANCH  46  60
ATOM     60  C   UNL A   1      38.780  29.269  29.031  1.00  0.00    -0.014 A 
ATOM     61  C   UNL A   1      38.245  29.693  27.804  1.00  0.00     0.009 A 
ATOM     62  C   UNL A   1      37.922  29.127  30.132  1.00  0.00     0.009 A 
ATOM     63  C   UNL A   1      36.888  30.004  27.694  1.00  0.00     0.001 A 
ATOM     64  C   UNL A   1      36.560  29.409  30.012  1.00  0.00     0.001 A 
ATOM     65  C   UNL A   1      36.047  29.857  28.795  1.00  0.00     0.000 A 
ENDBRANCH  46  60
BRANCH  47  66
ATOM     66  C   UNL A   1      48.430  26.702  29.444  1.00  0.00    -0.014 A 
ATOM     67  C   UNL A   1      49.237  26.919  28.317  1.00  0.00     0.009 A 
ATOM     68  C   UNL A   1      49.007  26.138  30.592  1.00  0.00     0.009 A 
ATOM     69  C   UNL A   1      50.585  26.551  28.327  1.00  0.00     0.001 A 
ATOM     70  C   UNL A   1      50.362  25.797  30.609  1.00  0.00     0.001 A 
ATOM     71  C   UNL A   1      51.147  25.994  29.474  1.00  0.00     0.000 A 
ENDBRANCH  47  66
BRANCH  59  72
ATOM     72  C   UNL A   1      44.896  32.491  31.022  1.00  0.00    -0.014 A 
ATOM     73  C   UNL A   1      45.207  33.576  30.190  1.00  0.00     0.009 A 
ATOM     74  C   UNL A   1      44.896  32.674  32.414  1.00  0.00     0.009 A 
ATOM     75  C   UNL A   1      45.526  34.817  30.745  1.00  0.00     0.001 A 
ATOM     76  C   UNL A   1      45.190  33.921  32.965  1.00  0.00     0.001 A 
ATOM     77  C   UNL A   1      45.509  34.990  32.129  1.00  0.00     0.000 A 
ENDBRANCH  59  72
ENDBRANCH  33  34
ENDBRANCH  25  28
ENDBRANCH  23  24
ENDBRANCH   1  23
TORSDOF 12
ENDMDL
MODEL 2
REMARK VINA RESULT:     -11.4      4.493      9.344
REMARK SMILES C[C@@H]1CC[C@@](C(=O)NCCCNC(=O)c2ccc(-c3c4nc(c(-c5ccccc5)c5ccc([nH]5)c(-c5ccccc5)c5nc(c(-c6ccccc6)c6ccc3[nH]6)C=C5)C=C4)cc2)([C@@H]2CCC[C@H](S(C)(=O)=O)C2)C1
REMARK SMILES IDX 10 1 9 2 8 3 6 4 7 5 5 7 1 8 2 9 3 10 73 11 4 12 63 13 64 14
REMARK SMILES IDX 72 15 65 16 67 17 66 18 68 19 69 20 70 21 71 22 11 23 12 24
REMARK SMILES IDX 13 25 14 27 15 28 16 29 62 30 17 31 61 32 18 33 19 34 20 35
REMARK SMILES IDX 55 36 21 37 60 38 54 39 56 40 22 41 59 42 53 43 52 44 23 46
REMARK SMILES IDX 45 47 30 48 44 49 31 50 34 51 43 52 57 53 32 54 33 55 42 57
REMARK SMILES IDX 58 58 35 59 24 60 25 61 29 62 26 63 28 64 27 65 46 66 47 67
REMARK SMILES IDX 51 68 48 69 50 70 49 71 36 72 37 73 41 74 38 75 40 76 39 77
REMARK H PARENT 8 6 12 26 56 45 34 56
REMARK Flexibility Score: inf
ROOT
ATOM      1  C   UNL A   1      30.984  31.949  26.114  1.00  0.00     0.042 C 
ENDROOT
BRANCH   1   2
ATOM      2  C   UNL A   1      31.157  30.627  25.388  1.00  0.00     0.117 C 
BRANCH   2   3
ATOM      3  N   UNL A   1      32.486  30.071  25.528  1.00  0.00    -0.356 N 
ATOM      4  C   UNL A   1      33.058  28.931  25.065  1.00  0.00     0.226 C 
ATOM      5  O   UNL A   1      34.292  28.905  25.149  1.00  0.00    -0.274 OA
ATOM      6  H   UNL A   1      33.094  30.629  26.066  1.00  0.00     0.163 HD
BRANCH   4   7
ATOM      7  C   UNL A   1      32.279  27.775  24.372  1.00  0.00     0.052 C 
ATOM      8  C   UNL A   1      30.335  29.709  22.036  1.00  0.00     0.007 C 
ATOM      9  C   UNL A   1      30.703  28.293  22.493  1.00  0.00    -0.013 C 
ATOM     10  C   UNL A   1      29.896  27.772  23.682  1.00  0.00     0.004 C 
ATOM     11  C   UNL A   1      32.181  28.149  22.869  1.00  0.00     0.020 C 
ATOM     12  C   UNL A   1      30.834  27.592  24.872  1.00  0.00     0.017 C 
BRANCH   7  13
ATOM     13  C   UNL A   1      33.113  26.435  24.579  1.00  0.00     0.006 C 
ATOM     14  C   UNL A   1      33.601  25.784  23.263  1.00  0.00     0.005 C 
ATOM     15  C   UNL A   1      32.337  25.374  25.409  1.00  0.00     0.024 C 
ATOM     16  C   UNL A   1      34.428  24.527  23.525  1.00  0.00     0.002 C 
ATOM     17  C   UNL A   1      33.156  24.099  25.659  1.00  0.00     0.108 C 
ATOM     18  C   UNL A   1      33.653  23.502  24.343  1.00  0.00     0.020 C 
BRANCH  17  19
ATOM     19  S   UNL A   1      32.160  22.917  26.598  1.00  0.00     0.150 S 
ATOM     20  C   UNL A   1      33.272  22.252  27.815  1.00  0.00     0.158 C 
ATOM     21  O   UNL A   1      31.147  23.662  27.323  1.00  0.00    -0.229 OA
ATOM     22  O   UNL A   1      31.780  21.830  25.716  1.00  0.00    -0.229 OA
ENDBRANCH  17  19
ENDBRANCH   7  13
ENDBRANCH   4   7
ENDBRANCH   2   3
ENDBRANCH   1   2
BRANCH   1  23
ATOM     23  C   UNL A   1      32.235  32.366  26.870  1.00  0.00     0.118 C 
BRANCH  23  24
ATOM     24  N   UNL A   1      32.148  33.733  27.384  1.00  0.00    -0.352 N 
ATOM     25  C   UNL A   1      32.909  34.394  28.320  1.00  0.00     0.251 C 
ATOM     26  H   UNL A   1      31.422  34.271  26.994  1.00  0.00     0.163 HD
ATOM     27  O   UNL A   1      32.529  35.471  28.769  1.00  0.00    -0.269 OA
BRANCH  25  28
ATOM     28  C   UNL A   1      34.170  33.798  28.804  1.00  0.00     0.039 A 
ATOM     29  C   UNL A   1      35.395  34.318  28.372  1.00  0.00     0.014 A 
ATOM     30  C   UNL A   1      34.144  32.724  29.689  1.00  0.00     0.014 A 
ATOM     31  C   UNL A   1      36.586  33.823  28.911  1.00  0.00     0.010 A 
ATOM     32  C   UNL A   1      35.313  32.320  30.315  1.00  0.00     0.010 A 
ATOM     33  C   UNL A   1      36.551  32.858  29.929  1.00  0.00    -0.014 A 
BRANCH  33  34
ATOM     34  C   UNL A   1      37.771  32.355  30.608  1.00  0.00     0.031 A 
ATOM     35  C   UNL A   1      38.494  31.164  30.035  1.00  0.00     0.074 A 
ATOM     36  C   UNL A   1      38.148  32.869  31.796  1.00  0.00     0.049 A 
ATOM     37  N   UNL A   1      39.421  30.418  30.576  1.00  0.00    -0.248 NA
ATOM     38  C   UNL A   1      38.076  30.723  28.692  1.00  0.00     0.031 C 
ATOM     39  C   UNL A   1      37.517  34.000  32.479  1.00  0.00     0.029 A 
ATOM     40  N   UNL A   1      39.148  32.483  32.654  1.00  0.00    -0.354 N 
ATOM     41  C   UNL A   1      39.649  29.389  29.669  1.00  0.00     0.074 A 
ATOM     42  C   UNL A   1      38.740  29.585  28.563  1.00  0.00     0.031 C 
ATOM     43  C   UNL A   1      38.159  34.232  33.636  1.00  0.00     0.029 A 
ATOM     44  C   UNL A   1      39.208  33.233  33.805  1.00  0.00     0.049 A 
ATOM     45  H   UNL A   1      39.765  31.740  32.463  1.00  0.00     0.167 HD
ATOM     46  C   UNL A   1      40.548  28.380  29.744  1.00  0.00     0.031 A 
ATOM     47  C   UNL A   1      40.005  33.114  34.883  1.00  0.00     0.031 A 
ATOM     48  C   UNL A   1      41.492  28.226  30.816  1.00  0.00     0.049 A 
ATOM     49  C   UNL A   1      41.015  32.001  34.929  1.00  0.00     0.074 A 
ATOM     50  C   UNL A   1      42.503  27.290  30.944  1.00  0.00     0.029 A 
ATOM     51  N   UNL A   1      41.550  29.041  31.934  1.00  0.00    -0.354 N 
ATOM     52  N   UNL A   1      41.254  31.065  34.042  1.00  0.00    -0.248 NA
ATOM     53  C   UNL A   1      41.870  31.931  36.123  1.00  0.00     0.031 C 
ATOM     54  C   UNL A   1      43.151  27.517  32.161  1.00  0.00     0.029 A 
ATOM     55  C   UNL A   1      42.574  28.624  32.763  1.00  0.00     0.049 A 
ATOM     56  H   UNL A   1      40.952  29.803  32.112  1.00  0.00     0.167 HD
ATOM     57  C   UNL A   1      42.312  30.323  34.550  1.00  0.00     0.074 A 
ATOM     58  C   UNL A   1      42.670  30.916  35.822  1.00  0.00     0.031 C 
ATOM     59  C   UNL A   1      42.934  29.249  34.010  1.00  0.00     0.031 A 
BRANCH  46  60
ATOM     60  C   UNL A   1      40.553  27.365  28.635  1.00  0.00    -0.014 A 
ATOM     61  C   UNL A   1      39.774  26.200  28.706  1.00  0.00     0.009 A 
ATOM     62  C   UNL A   1      41.320  27.600  27.482  1.00  0.00     0.009 A 
ATOM     63  C   UNL A   1      39.794  25.271  27.664  1.00  0.00     0.001 A 
ATOM     64  C   UNL A   1      41.314  26.685  26.428  1.00  0.00     0.001 A 
ATOM     65  C   UNL A   1      40.559  25.517  26.524  1.00  0.00     0.000 A 
ENDBRANCH  46  60
BRANCH  47  66
ATOM     66  C   UNL A   1      39.901  34.085  36.004  1.00  0.00    -0.014 A 
ATOM     67  C   UNL A   1      39.060  33.815  37.094  1.00  0.00     0.009 A 
ATOM     68  C   UNL A   1      40.627  35.286  35.989  1.00  0.00     0.009 A 
ATOM     69  C   UNL A   1      38.923  34.741  38.132  1.00  0.00     0.001 A 
ATOM     70  C   UNL A   1      40.510  36.197  37.043  1.00  0.00     0.001 A 
ATOM     71  C   UNL A   1      39.651  35.929  38.107  1.00  0.00     0.000 A 
ENDBRANCH  47  66
BRANCH  59  72
ATOM     72  C   UNL A   1      44.112  28.685  34.746  1.00  0.00    -0.014 A 
ATOM     73  C   UNL A   1      45.406  29.188  34.551  1.00  0.00     0.009 A 
ATOM     74  C   UNL A   1      43.904  27.688  35.713  1.00  0.00     0.009 A 
ATOM     75  C   UNL A   1      46.473  28.690  35.300  1.00  0.00     0.001 A 
ATOM     76  C   UNL A   1      44.968  27.211  36.478  1.00  0.00     0.001 A 
ATOM     77  C   UNL A   1      46.252  27.710  36.268  1.00  0.00     0.000 A 
ENDBRANCH  59  72
ENDBRANCH  33  34
ENDBRANCH  25  28
ENDBRANCH  23  24
ENDBRANCH   1  23
TORSDOF 12
ENDMDL
MODEL 3
REMARK VINA RESULT:     -11.4      2.023      3.597
REMARK SMILES C[C@@H]1CC[C@@](C(=O)NCCCNC(=O)c2ccc(-c3c4nc(c(-c5ccccc5)c5ccc([nH]5)c(-c5ccccc5)c5nc(c(-c6ccccc6)c6ccc3[nH]6)C=C5)C=C4)cc2)([C@@H]2CCC[C@H](S(C)(=O)=O)C2)C1
REMARK SMILES IDX 10 1 9 2 8 3 6 4 7 5 5 7 1 8 2 9 3 10 73 11 4 12 63 13 64 14
REMARK SMILES IDX 72 15 65 16 67 17 66 18 68 19 69 20 70 21 71 22 11 23 12 24
REMARK SMILES IDX 13 25 14 27 15 28 16 29 62 30 17 31 61 32 18 33 19 34 20 35
REMARK SMILES IDX 55 36 21 37 60 38 54 39 56 40 22 41 59 42 53 43 52 44 23 46
REMARK SMILES IDX 45 47 30 48 44 49 31 50 34 51 43 52 57 53 32 54 33 55 42 57
REMARK SMILES IDX 58 58 35 59 24 60 25 61 29 62 26 63 28 64 27 65 46 66 47 67
REMARK SMILES IDX 51 68 48 69 50 70 49 71 36 72 37 73 41 74 38 75 40 76 39 77
REMARK H PARENT 8 6 12 26 56 45 34 56
REMARK Flexibility Score: inf
ROOT
ATOM      1  C   UNL A   1      37.447  20.419  24.991  1.00  0.00     0.042 C 
ENDROOT
BRANCH   1   2
ATOM      2  C   UNL A   1      36.391  21.508  24.976  1.00  0.00     0.117 C 
BRANCH   2   3
ATOM      3  N   UNL A   1      35.648  21.596  26.214  1.00  0.00    -0.356 N 
ATOM      4  C   UNL A   1      34.321  21.686  26.485  1.00  0.00     0.226 C 
ATOM      5  O   UNL A   1      34.022  21.470  27.666  1.00  0.00    -0.274 OA
ATOM      6  H   UNL A   1      36.216  21.592  27.019  1.00  0.00     0.163 HD
BRANCH   4   7
ATOM      7  C   UNL A   1      33.218  21.921  25.412  1.00  0.00     0.052 C 
ATOM      8  C   UNL A   1      32.772  25.473  25.815  1.00  0.00     0.007 C 
ATOM      9  C   UNL A   1      32.373  24.244  24.992  1.00  0.00    -0.013 C 
ATOM     10  C   UNL A   1      31.241  23.409  25.592  1.00  0.00     0.004 C 
ATOM     11  C   UNL A   1      33.539  23.284  24.742  1.00  0.00     0.020 C 
ATOM     12  C   UNL A   1      31.792  22.040  25.981  1.00  0.00     0.017 C 
BRANCH   7  13
ATOM     13  C   UNL A   1      33.300  20.729  24.361  1.00  0.00     0.006 C 
ATOM     14  C   UNL A   1      32.154  20.722  23.321  1.00  0.00     0.005 C 
ATOM     15  C   UNL A   1      33.368  19.336  25.046  1.00  0.00     0.024 C 
ATOM     16  C   UNL A   1      32.307  19.582  22.317  1.00  0.00     0.002 C 
ATOM     17  C   UNL A   1      33.501  18.183  24.040  1.00  0.00     0.108 C 
ATOM     18  C   UNL A   1      32.376  18.226  23.008  1.00  0.00     0.020 C 
BRANCH  17  19
ATOM     19  S   UNL A   1      33.537  16.608  24.929  1.00  0.00     0.150 S 
ATOM     20  C   UNL A   1      35.251  16.343  25.314  1.00  0.00     0.158 C 
ATOM     21  O   UNL A   1      32.850  16.793  26.194  1.00  0.00    -0.229 OA
ATOM     22  O   UNL A   1      33.128  15.555  24.019  1.00  0.00    -0.229 OA
ENDBRANCH  17  19
ENDBRANCH   7  13
ENDBRANCH   4   7
ENDBRANCH   2   3
ENDBRANCH   1   2
BRANCH   1  23
ATOM     23  C   UNL A   1      38.735  20.866  25.664  1.00  0.00     0.118 C 
BRANCH  23  24
ATOM     24  N   UNL A   1      39.741  19.805  25.710  1.00  0.00    -0.352 N 
ATOM     25  C   UNL A   1      41.084  19.848  26.001  1.00  0.00     0.251 C 
ATOM     26  H   UNL A   1      39.398  18.907  25.497  1.00  0.00     0.163 HD
ATOM     27  O   UNL A   1      41.794  18.874  25.766  1.00  0.00    -0.269 OA
BRANCH  25  28
ATOM     28  C   UNL A   1      41.679  21.073  26.572  1.00  0.00     0.039 A 
ATOM     29  C   UNL A   1      42.146  22.080  25.722  1.00  0.00     0.014 A 
ATOM     30  C   UNL A   1      41.774  21.228  27.953  1.00  0.00     0.014 A 
ATOM     31  C   UNL A   1      42.612  23.282  26.263  1.00  0.00     0.010 A 
ATOM     32  C   UNL A   1      42.116  22.462  28.483  1.00  0.00     0.010 A 
ATOM     33  C   UNL A   1      42.547  23.503  27.647  1.00  0.00    -0.014 A 
BRANCH  33  34
ATOM     34  C   UNL A   1      42.939  24.788  28.280  1.00  0.00     0.031 A 
ATOM     35  C   UNL A   1      41.883  25.826  28.551  1.00  0.00     0.074 A 
ATOM     36  C   UNL A   1      44.240  25.075  28.483  1.00  0.00     0.049 A 
ATOM     37  N   UNL A   1      42.023  27.087  28.868  1.00  0.00    -0.248 NA
ATOM     38  C   UNL A   1      40.481  25.400  28.389  1.00  0.00     0.031 C 
ATOM     39  C   UNL A   1      45.366  24.173  28.234  1.00  0.00     0.029 A 
ATOM     40  N   UNL A   1      44.836  26.230  28.928  1.00  0.00    -0.354 N 
ATOM     41  C   UNL A   1      40.736  27.614  28.881  1.00  0.00     0.074 A 
ATOM     42  C   UNL A   1      39.835  26.549  28.504  1.00  0.00     0.031 C 
ATOM     43  C   UNL A   1      46.513  24.797  28.552  1.00  0.00     0.029 A 
ATOM     44  C   UNL A   1      46.209  26.160  28.972  1.00  0.00     0.049 A 
ATOM     45  H   UNL A   1      44.329  27.031  29.190  1.00  0.00     0.167 HD
ATOM     46  C   UNL A   1      40.339  28.869  29.195  1.00  0.00     0.031 A 
ATOM     47  C   UNL A   1      47.120  27.098  29.293  1.00  0.00     0.031 A 
ATOM     48  C   UNL A   1      41.234  29.906  29.630  1.00  0.00     0.049 A 
ATOM     49  C   UNL A   1      46.651  28.478  29.666  1.00  0.00     0.074 A 
ATOM     50  C   UNL A   1      40.924  31.185  30.056  1.00  0.00     0.029 A 
ATOM     51  N   UNL A   1      42.610  29.774  29.709  1.00  0.00    -0.354 N 
ATOM     52  N   UNL A   1      45.429  28.947  29.722  1.00  0.00    -0.248 NA
ATOM     53  C   UNL A   1      47.689  29.455  30.025  1.00  0.00     0.031 C 
ATOM     54  C   UNL A   1      42.120  31.842  30.359  1.00  0.00     0.029 A 
ATOM     55  C   UNL A   1      43.167  30.953  30.169  1.00  0.00     0.049 A 
ATOM     56  H   UNL A   1      43.116  28.963  29.474  1.00  0.00     0.167 HD
ATOM     57  C   UNL A   1      45.547  30.259  30.163  1.00  0.00     0.074 A 
ATOM     58  C   UNL A   1      46.959  30.511  30.360  1.00  0.00     0.031 C 
ATOM     59  C   UNL A   1      44.573  31.172  30.388  1.00  0.00     0.031 A 
BRANCH  46  60
ATOM     60  C   UNL A   1      38.875  29.188  29.081  1.00  0.00    -0.014 A 
ATOM     61  C   UNL A   1      38.010  29.059  30.179  1.00  0.00     0.009 A 
ATOM     62  C   UNL A   1      38.361  29.663  27.864  1.00  0.00     0.009 A 
ATOM     63  C   UNL A   1      36.653  29.361  30.050  1.00  0.00     0.001 A 
ATOM     64  C   UNL A   1      37.010  29.994  27.746  1.00  0.00     0.001 A 
ATOM     65  C   UNL A   1      36.156  29.833  28.836  1.00  0.00     0.000 A 
ENDBRANCH  46  60
BRANCH  47  66
ATOM     66  C   UNL A   1      48.569  26.765  29.301  1.00  0.00    -0.014 A 
ATOM     67  C   UNL A   1      49.164  26.238  30.457  1.00  0.00     0.009 A 
ATOM     68  C   UNL A   1      49.366  26.979  28.166  1.00  0.00     0.009 A 
ATOM     69  C   UNL A   1      50.533  25.961  30.488  1.00  0.00     0.001 A 
ATOM     70  C   UNL A   1      50.729  26.674  28.191  1.00  0.00     0.001 A 
ATOM     71  C   UNL A   1      51.314  26.176  29.354  1.00  0.00     0.000 A 
ENDBRANCH  47  66
BRANCH  59  72
ATOM     72  C   UNL A   1      44.982  32.503  30.943  1.00  0.00    -0.014 A 
ATOM     73  C   UNL A   1      45.260  33.591  30.104  1.00  0.00     0.009 A 
ATOM     74  C   UNL A   1      45.007  32.688  32.335  1.00  0.00     0.009 A 
ATOM     75  C   UNL A   1      45.572  34.838  30.650  1.00  0.00     0.001 A 
ATOM     76  C   UNL A   1      45.293  33.941  32.877  1.00  0.00     0.001 A 
ATOM     77  C   UNL A   1      45.580  35.013  32.034  1.00  0.00     0.000 A 
ENDBRANCH  59  72
ENDBRANCH  33  34
ENDBRANCH  25  28
ENDBRANCH  23  24
ENDBRANCH   1  23
TORSDOF 12
ENDMDL
