MODEL 1
REMARK VINA RESULT:     -11.0      0.000      0.000
REMARK SMILES O=C(CCn1ccnc1)N[C@H]1C=C[C@H](C(=O)NCCCNC(=O)c2ccc(-c3c4nc(c(-c5ccccc5)c5ccc([nH]5)c(-c5ccccc5)c5nc(c(-c6ccccc6)c6ccc3[nH]6)C=C5)C=C4)cc2)C1
REMARK SMILES IDX 18 1 17 2 15 3 16 4 14 6 11 7 12 8 72 9 13 10 10 11 1 12
REMARK SMILES IDX 2 13 3 15 4 16 5 17 6 18 9 19 7 20 8 21 19 22 20 23 21 24
REMARK SMILES IDX 22 25 23 27 24 28 25 29 71 30 26 31 70 32 27 33 28 34 29 35
REMARK SMILES IDX 64 36 30 37 69 38 63 39 65 40 31 41 68 42 62 43 61 44 32 46
REMARK SMILES IDX 54 47 39 48 53 49 40 50 43 51 52 52 66 53 41 54 42 55 51 57
REMARK SMILES IDX 67 58 44 59 33 60 34 61 38 62 35 63 37 64 36 65 55 66 56 67
REMARK SMILES IDX 60 68 57 69 59 70 58 71 45 72 46 73 50 74 47 75 49 76 48 77
REMARK H PARENT 17 5 10 14 21 26 65 45 43 56
REMARK Flexibility Score: inf
ROOT
ATOM      1  C   UNL A   1      37.067  20.583  24.977  1.00  0.00     0.117 C 
ENDROOT
BRANCH   1   2
ATOM      2  N   UNL A   1      37.533  21.951  25.170  1.00  0.00    -0.356 N 
ATOM      3  C   UNL A   1      36.823  23.120  25.241  1.00  0.00     0.227 C 
ATOM      4  O   UNL A   1      37.448  24.157  25.469  1.00  0.00    -0.274 OA
ATOM      5  H   UNL A   1      38.509  22.050  25.262  1.00  0.00     0.163 HD
BRANCH   3   6
ATOM      6  C   UNL A   1      35.297  23.079  25.088  1.00  0.00     0.103 C 
ATOM      7  C   UNL A   1      34.214  25.167  24.364  1.00  0.00     0.106 C 
ATOM      8  C   UNL A   1      33.956  24.889  25.802  1.00  0.00    -0.006 C 
ATOM      9  C   UNL A   1      34.804  23.851  23.860  1.00  0.00     0.047 C 
ATOM     10  C   UNL A   1      34.561  23.765  26.204  1.00  0.00    -0.016 C 
BRANCH   7  11
ATOM     11  N   UNL A   1      32.979  25.474  23.693  1.00  0.00    -0.350 N 
ATOM     12  O   UNL A   1      33.986  26.387  21.843  1.00  0.00    -0.275 OA
ATOM     13  C   UNL A   1      32.971  26.049  22.444  1.00  0.00     0.222 C 
ATOM     14  H   UNL A   1      32.124  25.266  24.135  1.00  0.00     0.164 HD
BRANCH  13  15
ATOM     15  C   UNL A   1      31.599  26.198  21.829  1.00  0.00     0.122 C 
BRANCH  15  16
ATOM     16  C   UNL A   1      30.556  26.514  22.896  1.00  0.00     0.133 C 
BRANCH  16  17
ATOM     17  N   UNL A   1      29.944  27.821  22.747  1.00  0.00    -0.337 N 
ATOM     18  C   UNL A   1      28.660  28.153  23.074  1.00  0.00     0.107 A 
ATOM     19  C   UNL A   1      30.561  28.953  22.301  1.00  0.00     0.199 A 
ATOM     20  C   UNL A   1      28.585  29.512  22.881  1.00  0.00     0.130 A 
ATOM     21  N   UNL A   1      29.779  30.001  22.418  1.00  0.00    -0.245 NA
ENDBRANCH  16  17
ENDBRANCH  15  16
ENDBRANCH  13  15
ENDBRANCH   7  11
ENDBRANCH   3   6
ENDBRANCH   1   2
BRANCH   1  22
ATOM     22  C   UNL A   1      38.197  19.546  25.016  1.00  0.00     0.042 C 
BRANCH  22  23
ATOM     23  C   UNL A   1      39.384  19.983  25.854  1.00  0.00     0.118 C 
BRANCH  23  24
ATOM     24  N   UNL A   1      40.531  19.085  25.746  1.00  0.00    -0.352 N 
ATOM     25  C   UNL A   1      41.871  19.428  25.816  1.00  0.00     0.251 C 
ATOM     26  H   UNL A   1      40.330  18.131  25.608  1.00  0.00     0.163 HD
ATOM     27  O   UNL A   1      42.739  18.692  25.373  1.00  0.00    -0.269 OA
BRANCH  25  28
ATOM     28  C   UNL A   1      42.225  20.712  26.449  1.00  0.00     0.039 A 
ATOM     29  C   UNL A   1      42.596  21.826  25.692  1.00  0.00     0.014 A 
ATOM     30  C   UNL A   1      42.122  20.791  27.833  1.00  0.00     0.014 A 
ATOM     31  C   UNL A   1      42.783  23.044  26.345  1.00  0.00     0.010 A 
ATOM     32  C   UNL A   1      42.126  22.016  28.444  1.00  0.00     0.010 A 
ATOM     33  C   UNL A   1      42.523  23.133  27.722  1.00  0.00    -0.014 A 
BRANCH  33  34
ATOM     34  C   UNL A   1      42.560  24.411  28.421  1.00  0.00     0.031 A 
ATOM     35  C   UNL A   1      41.431  25.322  28.098  1.00  0.00     0.074 A 
ATOM     36  C   UNL A   1      43.402  24.655  29.452  1.00  0.00     0.049 A 
ATOM     37  N   UNL A   1      41.482  26.441  27.458  1.00  0.00    -0.248 NA
ATOM     38  C   UNL A   1      40.062  24.873  28.406  1.00  0.00     0.031 C 
ATOM     39  C   UNL A   1      44.333  23.724  30.105  1.00  0.00     0.029 A 
ATOM     40  N   UNL A   1      43.509  25.766  30.226  1.00  0.00    -0.354 N 
ATOM     41  C   UNL A   1      40.185  26.946  27.464  1.00  0.00     0.074 A 
ATOM     42  C   UNL A   1      39.333  25.863  27.888  1.00  0.00     0.031 C 
ATOM     43  C   UNL A   1      44.706  24.222  31.306  1.00  0.00     0.029 A 
ATOM     44  C   UNL A   1      44.198  25.575  31.419  1.00  0.00     0.049 A 
ATOM     45  H   UNL A   1      43.130  26.637  29.963  1.00  0.00     0.167 HD
ATOM     46  C   UNL A   1      39.949  28.286  27.381  1.00  0.00     0.031 A 
ATOM     47  C   UNL A   1      44.321  26.460  32.438  1.00  0.00     0.031 A 
ATOM     48  C   UNL A   1      41.131  29.003  26.975  1.00  0.00     0.049 A 
ATOM     49  C   UNL A   1      44.004  27.799  31.896  1.00  0.00     0.074 A 
ATOM     50  C   UNL A   1      41.953  28.997  25.866  1.00  0.00     0.029 A 
ATOM     51  N   UNL A   1      41.850  29.610  27.977  1.00  0.00    -0.354 N 
ATOM     52  N   UNL A   1      44.743  28.409  31.015  1.00  0.00    -0.248 NA
ATOM     53  C   UNL A   1      42.632  28.267  31.996  1.00  0.00     0.031 C 
ATOM     54  C   UNL A   1      43.271  29.170  26.386  1.00  0.00     0.029 A 
ATOM     55  C   UNL A   1      43.177  29.348  27.768  1.00  0.00     0.049 A 
ATOM     56  H   UNL A   1      41.476  30.140  28.717  1.00  0.00     0.167 HD
ATOM     57  C   UNL A   1      43.835  29.001  30.149  1.00  0.00     0.074 A 
ATOM     58  C   UNL A   1      42.560  28.977  30.866  1.00  0.00     0.031 C 
ATOM     59  C   UNL A   1      44.145  29.188  28.831  1.00  0.00     0.031 A 
BRANCH  46  60
ATOM     60  C   UNL A   1      38.820  28.987  28.102  1.00  0.00    -0.014 A 
ATOM     61  C   UNL A   1      38.670  28.767  29.485  1.00  0.00     0.009 A 
ATOM     62  C   UNL A   1      37.737  29.599  27.442  1.00  0.00     0.009 A 
ATOM     63  C   UNL A   1      37.470  29.057  30.145  1.00  0.00     0.001 A 
ATOM     64  C   UNL A   1      36.552  29.927  28.107  1.00  0.00     0.001 A 
ATOM     65  C   UNL A   1      36.408  29.627  29.452  1.00  0.00     0.000 A 
ENDBRANCH  46  60
BRANCH  47  66
ATOM     66  C   UNL A   1      44.419  26.211  33.892  1.00  0.00    -0.014 A 
ATOM     67  C   UNL A   1      43.271  25.926  34.648  1.00  0.00     0.009 A 
ATOM     68  C   UNL A   1      45.671  25.960  34.483  1.00  0.00     0.009 A 
ATOM     69  C   UNL A   1      43.371  25.365  35.929  1.00  0.00     0.001 A 
ATOM     70  C   UNL A   1      45.771  25.400  35.762  1.00  0.00     0.001 A 
ATOM     71  C   UNL A   1      44.620  25.085  36.477  1.00  0.00     0.000 A 
ENDBRANCH  47  66
BRANCH  59  72
ATOM     72  C   UNL A   1      45.579  28.981  28.409  1.00  0.00    -0.014 A 
ATOM     73  C   UNL A   1      46.129  27.722  28.107  1.00  0.00     0.009 A 
ATOM     74  C   UNL A   1      46.363  30.121  28.172  1.00  0.00     0.009 A 
ATOM     75  C   UNL A   1      47.434  27.610  27.613  1.00  0.00     0.001 A 
ATOM     76  C   UNL A   1      47.656  30.010  27.659  1.00  0.00     0.001 A 
ATOM     77  C   UNL A   1      48.195  28.755  27.386  1.00  0.00     0.000 A 
ENDBRANCH  59  72
ENDBRANCH  33  34
ENDBRANCH  25  28
ENDBRANCH  23  24
ENDBRANCH  22  23
ENDBRANCH   1  22
TORSDOF 14
ENDMDL
MODEL 2
REMARK VINA RESULT:     -10.9      3.925      9.233
REMARK SMILES O=C(CCn1ccnc1)N[C@H]1C=C[C@H](C(=O)NCCCNC(=O)c2ccc(-c3c4nc(c(-c5ccccc5)c5ccc([nH]5)c(-c5ccccc5)c5nc(c(-c6ccccc6)c6ccc3[nH]6)C=C5)C=C4)cc2)C1
REMARK SMILES IDX 18 1 17 2 15 3 16 4 14 6 11 7 12 8 72 9 13 10 10 11 1 12
REMARK SMILES IDX 2 13 3 15 4 16 5 17 6 18 9 19 7 20 8 21 19 22 20 23 21 24
REMARK SMILES IDX 22 25 23 27 24 28 25 29 71 30 26 31 70 32 27 33 28 34 29 35
REMARK SMILES IDX 64 36 30 37 69 38 63 39 65 40 31 41 68 42 62 43 61 44 32 46
REMARK SMILES IDX 54 47 39 48 53 49 40 50 43 51 52 52 66 53 41 54 42 55 51 57
REMARK SMILES IDX 67 58 44 59 33 60 34 61 38 62 35 63 37 64 36 65 55 66 56 67
REMARK SMILES IDX 60 68 57 69 59 70 58 71 45 72 46 73 50 74 47 75 49 76 48 77
REMARK H PARENT 17 5 10 14 21 26 65 45 43 56
REMARK Flexibility Score: inf
ROOT
ATOM      1  C   UNL A   1      31.775  30.465  25.873  1.00  0.00     0.117 C 
ENDROOT
BRANCH   1   2
ATOM      2  N   UNL A   1      31.086  30.354  24.594  1.00  0.00    -0.356 N 
ATOM      3  C   UNL A   1      30.672  29.241  23.911  1.00  0.00     0.227 C 
ATOM      4  O   UNL A   1      30.050  29.411  22.861  1.00  0.00    -0.274 OA
ATOM      5  H   UNL A   1      30.887  31.212  24.152  1.00  0.00     0.163 HD
BRANCH   3   6
ATOM      6  C   UNL A   1      30.951  27.854  24.504  1.00  0.00     0.103 C 
ATOM      7  C   UNL A   1      31.256  26.018  22.893  1.00  0.00     0.106 C 
ATOM      8  C   UNL A   1      29.946  25.919  23.592  1.00  0.00    -0.006 C 
ATOM      9  C   UNL A   1      32.002  27.071  23.711  1.00  0.00     0.047 C 
ATOM     10  C   UNL A   1      29.769  26.928  24.453  1.00  0.00    -0.016 C 
BRANCH   7  11
ATOM     11  N   UNL A   1      31.934  24.750  22.937  1.00  0.00    -0.350 N 
ATOM     12  O   UNL A   1      33.373  25.241  21.217  1.00  0.00    -0.275 OA
ATOM     13  C   UNL A   1      32.981  24.472  22.089  1.00  0.00     0.222 C 
ATOM     14  H   UNL A   1      31.644  24.069  23.587  1.00  0.00     0.164 HD
BRANCH  13  15
ATOM     15  C   UNL A   1      33.659  23.146  22.341  1.00  0.00     0.122 C 
BRANCH  15  16
ATOM     16  C   UNL A   1      32.635  22.067  22.679  1.00  0.00     0.133 C 
BRANCH  16  17
ATOM     17  N   UNL A   1      32.896  21.385  23.933  1.00  0.00    -0.337 N 
ATOM     18  C   UNL A   1      32.469  20.133  24.275  1.00  0.00     0.107 A 
ATOM     19  C   UNL A   1      33.654  21.858  24.965  1.00  0.00     0.199 A 
ATOM     20  C   UNL A   1      33.066  19.874  25.486  1.00  0.00     0.130 A 
ATOM     21  N   UNL A   1      33.815  20.947  25.896  1.00  0.00    -0.245 NA
ENDBRANCH  16  17
ENDBRANCH  15  16
ENDBRANCH  13  15
ENDBRANCH   7  11
ENDBRANCH   3   6
ENDBRANCH   1   2
BRANCH   1  22
ATOM     22  C   UNL A   1      31.416  31.740  26.648  1.00  0.00     0.042 C 
BRANCH  22  23
ATOM     23  C   UNL A   1      32.621  32.436  27.251  1.00  0.00     0.118 C 
BRANCH  23  24
ATOM     24  N   UNL A   1      32.357  33.818  27.641  1.00  0.00    -0.352 N 
ATOM     25  C   UNL A   1      33.020  34.557  28.607  1.00  0.00     0.251 C 
ATOM     26  H   UNL A   1      31.628  34.277  27.163  1.00  0.00     0.163 HD
ATOM     27  O   UNL A   1      32.517  35.553  29.100  1.00  0.00    -0.269 OA
BRANCH  25  28
ATOM     28  C   UNL A   1      34.360  34.105  29.025  1.00  0.00     0.039 A 
ATOM     29  C   UNL A   1      34.577  33.495  30.263  1.00  0.00     0.014 A 
ATOM     30  C   UNL A   1      35.398  34.259  28.113  1.00  0.00     0.014 A 
ATOM     31  C   UNL A   1      35.839  32.969  30.535  1.00  0.00     0.010 A 
ATOM     32  C   UNL A   1      36.575  33.587  28.305  1.00  0.00     0.010 A 
ATOM     33  C   UNL A   1      36.828  33.002  29.538  1.00  0.00    -0.014 A 
BRANCH  33  34
ATOM     34  C   UNL A   1      38.112  32.337  29.720  1.00  0.00     0.031 A 
ATOM     35  C   UNL A   1      38.122  30.901  29.332  1.00  0.00     0.074 A 
ATOM     36  C   UNL A   1      39.253  33.013  29.980  1.00  0.00     0.049 A 
ATOM     37  N   UNL A   1      38.249  29.878  30.109  1.00  0.00    -0.248 NA
ATOM     38  C   UNL A   1      37.820  30.554  27.932  1.00  0.00     0.031 C 
ATOM     39  C   UNL A   1      39.454  34.468  30.044  1.00  0.00     0.029 A 
ATOM     40  N   UNL A   1      40.519  32.538  30.117  1.00  0.00    -0.354 N 
ATOM     41  C   UNL A   1      38.257  28.763  29.276  1.00  0.00     0.074 A 
ATOM     42  C   UNL A   1      37.805  29.221  27.986  1.00  0.00     0.031 C 
ATOM     43  C   UNL A   1      40.773  34.750  29.951  1.00  0.00     0.029 A 
ATOM     44  C   UNL A   1      41.514  33.505  30.013  1.00  0.00     0.049 A 
ATOM     45  H   UNL A   1      40.716  31.587  30.277  1.00  0.00     0.167 HD
ATOM     46  C   UNL A   1      38.893  27.615  29.642  1.00  0.00     0.031 A 
ATOM     47  C   UNL A   1      42.851  33.294  29.957  1.00  0.00     0.031 A 
ATOM     48  C   UNL A   1      39.226  27.622  31.044  1.00  0.00     0.049 A 
ATOM     49  C   UNL A   1      43.101  31.933  30.480  1.00  0.00     0.074 A 
ATOM     50  C   UNL A   1      38.513  27.700  32.224  1.00  0.00     0.029 A 
ATOM     51  N   UNL A   1      40.522  27.952  31.361  1.00  0.00    -0.354 N 
ATOM     52  N   UNL A   1      42.900  31.593  31.720  1.00  0.00    -0.248 NA
ATOM     53  C   UNL A   1      43.148  30.835  29.529  1.00  0.00     0.031 C 
ATOM     54  C   UNL A   1      39.310  28.519  33.079  1.00  0.00     0.029 A 
ATOM     55  C   UNL A   1      40.494  28.833  32.408  1.00  0.00     0.049 A 
ATOM     56  H   UNL A   1      41.330  27.613  30.912  1.00  0.00     0.167 HD
ATOM     57  C   UNL A   1      42.344  30.324  31.648  1.00  0.00     0.074 A 
ATOM     58  C   UNL A   1      42.628  29.866  30.288  1.00  0.00     0.031 C 
ATOM     59  C   UNL A   1      41.462  29.891  32.598  1.00  0.00     0.031 A 
BRANCH  46  60
ATOM     60  C   UNL A   1      39.619  26.709  28.673  1.00  0.00    -0.014 A 
ATOM     61  C   UNL A   1      40.571  27.281  27.809  1.00  0.00     0.009 A 
ATOM     62  C   UNL A   1      39.198  25.401  28.367  1.00  0.00     0.009 A 
ATOM     63  C   UNL A   1      41.004  26.617  26.654  1.00  0.00     0.001 A 
ATOM     64  C   UNL A   1      39.659  24.718  27.237  1.00  0.00     0.001 A 
ATOM     65  C   UNL A   1      40.538  25.340  26.364  1.00  0.00     0.000 A 
ENDBRANCH  46  60
BRANCH  47  66
ATOM     66  C   UNL A   1      43.894  34.057  29.239  1.00  0.00    -0.014 A 
ATOM     67  C   UNL A   1      43.681  34.494  27.922  1.00  0.00     0.009 A 
ATOM     68  C   UNL A   1      44.977  34.610  29.946  1.00  0.00     0.009 A 
ATOM     69  C   UNL A   1      44.492  35.485  27.351  1.00  0.00     0.001 A 
ATOM     70  C   UNL A   1      45.787  35.599  29.376  1.00  0.00     0.001 A 
ATOM     71  C   UNL A   1      45.533  36.050  28.085  1.00  0.00     0.000 A 
ENDBRANCH  47  66
BRANCH  59  72
ATOM     72  C   UNL A   1      41.318  30.716  33.854  1.00  0.00    -0.014 A 
ATOM     73  C   UNL A   1      40.501  31.856  33.946  1.00  0.00     0.009 A 
ATOM     74  C   UNL A   1      41.924  30.237  35.025  1.00  0.00     0.009 A 
ATOM     75  C   UNL A   1      40.323  32.513  35.171  1.00  0.00     0.001 A 
ATOM     76  C   UNL A   1      41.730  30.879  36.249  1.00  0.00     0.001 A 
ATOM     77  C   UNL A   1      40.935  32.020  36.321  1.00  0.00     0.000 A 
ENDBRANCH  59  72
ENDBRANCH  33  34
ENDBRANCH  25  28
ENDBRANCH  23  24
ENDBRANCH  22  23
ENDBRANCH   1  22
TORSDOF 14
ENDMDL
MODEL 3
REMARK VINA RESULT:     -10.7      1.275      1.667
REMARK SMILES O=C(CCn1ccnc1)N[C@H]1C=C[C@H](C(=O)NCCCNC(=O)c2ccc(-c3c4nc(c(-c5ccccc5)c5ccc([nH]5)c(-c5ccccc5)c5nc(c(-c6ccccc6)c6ccc3[nH]6)C=C5)C=C4)cc2)C1
REMARK SMILES IDX 18 1 17 2 15 3 16 4 14 6 11 7 12 8 72 9 13 10 10 11 1 12
REMARK SMILES IDX 2 13 3 15 4 16 5 17 6 18 9 19 7 20 8 21 19 22 20 23 21 24
REMARK SMILES IDX 22 25 23 27 24 28 25 29 71 30 26 31 70 32 27 33 28 34 29 35
REMARK SMILES IDX 64 36 30 37 69 38 63 39 65 40 31 41 68 42 62 43 61 44 32 46
REMARK SMILES IDX 54 47 39 48 53 49 40 50 43 51 52 52 66 53 41 54 42 55 51 57
REMARK SMILES IDX 67 58 44 59 33 60 34 61 38 62 35 63 37 64 36 65 55 66 56 67
REMARK SMILES IDX 60 68 57 69 59 70 58 71 45 72 46 73 50 74 47 75 49 76 48 77
REMARK H PARENT 17 5 10 14 21 26 65 45 43 56
REMARK Flexibility Score: inf
ROOT
ATOM      1  C   UNL A   1      37.508  20.771  24.994  1.00  0.00     0.117 C 
ENDROOT
BRANCH   1   2
ATOM      2  N   UNL A   1      36.155  20.359  25.349  1.00  0.00    -0.356 N 
ATOM      3  C   UNL A   1      34.991  21.080  25.358  1.00  0.00     0.227 C 
ATOM      4  O   UNL A   1      33.951  20.484  25.646  1.00  0.00    -0.274 OA
ATOM      5  H   UNL A   1      36.066  19.418  25.626  1.00  0.00     0.163 HD
BRANCH   3   6
ATOM      6  C   UNL A   1      35.024  22.562  24.963  1.00  0.00     0.103 C 
ATOM      7  C   UNL A   1      32.848  23.702  24.812  1.00  0.00     0.106 C 
ATOM      8  C   UNL A   1      33.430  23.455  23.465  1.00  0.00    -0.006 C 
ATOM      9  C   UNL A   1      34.018  23.407  25.750  1.00  0.00     0.047 C 
ATOM     10  C   UNL A   1      34.603  22.816  23.544  1.00  0.00    -0.016 C 
BRANCH   7  11
ATOM     11  N   UNL A   1      32.427  25.073  24.922  1.00  0.00    -0.350 N 
ATOM     12  O   UNL A   1      31.204  24.746  26.837  1.00  0.00    -0.275 OA
ATOM     13  C   UNL A   1      31.641  25.494  25.969  1.00  0.00     0.222 C 
ATOM     14  H   UNL A   1      32.709  25.722  24.236  1.00  0.00     0.164 HD
BRANCH  13  15
ATOM     15  C   UNL A   1      31.384  26.983  26.003  1.00  0.00     0.122 C 
BRANCH  15  16
ATOM     16  C   UNL A   1      32.029  27.674  24.806  1.00  0.00     0.133 C 
BRANCH  16  17
ATOM     17  N   UNL A   1      31.084  28.074  23.782  1.00  0.00    -0.337 N 
ATOM     18  C   UNL A   1      29.763  27.729  23.723  1.00  0.00     0.107 A 
ATOM     19  C   UNL A   1      31.340  28.904  22.728  1.00  0.00     0.199 A 
ATOM     20  C   UNL A   1      29.257  28.444  22.662  1.00  0.00     0.130 A 
ATOM     21  N   UNL A   1      30.243  29.184  22.064  1.00  0.00    -0.245 NA
ENDBRANCH  16  17
ENDBRANCH  15  16
ENDBRANCH  13  15
ENDBRANCH   7  11
ENDBRANCH   3   6
ENDBRANCH   1   2
BRANCH   1  22
ATOM     22  C   UNL A   1      38.518  19.617  25.009  1.00  0.00     0.042 C 
BRANCH  22  23
ATOM     23  C   UNL A   1      39.605  19.784  26.054  1.00  0.00     0.118 C 
BRANCH  23  24
ATOM     24  N   UNL A   1      40.822  19.037  25.749  1.00  0.00    -0.352 N 
ATOM     25  C   UNL A   1      42.115  19.531  25.685  1.00  0.00     0.251 C 
ATOM     26  H   UNL A   1      40.712  18.075  25.569  1.00  0.00     0.163 HD
ATOM     27  O   UNL A   1      42.995  18.929  25.092  1.00  0.00    -0.269 OA
BRANCH  25  28
ATOM     28  C   UNL A   1      42.400  20.811  26.359  1.00  0.00     0.039 A 
ATOM     29  C   UNL A   1      42.746  21.958  25.642  1.00  0.00     0.014 A 
ATOM     30  C   UNL A   1      42.257  20.849  27.742  1.00  0.00     0.014 A 
ATOM     31  C   UNL A   1      42.867  23.165  26.331  1.00  0.00     0.010 A 
ATOM     32  C   UNL A   1      42.196  22.056  28.385  1.00  0.00     0.010 A 
ATOM     33  C   UNL A   1      42.568  23.206  27.703  1.00  0.00    -0.014 A 
BRANCH  33  34
ATOM     34  C   UNL A   1      42.536  24.466  28.435  1.00  0.00     0.031 A 
ATOM     35  C   UNL A   1      41.351  25.316  28.145  1.00  0.00     0.074 A 
ATOM     36  C   UNL A   1      43.371  24.732  29.464  1.00  0.00     0.049 A 
ATOM     37  N   UNL A   1      41.329  26.452  27.534  1.00  0.00    -0.248 NA
ATOM     38  C   UNL A   1      40.014  24.778  28.452  1.00  0.00     0.031 C 
ATOM     39  C   UNL A   1      44.362  23.843  30.086  1.00  0.00     0.029 A 
ATOM     40  N   UNL A   1      43.420  25.828  30.267  1.00  0.00    -0.354 N 
ATOM     41  C   UNL A   1      40.005  26.879  27.564  1.00  0.00     0.074 A 
ATOM     42  C   UNL A   1      39.223  25.736  27.966  1.00  0.00     0.031 C 
ATOM     43  C   UNL A   1      44.717  24.330  31.296  1.00  0.00     0.029 A 
ATOM     44  C   UNL A   1      44.131  25.647  31.449  1.00  0.00     0.049 A 
ATOM     45  H   UNL A   1      42.987  26.681  30.031  1.00  0.00     0.167 HD
ATOM     46  C   UNL A   1      39.689  28.203  27.519  1.00  0.00     0.031 A 
ATOM     47  C   UNL A   1      44.210  26.511  32.491  1.00  0.00     0.031 A 
ATOM     48  C   UNL A   1      40.823  29.001  27.123  1.00  0.00     0.049 A 
ATOM     49  C   UNL A   1      43.809  27.842  31.986  1.00  0.00     0.074 A 
ATOM     50  C   UNL A   1      41.632  29.073  26.007  1.00  0.00     0.029 A 
ATOM     51  N   UNL A   1      41.513  29.623  28.135  1.00  0.00    -0.354 N 
ATOM     52  N   UNL A   1      44.501  28.519  31.117  1.00  0.00    -0.248 NA
ATOM     53  C   UNL A   1      42.412  28.225  32.110  1.00  0.00     0.031 C 
ATOM     54  C   UNL A   1      42.942  29.310  26.521  1.00  0.00     0.029 A 
ATOM     55  C   UNL A   1      42.852  29.446  27.908  1.00  0.00     0.049 A 
ATOM     56  H   UNL A   1      41.115  30.111  28.891  1.00  0.00     0.167 HD
ATOM     57  C   UNL A   1      43.552  29.077  30.273  1.00  0.00     0.074 A 
ATOM     58  C   UNL A   1      42.288  28.959  31.000  1.00  0.00     0.031 C 
ATOM     59  C   UNL A   1      43.837  29.316  28.959  1.00  0.00     0.031 A 
BRANCH  46  60
ATOM     60  C   UNL A   1      38.527  28.817  28.267  1.00  0.00    -0.014 A 
ATOM     61  C   UNL A   1      37.777  29.823  27.628  1.00  0.00     0.009 A 
ATOM     62  C   UNL A   1      38.331  28.672  29.654  1.00  0.00     0.009 A 
ATOM     63  C   UNL A   1      36.951  30.691  28.353  1.00  0.00     0.001 A 
ATOM     64  C   UNL A   1      37.475  29.511  30.374  1.00  0.00     0.001 A 
ATOM     65  C   UNL A   1      36.810  30.541  29.728  1.00  0.00     0.000 A 
ENDBRANCH  46  60
BRANCH  47  66
ATOM     66  C   UNL A   1      44.337  26.230  33.937  1.00  0.00    -0.014 A 
ATOM     67  C   UNL A   1      43.328  25.534  34.621  1.00  0.00     0.009 A 
ATOM     68  C   UNL A   1      45.578  26.385  34.580  1.00  0.00     0.009 A 
ATOM     69  C   UNL A   1      43.569  24.970  35.882  1.00  0.00     0.001 A 
ATOM     70  C   UNL A   1      45.818  25.823  35.839  1.00  0.00     0.001 A 
ATOM     71  C   UNL A   1      44.819  25.099  36.482  1.00  0.00     0.000 A 
ENDBRANCH  47  66
BRANCH  59  72
ATOM     72  C   UNL A   1      45.278  29.207  28.519  1.00  0.00    -0.014 A 
ATOM     73  C   UNL A   1      46.182  30.284  28.539  1.00  0.00     0.009 A 
ATOM     74  C   UNL A   1      45.772  27.931  28.209  1.00  0.00     0.009 A 
ATOM     75  C   UNL A   1      47.533  30.091  28.226  1.00  0.00     0.001 A 
ATOM     76  C   UNL A   1      47.123  27.735  27.917  1.00  0.00     0.001 A 
ATOM     77  C   UNL A   1      48.002  28.815  27.919  1.00  0.00     0.000 A 
ENDBRANCH  59  72
ENDBRANCH  33  34
ENDBRANCH  25  28
ENDBRANCH  23  24
ENDBRANCH  22  23
ENDBRANCH   1  22
TORSDOF 14
ENDMDL
