MODEL 1
REMARK VINA RESULT:     -13.3      0.000      0.000
REMARK SMILES Cc1ccc(S(=O)(=O)N2c3ccc(C(=O)NCCCNC(=O)c4ccc(-c5c6nc(c(-c7ccccc7)c7ccc([nH]7)c(-c7ccccc7)c7nc(c(-c8ccccc8)c8ccc5[nH]8)C=C7)C=C6)cc4)cc3C[C@H]2C)cc1
REMARK SMILES IDX 18 1 17 2 16 3 14 4 15 5 13 7 9 8 10 9 74 10 11 11 72 12
REMARK SMILES IDX 73 13 75 14 12 15 71 16 6 17 7 18 8 19 5 20 1 21 2 22 3 23
REMARK SMILES IDX 77 24 4 25 76 26 19 27 20 28 21 29 22 31 23 32 24 33 70 34
REMARK SMILES IDX 25 35 69 36 26 37 27 38 28 39 63 40 29 41 68 42 62 43 64 44
REMARK SMILES IDX 30 45 67 46 61 47 60 48 31 50 53 51 38 52 52 53 39 54 42 55
REMARK SMILES IDX 51 56 65 57 40 58 41 59 50 61 66 62 43 63 32 64 33 65 37 66
REMARK SMILES IDX 34 67 36 68 35 69 54 70 55 71 59 72 56 73 58 74 57 75 44 76
REMARK SMILES IDX 45 77 49 78 46 79 48 80 47 81
REMARK H PARENT 16 6 20 30 64 49 42 60
REMARK Flexibility Score: inf
ROOT
ATOM      1  C   UNL A   1      32.364  30.587  26.657  1.00  0.00     0.042 C 
ENDROOT
BRANCH   1   2
ATOM      2  C   UNL A   1      31.997  29.702  25.464  1.00  0.00     0.118 C 
BRANCH   2   3
ATOM      3  N   UNL A   1      33.068  29.646  24.481  1.00  0.00    -0.352 N 
ATOM      4  C   UNL A   1      33.560  28.641  23.686  1.00  0.00     0.251 C 
ATOM      5  O   UNL A   1      34.451  28.956  22.893  1.00  0.00    -0.269 OA
ATOM      6  H   UNL A   1      33.535  30.504  24.362  1.00  0.00     0.163 HD
BRANCH   4   7
ATOM      7  C   UNL A   1      33.116  27.208  23.728  1.00  0.00     0.040 A 
ATOM      8  N   UNL A   1      31.874  23.207  24.345  1.00  0.00    -0.263 N 
ATOM      9  C   UNL A   1      32.240  24.563  24.012  1.00  0.00     0.055 A 
ATOM     10  C   UNL A   1      32.078  23.144  25.851  1.00  0.00     0.101 C 
ATOM     11  C   UNL A   1      32.022  25.203  22.817  1.00  0.00     0.028 A 
ATOM     12  C   UNL A   1      32.882  25.208  25.061  1.00  0.00    -0.021 A 
ATOM     13  C   UNL A   1      33.064  24.278  26.213  1.00  0.00     0.063 C 
ATOM     14  C   UNL A   1      30.710  23.384  26.509  1.00  0.00     0.032 C 
ATOM     15  C   UNL A   1      32.479  26.518  22.682  1.00  0.00     0.016 A 
ATOM     16  C   UNL A   1      33.324  26.518  24.938  1.00  0.00     0.019 A 
BRANCH   8  17
ATOM     17  S   UNL A   1      32.772  22.074  23.397  1.00  0.00     0.264 S 
ATOM     18  O   UNL A   1      32.891  22.615  22.058  1.00  0.00    -0.201 OA
ATOM     19  O   UNL A   1      32.203  20.756  23.619  1.00  0.00    -0.201 OA
BRANCH  17  20
ATOM     20  C   UNL A   1      34.428  21.976  24.043  1.00  0.00     0.088 A 
ATOM     21  C   UNL A   1      38.369  22.242  25.754  1.00  0.00     0.044 C 
ATOM     22  C   UNL A   1      37.011  22.120  25.130  1.00  0.00    -0.051 A 
ATOM     23  C   UNL A   1      36.627  22.997  24.110  1.00  0.00     0.005 A 
ATOM     24  C   UNL A   1      36.117  21.128  25.547  1.00  0.00     0.005 A 
ATOM     25  C   UNL A   1      35.341  22.929  23.572  1.00  0.00     0.022 A 
ATOM     26  C   UNL A   1      34.835  21.046  24.996  1.00  0.00     0.022 A 
ENDBRANCH  17  20
ENDBRANCH   8  17
ENDBRANCH   4   7
ENDBRANCH   2   3
ENDBRANCH   1   2
BRANCH   1  27
ATOM     27  C   UNL A   1      33.646  30.173  27.345  1.00  0.00     0.118 C 
BRANCH  27  28
ATOM     28  N   UNL A   1      34.286  31.249  28.095  1.00  0.00    -0.352 N 
ATOM     29  C   UNL A   1      35.494  31.247  28.773  1.00  0.00     0.251 C 
ATOM     30  H   UNL A   1      33.789  32.097  28.122  1.00  0.00     0.163 HD
ATOM     31  O   UNL A   1      35.860  32.233  29.387  1.00  0.00    -0.269 OA
BRANCH  29  32
ATOM     32  C   UNL A   1      36.401  30.084  28.614  1.00  0.00     0.039 A 
ATOM     33  C   UNL A   1      36.673  29.320  29.753  1.00  0.00     0.014 A 
ATOM     34  C   UNL A   1      37.167  29.934  27.464  1.00  0.00     0.014 A 
ATOM     35  C   UNL A   1      37.874  28.621  29.827  1.00  0.00     0.010 A 
ATOM     36  C   UNL A   1      38.416  29.366  27.585  1.00  0.00     0.010 A 
ATOM     37  C   UNL A   1      38.791  28.765  28.787  1.00  0.00    -0.014 A 
BRANCH  37  38
ATOM     38  C   UNL A   1      40.192  28.392  28.902  1.00  0.00     0.031 A 
ATOM     39  C   UNL A   1      40.647  27.101  28.354  1.00  0.00     0.074 A 
ATOM     40  C   UNL A   1      41.083  29.233  29.477  1.00  0.00     0.049 A 
ATOM     41  N   UNL A   1      41.606  26.405  28.865  1.00  0.00    -0.248 NA
ATOM     42  C   UNL A   1      40.013  26.465  27.203  1.00  0.00     0.031 C 
ATOM     43  C   UNL A   1      42.538  29.104  29.472  1.00  0.00     0.029 A 
ATOM     44  N   UNL A   1      40.841  30.275  30.375  1.00  0.00    -0.354 N 
ATOM     45  C   UNL A   1      41.909  25.420  27.957  1.00  0.00     0.074 A 
ATOM     46  C   UNL A   1      40.837  25.435  26.988  1.00  0.00     0.031 C 
ATOM     47  C   UNL A   1      43.032  29.785  30.518  1.00  0.00     0.029 A 
ATOM     48  C   UNL A   1      41.899  30.259  31.296  1.00  0.00     0.049 A 
ATOM     49  H   UNL A   1      40.078  30.898  30.364  1.00  0.00     0.167 HD
ATOM     50  C   UNL A   1      43.115  24.796  28.000  1.00  0.00     0.031 A 
ATOM     51  C   UNL A   1      41.739  30.087  32.640  1.00  0.00     0.031 A 
ATOM     52  C   UNL A   1      43.958  25.304  29.074  1.00  0.00     0.049 A 
ATOM     53  C   UNL A   1      42.520  28.906  33.174  1.00  0.00     0.074 A 
ATOM     54  C   UNL A   1      44.983  26.237  29.089  1.00  0.00     0.029 A 
ATOM     55  N   UNL A   1      43.585  25.102  30.395  1.00  0.00    -0.354 N 
ATOM     56  N   UNL A   1      42.949  27.926  32.429  1.00  0.00    -0.248 NA
ATOM     57  C   UNL A   1      42.828  28.707  34.587  1.00  0.00     0.031 C 
ATOM     58  C   UNL A   1      45.202  26.624  30.433  1.00  0.00     0.029 A 
ATOM     59  C   UNL A   1      44.326  25.912  31.231  1.00  0.00     0.049 A 
ATOM     60  H   UNL A   1      42.892  24.469  30.694  1.00  0.00     0.167 HD
ATOM     61  C   UNL A   1      43.583  26.996  33.213  1.00  0.00     0.074 A 
ATOM     62  C   UNL A   1      43.476  27.528  34.558  1.00  0.00     0.031 C 
ATOM     63  C   UNL A   1      44.134  25.869  32.674  1.00  0.00     0.031 A 
BRANCH  50  64
ATOM     64  C   UNL A   1      43.619  23.972  26.850  1.00  0.00    -0.014 A 
ATOM     65  C   UNL A   1      44.281  24.600  25.779  1.00  0.00     0.009 A 
ATOM     66  C   UNL A   1      43.429  22.584  26.747  1.00  0.00     0.009 A 
ATOM     67  C   UNL A   1      44.649  23.898  24.626  1.00  0.00     0.001 A 
ATOM     68  C   UNL A   1      43.759  21.884  25.579  1.00  0.00     0.001 A 
ATOM     69  C   UNL A   1      44.361  22.544  24.514  1.00  0.00     0.000 A 
ENDBRANCH  50  64
BRANCH  51  70
ATOM     70  C   UNL A   1      40.418  30.515  33.167  1.00  0.00    -0.014 A 
ATOM     71  C   UNL A   1      40.124  31.891  33.208  1.00  0.00     0.009 A 
ATOM     72  C   UNL A   1      39.359  29.599  33.256  1.00  0.00     0.009 A 
ATOM     73  C   UNL A   1      38.800  32.338  33.231  1.00  0.00     0.001 A 
ATOM     74  C   UNL A   1      38.035  30.051  33.277  1.00  0.00     0.001 A 
ATOM     75  C   UNL A   1      37.756  31.417  33.233  1.00  0.00     0.000 A 
ENDBRANCH  51  70
BRANCH  63  76
ATOM     76  C   UNL A   1      44.635  24.651  33.418  1.00  0.00    -0.014 A 
ATOM     77  C   UNL A   1      43.890  23.486  33.637  1.00  0.00     0.009 A 
ATOM     78  C   UNL A   1      45.991  24.612  33.823  1.00  0.00     0.009 A 
ATOM     79  C   UNL A   1      44.457  22.362  34.258  1.00  0.00     0.001 A 
ATOM     80  C   UNL A   1      46.573  23.481  34.397  1.00  0.00     0.001 A 
ATOM     81  C   UNL A   1      45.800  22.355  34.626  1.00  0.00     0.000 A 
ENDBRANCH  63  76
ENDBRANCH  37  38
ENDBRANCH  29  32
ENDBRANCH  27  28
ENDBRANCH   1  27
TORSDOF 12
ENDMDL
MODEL 2
REMARK VINA RESULT:     -13.3      1.225      2.056
REMARK SMILES Cc1ccc(S(=O)(=O)N2c3ccc(C(=O)NCCCNC(=O)c4ccc(-c5c6nc(c(-c7ccccc7)c7ccc([nH]7)c(-c7ccccc7)c7nc(c(-c8ccccc8)c8ccc5[nH]8)C=C7)C=C6)cc4)cc3C[C@H]2C)cc1
REMARK SMILES IDX 18 1 17 2 16 3 14 4 15 5 13 7 9 8 10 9 74 10 11 11 72 12
REMARK SMILES IDX 73 13 75 14 12 15 71 16 6 17 7 18 8 19 5 20 1 21 2 22 3 23
REMARK SMILES IDX 77 24 4 25 76 26 19 27 20 28 21 29 22 31 23 32 24 33 70 34
REMARK SMILES IDX 25 35 69 36 26 37 27 38 28 39 63 40 29 41 68 42 62 43 64 44
REMARK SMILES IDX 30 45 67 46 61 47 60 48 31 50 53 51 38 52 52 53 39 54 42 55
REMARK SMILES IDX 51 56 65 57 40 58 41 59 50 61 66 62 43 63 32 64 33 65 37 66
REMARK SMILES IDX 34 67 36 68 35 69 54 70 55 71 59 72 56 73 58 74 57 75 44 76
REMARK SMILES IDX 45 77 49 78 46 79 48 80 47 81
REMARK H PARENT 16 6 20 30 64 49 42 60
REMARK Flexibility Score: inf
ROOT
ATOM      1  C   UNL A   1      32.295  30.510  26.903  1.00  0.00     0.042 C 
ENDROOT
BRANCH   1   2
ATOM      2  C   UNL A   1      31.738  29.527  25.871  1.00  0.00     0.118 C 
BRANCH   2   3
ATOM      3  N   UNL A   1      32.404  29.656  24.584  1.00  0.00    -0.352 N 
ATOM      4  C   UNL A   1      33.100  28.774  23.795  1.00  0.00     0.251 C 
ATOM      5  O   UNL A   1      33.484  29.202  22.704  1.00  0.00    -0.269 OA
ATOM      6  H   UNL A   1      32.344  30.561  24.202  1.00  0.00     0.163 HD
BRANCH   4   7
ATOM      7  C   UNL A   1      33.440  27.361  24.168  1.00  0.00     0.040 A 
ATOM      8  N   UNL A   1      34.579  23.326  24.757  1.00  0.00    -0.263 N 
ATOM      9  C   UNL A   1      34.198  24.716  24.691  1.00  0.00     0.055 A 
ATOM     10  C   UNL A   1      34.945  22.989  23.319  1.00  0.00     0.101 C 
ATOM     11  C   UNL A   1      33.994  25.564  25.752  1.00  0.00     0.028 A 
ATOM     12  C   UNL A   1      34.032  25.155  23.384  1.00  0.00    -0.021 A 
ATOM     13  C   UNL A   1      34.235  24.031  22.425  1.00  0.00     0.063 C 
ATOM     14  C   UNL A   1      36.472  23.117  23.194  1.00  0.00     0.032 C 
ATOM     15  C   UNL A   1      33.601  26.878  25.479  1.00  0.00     0.016 A 
ATOM     16  C   UNL A   1      33.656  26.463  23.106  1.00  0.00     0.019 A 
BRANCH   8  17
ATOM     17  S   UNL A   1      33.326  22.375  25.475  1.00  0.00     0.264 S 
ATOM     18  O   UNL A   1      32.056  22.926  25.050  1.00  0.00    -0.201 OA
ATOM     19  O   UNL A   1      33.635  22.220  26.886  1.00  0.00    -0.201 OA
BRANCH  17  20
ATOM     20  C   UNL A   1      33.403  20.728  24.804  1.00  0.00     0.088 A 
ATOM     21  C   UNL A   1      33.703  16.585  23.673  1.00  0.00     0.044 C 
ATOM     22  C   UNL A   1      33.612  18.040  24.027  1.00  0.00    -0.051 A 
ATOM     23  C   UNL A   1      34.699  18.685  24.626  1.00  0.00     0.005 A 
ATOM     24  C   UNL A   1      32.451  18.771  23.757  1.00  0.00     0.005 A 
ATOM     25  C   UNL A   1      34.594  20.021  25.017  1.00  0.00     0.022 A 
ATOM     26  C   UNL A   1      32.351  20.114  24.130  1.00  0.00     0.022 A 
ENDBRANCH  17  20
ENDBRANCH   8  17
ENDBRANCH   4   7
ENDBRANCH   2   3
ENDBRANCH   1   2
BRANCH   1  27
ATOM     27  C   UNL A   1      33.714  30.201  27.326  1.00  0.00     0.118 C 
BRANCH  27  28
ATOM     28  N   UNL A   1      34.336  31.259  28.115  1.00  0.00    -0.352 N 
ATOM     29  C   UNL A   1      35.523  31.238  28.829  1.00  0.00     0.251 C 
ATOM     30  H   UNL A   1      33.843  32.110  28.143  1.00  0.00     0.163 HD
ATOM     31  O   UNL A   1      35.875  32.211  29.472  1.00  0.00    -0.269 OA
BRANCH  29  32
ATOM     32  C   UNL A   1      36.429  30.073  28.675  1.00  0.00     0.039 A 
ATOM     33  C   UNL A   1      36.708  29.320  29.820  1.00  0.00     0.014 A 
ATOM     34  C   UNL A   1      37.188  29.912  27.522  1.00  0.00     0.014 A 
ATOM     35  C   UNL A   1      37.909  28.622  29.893  1.00  0.00     0.010 A 
ATOM     36  C   UNL A   1      38.438  29.345  27.641  1.00  0.00     0.010 A 
ATOM     37  C   UNL A   1      38.820  28.755  28.846  1.00  0.00    -0.014 A 
BRANCH  37  38
ATOM     38  C   UNL A   1      40.222  28.383  28.957  1.00  0.00     0.031 A 
ATOM     39  C   UNL A   1      40.676  27.095  28.400  1.00  0.00     0.074 A 
ATOM     40  C   UNL A   1      41.112  29.221  29.534  1.00  0.00     0.049 A 
ATOM     41  N   UNL A   1      41.637  26.397  28.905  1.00  0.00    -0.248 NA
ATOM     42  C   UNL A   1      40.041  26.465  27.246  1.00  0.00     0.031 C 
ATOM     43  C   UNL A   1      42.567  29.093  29.525  1.00  0.00     0.029 A 
ATOM     44  N   UNL A   1      40.872  30.258  30.439  1.00  0.00    -0.354 N 
ATOM     45  C   UNL A   1      41.938  25.418  27.990  1.00  0.00     0.074 A 
ATOM     46  C   UNL A   1      40.865  25.437  27.024  1.00  0.00     0.031 C 
ATOM     47  C   UNL A   1      43.063  29.769  30.574  1.00  0.00     0.029 A 
ATOM     48  C   UNL A   1      41.931  30.237  31.358  1.00  0.00     0.049 A 
ATOM     49  H   UNL A   1      40.108  30.880  30.433  1.00  0.00     0.167 HD
ATOM     50  C   UNL A   1      43.146  24.795  28.028  1.00  0.00     0.031 A 
ATOM     51  C   UNL A   1      41.774  30.057  32.701  1.00  0.00     0.031 A 
ATOM     52  C   UNL A   1      43.990  25.297  29.102  1.00  0.00     0.049 A 
ATOM     53  C   UNL A   1      42.557  28.874  33.226  1.00  0.00     0.074 A 
ATOM     54  C   UNL A   1      45.015  26.231  29.121  1.00  0.00     0.029 A 
ATOM     55  N   UNL A   1      43.620  25.087  30.424  1.00  0.00    -0.354 N 
ATOM     56  N   UNL A   1      42.986  27.899  32.475  1.00  0.00    -0.248 NA
ATOM     57  C   UNL A   1      42.868  28.667  34.638  1.00  0.00     0.031 C 
ATOM     58  C   UNL A   1      45.236  26.611  30.467  1.00  0.00     0.029 A 
ATOM     59  C   UNL A   1      44.362  25.893  31.263  1.00  0.00     0.049 A 
ATOM     60  H   UNL A   1      42.929  24.452  30.720  1.00  0.00     0.167 HD
ATOM     61  C   UNL A   1      43.622  26.965  33.252  1.00  0.00     0.074 A 
ATOM     62  C   UNL A   1      43.517  27.489  34.601  1.00  0.00     0.031 C 
ATOM     63  C   UNL A   1      44.173  25.841  32.706  1.00  0.00     0.031 A 
BRANCH  50  64
ATOM     64  C   UNL A   1      43.648  23.978  26.872  1.00  0.00    -0.014 A 
ATOM     65  C   UNL A   1      44.269  24.617  25.783  1.00  0.00     0.009 A 
ATOM     66  C   UNL A   1      43.495  22.584  26.780  1.00  0.00     0.009 A 
ATOM     67  C   UNL A   1      44.631  23.918  24.627  1.00  0.00     0.001 A 
ATOM     68  C   UNL A   1      43.820  21.886  25.610  1.00  0.00     0.001 A 
ATOM     69  C   UNL A   1      44.380  22.556  24.528  1.00  0.00     0.000 A 
ENDBRANCH  50  64
BRANCH  51  70
ATOM     70  C   UNL A   1      40.454  30.481  33.233  1.00  0.00    -0.014 A 
ATOM     71  C   UNL A   1      40.170  31.857  33.309  1.00  0.00     0.009 A 
ATOM     72  C   UNL A   1      39.389  29.570  33.293  1.00  0.00     0.009 A 
ATOM     73  C   UNL A   1      38.849  32.313  33.338  1.00  0.00     0.001 A 
ATOM     74  C   UNL A   1      38.068  30.032  33.321  1.00  0.00     0.001 A 
ATOM     75  C   UNL A   1      37.798  31.401  33.311  1.00  0.00     0.000 A 
ENDBRANCH  51  70
BRANCH  63  76
ATOM     76  C   UNL A   1      44.677  24.619  33.441  1.00  0.00    -0.014 A 
ATOM     77  C   UNL A   1      45.860  24.567  34.187  1.00  0.00     0.009 A 
ATOM     78  C   UNL A   1      43.850  23.471  33.497  1.00  0.00     0.009 A 
ATOM     79  C   UNL A   1      46.214  23.420  34.916  1.00  0.00     0.001 A 
ATOM     80  C   UNL A   1      44.174  22.346  34.258  1.00  0.00     0.001 A 
ATOM     81  C   UNL A   1      45.367  22.317  34.962  1.00  0.00     0.000 A 
ENDBRANCH  63  76
ENDBRANCH  37  38
ENDBRANCH  29  32
ENDBRANCH  27  28
ENDBRANCH   1  27
TORSDOF 12
ENDMDL
MODEL 3
REMARK VINA RESULT:     -13.2      3.077      8.292
REMARK SMILES Cc1ccc(S(=O)(=O)N2c3ccc(C(=O)NCCCNC(=O)c4ccc(-c5c6nc(c(-c7ccccc7)c7ccc([nH]7)c(-c7ccccc7)c7nc(c(-c8ccccc8)c8ccc5[nH]8)C=C7)C=C6)cc4)cc3C[C@H]2C)cc1
REMARK SMILES IDX 18 1 17 2 16 3 14 4 15 5 13 7 9 8 10 9 74 10 11 11 72 12
REMARK SMILES IDX 73 13 75 14 12 15 71 16 6 17 7 18 8 19 5 20 1 21 2 22 3 23
REMARK SMILES IDX 77 24 4 25 76 26 19 27 20 28 21 29 22 31 23 32 24 33 70 34
REMARK SMILES IDX 25 35 69 36 26 37 27 38 28 39 63 40 29 41 68 42 62 43 64 44
REMARK SMILES IDX 30 45 67 46 61 47 60 48 31 50 53 51 38 52 52 53 39 54 42 55
REMARK SMILES IDX 51 56 65 57 40 58 41 59 50 61 66 62 43 63 32 64 33 65 37 66
REMARK SMILES IDX 34 67 36 68 35 69 54 70 55 71 59 72 56 73 58 74 57 75 44 76
REMARK SMILES IDX 45 77 49 78 46 79 48 80 47 81
REMARK H PARENT 16 6 20 30 64 49 42 60
REMARK Flexibility Score: inf
ROOT
ATOM      1  C   UNL A   1      38.683  21.295  26.109  1.00  0.00     0.042 C 
ENDROOT
BRANCH   1   2
ATOM      2  C   UNL A   1      37.688  22.393  25.730  1.00  0.00     0.118 C 
BRANCH   2   3
ATOM      3  N   UNL A   1      37.451  22.440  24.296  1.00  0.00    -0.352 N 
ATOM      4  C   UNL A   1      36.435  22.954  23.528  1.00  0.00     0.251 C 
ATOM      5  O   UNL A   1      36.584  22.884  22.306  1.00  0.00    -0.269 OA
ATOM      6  H   UNL A   1      38.164  22.014  23.768  1.00  0.00     0.163 HD
BRANCH   4   7
ATOM      7  C   UNL A   1      35.172  23.564  24.060  1.00  0.00     0.040 A 
ATOM      8  N   UNL A   1      31.429  24.819  25.592  1.00  0.00    -0.263 N 
ATOM      9  C   UNL A   1      32.755  24.508  25.117  1.00  0.00     0.055 A 
ATOM     10  C   UNL A   1      30.704  23.484  25.519  1.00  0.00     0.101 C 
ATOM     11  C   UNL A   1      33.866  25.313  25.193  1.00  0.00     0.028 A 
ATOM     12  C   UNL A   1      32.823  23.252  24.527  1.00  0.00    -0.021 A 
ATOM     13  C   UNL A   1      31.475  22.615  24.501  1.00  0.00     0.063 C 
ATOM     14  C   UNL A   1      30.760  22.856  26.921  1.00  0.00     0.032 C 
ATOM     15  C   UNL A   1      35.063  24.837  24.648  1.00  0.00     0.016 A 
ATOM     16  C   UNL A   1      34.012  22.768  23.998  1.00  0.00     0.019 A 
BRANCH   8  17
ATOM     17  S   UNL A   1      30.739  26.120  24.687  1.00  0.00     0.264 S 
ATOM     18  O   UNL A   1      29.299  26.046  24.835  1.00  0.00    -0.201 OA
ATOM     19  O   UNL A   1      31.351  26.124  23.370  1.00  0.00    -0.201 OA
BRANCH  17  20
ATOM     20  C   UNL A   1      31.236  27.660  25.431  1.00  0.00     0.088 A 
ATOM     21  C   UNL A   1      32.885  31.132  27.368  1.00  0.00     0.044 C 
ATOM     22  C   UNL A   1      32.271  29.936  26.703  1.00  0.00    -0.051 A 
ATOM     23  C   UNL A   1      32.086  28.751  27.423  1.00  0.00     0.005 A 
ATOM     24  C   UNL A   1      31.865  29.990  25.366  1.00  0.00     0.005 A 
ATOM     25  C   UNL A   1      31.577  27.616  26.789  1.00  0.00     0.022 A 
ATOM     26  C   UNL A   1      31.336  28.861  24.735  1.00  0.00     0.022 A 
ENDBRANCH  17  20
ENDBRANCH   8  17
ENDBRANCH   4   7
ENDBRANCH   2   3
ENDBRANCH   1   2
BRANCH   1  27
ATOM     27  C   UNL A   1      40.121  21.763  26.128  1.00  0.00     0.118 C 
BRANCH  27  28
ATOM     28  N   UNL A   1      41.077  20.748  25.699  1.00  0.00    -0.352 N 
ATOM     29  C   UNL A   1      42.449  20.697  25.891  1.00  0.00     0.251 C 
ATOM     30  H   UNL A   1      40.693  19.990  25.204  1.00  0.00     0.163 HD
ATOM     31  O   UNL A   1      43.105  19.783  25.424  1.00  0.00    -0.269 OA
BRANCH  29  32
ATOM     32  C   UNL A   1      43.080  21.685  26.799  1.00  0.00     0.039 A 
ATOM     33  C   UNL A   1      42.750  21.614  28.157  1.00  0.00     0.014 A 
ATOM     34  C   UNL A   1      43.733  22.801  26.290  1.00  0.00     0.014 A 
ATOM     35  C   UNL A   1      42.823  22.767  28.931  1.00  0.00     0.010 A 
ATOM     36  C   UNL A   1      43.672  23.975  27.008  1.00  0.00     0.010 A 
ATOM     37  C   UNL A   1      43.159  23.967  28.306  1.00  0.00    -0.014 A 
BRANCH  37  38
ATOM     38  C   UNL A   1      42.924  25.271  28.906  1.00  0.00     0.031 A 
ATOM     39  C   UNL A   1      41.722  26.037  28.530  1.00  0.00     0.074 A 
ATOM     40  C   UNL A   1      43.781  25.768  29.828  1.00  0.00     0.049 A 
ATOM     41  N   UNL A   1      41.680  27.326  28.483  1.00  0.00    -0.248 NA
ATOM     42  C   UNL A   1      40.473  25.398  28.126  1.00  0.00     0.031 C 
ATOM     43  C   UNL A   1      43.574  26.943  30.671  1.00  0.00     0.029 A 
ATOM     44  N   UNL A   1      45.120  25.432  30.041  1.00  0.00    -0.354 N 
ATOM     45  C   UNL A   1      40.359  27.676  28.351  1.00  0.00     0.074 A 
ATOM     46  C   UNL A   1      39.657  26.453  28.037  1.00  0.00     0.031 C 
ATOM     47  C   UNL A   1      44.773  27.410  31.056  1.00  0.00     0.029 A 
ATOM     48  C   UNL A   1      45.783  26.626  30.363  1.00  0.00     0.049 A 
ATOM     49  H   UNL A   1      45.520  24.534  29.978  1.00  0.00     0.167 HD
ATOM     50  C   UNL A   1      39.945  28.927  28.684  1.00  0.00     0.031 A 
ATOM     51  C   UNL A   1      46.822  27.140  29.645  1.00  0.00     0.031 A 
ATOM     52  C   UNL A   1      41.040  29.757  29.165  1.00  0.00     0.049 A 
ATOM     53  C   UNL A   1      46.552  28.543  29.149  1.00  0.00     0.074 A 
ATOM     54  C   UNL A   1      41.469  30.083  30.442  1.00  0.00     0.029 A 
ATOM     55  N   UNL A   1      42.065  30.114  28.299  1.00  0.00    -0.354 N 
ATOM     56  N   UNL A   1      45.358  29.054  29.039  1.00  0.00    -0.248 NA
ATOM     57  C   UNL A   1      47.593  29.457  28.686  1.00  0.00     0.031 C 
ATOM     58  C   UNL A   1      42.781  30.608  30.343  1.00  0.00     0.029 A 
ATOM     59  C   UNL A   1      43.136  30.619  29.007  1.00  0.00     0.049 A 
ATOM     60  H   UNL A   1      42.031  30.022  27.320  1.00  0.00     0.167 HD
ATOM     61  C   UNL A   1      45.446  30.323  28.526  1.00  0.00     0.074 A 
ATOM     62  C   UNL A   1      46.866  30.527  28.315  1.00  0.00     0.031 C 
ATOM     63  C   UNL A   1      44.332  31.085  28.318  1.00  0.00     0.031 A 
BRANCH  50  64
ATOM     64  C   UNL A   1      38.491  29.251  28.879  1.00  0.00    -0.014 A 
ATOM     65  C   UNL A   1      37.729  29.715  27.792  1.00  0.00     0.009 A 
ATOM     66  C   UNL A   1      37.835  29.164  30.118  1.00  0.00     0.009 A 
ATOM     67  C   UNL A   1      36.411  30.156  27.951  1.00  0.00     0.001 A 
ATOM     68  C   UNL A   1      36.529  29.641  30.291  1.00  0.00     0.001 A 
ATOM     69  C   UNL A   1      35.820  30.147  29.207  1.00  0.00     0.000 A 
ENDBRANCH  50  64
BRANCH  51  70
ATOM     70  C   UNL A   1      47.615  26.133  28.894  1.00  0.00    -0.014 A 
ATOM     71  C   UNL A   1      47.361  25.966  27.520  1.00  0.00     0.009 A 
ATOM     72  C   UNL A   1      48.822  25.647  29.418  1.00  0.00     0.009 A 
ATOM     73  C   UNL A   1      48.332  25.422  26.674  1.00  0.00     0.001 A 
ATOM     74  C   UNL A   1      49.792  25.105  28.567  1.00  0.00     0.001 A 
ATOM     75  C   UNL A   1      49.560  25.022  27.194  1.00  0.00     0.000 A 
ENDBRANCH  51  70
BRANCH  63  76
ATOM     76  C   UNL A   1      44.241  32.379  27.540  1.00  0.00    -0.014 A 
ATOM     77  C   UNL A   1      44.394  32.491  26.154  1.00  0.00     0.009 A 
ATOM     78  C   UNL A   1      43.850  33.556  28.223  1.00  0.00     0.009 A 
ATOM     79  C   UNL A   1      44.206  33.715  25.493  1.00  0.00     0.001 A 
ATOM     80  C   UNL A   1      43.614  34.765  27.566  1.00  0.00     0.001 A 
ATOM     81  C   UNL A   1      43.804  34.847  26.196  1.00  0.00     0.000 A 
ENDBRANCH  63  76
ENDBRANCH  37  38
ENDBRANCH  29  32
ENDBRANCH  27  28
ENDBRANCH   1  27
TORSDOF 12
ENDMDL
