MODEL 1
REMARK VINA RESULT:      -9.9      0.000      0.000
REMARK SMILES Cc1nonc1-c1noc(CCC(=O)NCCCNC(=O)c2ccc(-c3c4nc(c(-c5ccccc5)c5ccc([nH]5)c(-c5ccccc5)c5nc(c(-c6ccccc6)c6ccc3[nH]6)C=C5)C=C4)cc2)n1
REMARK SMILES IDX 16 1 15 2 13 3 14 4 12 6 11 7 10 8 7 9 8 10 70 11 9 12 6 13
REMARK SMILES IDX 1 14 2 15 3 16 4 17 5 18 17 19 18 20 19 21 20 22 21 24 22 25
REMARK SMILES IDX 23 26 69 27 24 28 68 29 25 30 26 31 27 32 62 33 28 34 67 35
REMARK SMILES IDX 61 36 63 37 29 38 66 39 60 40 59 41 30 43 52 44 37 45 51 46
REMARK SMILES IDX 38 47 41 48 50 49 64 50 39 51 40 52 49 54 65 55 42 56 31 57
REMARK SMILES IDX 32 58 36 59 33 60 35 61 34 62 53 63 54 64 58 65 55 66 57 67
REMARK SMILES IDX 56 68 43 69 44 70 48 71 45 72 47 73 46 74
REMARK H PARENT 15 5 19 23 63 42 41 53
REMARK Flexibility Score: inf
ROOT
ATOM      1  C   UNL A   1      33.660  36.737  32.001  1.00  0.00     0.117 C 
ENDROOT
BRANCH   1   2
ATOM      2  N   UNL A   1      33.229  35.419  32.442  1.00  0.00    -0.356 N 
ATOM      3  C   UNL A   1      33.943  34.387  32.963  1.00  0.00     0.220 C 
ATOM      4  O   UNL A   1      33.368  33.310  33.137  1.00  0.00    -0.275 OA
ATOM      5  H   UNL A   1      32.264  35.248  32.348  1.00  0.00     0.163 HD
BRANCH   3   6
ATOM      6  C   UNL A   1      35.404  34.541  33.309  1.00  0.00     0.110 C 
BRANCH   6   7
ATOM      7  C   UNL A   1      35.660  34.217  34.775  1.00  0.00     0.110 C 
BRANCH   7   8
ATOM      8  C   UNL A   1      36.571  33.062  34.954  1.00  0.00     0.227 A 
ATOM      9  C   UNL A   1      37.897  31.444  34.819  1.00  0.00     0.226 A 
ATOM     10  N   UNL A   1      37.856  31.701  36.134  1.00  0.00    -0.055 NA
ATOM     11  N   UNL A   1      37.098  32.264  34.055  1.00  0.00    -0.190 NA
ATOM     12  O   UNL A   1      36.976  32.781  36.227  1.00  0.00    -0.339 OA
BRANCH   9  13
ATOM     13  C   UNL A   1      38.665  30.364  34.202  1.00  0.00     0.178 A 
ATOM     14  C   UNL A   1      36.979  29.443  32.402  1.00  0.00     0.073 C 
ATOM     15  C   UNL A   1      38.252  29.528  33.148  1.00  0.00     0.113 A 
ATOM     16  N   UNL A   1      39.242  28.675  32.857  1.00  0.00    -0.054 NA
ATOM     17  O   UNL A   1      40.264  28.984  33.746  1.00  0.00    -0.244 OA
ATOM     18  N   UNL A   1      39.900  30.029  34.587  1.00  0.00    -0.046 NA
ENDBRANCH   9  13
ENDBRANCH   7   8
ENDBRANCH   6   7
ENDBRANCH   3   6
ENDBRANCH   1   2
BRANCH   1  19
ATOM     19  C   UNL A   1      32.932  37.155  30.726  1.00  0.00     0.042 C 
BRANCH  19  20
ATOM     20  C   UNL A   1      33.589  36.649  29.446  1.00  0.00     0.118 C 
BRANCH  20  21
ATOM     21  N   UNL A   1      32.789  35.632  28.783  1.00  0.00    -0.352 N 
ATOM     22  C   UNL A   1      33.118  34.382  28.326  1.00  0.00     0.251 C 
ATOM     23  H   UNL A   1      31.849  35.886  28.635  1.00  0.00     0.163 HD
ATOM     24  O   UNL A   1      32.318  33.793  27.595  1.00  0.00    -0.269 OA
BRANCH  22  25
ATOM     25  C   UNL A   1      34.396  33.715  28.678  1.00  0.00     0.039 A 
ATOM     26  C   UNL A   1      34.408  32.847  29.776  1.00  0.00     0.014 A 
ATOM     27  C   UNL A   1      35.597  34.002  28.025  1.00  0.00     0.014 A 
ATOM     28  C   UNL A   1      35.605  32.256  30.199  1.00  0.00     0.010 A 
ATOM     29  C   UNL A   1      36.776  33.350  28.394  1.00  0.00     0.010 A 
ATOM     30  C   UNL A   1      36.800  32.491  29.502  1.00  0.00    -0.014 A 
BRANCH  30  31
ATOM     31  C   UNL A   1      38.080  31.885  29.957  1.00  0.00     0.031 A 
ATOM     32  C   UNL A   1      38.916  32.562  31.013  1.00  0.00     0.074 A 
ATOM     33  C   UNL A   1      38.511  30.731  29.413  1.00  0.00     0.049 A 
ATOM     34  N   UNL A   1      40.058  32.182  31.533  1.00  0.00    -0.248 NA
ATOM     35  C   UNL A   1      38.418  33.844  31.536  1.00  0.00     0.031 C 
ATOM     36  C   UNL A   1      37.825  29.978  28.362  1.00  0.00     0.029 A 
ATOM     37  N   UNL A   1      39.629  29.981  29.684  1.00  0.00    -0.354 N 
ATOM     38  C   UNL A   1      40.426  33.190  32.416  1.00  0.00     0.074 A 
ATOM     39  C   UNL A   1      39.407  34.213  32.336  1.00  0.00     0.031 C 
ATOM     40  C   UNL A   1      38.511  28.851  28.112  1.00  0.00     0.029 A 
ATOM     41  C   UNL A   1      39.697  28.815  28.962  1.00  0.00     0.049 A 
ATOM     42  H   UNL A   1      40.318  30.255  30.333  1.00  0.00     0.167 HD
ATOM     43  C   UNL A   1      41.503  33.257  33.237  1.00  0.00     0.031 A 
ATOM     44  C   UNL A   1      40.601  27.820  28.991  1.00  0.00     0.031 A 
ATOM     45  C   UNL A   1      42.503  32.231  33.357  1.00  0.00     0.049 A 
ATOM     46  C   UNL A   1      41.771  27.900  29.928  1.00  0.00     0.074 A 
ATOM     47  C   UNL A   1      43.592  32.182  34.212  1.00  0.00     0.029 A 
ATOM     48  N   UNL A   1      42.533  31.069  32.605  1.00  0.00    -0.354 N 
ATOM     49  N   UNL A   1      42.078  28.838  30.788  1.00  0.00    -0.248 NA
ATOM     50  C   UNL A   1      42.714  26.772  29.901  1.00  0.00     0.031 C 
ATOM     51  C   UNL A   1      44.298  31.001  33.955  1.00  0.00     0.029 A 
ATOM     52  C   UNL A   1      43.629  30.301  32.964  1.00  0.00     0.049 A 
ATOM     53  H   UNL A   1      41.872  30.824  31.917  1.00  0.00     0.167 HD
ATOM     54  C   UNL A   1      43.237  28.408  31.418  1.00  0.00     0.074 A 
ATOM     55  C   UNL A   1      43.572  27.119  30.850  1.00  0.00     0.031 C 
ATOM     56  C   UNL A   1      43.958  29.026  32.385  1.00  0.00     0.031 A 
BRANCH  43  57
ATOM     57  C   UNL A   1      41.652  34.501  34.066  1.00  0.00    -0.014 A 
ATOM     58  C   UNL A   1      42.399  35.597  33.605  1.00  0.00     0.009 A 
ATOM     59  C   UNL A   1      41.034  34.578  35.324  1.00  0.00     0.009 A 
ATOM     60  C   UNL A   1      42.560  36.728  34.408  1.00  0.00     0.001 A 
ATOM     61  C   UNL A   1      41.176  35.721  36.112  1.00  0.00     0.001 A 
ATOM     62  C   UNL A   1      41.949  36.790  35.660  1.00  0.00     0.000 A 
ENDBRANCH  43  57
BRANCH  44  63
ATOM     63  C   UNL A   1      40.405  26.625  28.134  1.00  0.00    -0.014 A 
ATOM     64  C   UNL A   1      41.042  26.545  26.887  1.00  0.00     0.009 A 
ATOM     65  C   UNL A   1      39.597  25.561  28.559  1.00  0.00     0.009 A 
ATOM     66  C   UNL A   1      40.862  25.425  26.073  1.00  0.00     0.001 A 
ATOM     67  C   UNL A   1      39.434  24.435  27.750  1.00  0.00     0.001 A 
ATOM     68  C   UNL A   1      40.063  24.369  26.507  1.00  0.00     0.000 A 
ENDBRANCH  44  63
BRANCH  56  69
ATOM     69  C   UNL A   1      45.169  28.303  32.898  1.00  0.00    -0.014 A 
ATOM     70  C   UNL A   1      46.430  28.502  32.315  1.00  0.00     0.009 A 
ATOM     71  C   UNL A   1      45.048  27.422  33.983  1.00  0.00     0.009 A 
ATOM     72  C   UNL A   1      47.543  27.805  32.791  1.00  0.00     0.001 A 
ATOM     73  C   UNL A   1      46.165  26.743  34.469  1.00  0.00     0.001 A 
ATOM     74  C   UNL A   1      47.410  26.928  33.868  1.00  0.00     0.000 A 
ENDBRANCH  56  69
ENDBRANCH  30  31
ENDBRANCH  22  25
ENDBRANCH  20  21
ENDBRANCH  19  20
ENDBRANCH   1  19
TORSDOF 13
ENDMDL
MODEL 2
REMARK VINA RESULT:      -8.7      4.656      7.767
REMARK SMILES Cc1nonc1-c1noc(CCC(=O)NCCCNC(=O)c2ccc(-c3c4nc(c(-c5ccccc5)c5ccc([nH]5)c(-c5ccccc5)c5nc(c(-c6ccccc6)c6ccc3[nH]6)C=C5)C=C4)cc2)n1
REMARK SMILES IDX 16 1 15 2 13 3 14 4 12 6 11 7 10 8 7 9 8 10 70 11 9 12 6 13
REMARK SMILES IDX 1 14 2 15 3 16 4 17 5 18 17 19 18 20 19 21 20 22 21 24 22 25
REMARK SMILES IDX 23 26 69 27 24 28 68 29 25 30 26 31 27 32 62 33 28 34 67 35
REMARK SMILES IDX 61 36 63 37 29 38 66 39 60 40 59 41 30 43 52 44 37 45 51 46
REMARK SMILES IDX 38 47 41 48 50 49 64 50 39 51 40 52 49 54 65 55 42 56 31 57
REMARK SMILES IDX 32 58 36 59 33 60 35 61 34 62 53 63 54 64 58 65 55 66 57 67
REMARK SMILES IDX 56 68 43 69 44 70 48 71 45 72 47 73 46 74
REMARK H PARENT 15 5 19 23 63 42 41 53
REMARK Flexibility Score: inf
ROOT
ATOM      1  C   UNL A   1      31.558  28.374  27.152  1.00  0.00     0.117 C 
ENDROOT
BRANCH   1   2
ATOM      2  N   UNL A   1      31.051  27.010  27.111  1.00  0.00    -0.356 N 
ATOM      3  C   UNL A   1      30.655  26.248  26.059  1.00  0.00     0.220 C 
ATOM      4  O   UNL A   1      30.133  25.156  26.293  1.00  0.00    -0.275 OA
ATOM      5  H   UNL A   1      30.987  26.567  27.988  1.00  0.00     0.163 HD
BRANCH   3   6
ATOM      6  C   UNL A   1      30.833  26.723  24.637  1.00  0.00     0.110 C 
BRANCH   6   7
ATOM      7  C   UNL A   1      29.490  27.017  23.981  1.00  0.00     0.110 C 
BRANCH   7   8
ATOM      8  C   UNL A   1      29.488  28.296  23.232  1.00  0.00     0.227 A 
ATOM      9  C   UNL A   1      29.311  30.248  22.489  1.00  0.00     0.226 A 
ATOM     10  N   UNL A   1      30.136  29.658  21.613  1.00  0.00    -0.055 NA
ATOM     11  N   UNL A   1      28.878  29.426  23.503  1.00  0.00    -0.190 NA
ATOM     12  O   UNL A   1      30.259  28.357  22.107  1.00  0.00    -0.339 OA
BRANCH   9  13
ATOM     13  C   UNL A   1      28.839  31.628  22.394  1.00  0.00     0.178 A 
ATOM     14  C   UNL A   1      27.837  31.705  19.961  1.00  0.00     0.073 C 
ATOM     15  C   UNL A   1      28.190  32.227  21.299  1.00  0.00     0.113 A 
ATOM     16  N   UNL A   1      27.905  33.499  21.604  1.00  0.00    -0.054 NA
ATOM     17  O   UNL A   1      28.393  33.683  22.892  1.00  0.00    -0.244 OA
ATOM     18  N   UNL A   1      28.981  32.522  23.378  1.00  0.00    -0.046 NA
ENDBRANCH   9  13
ENDBRANCH   7   8
ENDBRANCH   6   7
ENDBRANCH   3   6
ENDBRANCH   1   2
BRANCH   1  19
ATOM     19  C   UNL A   1      33.049  28.396  27.473  1.00  0.00     0.042 C 
BRANCH  19  20
ATOM     20  C   UNL A   1      33.863  29.307  26.559  1.00  0.00     0.118 C 
BRANCH  20  21
ATOM     21  N   UNL A   1      33.810  30.698  26.980  1.00  0.00    -0.352 N 
ATOM     22  C   UNL A   1      34.550  31.390  27.904  1.00  0.00     0.251 C 
ATOM     23  H   UNL A   1      33.123  31.235  26.523  1.00  0.00     0.163 HD
ATOM     24  O   UNL A   1      34.166  32.511  28.244  1.00  0.00    -0.269 OA
BRANCH  22  25
ATOM     25  C   UNL A   1      35.790  30.841  28.505  1.00  0.00     0.039 A 
ATOM     26  C   UNL A   1      37.013  31.416  28.140  1.00  0.00     0.014 A 
ATOM     27  C   UNL A   1      35.788  29.714  29.331  1.00  0.00     0.014 A 
ATOM     28  C   UNL A   1      38.216  30.883  28.616  1.00  0.00     0.010 A 
ATOM     29  C   UNL A   1      36.982  29.231  29.872  1.00  0.00     0.010 A 
ATOM     30  C   UNL A   1      38.212  29.792  29.500  1.00  0.00    -0.014 A 
BRANCH  30  31
ATOM     31  C   UNL A   1      39.487  29.205  29.992  1.00  0.00     0.031 A 
ATOM     32  C   UNL A   1      40.151  29.745  31.233  1.00  0.00     0.074 A 
ATOM     33  C   UNL A   1      40.069  28.194  29.318  1.00  0.00     0.049 A 
ATOM     34  N   UNL A   1      41.263  29.360  31.810  1.00  0.00    -0.248 NA
ATOM     35  C   UNL A   1      39.494  30.880  31.899  1.00  0.00     0.031 C 
ATOM     36  C   UNL A   1      39.559  27.589  28.087  1.00  0.00     0.029 A 
ATOM     37  N   UNL A   1      41.215  27.487  29.587  1.00  0.00    -0.354 N 
ATOM     38  C   UNL A   1      41.453  30.223  32.882  1.00  0.00     0.074 A 
ATOM     39  C   UNL A   1      40.362  31.173  32.856  1.00  0.00     0.031 C 
ATOM     40  C   UNL A   1      40.362  26.571  27.735  1.00  0.00     0.029 A 
ATOM     41  C   UNL A   1      41.455  26.470  28.697  1.00  0.00     0.049 A 
ATOM     42  H   UNL A   1      41.808  27.691  30.347  1.00  0.00     0.167 HD
ATOM     43  C   UNL A   1      42.431  30.220  33.820  1.00  0.00     0.031 A 
ATOM     44  C   UNL A   1      42.435  25.549  28.664  1.00  0.00     0.031 A 
ATOM     45  C   UNL A   1      43.500  29.259  33.883  1.00  0.00     0.049 A 
ATOM     46  C   UNL A   1      43.493  25.545  29.729  1.00  0.00     0.074 A 
ATOM     47  C   UNL A   1      44.497  29.138  34.837  1.00  0.00     0.029 A 
ATOM     48  N   UNL A   1      43.705  28.249  32.959  1.00  0.00    -0.354 N 
ATOM     49  N   UNL A   1      43.629  26.340  30.760  1.00  0.00    -0.248 NA
ATOM     50  C   UNL A   1      44.528  24.506  29.624  1.00  0.00     0.031 C 
ATOM     51  C   UNL A   1      45.325  28.070  34.471  1.00  0.00     0.029 A 
ATOM     52  C   UNL A   1      44.822  27.507  33.309  1.00  0.00     0.049 A 
ATOM     53  H   UNL A   1      43.141  28.082  32.169  1.00  0.00     0.167 HD
ATOM     54  C   UNL A   1      44.752  25.888  31.439  1.00  0.00     0.074 A 
ATOM     55  C   UNL A   1      45.253  24.741  30.709  1.00  0.00     0.031 C 
ATOM     56  C   UNL A   1      45.316  26.377  32.569  1.00  0.00     0.031 A 
BRANCH  43  57
ATOM     57  C   UNL A   1      42.388  31.310  34.854  1.00  0.00    -0.014 A 
ATOM     58  C   UNL A   1      43.019  32.545  34.635  1.00  0.00     0.009 A 
ATOM     59  C   UNL A   1      41.706  31.098  36.061  1.00  0.00     0.009 A 
ATOM     60  C   UNL A   1      43.003  33.530  35.624  1.00  0.00     0.001 A 
ATOM     61  C   UNL A   1      41.670  32.094  37.038  1.00  0.00     0.001 A 
ATOM     62  C   UNL A   1      42.328  33.305  36.824  1.00  0.00     0.000 A 
ENDBRANCH  43  57
BRANCH  44  63
ATOM     63  C   UNL A   1      42.429  24.510  27.606  1.00  0.00    -0.014 A 
ATOM     64  C   UNL A   1      43.257  24.649  26.482  1.00  0.00     0.009 A 
ATOM     65  C   UNL A   1      41.614  23.374  27.718  1.00  0.00     0.009 A 
ATOM     66  C   UNL A   1      43.257  23.677  25.481  1.00  0.00     0.001 A 
ATOM     67  C   UNL A   1      41.631  22.395  26.723  1.00  0.00     0.001 A 
ATOM     68  C   UNL A   1      42.449  22.548  25.604  1.00  0.00     0.000 A 
ENDBRANCH  44  63
BRANCH  56  69
ATOM     69  C   UNL A   1      46.527  25.661  33.091  1.00  0.00    -0.014 A 
ATOM     70  C   UNL A   1      46.406  24.452  33.793  1.00  0.00     0.009 A 
ATOM     71  C   UNL A   1      47.805  26.196  32.866  1.00  0.00     0.009 A 
ATOM     72  C   UNL A   1      47.542  23.809  34.290  1.00  0.00     0.001 A 
ATOM     73  C   UNL A   1      48.939  25.540  33.346  1.00  0.00     0.001 A 
ATOM     74  C   UNL A   1      48.807  24.353  34.064  1.00  0.00     0.000 A 
ENDBRANCH  56  69
ENDBRANCH  30  31
ENDBRANCH  22  25
ENDBRANCH  20  21
ENDBRANCH  19  20
ENDBRANCH   1  19
TORSDOF 13
ENDMDL
MODEL 3
REMARK VINA RESULT:      -8.7      4.677      9.856
REMARK SMILES Cc1nonc1-c1noc(CCC(=O)NCCCNC(=O)c2ccc(-c3c4nc(c(-c5ccccc5)c5ccc([nH]5)c(-c5ccccc5)c5nc(c(-c6ccccc6)c6ccc3[nH]6)C=C5)C=C4)cc2)n1
REMARK SMILES IDX 16 1 15 2 13 3 14 4 12 6 11 7 10 8 7 9 8 10 70 11 9 12 6 13
REMARK SMILES IDX 1 14 2 15 3 16 4 17 5 18 17 19 18 20 19 21 20 22 21 24 22 25
REMARK SMILES IDX 23 26 69 27 24 28 68 29 25 30 26 31 27 32 62 33 28 34 67 35
REMARK SMILES IDX 61 36 63 37 29 38 66 39 60 40 59 41 30 43 52 44 37 45 51 46
REMARK SMILES IDX 38 47 41 48 50 49 64 50 39 51 40 52 49 54 65 55 42 56 31 57
REMARK SMILES IDX 32 58 36 59 33 60 35 61 34 62 53 63 54 64 58 65 55 66 57 67
REMARK SMILES IDX 56 68 43 69 44 70 48 71 45 72 47 73 46 74
REMARK H PARENT 15 5 19 23 63 42 41 53
REMARK Flexibility Score: inf
ROOT
ATOM      1  C   UNL A   1      31.673  28.340  26.957  1.00  0.00     0.117 C 
ENDROOT
BRANCH   1   2
ATOM      2  N   UNL A   1      31.036  27.031  26.972  1.00  0.00    -0.356 N 
ATOM      3  C   UNL A   1      30.537  26.282  25.954  1.00  0.00     0.220 C 
ATOM      4  O   UNL A   1      29.919  25.253  26.236  1.00  0.00    -0.275 OA
ATOM      5  H   UNL A   1      30.955  26.622  27.864  1.00  0.00     0.163 HD
BRANCH   3   6
ATOM      6  C   UNL A   1      30.718  26.697  24.514  1.00  0.00     0.110 C 
BRANCH   6   7
ATOM      7  C   UNL A   1      29.383  27.043  23.868  1.00  0.00     0.110 C 
BRANCH   7   8
ATOM      8  C   UNL A   1      29.420  28.330  23.134  1.00  0.00     0.227 A 
ATOM      9  C   UNL A   1      29.267  30.288  22.400  1.00  0.00     0.226 A 
ATOM     10  N   UNL A   1      30.179  29.725  21.594  1.00  0.00    -0.055 NA
ATOM     11  N   UNL A   1      28.763  29.444  23.363  1.00  0.00    -0.190 NA
ATOM     12  O   UNL A   1      30.286  28.421  22.083  1.00  0.00    -0.339 OA
BRANCH   9  13
ATOM     13  C   UNL A   1      28.776  31.659  22.278  1.00  0.00     0.178 A 
ATOM     14  C   UNL A   1      27.743  31.664  19.856  1.00  0.00     0.073 C 
ATOM     15  C   UNL A   1      28.105  32.222  21.177  1.00  0.00     0.113 A 
ATOM     16  N   UNL A   1      27.807  33.497  21.456  1.00  0.00    -0.054 NA
ATOM     17  O   UNL A   1      28.307  33.719  22.733  1.00  0.00    -0.244 OA
ATOM     18  N   UNL A   1      28.917  32.577  23.239  1.00  0.00    -0.046 NA
ENDBRANCH   9  13
ENDBRANCH   7   8
ENDBRANCH   6   7
ENDBRANCH   3   6
ENDBRANCH   1   2
BRANCH   1  19
ATOM     19  C   UNL A   1      33.165  28.228  27.256  1.00  0.00     0.042 C 
BRANCH  19  20
ATOM     20  C   UNL A   1      34.033  29.167  26.426  1.00  0.00     0.118 C 
BRANCH  20  21
ATOM     21  N   UNL A   1      33.904  30.552  26.848  1.00  0.00    -0.352 N 
ATOM     22  C   UNL A   1      34.569  31.268  27.810  1.00  0.00     0.251 C 
ATOM     23  H   UNL A   1      33.220  31.065  26.359  1.00  0.00     0.163 HD
ATOM     24  O   UNL A   1      34.125  32.372  28.134  1.00  0.00    -0.269 OA
BRANCH  22  25
ATOM     25  C   UNL A   1      35.798  30.765  28.471  1.00  0.00     0.039 A 
ATOM     26  C   UNL A   1      37.029  31.306  28.080  1.00  0.00     0.014 A 
ATOM     27  C   UNL A   1      35.780  29.706  29.383  1.00  0.00     0.014 A 
ATOM     28  C   UNL A   1      38.223  30.808  28.614  1.00  0.00     0.010 A 
ATOM     29  C   UNL A   1      36.964  29.264  29.977  1.00  0.00     0.010 A 
ATOM     30  C   UNL A   1      38.202  29.790  29.581  1.00  0.00    -0.014 A 
BRANCH  30  31
ATOM     31  C   UNL A   1      39.467  29.241  30.137  1.00  0.00     0.031 A 
ATOM     32  C   UNL A   1      40.169  28.094  29.456  1.00  0.00     0.074 A 
ATOM     33  C   UNL A   1      39.986  29.756  31.269  1.00  0.00     0.049 A 
ATOM     34  N   UNL A   1      41.280  27.485  29.796  1.00  0.00    -0.248 NA
ATOM     35  C   UNL A   1      39.530  27.543  28.252  1.00  0.00     0.031 C 
ATOM     36  C   UNL A   1      39.403  30.845  32.052  1.00  0.00     0.029 A 
ATOM     37  N   UNL A   1      41.136  29.435  31.947  1.00  0.00    -0.354 N 
ATOM     38  C   UNL A   1      41.452  26.465  28.869  1.00  0.00     0.074 A 
ATOM     39  C   UNL A   1      40.316  26.513  27.975  1.00  0.00     0.031 C 
ATOM     40  C   UNL A   1      40.222  31.135  33.076  1.00  0.00     0.029 A 
ATOM     41  C   UNL A   1      41.370  30.235  33.038  1.00  0.00     0.049 A 
ATOM     42  H   UNL A   1      41.734  28.700  31.678  1.00  0.00     0.167 HD
ATOM     43  C   UNL A   1      42.469  25.577  28.754  1.00  0.00     0.031 A 
ATOM     44  C   UNL A   1      42.401  30.255  33.903  1.00  0.00     0.031 A 
ATOM     45  C   UNL A   1      43.624  25.541  29.610  1.00  0.00     0.049 A 
ATOM     46  C   UNL A   1      43.532  29.282  33.739  1.00  0.00     0.074 A 
ATOM     47  C   UNL A   1      44.737  24.721  29.526  1.00  0.00     0.029 A 
ATOM     48  N   UNL A   1      43.819  26.368  30.703  1.00  0.00    -0.354 N 
ATOM     49  N   UNL A   1      43.700  28.355  32.830  1.00  0.00    -0.248 NA
ATOM     50  C   UNL A   1      44.622  29.369  34.723  1.00  0.00     0.031 C 
ATOM     51  C   UNL A   1      45.592  25.033  30.590  1.00  0.00     0.029 A 
ATOM     52  C   UNL A   1      45.026  26.070  31.313  1.00  0.00     0.049 A 
ATOM     53  H   UNL A   1      43.191  27.066  31.003  1.00  0.00     0.167 HD
ATOM     54  C   UNL A   1      44.920  27.761  33.118  1.00  0.00     0.074 A 
ATOM     55  C   UNL A   1      45.457  28.439  34.280  1.00  0.00     0.031 C 
ATOM     56  C   UNL A   1      45.543  26.744  32.474  1.00  0.00     0.031 A 
BRANCH  43  57
ATOM     57  C   UNL A   1      42.364  24.558  27.654  1.00  0.00    -0.014 A 
ATOM     58  C   UNL A   1      41.686  23.344  27.850  1.00  0.00     0.009 A 
ATOM     59  C   UNL A   1      42.948  24.818  26.405  1.00  0.00     0.009 A 
ATOM     60  C   UNL A   1      41.634  22.392  26.830  1.00  0.00     0.001 A 
ATOM     61  C   UNL A   1      42.872  23.875  25.379  1.00  0.00     0.001 A 
ATOM     62  C   UNL A   1      42.226  22.659  25.595  1.00  0.00     0.000 A 
ENDBRANCH  43  57
BRANCH  44  63
ATOM     63  C   UNL A   1      42.437  31.276  34.977  1.00  0.00    -0.014 A 
ATOM     64  C   UNL A   1      41.888  30.989  36.236  1.00  0.00     0.009 A 
ATOM     65  C   UNL A   1      43.028  32.530  34.759  1.00  0.00     0.009 A 
ATOM     66  C   UNL A   1      41.917  31.944  37.253  1.00  0.00     0.001 A 
ATOM     67  C   UNL A   1      43.070  33.476  35.784  1.00  0.00     0.001 A 
ATOM     68  C   UNL A   1      42.511  33.185  37.029  1.00  0.00     0.000 A 
ENDBRANCH  44  63
BRANCH  56  69
ATOM     69  C   UNL A   1      46.881  26.320  33.005  1.00  0.00    -0.014 A 
ATOM     70  C   UNL A   1      48.063  26.926  32.554  1.00  0.00     0.009 A 
ATOM     71  C   UNL A   1      46.958  25.311  33.978  1.00  0.00     0.009 A 
ATOM     72  C   UNL A   1      49.302  26.505  33.044  1.00  0.00     0.001 A 
ATOM     73  C   UNL A   1      48.195  24.907  34.479  1.00  0.00     0.001 A 
ATOM     74  C   UNL A   1      49.366  25.498  34.006  1.00  0.00     0.000 A 
ENDBRANCH  56  69
ENDBRANCH  30  31
ENDBRANCH  22  25
ENDBRANCH  20  21
ENDBRANCH  19  20
ENDBRANCH   1  19
TORSDOF 13
ENDMDL
