MODEL 1
REMARK VINA RESULT:     -12.2      0.000      0.000
REMARK SMILES O=C(NCCCNC(=O)c1ccc(-c2c3nc(c(-c4ccccc4)c4ccc([nH]4)c(-c4ccccc4)c4nc(c(-c5ccccc5)c5ccc2[nH]5)C=C4)C=C3)cc1)C1=Cc2c(ccc(Cl)c2-c2ccccc2)O[C@H]1C(F)(F)F
REMARK SMILES IDX 5 1 4 2 3 3 1 4 2 5 58 7 59 8 74 9 60 10 73 11 61 12 66 13
REMARK SMILES IDX 62 14 64 15 63 16 65 17 75 18 76 19 77 20 78 21 67 22 68 23
REMARK SMILES IDX 72 24 69 25 71 26 70 27 6 28 7 29 8 30 9 32 10 33 11 34
REMARK SMILES IDX 57 35 12 36 56 37 13 38 14 39 15 40 50 41 16 42 55 43 49 44
REMARK SMILES IDX 51 45 17 46 54 47 48 48 47 49 18 51 40 52 25 53 39 54 26 55
REMARK SMILES IDX 29 56 38 57 52 58 27 59 28 60 37 62 53 63 30 64 19 65 20 66
REMARK SMILES IDX 24 67 21 68 23 69 22 70 41 71 42 72 46 73 43 74 45 75 44 76
REMARK SMILES IDX 31 77 32 78 36 79 33 80 35 81 34 82
REMARK H PARENT 3 6 7 31 51 50 29 61
REMARK Flexibility Score: inf
ROOT
ATOM      1  C   UNL A   1      37.833  20.094  24.742  1.00  0.00     0.042 C 
ENDROOT
BRANCH   1   2
ATOM      2  C   UNL A   1      36.995  21.315  24.436  1.00  0.00     0.118 C 
BRANCH   2   3
ATOM      3  N   UNL A   1      36.511  22.082  25.563  1.00  0.00    -0.352 N 
ATOM      4  O   UNL A   1      34.953  22.989  26.908  1.00  0.00    -0.270 OA
ATOM      5  C   UNL A   1      35.208  22.306  25.921  1.00  0.00     0.251 C 
ATOM      6  H   UNL A   1      37.198  22.489  26.139  1.00  0.00     0.163 HD
BRANCH   5   7
ATOM      7  C   UNL A   1      34.095  21.731  25.127  1.00  0.00     0.067 C 
ATOM      8  C   UNL A   1      33.483  22.522  24.237  1.00  0.00     0.026 C 
ATOM      9  C   UNL A   1      33.347  20.534  25.629  1.00  0.00     0.314 C 
ATOM     10  C   UNL A   1      32.188  22.990  24.812  1.00  0.00     0.027 A 
ATOM     11  O   UNL A   1      31.939  20.836  25.933  1.00  0.00    -0.475 OA
ATOM     12  C   UNL A   1      31.492  22.111  25.658  1.00  0.00     0.128 A 
ATOM     13  C   UNL A   1      31.818  24.354  24.668  1.00  0.00     0.011 A 
ATOM     14  C   UNL A   1      30.406  22.581  26.386  1.00  0.00     0.049 A 
ATOM     15  C   UNL A   1      30.734  24.809  25.432  1.00  0.00     0.049 A 
ATOM     16  C   UNL A   1      30.042  23.931  26.288  1.00  0.00     0.025 A 
ATOM     17  Cl  UNL A   1      30.251  26.466  25.420  1.00  0.00    -0.084 Cl
BRANCH   9  18
ATOM     18  C   UNL A   1      33.453  19.348  24.644  1.00  0.00     0.429 C 
ATOM     19  F   UNL A   1      32.846  19.587  23.456  1.00  0.00    -0.167 F 
ATOM     20  F   UNL A   1      34.747  19.056  24.375  1.00  0.00    -0.167 F 
ATOM     21  F   UNL A   1      32.886  18.224  25.144  1.00  0.00    -0.167 F 
ENDBRANCH   9  18
BRANCH  13  22
ATOM     22  C   UNL A   1      32.723  25.202  23.861  1.00  0.00    -0.016 A 
ATOM     23  C   UNL A   1      32.496  25.343  22.480  1.00  0.00     0.009 A 
ATOM     24  C   UNL A   1      33.527  26.157  24.507  1.00  0.00     0.009 A 
ATOM     25  C   UNL A   1      32.925  26.485  21.803  1.00  0.00     0.001 A 
ATOM     26  C   UNL A   1      33.943  27.304  23.831  1.00  0.00     0.001 A 
ATOM     27  C   UNL A   1      33.613  27.482  22.489  1.00  0.00     0.000 A 
ENDBRANCH  13  22
ENDBRANCH   5   7
ENDBRANCH   2   3
ENDBRANCH   1   2
BRANCH   1  28
ATOM     28  C   UNL A   1      38.873  20.287  25.833  1.00  0.00     0.118 C 
BRANCH  28  29
ATOM     29  N   UNL A   1      40.053  19.429  25.730  1.00  0.00    -0.352 N 
ATOM     30  C   UNL A   1      41.370  19.597  26.092  1.00  0.00     0.251 C 
ATOM     31  H   UNL A   1      39.868  18.554  25.318  1.00  0.00     0.163 HD
ATOM     32  O   UNL A   1      42.159  18.670  25.915  1.00  0.00    -0.269 OA
BRANCH  30  33
ATOM     33  C   UNL A   1      41.879  20.880  26.621  1.00  0.00     0.039 A 
ATOM     34  C   UNL A   1      42.276  21.873  25.718  1.00  0.00     0.014 A 
ATOM     35  C   UNL A   1      41.953  21.133  27.986  1.00  0.00     0.014 A 
ATOM     36  C   UNL A   1      42.633  23.139  26.186  1.00  0.00     0.010 A 
ATOM     37  C   UNL A   1      42.146  22.431  28.439  1.00  0.00     0.010 A 
ATOM     38  C   UNL A   1      42.508  23.449  27.549  1.00  0.00    -0.014 A 
BRANCH  38  39
ATOM     39  C   UNL A   1      42.771  24.814  28.072  1.00  0.00     0.031 A 
ATOM     40  C   UNL A   1      44.168  25.209  28.482  1.00  0.00     0.074 A 
ATOM     41  C   UNL A   1      41.745  25.669  28.257  1.00  0.00     0.049 A 
ATOM     42  N   UNL A   1      44.583  26.321  29.034  1.00  0.00    -0.248 NA
ATOM     43  C   UNL A   1      45.231  24.206  28.296  1.00  0.00     0.031 C 
ATOM     44  C   UNL A   1      40.335  25.383  27.975  1.00  0.00     0.029 A 
ATOM     45  N   UNL A   1      41.729  26.958  28.726  1.00  0.00    -0.354 N 
ATOM     46  C   UNL A   1      45.936  26.131  29.293  1.00  0.00     0.074 A 
ATOM     47  C   UNL A   1      46.257  24.777  28.905  1.00  0.00     0.031 C 
ATOM     48  C   UNL A   1      39.601  26.478  28.227  1.00  0.00     0.029 A 
ATOM     49  C   UNL A   1      40.478  27.528  28.730  1.00  0.00     0.049 A 
ATOM     50  H   UNL A   1      42.537  27.429  29.033  1.00  0.00     0.167 HD
ATOM     51  C   UNL A   1      46.842  27.012  29.777  1.00  0.00     0.031 A 
ATOM     52  C   UNL A   1      40.084  28.764  29.092  1.00  0.00     0.031 A 
ATOM     53  C   UNL A   1      46.532  28.374  30.114  1.00  0.00     0.049 A 
ATOM     54  C   UNL A   1      41.118  29.742  29.574  1.00  0.00     0.074 A 
ATOM     55  C   UNL A   1      47.388  29.377  30.533  1.00  0.00     0.029 A 
ATOM     56  N   UNL A   1      45.261  28.926  30.059  1.00  0.00    -0.354 N 
ATOM     57  N   UNL A   1      42.408  29.570  29.735  1.00  0.00    -0.248 NA
ATOM     58  C   UNL A   1      40.643  31.093  29.904  1.00  0.00     0.031 C 
ATOM     59  C   UNL A   1      46.627  30.525  30.774  1.00  0.00     0.029 A 
ATOM     60  C   UNL A   1      45.306  30.252  30.452  1.00  0.00     0.049 A 
ATOM     61  H   UNL A   1      44.448  28.446  29.781  1.00  0.00     0.167 HD
ATOM     62  C   UNL A   1      42.902  30.794  30.164  1.00  0.00     0.074 A 
ATOM     63  C   UNL A   1      41.777  31.707  30.209  1.00  0.00     0.031 C 
ATOM     64  C   UNL A   1      44.172  31.136  30.496  1.00  0.00     0.031 A 
BRANCH  51  65
ATOM     65  C   UNL A   1      48.255  26.528  29.960  1.00  0.00    -0.014 A 
ATOM     66  C   UNL A   1      49.216  26.674  28.945  1.00  0.00     0.009 A 
ATOM     67  C   UNL A   1      48.639  25.935  31.172  1.00  0.00     0.009 A 
ATOM     68  C   UNL A   1      50.517  26.199  29.125  1.00  0.00     0.001 A 
ATOM     69  C   UNL A   1      49.950  25.492  31.363  1.00  0.00     0.001 A 
ATOM     70  C   UNL A   1      50.883  25.613  30.335  1.00  0.00     0.000 A 
ENDBRANCH  51  65
BRANCH  52  71
ATOM     71  C   UNL A   1      38.654  29.159  28.979  1.00  0.00    -0.014 A 
ATOM     72  C   UNL A   1      38.144  29.644  27.765  1.00  0.00     0.009 A 
ATOM     73  C   UNL A   1      37.794  29.060  30.083  1.00  0.00     0.009 A 
ATOM     74  C   UNL A   1      36.812  30.054  27.668  1.00  0.00     0.001 A 
ATOM     75  C   UNL A   1      36.454  29.441  29.975  1.00  0.00     0.001 A 
ATOM     76  C   UNL A   1      35.967  29.949  28.772  1.00  0.00     0.000 A 
ENDBRANCH  52  71
BRANCH  64  77
ATOM     77  C   UNL A   1      44.405  32.563  30.907  1.00  0.00    -0.014 A 
ATOM     78  C   UNL A   1      44.284  32.963  32.247  1.00  0.00     0.009 A 
ATOM     79  C   UNL A   1      44.766  33.513  29.940  1.00  0.00     0.009 A 
ATOM     80  C   UNL A   1      44.475  34.300  32.601  1.00  0.00     0.001 A 
ATOM     81  C   UNL A   1      44.990  34.840  30.304  1.00  0.00     0.001 A 
ATOM     82  C   UNL A   1      44.831  35.236  31.631  1.00  0.00     0.000 A 
ENDBRANCH  64  77
ENDBRANCH  38  39
ENDBRANCH  30  33
ENDBRANCH  28  29
ENDBRANCH   1  28
TORSDOF 12
ENDMDL
MODEL 2
REMARK VINA RESULT:     -12.1      4.448      9.079
REMARK SMILES O=C(NCCCNC(=O)c1ccc(-c2c3nc(c(-c4ccccc4)c4ccc([nH]4)c(-c4ccccc4)c4nc(c(-c5ccccc5)c5ccc2[nH]5)C=C4)C=C3)cc1)C1=Cc2c(ccc(Cl)c2-c2ccccc2)O[C@H]1C(F)(F)F
REMARK SMILES IDX 5 1 4 2 3 3 1 4 2 5 58 7 59 8 74 9 60 10 73 11 61 12 66 13
REMARK SMILES IDX 62 14 64 15 63 16 65 17 75 18 76 19 77 20 78 21 67 22 68 23
REMARK SMILES IDX 72 24 69 25 71 26 70 27 6 28 7 29 8 30 9 32 10 33 11 34
REMARK SMILES IDX 57 35 12 36 56 37 13 38 14 39 15 40 50 41 16 42 55 43 49 44
REMARK SMILES IDX 51 45 17 46 54 47 48 48 47 49 18 51 40 52 25 53 39 54 26 55
REMARK SMILES IDX 29 56 38 57 52 58 27 59 28 60 37 62 53 63 30 64 19 65 20 66
REMARK SMILES IDX 24 67 21 68 23 69 22 70 41 71 42 72 46 73 43 74 45 75 44 76
REMARK SMILES IDX 31 77 32 78 36 79 33 80 35 81 34 82
REMARK H PARENT 3 6 7 31 51 50 29 61
REMARK Flexibility Score: inf
ROOT
ATOM      1  C   UNL A   1      31.455  31.656  26.618  1.00  0.00     0.042 C 
ENDROOT
BRANCH   1   2
ATOM      2  C   UNL A   1      31.626  30.154  26.593  1.00  0.00     0.118 C 
BRANCH   2   3
ATOM      3  N   UNL A   1      32.801  29.636  25.927  1.00  0.00    -0.352 N 
ATOM      4  O   UNL A   1      33.926  28.436  24.391  1.00  0.00    -0.270 OA
ATOM      5  C   UNL A   1      32.844  28.798  24.844  1.00  0.00     0.251 C 
ATOM      6  H   UNL A   1      33.670  29.918  26.294  1.00  0.00     0.163 HD
BRANCH   5   7
ATOM      7  C   UNL A   1      31.592  28.320  24.207  1.00  0.00     0.067 C 
ATOM      8  C   UNL A   1      31.170  27.083  24.499  1.00  0.00     0.026 C 
ATOM      9  C   UNL A   1      31.107  28.941  22.933  1.00  0.00     0.314 C 
ATOM     10  C   UNL A   1      31.521  26.170  23.373  1.00  0.00     0.027 A 
ATOM     11  O   UNL A   1      31.121  27.996  21.804  1.00  0.00    -0.475 OA
ATOM     12  C   UNL A   1      31.496  26.697  22.072  1.00  0.00     0.128 A 
ATOM     13  C   UNL A   1      32.070  24.891  23.662  1.00  0.00     0.011 A 
ATOM     14  C   UNL A   1      32.026  25.953  21.024  1.00  0.00     0.049 A 
ATOM     15  C   UNL A   1      32.619  24.172  22.592  1.00  0.00     0.049 A 
ATOM     16  C   UNL A   1      32.603  24.704  21.288  1.00  0.00     0.025 A 
ATOM     17  Cl  UNL A   1      33.403  22.653  22.829  1.00  0.00    -0.084 Cl
BRANCH   9  18
ATOM     18  C   UNL A   1      29.703  29.564  23.107  1.00  0.00     0.429 C 
ATOM     19  F   UNL A   1      28.760  28.659  23.466  1.00  0.00    -0.167 F 
ATOM     20  F   UNL A   1      29.715  30.523  24.063  1.00  0.00    -0.167 F 
ATOM     21  F   UNL A   1      29.262  30.144  21.965  1.00  0.00    -0.167 F 
ENDBRANCH   9  18
BRANCH  13  22
ATOM     22  C   UNL A   1      32.165  24.522  25.092  1.00  0.00    -0.016 A 
ATOM     23  C   UNL A   1      31.080  23.884  25.719  1.00  0.00     0.009 A 
ATOM     24  C   UNL A   1      33.432  24.433  25.694  1.00  0.00     0.009 A 
ATOM     25  C   UNL A   1      31.285  23.055  26.822  1.00  0.00     0.001 A 
ATOM     26  C   UNL A   1      33.636  23.593  26.789  1.00  0.00     0.001 A 
ATOM     27  C   UNL A   1      32.569  22.879  27.330  1.00  0.00     0.000 A 
ENDBRANCH  13  22
ENDBRANCH   5   7
ENDBRANCH   2   3
ENDBRANCH   1   2
BRANCH   1  28
ATOM     28  C   UNL A   1      32.697  32.438  27.013  1.00  0.00     0.118 C 
BRANCH  28  29
ATOM     29  N   UNL A   1      32.446  33.739  27.631  1.00  0.00    -0.352 N 
ATOM     30  C   UNL A   1      33.164  34.514  28.513  1.00  0.00     0.251 C 
ATOM     31  H   UNL A   1      31.589  34.143  27.362  1.00  0.00     0.163 HD
ATOM     32  O   UNL A   1      32.716  35.611  28.844  1.00  0.00    -0.269 OA
BRANCH  30  33
ATOM     33  C   UNL A   1      34.422  34.039  29.128  1.00  0.00     0.039 A 
ATOM     34  C   UNL A   1      34.351  33.185  30.235  1.00  0.00     0.014 A 
ATOM     35  C   UNL A   1      35.666  34.399  28.625  1.00  0.00     0.014 A 
ATOM     36  C   UNL A   1      35.517  32.616  30.751  1.00  0.00     0.010 A 
ATOM     37  C   UNL A   1      36.801  33.709  29.028  1.00  0.00     0.010 A 
ATOM     38  C   UNL A   1      36.748  32.822  30.110  1.00  0.00    -0.014 A 
BRANCH  38  39
ATOM     39  C   UNL A   1      37.992  32.147  30.560  1.00  0.00     0.031 A 
ATOM     40  C   UNL A   1      38.823  32.753  31.664  1.00  0.00     0.074 A 
ATOM     41  C   UNL A   1      38.420  31.038  29.923  1.00  0.00     0.049 A 
ATOM     42  N   UNL A   1      39.977  32.359  32.140  1.00  0.00    -0.248 NA
ATOM     43  C   UNL A   1      38.317  33.991  32.281  1.00  0.00     0.031 C 
ATOM     44  C   UNL A   1      37.751  30.395  28.787  1.00  0.00     0.029 A 
ATOM     45  N   UNL A   1      39.522  30.251  30.141  1.00  0.00    -0.354 N 
ATOM     46  C   UNL A   1      40.345  33.320  33.075  1.00  0.00     0.074 A 
ATOM     47  C   UNL A   1      39.333  34.349  33.050  1.00  0.00     0.031 C 
ATOM     48  C   UNL A   1      38.427  29.287  28.444  1.00  0.00     0.029 A 
ATOM     49  C   UNL A   1      39.599  29.164  29.302  1.00  0.00     0.049 A 
ATOM     50  H   UNL A   1      40.195  30.447  30.831  1.00  0.00     0.167 HD
ATOM     51  C   UNL A   1      41.413  33.331  33.908  1.00  0.00     0.031 A 
ATOM     52  C   UNL A   1      40.510  28.176  29.238  1.00  0.00     0.031 A 
ATOM     53  C   UNL A   1      42.392  32.282  33.967  1.00  0.00     0.049 A 
ATOM     54  C   UNL A   1      41.656  28.181  30.210  1.00  0.00     0.074 A 
ATOM     55  C   UNL A   1      43.466  32.150  34.829  1.00  0.00     0.029 A 
ATOM     56  N   UNL A   1      42.407  31.175  33.133  1.00  0.00    -0.354 N 
ATOM     57  N   UNL A   1      41.945  29.056  31.143  1.00  0.00    -0.248 NA
ATOM     58  C   UNL A   1      42.590  27.050  30.133  1.00  0.00     0.031 C 
ATOM     59  C   UNL A   1      44.158  30.984  34.486  1.00  0.00     0.029 A 
ATOM     60  C   UNL A   1      43.482  30.362  33.447  1.00  0.00     0.049 A 
ATOM     61  H   UNL A   1      41.751  30.994  32.422  1.00  0.00     0.167 HD
ATOM     62  C   UNL A   1      43.080  28.571  31.778  1.00  0.00     0.074 A 
ATOM     63  C   UNL A   1      43.408  27.311  31.142  1.00  0.00     0.031 C 
ATOM     64  C   UNL A   1      43.791  29.118  32.794  1.00  0.00     0.031 A 
BRANCH  51  65
ATOM     65  C   UNL A   1      41.566  34.514  34.826  1.00  0.00    -0.014 A 
ATOM     66  C   UNL A   1      40.971  34.534  36.099  1.00  0.00     0.009 A 
ATOM     67  C   UNL A   1      42.334  35.617  34.422  1.00  0.00     0.009 A 
ATOM     68  C   UNL A   1      41.107  35.649  36.928  1.00  0.00     0.001 A 
ATOM     69  C   UNL A   1      42.497  36.716  35.268  1.00  0.00     0.001 A 
ATOM     70  C   UNL A   1      41.874  36.737  36.514  1.00  0.00     0.000 A 
ENDBRANCH  51  65
BRANCH  52  71
ATOM     71  C   UNL A   1      40.358  27.079  28.243  1.00  0.00    -0.014 A 
ATOM     72  C   UNL A   1      40.953  27.180  26.977  1.00  0.00     0.009 A 
ATOM     73  C   UNL A   1      39.613  25.931  28.551  1.00  0.00     0.009 A 
ATOM     74  C   UNL A   1      40.777  26.170  26.028  1.00  0.00     0.001 A 
ATOM     75  C   UNL A   1      39.464  24.908  27.612  1.00  0.00     0.001 A 
ATOM     76  C   UNL A   1      40.036  25.033  26.347  1.00  0.00     0.000 A 
ENDBRANCH  52  71
BRANCH  64  77
ATOM     77  C   UNL A   1      44.975  28.336  33.291  1.00  0.00    -0.014 A 
ATOM     78  C   UNL A   1      46.265  28.569  32.788  1.00  0.00     0.009 A 
ATOM     79  C   UNL A   1      44.796  27.366  34.288  1.00  0.00     0.009 A 
ATOM     80  C   UNL A   1      47.345  27.810  33.242  1.00  0.00     0.001 A 
ATOM     81  C   UNL A   1      45.884  26.633  34.763  1.00  0.00     0.001 A 
ATOM     82  C   UNL A   1      47.154  26.846  34.230  1.00  0.00     0.000 A 
ENDBRANCH  64  77
ENDBRANCH  38  39
ENDBRANCH  30  33
ENDBRANCH  28  29
ENDBRANCH   1  28
TORSDOF 12
ENDMDL
MODEL 3
REMARK VINA RESULT:     -12.1      1.297      5.904
REMARK SMILES O=C(NCCCNC(=O)c1ccc(-c2c3nc(c(-c4ccccc4)c4ccc([nH]4)c(-c4ccccc4)c4nc(c(-c5ccccc5)c5ccc2[nH]5)C=C4)C=C3)cc1)C1=Cc2c(ccc(Cl)c2-c2ccccc2)O[C@H]1C(F)(F)F
REMARK SMILES IDX 5 1 4 2 3 3 1 4 2 5 58 7 59 8 74 9 60 10 73 11 61 12 66 13
REMARK SMILES IDX 62 14 64 15 63 16 65 17 75 18 76 19 77 20 78 21 67 22 68 23
REMARK SMILES IDX 72 24 69 25 71 26 70 27 6 28 7 29 8 30 9 32 10 33 11 34
REMARK SMILES IDX 57 35 12 36 56 37 13 38 14 39 15 40 50 41 16 42 55 43 49 44
REMARK SMILES IDX 51 45 17 46 54 47 48 48 47 49 18 51 40 52 25 53 39 54 26 55
REMARK SMILES IDX 29 56 38 57 52 58 27 59 28 60 37 62 53 63 30 64 19 65 20 66
REMARK SMILES IDX 24 67 21 68 23 69 22 70 41 71 42 72 46 73 43 74 45 75 44 76
REMARK SMILES IDX 31 77 32 78 36 79 33 80 35 81 34 82
REMARK H PARENT 3 6 7 31 51 50 29 61
REMARK Flexibility Score: inf
ROOT
ATOM      1  C   UNL A   1      37.838  20.064  24.824  1.00  0.00     0.042 C 
ENDROOT
BRANCH   1   2
ATOM      2  C   UNL A   1      37.065  21.315  24.471  1.00  0.00     0.118 C 
BRANCH   2   3
ATOM      3  N   UNL A   1      36.565  22.111  25.570  1.00  0.00    -0.352 N 
ATOM      4  O   UNL A   1      34.986  23.038  26.878  1.00  0.00    -0.270 OA
ATOM      5  C   UNL A   1      35.257  22.326  25.915  1.00  0.00     0.251 C 
ATOM      6  H   UNL A   1      37.242  22.549  26.135  1.00  0.00     0.163 HD
BRANCH   5   7
ATOM      7  C   UNL A   1      34.156  21.706  25.138  1.00  0.00     0.067 C 
ATOM      8  C   UNL A   1      33.536  22.455  24.218  1.00  0.00     0.026 C 
ATOM      9  C   UNL A   1      33.425  20.515  25.679  1.00  0.00     0.314 C 
ATOM     10  C   UNL A   1      32.231  22.923  24.771  1.00  0.00     0.027 A 
ATOM     11  O   UNL A   1      32.010  20.806  25.966  1.00  0.00    -0.475 OA
ATOM     12  C   UNL A   1      31.545  22.063  25.645  1.00  0.00     0.128 A 
ATOM     13  C   UNL A   1      31.841  24.275  24.578  1.00  0.00     0.011 A 
ATOM     14  C   UNL A   1      30.448  22.542  26.351  1.00  0.00     0.049 A 
ATOM     15  C   UNL A   1      30.746  24.739  25.321  1.00  0.00     0.049 A 
ATOM     16  C   UNL A   1      30.064  23.881  26.204  1.00  0.00     0.025 A 
ATOM     17  Cl  UNL A   1      30.237  26.387  25.249  1.00  0.00    -0.084 Cl
BRANCH   9  18
ATOM     18  C   UNL A   1      33.553  19.297  24.737  1.00  0.00     0.429 C 
ATOM     19  F   UNL A   1      34.838  19.000  24.423  1.00  0.00    -0.167 F 
ATOM     20  F   UNL A   1      33.019  18.189  25.304  1.00  0.00    -0.167 F 
ATOM     21  F   UNL A   1      32.908  19.496  23.563  1.00  0.00    -0.167 F 
ENDBRANCH   9  18
BRANCH  13  22
ATOM     22  C   UNL A   1      32.736  25.108  23.744  1.00  0.00    -0.016 A 
ATOM     23  C   UNL A   1      32.510  25.202  22.360  1.00  0.00     0.009 A 
ATOM     24  C   UNL A   1      33.526  26.094  24.361  1.00  0.00     0.009 A 
ATOM     25  C   UNL A   1      32.925  26.327  21.647  1.00  0.00     0.001 A 
ATOM     26  C   UNL A   1      33.929  27.224  23.648  1.00  0.00     0.001 A 
ATOM     27  C   UNL A   1      33.599  27.354  22.301  1.00  0.00     0.000 A 
ENDBRANCH  13  22
ENDBRANCH   5   7
ENDBRANCH   2   3
ENDBRANCH   1   2
BRANCH   1  28
ATOM     28  C   UNL A   1      38.957  20.263  25.832  1.00  0.00     0.118 C 
BRANCH  28  29
ATOM     29  N   UNL A   1      40.012  19.250  25.805  1.00  0.00    -0.352 N 
ATOM     30  C   UNL A   1      41.352  19.281  26.120  1.00  0.00     0.251 C 
ATOM     31  H   UNL A   1      39.701  18.369  25.497  1.00  0.00     0.163 HD
ATOM     32  O   UNL A   1      42.007  18.244  26.034  1.00  0.00    -0.269 OA
BRANCH  30  33
ATOM     33  C   UNL A   1      42.040  20.535  26.491  1.00  0.00     0.039 A 
ATOM     34  C   UNL A   1      42.605  21.319  25.479  1.00  0.00     0.014 A 
ATOM     35  C   UNL A   1      42.122  20.965  27.810  1.00  0.00     0.014 A 
ATOM     36  C   UNL A   1      43.143  22.572  25.786  1.00  0.00     0.010 A 
ATOM     37  C   UNL A   1      42.502  22.270  28.091  1.00  0.00     0.010 A 
ATOM     38  C   UNL A   1      43.037  23.086  27.086  1.00  0.00    -0.014 A 
BRANCH  38  39
ATOM     39  C   UNL A   1      43.495  24.457  27.430  1.00  0.00     0.031 A 
ATOM     40  C   UNL A   1      42.495  25.506  27.845  1.00  0.00     0.074 A 
ATOM     41  C   UNL A   1      44.797  24.781  27.289  1.00  0.00     0.049 A 
ATOM     42  N   UNL A   1      42.688  26.775  28.105  1.00  0.00    -0.248 NA
ATOM     43  C   UNL A   1      41.084  25.091  27.931  1.00  0.00     0.031 C 
ATOM     44  C   UNL A   1      45.854  23.881  26.820  1.00  0.00     0.029 A 
ATOM     45  N   UNL A   1      45.454  25.961  27.529  1.00  0.00    -0.354 N 
ATOM     46  C   UNL A   1      41.425  27.306  28.343  1.00  0.00     0.074 A 
ATOM     47  C   UNL A   1      40.469  26.246  28.128  1.00  0.00     0.031 C 
ATOM     48  C   UNL A   1      47.032  24.524  26.856  1.00  0.00     0.029 A 
ATOM     49  C   UNL A   1      46.809  25.892  27.307  1.00  0.00     0.049 A 
ATOM     50  H   UNL A   1      44.999  26.780  27.831  1.00  0.00     0.167 HD
ATOM     51  C   UNL A   1      41.090  28.557  28.739  1.00  0.00     0.031 A 
ATOM     52  C   UNL A   1      47.766  26.828  27.457  1.00  0.00     0.031 A 
ATOM     53  C   UNL A   1      42.046  29.596  29.002  1.00  0.00     0.049 A 
ATOM     54  C   UNL A   1      47.375  28.192  27.952  1.00  0.00     0.074 A 
ATOM     55  C   UNL A   1      41.824  30.872  29.488  1.00  0.00     0.029 A 
ATOM     56  N   UNL A   1      43.413  29.471  28.810  1.00  0.00    -0.354 N 
ATOM     57  N   UNL A   1      46.185  28.654  28.249  1.00  0.00    -0.248 NA
ATOM     58  C   UNL A   1      48.464  29.157  28.150  1.00  0.00     0.031 C 
ATOM     59  C   UNL A   1      43.053  31.535  29.548  1.00  0.00     0.029 A 
ATOM     60  C   UNL A   1      44.047  30.653  29.151  1.00  0.00     0.049 A 
ATOM     61  H   UNL A   1      43.866  28.662  28.480  1.00  0.00     0.167 HD
ATOM     62  C   UNL A   1      46.383  29.954  28.691  1.00  0.00     0.074 A 
ATOM     63  C   UNL A   1      47.811  30.197  28.649  1.00  0.00     0.031 C 
ATOM     64  C   UNL A   1      45.468  30.871  29.093  1.00  0.00     0.031 A 
BRANCH  51  65
ATOM     65  C   UNL A   1      39.627  28.860  28.920  1.00  0.00    -0.014 A 
ATOM     66  C   UNL A   1      38.850  29.369  27.865  1.00  0.00     0.009 A 
ATOM     67  C   UNL A   1      39.009  28.615  30.155  1.00  0.00     0.009 A 
ATOM     68  C   UNL A   1      37.499  29.665  28.057  1.00  0.00     0.001 A 
ATOM     69  C   UNL A   1      37.650  28.879  30.335  1.00  0.00     0.001 A 
ATOM     70  C   UNL A   1      36.899  29.415  29.290  1.00  0.00     0.000 A 
ENDBRANCH  51  65
BRANCH  52  71
ATOM     71  C   UNL A   1      49.189  26.498  27.172  1.00  0.00    -0.014 A 
ATOM     72  C   UNL A   1      49.726  26.709  25.893  1.00  0.00     0.009 A 
ATOM     73  C   UNL A   1      50.015  25.964  28.173  1.00  0.00     0.009 A 
ATOM     74  C   UNL A   1      51.050  26.362  25.613  1.00  0.00     0.001 A 
ATOM     75  C   UNL A   1      51.347  25.647  27.899  1.00  0.00     0.001 A 
ATOM     76  C   UNL A   1      51.860  25.835  26.616  1.00  0.00     0.000 A 
ENDBRANCH  52  71
BRANCH  64  77
ATOM     77  C   UNL A   1      45.996  32.205  29.542  1.00  0.00    -0.014 A 
ATOM     78  C   UNL A   1      46.144  33.270  28.641  1.00  0.00     0.009 A 
ATOM     79  C   UNL A   1      46.334  32.398  30.890  1.00  0.00     0.009 A 
ATOM     80  C   UNL A   1      46.664  34.491  29.074  1.00  0.00     0.001 A 
ATOM     81  C   UNL A   1      46.822  33.630  31.325  1.00  0.00     0.001 A 
ATOM     82  C   UNL A   1      47.000  34.671  30.415  1.00  0.00     0.000 A 
ENDBRANCH  64  77
ENDBRANCH  38  39
ENDBRANCH  30  33
ENDBRANCH  28  29
ENDBRANCH   1  28
TORSDOF 12
ENDMDL
