MODEL 1
REMARK VINA RESULT:     -10.7      0.000      0.000
REMARK SMILES COC(=O)[C@@H](C)S(=O)(=O)N(C)c1snc(C)c1C(=O)NCCCNC(=O)c1ccc(-c2c3nc(c(-c4ccccc4)c4ccc([nH]4)c(-c4ccccc4)c4nc(c(-c5ccccc5)c5ccc2[nH]5)C=C4)C=C3)cc1
REMARK SMILES IDX 18 1 19 2 20 3 17 5 12 6 13 7 14 8 15 9 16 10 10 11 11 12
REMARK SMILES IDX 7 13 8 14 9 15 5 16 6 17 3 18 4 19 2 20 1 21 21 22 22 23
REMARK SMILES IDX 23 24 24 25 25 26 26 28 27 29 28 30 74 31 29 32 73 33 30 34
REMARK SMILES IDX 31 35 32 36 67 37 33 38 72 39 66 40 68 41 34 42 71 43 65 44
REMARK SMILES IDX 64 45 35 47 57 48 42 49 56 50 43 51 46 52 55 53 69 54 44 55
REMARK SMILES IDX 45 56 54 58 70 59 47 60 36 61 37 62 41 63 38 64 40 65 39 66
REMARK SMILES IDX 58 67 59 68 63 69 60 70 62 71 61 72 48 73 49 74 53 75 50 76
REMARK SMILES IDX 52 77 51 78
REMARK H PARENT 20 4 24 27 68 46 46 57
REMARK Flexibility Score: inf
ROOT
ATOM      1  C   UNL A   1      36.296  22.484  23.707  1.00  0.00     0.256 C 
ATOM      2  O   UNL A   1      36.230  23.001  22.590  1.00  0.00    -0.269 OA
ATOM      3  N   UNL A   1      37.409  21.714  23.957  1.00  0.00    -0.352 N 
ATOM      4  H   UNL A   1      37.998  21.520  23.192  1.00  0.00     0.163 HD
ENDROOT
BRANCH   1   5
ATOM      5  C   UNL A   1      35.181  22.576  24.655  1.00  0.00     0.098 A 
ATOM      6  C   UNL A   1      33.990  21.848  24.752  1.00  0.00     0.138 A 
ATOM      7  S   UNL A   1      33.151  22.360  26.169  1.00  0.00    -0.017 S 
ATOM      8  N   UNL A   1      34.168  23.577  26.568  1.00  0.00    -0.195 NA
ATOM      9  C   UNL A   1      35.193  23.586  25.719  1.00  0.00     0.066 A 
ATOM     10  C   UNL A   1      36.196  24.677  25.926  1.00  0.00     0.069 C 
BRANCH   6  11
ATOM     11  N   UNL A   1      33.405  20.863  23.824  1.00  0.00    -0.261 N 
ATOM     12  C   UNL A   1      32.165  21.335  23.154  1.00  0.00     0.164 C 
BRANCH  11  13
ATOM     13  S   UNL A   1      33.319  19.308  24.546  1.00  0.00     0.249 S 
ATOM     14  O   UNL A   1      32.059  19.235  25.257  1.00  0.00    -0.206 OA
ATOM     15  O   UNL A   1      34.568  19.145  25.269  1.00  0.00    -0.206 OA
BRANCH  13  16
ATOM     16  C   UNL A   1      33.339  18.067  23.243  1.00  0.00     0.236 C 
ATOM     17  C   UNL A   1      32.170  17.976  22.274  1.00  0.00     0.039 C 
BRANCH  16  18
ATOM     18  C   UNL A   1      33.573  16.716  23.834  1.00  0.00     0.325 C 
ATOM     19  O   UNL A   1      34.458  15.952  23.472  1.00  0.00    -0.251 OA
BRANCH  18  20
ATOM     20  O   UNL A   1      32.563  16.385  24.687  1.00  0.00    -0.468 OA
ATOM     21  C   UNL A   1      32.715  15.120  25.325  1.00  0.00     0.282 C 
ENDBRANCH  18  20
ENDBRANCH  16  18
ENDBRANCH  13  16
ENDBRANCH  11  13
ENDBRANCH   6  11
ENDBRANCH   1   5
BRANCH   3  22
ATOM     22  C   UNL A   1      37.792  21.168  25.222  1.00  0.00     0.118 C 
BRANCH  22  23
ATOM     23  C   UNL A   1      38.799  21.932  26.052  1.00  0.00     0.042 C 
BRANCH  23  24
ATOM     24  C   UNL A   1      40.102  21.183  26.283  1.00  0.00     0.118 C 
BRANCH  24  25
ATOM     25  N   UNL A   1      41.310  21.760  25.677  1.00  0.00    -0.352 N 
ATOM     26  C   UNL A   1      41.863  23.017  25.914  1.00  0.00     0.251 C 
ATOM     27  H   UNL A   1      41.785  21.192  25.028  1.00  0.00     0.163 HD
ATOM     28  O   UNL A   1      42.780  23.468  25.259  1.00  0.00    -0.269 OA
BRANCH  26  29
ATOM     29  C   UNL A   1      41.325  23.723  27.091  1.00  0.00     0.039 A 
ATOM     30  C   UNL A   1      42.139  24.036  28.175  1.00  0.00     0.014 A 
ATOM     31  C   UNL A   1      40.173  24.438  26.812  1.00  0.00     0.014 A 
ATOM     32  C   UNL A   1      41.890  25.227  28.863  1.00  0.00     0.010 A 
ATOM     33  C   UNL A   1      40.088  25.702  27.345  1.00  0.00     0.010 A 
ATOM     34  C   UNL A   1      40.925  26.130  28.379  1.00  0.00    -0.014 A 
BRANCH  34  35
ATOM     35  C   UNL A   1      40.884  27.530  28.847  1.00  0.00     0.031 A 
ATOM     36  C   UNL A   1      41.785  28.529  28.180  1.00  0.00     0.074 A 
ATOM     37  C   UNL A   1      40.001  28.045  29.735  1.00  0.00     0.049 A 
ATOM     38  N   UNL A   1      42.833  29.087  28.695  1.00  0.00    -0.248 NA
ATOM     39  C   UNL A   1      41.514  28.952  26.797  1.00  0.00     0.031 C 
ATOM     40  C   UNL A   1      38.846  27.430  30.404  1.00  0.00     0.029 A 
ATOM     41  N   UNL A   1      39.937  29.334  30.183  1.00  0.00    -0.354 N 
ATOM     42  C   UNL A   1      43.285  30.035  27.779  1.00  0.00     0.074 A 
ATOM     43  C   UNL A   1      42.487  29.848  26.590  1.00  0.00     0.031 C 
ATOM     44  C   UNL A   1      38.059  28.381  30.944  1.00  0.00     0.029 A 
ATOM     45  C   UNL A   1      38.787  29.627  30.890  1.00  0.00     0.049 A 
ATOM     46  H   UNL A   1      40.647  29.995  30.016  1.00  0.00     0.167 HD
ATOM     47  C   UNL A   1      44.180  31.007  28.121  1.00  0.00     0.031 A 
ATOM     48  C   UNL A   1      38.463  30.777  31.513  1.00  0.00     0.031 A 
ATOM     49  C   UNL A   1      44.788  30.760  29.401  1.00  0.00     0.049 A 
ATOM     50  C   UNL A   1      39.723  31.470  31.835  1.00  0.00     0.074 A 
ATOM     51  C   UNL A   1      45.568  29.759  29.944  1.00  0.00     0.029 A 
ATOM     52  N   UNL A   1      44.314  31.477  30.472  1.00  0.00    -0.354 N 
ATOM     53  N   UNL A   1      40.601  31.001  32.676  1.00  0.00    -0.248 NA
ATOM     54  C   UNL A   1      40.209  32.503  30.938  1.00  0.00     0.031 C 
ATOM     55  C   UNL A   1      45.100  29.622  31.287  1.00  0.00     0.029 A 
ATOM     56  C   UNL A   1      44.099  30.578  31.484  1.00  0.00     0.049 A 
ATOM     57  H   UNL A   1      44.158  32.449  30.507  1.00  0.00     0.167 HD
ATOM     58  C   UNL A   1      41.831  31.361  32.147  1.00  0.00     0.074 A 
ATOM     59  C   UNL A   1      41.521  32.393  31.162  1.00  0.00     0.031 C 
ATOM     60  C   UNL A   1      42.948  30.603  32.364  1.00  0.00     0.031 A 
BRANCH  47  61
ATOM     61  C   UNL A   1      44.298  32.356  27.458  1.00  0.00    -0.014 A 
ATOM     62  C   UNL A   1      43.660  33.468  28.046  1.00  0.00     0.009 A 
ATOM     63  C   UNL A   1      44.782  32.525  26.149  1.00  0.00     0.009 A 
ATOM     64  C   UNL A   1      43.478  34.666  27.344  1.00  0.00     0.001 A 
ATOM     65  C   UNL A   1      44.636  33.734  25.458  1.00  0.00     0.001 A 
ATOM     66  C   UNL A   1      43.963  34.797  26.047  1.00  0.00     0.000 A 
ENDBRANCH  47  61
BRANCH  48  67
ATOM     67  C   UNL A   1      37.118  31.341  31.686  1.00  0.00    -0.014 A 
ATOM     68  C   UNL A   1      36.649  31.743  32.940  1.00  0.00     0.009 A 
ATOM     69  C   UNL A   1      36.371  31.702  30.547  1.00  0.00     0.009 A 
ATOM     70  C   UNL A   1      35.490  32.520  33.048  1.00  0.00     0.001 A 
ATOM     71  C   UNL A   1      35.215  32.478  30.654  1.00  0.00     0.001 A 
ATOM     72  C   UNL A   1      34.784  32.900  31.906  1.00  0.00     0.000 A 
ENDBRANCH  48  67
BRANCH  60  73
ATOM     73  C   UNL A   1      42.874  29.501  33.397  1.00  0.00    -0.014 A 
ATOM     74  C   UNL A   1      42.414  28.207  33.094  1.00  0.00     0.009 A 
ATOM     75  C   UNL A   1      43.440  29.722  34.661  1.00  0.00     0.009 A 
ATOM     76  C   UNL A   1      42.491  27.176  34.036  1.00  0.00     0.001 A 
ATOM     77  C   UNL A   1      43.536  28.686  35.596  1.00  0.00     0.001 A 
ATOM     78  C   UNL A   1      43.057  27.414  35.285  1.00  0.00     0.000 A 
ENDBRANCH  60  73
ENDBRANCH  34  35
ENDBRANCH  26  29
ENDBRANCH  24  25
ENDBRANCH  23  24
ENDBRANCH  22  23
ENDBRANCH   3  22
TORSDOF 15
ENDMDL
MODEL 2
REMARK VINA RESULT:     -10.7      3.162      7.776
REMARK SMILES COC(=O)[C@@H](C)S(=O)(=O)N(C)c1snc(C)c1C(=O)NCCCNC(=O)c1ccc(-c2c3nc(c(-c4ccccc4)c4ccc([nH]4)c(-c4ccccc4)c4nc(c(-c5ccccc5)c5ccc2[nH]5)C=C4)C=C3)cc1
REMARK SMILES IDX 18 1 19 2 20 3 17 5 12 6 13 7 14 8 15 9 16 10 10 11 11 12
REMARK SMILES IDX 7 13 8 14 9 15 5 16 6 17 3 18 4 19 2 20 1 21 21 22 22 23
REMARK SMILES IDX 23 24 24 25 25 26 26 28 27 29 28 30 74 31 29 32 73 33 30 34
REMARK SMILES IDX 31 35 32 36 67 37 33 38 72 39 66 40 68 41 34 42 71 43 65 44
REMARK SMILES IDX 64 45 35 47 57 48 42 49 56 50 43 51 46 52 55 53 69 54 44 55
REMARK SMILES IDX 45 56 54 58 70 59 47 60 36 61 37 62 41 63 38 64 40 65 39 66
REMARK SMILES IDX 58 67 59 68 63 69 60 70 62 71 61 72 48 73 49 74 53 75 50 76
REMARK SMILES IDX 52 77 51 78
REMARK H PARENT 20 4 24 27 68 46 46 57
REMARK Flexibility Score: inf
ROOT
ATOM      1  C   UNL A   1      31.242  26.854  26.360  1.00  0.00     0.256 C 
ATOM      2  O   UNL A   1      30.248  26.182  26.644  1.00  0.00    -0.269 OA
ATOM      3  N   UNL A   1      31.533  27.898  27.208  1.00  0.00    -0.352 N 
ATOM      4  H   UNL A   1      30.861  28.117  27.894  1.00  0.00     0.163 HD
ENDROOT
BRANCH   1   5
ATOM      5  C   UNL A   1      31.978  26.631  25.112  1.00  0.00     0.098 A 
ATOM      6  C   UNL A   1      32.894  25.639  24.746  1.00  0.00     0.138 A 
ATOM      7  S   UNL A   1      33.310  25.862  23.088  1.00  0.00    -0.017 S 
ATOM      8  N   UNL A   1      32.492  27.262  22.870  1.00  0.00    -0.195 NA
ATOM      9  C   UNL A   1      31.827  27.557  23.985  1.00  0.00     0.066 A 
ATOM     10  C   UNL A   1      31.059  28.841  23.960  1.00  0.00     0.069 C 
BRANCH   6  11
ATOM     11  N   UNL A   1      33.535  24.595  25.567  1.00  0.00    -0.261 N 
ATOM     12  C   UNL A   1      35.011  24.526  25.403  1.00  0.00     0.164 C 
BRANCH  11  13
ATOM     13  S   UNL A   1      32.697  23.102  25.432  1.00  0.00     0.249 S 
ATOM     14  O   UNL A   1      31.310  23.413  25.154  1.00  0.00    -0.206 OA
ATOM     15  O   UNL A   1      33.045  22.351  26.626  1.00  0.00    -0.206 OA
BRANCH  13  16
ATOM     16  C   UNL A   1      33.388  22.178  24.051  1.00  0.00     0.236 C 
ATOM     17  C   UNL A   1      32.506  21.833  22.861  1.00  0.00     0.039 C 
BRANCH  16  18
ATOM     18  C   UNL A   1      34.026  20.923  24.549  1.00  0.00     0.325 C 
ATOM     19  O   UNL A   1      35.160  20.864  25.006  1.00  0.00    -0.251 OA
BRANCH  18  20
ATOM     20  O   UNL A   1      33.251  19.842  24.253  1.00  0.00    -0.468 OA
ATOM     21  C   UNL A   1      32.918  19.027  25.373  1.00  0.00     0.282 C 
ENDBRANCH  18  20
ENDBRANCH  16  18
ENDBRANCH  13  16
ENDBRANCH  11  13
ENDBRANCH   6  11
ENDBRANCH   1   5
BRANCH   3  22
ATOM     22  C   UNL A   1      32.721  28.696  27.188  1.00  0.00     0.118 C 
BRANCH  22  23
ATOM     23  C   UNL A   1      32.571  30.195  27.053  1.00  0.00     0.042 C 
BRANCH  23  24
ATOM     24  C   UNL A   1      33.865  30.965  27.262  1.00  0.00     0.118 C 
BRANCH  24  25
ATOM     25  N   UNL A   1      33.990  31.714  28.520  1.00  0.00    -0.352 N 
ATOM     26  C   UNL A   1      35.119  31.840  29.327  1.00  0.00     0.251 C 
ATOM     27  H   UNL A   1      33.181  32.183  28.830  1.00  0.00     0.163 HD
ATOM     28  O   UNL A   1      35.091  32.357  30.425  1.00  0.00    -0.269 OA
BRANCH  26  29
ATOM     29  C   UNL A   1      36.381  31.395  28.708  1.00  0.00     0.039 A 
ATOM     30  C   UNL A   1      37.599  31.958  29.075  1.00  0.00     0.014 A 
ATOM     31  C   UNL A   1      36.297  30.124  28.164  1.00  0.00     0.014 A 
ATOM     32  C   UNL A   1      38.728  31.135  29.085  1.00  0.00     0.010 A 
ATOM     33  C   UNL A   1      37.358  29.283  28.401  1.00  0.00     0.010 A 
ATOM     34  C   UNL A   1      38.592  29.753  28.854  1.00  0.00    -0.014 A 
BRANCH  34  35
ATOM     35  C   UNL A   1      39.671  28.808  29.209  1.00  0.00     0.031 A 
ATOM     36  C   UNL A   1      39.936  28.544  30.663  1.00  0.00     0.074 A 
ATOM     37  C   UNL A   1      40.365  28.033  28.342  1.00  0.00     0.049 A 
ATOM     38  N   UNL A   1      40.965  28.937  31.343  1.00  0.00    -0.248 NA
ATOM     39  C   UNL A   1      38.963  27.779  31.459  1.00  0.00     0.031 C 
ATOM     40  C   UNL A   1      40.217  27.851  26.891  1.00  0.00     0.029 A 
ATOM     41  N   UNL A   1      41.363  27.149  28.640  1.00  0.00    -0.354 N 
ATOM     42  C   UNL A   1      40.863  28.365  32.609  1.00  0.00     0.074 A 
ATOM     43  C   UNL A   1      39.566  27.732  32.653  1.00  0.00     0.031 C 
ATOM     44  C   UNL A   1      40.887  26.753  26.488  1.00  0.00     0.029 A 
ATOM     45  C   UNL A   1      41.713  26.321  27.591  1.00  0.00     0.049 A 
ATOM     46  H   UNL A   1      41.793  27.106  29.524  1.00  0.00     0.167 HD
ATOM     47  C   UNL A   1      41.918  28.322  33.474  1.00  0.00     0.031 A 
ATOM     48  C   UNL A   1      42.697  25.402  27.549  1.00  0.00     0.031 A 
ATOM     49  C   UNL A   1      43.005  29.161  33.047  1.00  0.00     0.049 A 
ATOM     50  C   UNL A   1      43.708  25.798  28.545  1.00  0.00     0.074 A 
ATOM     51  C   UNL A   1      43.173  30.510  32.808  1.00  0.00     0.029 A 
ATOM     52  N   UNL A   1      44.078  28.547  32.449  1.00  0.00    -0.354 N 
ATOM     53  N   UNL A   1      44.418  26.887  28.449  1.00  0.00    -0.248 NA
ATOM     54  C   UNL A   1      43.676  25.190  29.863  1.00  0.00     0.031 C 
ATOM     55  C   UNL A   1      44.026  30.572  31.664  1.00  0.00     0.029 A 
ATOM     56  C   UNL A   1      44.356  29.260  31.312  1.00  0.00     0.049 A 
ATOM     57  H   UNL A   1      44.555  27.748  32.773  1.00  0.00     0.167 HD
ATOM     58  C   UNL A   1      44.568  27.332  29.753  1.00  0.00     0.074 A 
ATOM     59  C   UNL A   1      44.214  26.181  30.579  1.00  0.00     0.031 C 
ATOM     60  C   UNL A   1      44.707  28.661  30.041  1.00  0.00     0.031 A 
BRANCH  47  61
ATOM     61  C   UNL A   1      42.118  27.290  34.555  1.00  0.00    -0.014 A 
ATOM     62  C   UNL A   1      41.913  27.656  35.901  1.00  0.00     0.009 A 
ATOM     63  C   UNL A   1      42.755  26.057  34.326  1.00  0.00     0.009 A 
ATOM     64  C   UNL A   1      42.362  26.853  36.958  1.00  0.00     0.001 A 
ATOM     65  C   UNL A   1      43.170  25.234  35.380  1.00  0.00     0.001 A 
ATOM     66  C   UNL A   1      42.994  25.643  36.696  1.00  0.00     0.000 A 
ENDBRANCH  47  61
BRANCH  48  67
ATOM     67  C   UNL A   1      42.699  24.142  26.795  1.00  0.00    -0.014 A 
ATOM     68  C   UNL A   1      43.517  23.959  25.676  1.00  0.00     0.009 A 
ATOM     69  C   UNL A   1      42.046  23.016  27.335  1.00  0.00     0.009 A 
ATOM     70  C   UNL A   1      43.710  22.680  25.140  1.00  0.00     0.001 A 
ATOM     71  C   UNL A   1      42.240  21.740  26.802  1.00  0.00     0.001 A 
ATOM     72  C   UNL A   1      43.086  21.572  25.712  1.00  0.00     0.000 A 
ENDBRANCH  48  67
BRANCH  60  73
ATOM     73  C   UNL A   1      44.943  29.619  28.895  1.00  0.00    -0.014 A 
ATOM     74  C   UNL A   1      43.894  30.153  28.125  1.00  0.00     0.009 A 
ATOM     75  C   UNL A   1      46.235  30.127  28.694  1.00  0.00     0.009 A 
ATOM     76  C   UNL A   1      44.136  31.143  27.165  1.00  0.00     0.001 A 
ATOM     77  C   UNL A   1      46.474  31.130  27.750  1.00  0.00     0.001 A 
ATOM     78  C   UNL A   1      45.425  31.635  26.982  1.00  0.00     0.000 A 
ENDBRANCH  60  73
ENDBRANCH  34  35
ENDBRANCH  26  29
ENDBRANCH  24  25
ENDBRANCH  23  24
ENDBRANCH  22  23
ENDBRANCH   3  22
TORSDOF 15
ENDMDL
MODEL 3
REMARK VINA RESULT:     -10.7      3.253      7.176
REMARK SMILES COC(=O)[C@@H](C)S(=O)(=O)N(C)c1snc(C)c1C(=O)NCCCNC(=O)c1ccc(-c2c3nc(c(-c4ccccc4)c4ccc([nH]4)c(-c4ccccc4)c4nc(c(-c5ccccc5)c5ccc2[nH]5)C=C4)C=C3)cc1
REMARK SMILES IDX 18 1 19 2 20 3 17 5 12 6 13 7 14 8 15 9 16 10 10 11 11 12
REMARK SMILES IDX 7 13 8 14 9 15 5 16 6 17 3 18 4 19 2 20 1 21 21 22 22 23
REMARK SMILES IDX 23 24 24 25 25 26 26 28 27 29 28 30 74 31 29 32 73 33 30 34
REMARK SMILES IDX 31 35 32 36 67 37 33 38 72 39 66 40 68 41 34 42 71 43 65 44
REMARK SMILES IDX 64 45 35 47 57 48 42 49 56 50 43 51 46 52 55 53 69 54 44 55
REMARK SMILES IDX 45 56 54 58 70 59 47 60 36 61 37 62 41 63 38 64 40 65 39 66
REMARK SMILES IDX 58 67 59 68 63 69 60 70 62 71 61 72 48 73 49 74 53 75 50 76
REMARK SMILES IDX 52 77 51 78
REMARK H PARENT 20 4 24 27 68 46 46 57
REMARK Flexibility Score: inf
ROOT
ATOM      1  C   UNL A   1      32.447  26.624  26.291  1.00  0.00     0.256 C 
ATOM      2  O   UNL A   1      31.451  26.181  26.867  1.00  0.00    -0.269 OA
ATOM      3  N   UNL A   1      32.971  27.793  26.795  1.00  0.00    -0.352 N 
ATOM      4  H   UNL A   1      32.442  28.260  27.482  1.00  0.00     0.163 HD
ENDROOT
BRANCH   1   5
ATOM      5  C   UNL A   1      32.949  26.009  25.059  1.00  0.00     0.098 A 
ATOM      6  C   UNL A   1      33.792  24.911  24.853  1.00  0.00     0.138 A 
ATOM      7  S   UNL A   1      33.901  24.616  23.158  1.00  0.00    -0.017 S 
ATOM      8  N   UNL A   1      33.048  25.926  22.678  1.00  0.00    -0.195 NA
ATOM      9  C   UNL A   1      32.592  26.568  23.751  1.00  0.00     0.066 A 
ATOM     10  C   UNL A   1      31.823  27.822  23.477  1.00  0.00     0.069 C 
BRANCH   6  11
ATOM     11  N   UNL A   1      34.576  24.126  25.824  1.00  0.00    -0.261 N 
ATOM     12  C   UNL A   1      36.033  24.091  25.528  1.00  0.00     0.164 C 
BRANCH  11  13
ATOM     13  S   UNL A   1      33.839  22.605  26.129  1.00  0.00     0.249 S 
ATOM     14  O   UNL A   1      33.544  22.550  27.546  1.00  0.00    -0.206 OA
ATOM     15  O   UNL A   1      34.724  21.618  25.535  1.00  0.00    -0.206 OA
BRANCH  13  16
ATOM     16  C   UNL A   1      32.303  22.514  25.197  1.00  0.00     0.236 C 
ATOM     17  C   UNL A   1      30.973  22.583  25.931  1.00  0.00     0.039 C 
BRANCH  16  18
ATOM     18  C   UNL A   1      32.306  21.295  24.334  1.00  0.00     0.325 C 
ATOM     19  O   UNL A   1      32.374  21.318  23.112  1.00  0.00    -0.251 OA
BRANCH  18  20
ATOM     20  O   UNL A   1      32.037  20.183  25.075  1.00  0.00    -0.468 OA
ATOM     21  C   UNL A   1      32.428  18.955  24.466  1.00  0.00     0.282 C 
ENDBRANCH  18  20
ENDBRANCH  16  18
ENDBRANCH  13  16
ENDBRANCH  11  13
ENDBRANCH   6  11
ENDBRANCH   1   5
BRANCH   3  22
ATOM     22  C   UNL A   1      34.213  28.394  26.415  1.00  0.00     0.118 C 
BRANCH  22  23
ATOM     23  C   UNL A   1      34.496  29.803  26.886  1.00  0.00     0.042 C 
BRANCH  23  24
ATOM     24  C   UNL A   1      33.405  30.388  27.770  1.00  0.00     0.118 C 
BRANCH  24  25
ATOM     25  N   UNL A   1      32.594  31.466  27.188  1.00  0.00    -0.352 N 
ATOM     26  C   UNL A   1      32.609  32.818  27.524  1.00  0.00     0.251 C 
ATOM     27  H   UNL A   1      31.965  31.202  26.477  1.00  0.00     0.163 HD
ATOM     28  O   UNL A   1      31.799  33.614  27.095  1.00  0.00    -0.269 OA
BRANCH  26  29
ATOM     29  C   UNL A   1      33.748  33.241  28.359  1.00  0.00     0.039 A 
ATOM     30  C   UNL A   1      33.974  32.669  29.608  1.00  0.00     0.014 A 
ATOM     31  C   UNL A   1      34.768  33.824  27.627  1.00  0.00     0.014 A 
ATOM     32  C   UNL A   1      35.297  32.502  30.025  1.00  0.00     0.010 A 
ATOM     33  C   UNL A   1      36.050  33.445  27.946  1.00  0.00     0.010 A 
ATOM     34  C   UNL A   1      36.355  32.789  29.141  1.00  0.00    -0.014 A 
BRANCH  34  35
ATOM     35  C   UNL A   1      37.722  32.293  29.397  1.00  0.00     0.031 A 
ATOM     36  C   UNL A   1      38.015  30.844  29.132  1.00  0.00     0.074 A 
ATOM     37  C   UNL A   1      38.796  33.053  29.718  1.00  0.00     0.049 A 
ATOM     38  N   UNL A   1      38.232  29.926  30.019  1.00  0.00    -0.248 NA
ATOM     39  C   UNL A   1      38.061  30.347  27.748  1.00  0.00     0.031 C 
ATOM     40  C   UNL A   1      38.937  34.512  29.828  1.00  0.00     0.029 A 
ATOM     41  N   UNL A   1      40.070  32.624  29.956  1.00  0.00    -0.354 N 
ATOM     42  C   UNL A   1      38.584  28.767  29.331  1.00  0.00     0.074 A 
ATOM     43  C   UNL A   1      38.377  29.059  27.932  1.00  0.00     0.031 C 
ATOM     44  C   UNL A   1      40.240  34.854  29.844  1.00  0.00     0.029 A 
ATOM     45  C   UNL A   1      41.005  33.640  30.013  1.00  0.00     0.049 A 
ATOM     46  H   UNL A   1      40.303  31.675  30.075  1.00  0.00     0.167 HD
ATOM     47  C   UNL A   1      39.166  27.701  29.953  1.00  0.00     0.031 A 
ATOM     48  C   UNL A   1      42.318  33.548  30.299  1.00  0.00     0.031 A 
ATOM     49  C   UNL A   1      39.104  27.808  31.387  1.00  0.00     0.049 A 
ATOM     50  C   UNL A   1      42.507  32.327  31.101  1.00  0.00     0.074 A 
ATOM     51  C   UNL A   1      38.096  27.888  32.325  1.00  0.00     0.029 A 
ATOM     52  N   UNL A   1      40.244  28.212  32.038  1.00  0.00    -0.354 N 
ATOM     53  N   UNL A   1      42.009  32.173  32.295  1.00  0.00    -0.248 NA
ATOM     54  C   UNL A   1      42.924  31.105  30.437  1.00  0.00     0.031 C 
ATOM     55  C   UNL A   1      38.580  28.811  33.302  1.00  0.00     0.029 A 
ATOM     56  C   UNL A   1      39.868  29.196  32.916  1.00  0.00     0.049 A 
ATOM     57  H   UNL A   1      41.155  27.863  31.902  1.00  0.00     0.167 HD
ATOM     58  C   UNL A   1      41.660  30.833  32.367  1.00  0.00     0.074 A 
ATOM     59  C   UNL A   1      42.371  30.206  31.255  1.00  0.00     0.031 C 
ATOM     60  C   UNL A   1      40.625  30.408  33.152  1.00  0.00     0.031 A 
BRANCH  47  61
ATOM     61  C   UNL A   1      40.077  26.696  29.294  1.00  0.00    -0.014 A 
ATOM     62  C   UNL A   1      41.448  26.998  29.157  1.00  0.00     0.009 A 
ATOM     63  C   UNL A   1      39.598  25.591  28.569  1.00  0.00     0.009 A 
ATOM     64  C   UNL A   1      42.280  26.261  28.305  1.00  0.00     0.001 A 
ATOM     65  C   UNL A   1      40.436  24.828  27.747  1.00  0.00     0.001 A 
ATOM     66  C   UNL A   1      41.772  25.178  27.597  1.00  0.00     0.000 A 
ENDBRANCH  47  61
BRANCH  48  67
ATOM     67  C   UNL A   1      43.399  34.390  29.770  1.00  0.00    -0.014 A 
ATOM     68  C   UNL A   1      43.744  34.374  28.415  1.00  0.00     0.009 A 
ATOM     69  C   UNL A   1      43.946  35.401  30.586  1.00  0.00     0.009 A 
ATOM     70  C   UNL A   1      44.576  35.366  27.884  1.00  0.00     0.001 A 
ATOM     71  C   UNL A   1      44.775  36.392  30.055  1.00  0.00     0.001 A 
ATOM     72  C   UNL A   1      45.077  36.381  28.699  1.00  0.00     0.000 A 
ENDBRANCH  48  67
BRANCH  60  73
ATOM     73  C   UNL A   1      40.024  31.389  34.133  1.00  0.00    -0.014 A 
ATOM     74  C   UNL A   1      39.005  32.291  33.777  1.00  0.00     0.009 A 
ATOM     75  C   UNL A   1      40.371  31.286  35.489  1.00  0.00     0.009 A 
ATOM     76  C   UNL A   1      38.376  33.085  34.742  1.00  0.00     0.001 A 
ATOM     77  C   UNL A   1      39.727  32.065  36.456  1.00  0.00     0.001 A 
ATOM     78  C   UNL A   1      38.733  32.967  36.082  1.00  0.00     0.000 A 
ENDBRANCH  60  73
ENDBRANCH  34  35
ENDBRANCH  26  29
ENDBRANCH  24  25
ENDBRANCH  23  24
ENDBRANCH  22  23
ENDBRANCH   3  22
TORSDOF 15
ENDMDL
