MODEL 1
REMARK VINA RESULT:     -13.5      0.000      0.000
REMARK SMILES CC1=Nc2c(c(C)nn2-c2ccc(F)cc2)[C@H](c2ccc(C(=O)NCCCNC(=O)c3ccc(-c4c5nc(c(-c6ccccc6)c6ccc([nH]6)c(-c6ccccc6)c6nc(c(-c7ccccc7)c7ccc4[nH]7)C=C6)C=C5)cc3)cc2)S1
REMARK SMILES IDX 26 1 25 2 24 3 22 4 23 5 21 7 18 8 19 9 80 10 20 11 79 12
REMARK SMILES IDX 17 13 1 14 2 15 3 16 81 17 4 18 5 19 9 20 6 21 8 22 7 23
REMARK SMILES IDX 10 24 11 25 16 26 12 27 15 28 13 29 14 30 27 31 28 32 29 33
REMARK SMILES IDX 30 35 31 36 32 37 78 38 33 39 77 40 34 41 35 42 36 43 71 44
REMARK SMILES IDX 37 45 76 46 70 47 72 48 38 49 75 50 69 51 68 52 39 54 61 55
REMARK SMILES IDX 46 56 60 57 47 58 50 59 59 60 73 61 48 62 49 63 58 65 74 66
REMARK SMILES IDX 51 67 40 68 41 69 45 70 42 71 44 72 43 73 62 74 63 75 67 76
REMARK SMILES IDX 64 77 66 78 65 79 52 80 53 81 57 82 54 83 56 84 55 85
REMARK H PARENT 24 6 28 34 72 53 50 64
REMARK Flexibility Score: inf
ROOT
ATOM      1  C   UNL A   1      31.407  31.793  26.116  1.00  0.00     0.042 C 
ENDROOT
BRANCH   1   2
ATOM      2  C   UNL A   1      31.457  30.273  25.920  1.00  0.00     0.118 C 
BRANCH   2   3
ATOM      3  N   UNL A   1      31.235  29.894  24.532  1.00  0.00    -0.352 N 
ATOM      4  C   UNL A   1      31.368  28.684  23.900  1.00  0.00     0.251 C 
ATOM      5  O   UNL A   1      31.014  28.589  22.726  1.00  0.00    -0.269 OA
ATOM      6  H   UNL A   1      30.938  30.631  23.950  1.00  0.00     0.163 HD
BRANCH   4   7
ATOM      7  C   UNL A   1      31.881  27.480  24.603  1.00  0.00     0.039 A 
ATOM      8  C   UNL A   1      32.976  25.231  25.926  1.00  0.00    -0.030 A 
ATOM      9  C   UNL A   1      33.797  26.118  25.206  1.00  0.00     0.006 A 
ATOM     10  C   UNL A   1      31.600  25.503  25.979  1.00  0.00     0.006 A 
ATOM     11  C   UNL A   1      33.257  27.238  24.566  1.00  0.00     0.014 A 
ATOM     12  C   UNL A   1      31.065  26.621  25.339  1.00  0.00     0.014 A 
BRANCH   8  13
ATOM     13  C   UNL A   1      33.610  24.078  26.691  1.00  0.00     0.119 C 
ATOM     14  C   UNL A   1      37.071  23.150  24.582  1.00  0.00     0.075 C 
ATOM     15  C   UNL A   1      35.736  22.990  25.263  1.00  0.00     0.074 C 
ATOM     16  N   UNL A   1      34.943  22.079  24.796  1.00  0.00    -0.227 NA
ATOM     17  S   UNL A   1      35.435  24.064  26.621  1.00  0.00    -0.098 SA
ATOM     18  C   UNL A   1      33.697  21.979  25.314  1.00  0.00     0.161 A 
ATOM     19  C   UNL A   1      33.006  22.850  26.124  1.00  0.00     0.038 A 
ATOM     20  N   UNL A   1      32.809  20.969  24.983  1.00  0.00    -0.215 N 
ATOM     21  C   UNL A   1      31.690  22.318  26.190  1.00  0.00     0.067 A 
ATOM     22  N   UNL A   1      31.551  21.236  25.410  1.00  0.00    -0.171 NA
ATOM     23  C   UNL A   1      30.517  22.839  26.939  1.00  0.00     0.069 C 
BRANCH  20  24
ATOM     24  C   UNL A   1      33.125  19.785  24.285  1.00  0.00     0.067 A 
ATOM     25  C   UNL A   1      32.290  19.370  23.237  1.00  0.00     0.031 A 
ATOM     26  C   UNL A   1      34.221  19.012  24.681  1.00  0.00     0.031 A 
ATOM     27  C   UNL A   1      32.542  18.164  22.591  1.00  0.00     0.041 A 
ATOM     28  C   UNL A   1      34.433  17.778  24.062  1.00  0.00     0.041 A 
ATOM     29  C   UNL A   1      33.597  17.369  23.025  1.00  0.00     0.123 A 
ATOM     30  F   UNL A   1      33.804  16.182  22.439  1.00  0.00    -0.207 F 
ENDBRANCH  20  24
ENDBRANCH   8  13
ENDBRANCH   4   7
ENDBRANCH   2   3
ENDBRANCH   1   2
BRANCH   1  31
ATOM     31  C   UNL A   1      32.301  32.263  27.249  1.00  0.00     0.118 C 
BRANCH  31  32
ATOM     32  N   UNL A   1      32.163  33.698  27.506  1.00  0.00    -0.352 N 
ATOM     33  C   UNL A   1      32.889  34.502  28.366  1.00  0.00     0.251 C 
ATOM     34  H   UNL A   1      31.454  34.153  26.997  1.00  0.00     0.163 HD
ATOM     35  O   UNL A   1      32.457  35.580  28.730  1.00  0.00    -0.269 OA
BRANCH  33  36
ATOM     36  C   UNL A   1      34.204  34.027  28.833  1.00  0.00     0.039 A 
ATOM     37  C   UNL A   1      34.363  33.433  30.090  1.00  0.00     0.014 A 
ATOM     38  C   UNL A   1      35.285  34.169  27.972  1.00  0.00     0.014 A 
ATOM     39  C   UNL A   1      35.609  32.913  30.434  1.00  0.00     0.010 A 
ATOM     40  C   UNL A   1      36.443  33.490  28.226  1.00  0.00     0.010 A 
ATOM     41  C   UNL A   1      36.639  32.935  29.485  1.00  0.00    -0.014 A 
BRANCH  41  42
ATOM     42  C   UNL A   1      37.927  32.302  29.730  1.00  0.00     0.031 A 
ATOM     43  C   UNL A   1      37.989  30.865  29.361  1.00  0.00     0.074 A 
ATOM     44  C   UNL A   1      39.035  33.034  29.982  1.00  0.00     0.049 A 
ATOM     45  N   UNL A   1      38.158  29.853  30.144  1.00  0.00    -0.248 NA
ATOM     46  C   UNL A   1      37.692  30.497  27.966  1.00  0.00     0.031 C 
ATOM     47  C   UNL A   1      39.154  34.501  30.020  1.00  0.00     0.029 A 
ATOM     48  N   UNL A   1      40.326  32.630  30.106  1.00  0.00    -0.354 N 
ATOM     49  C   UNL A   1      38.206  28.737  29.315  1.00  0.00     0.074 A 
ATOM     50  C   UNL A   1      37.706  29.165  28.034  1.00  0.00     0.031 C 
ATOM     51  C   UNL A   1      40.452  34.853  29.901  1.00  0.00     0.029 A 
ATOM     52  C   UNL A   1      41.261  33.651  29.964  1.00  0.00     0.049 A 
ATOM     53  H   UNL A   1      40.579  31.695  30.282  1.00  0.00     0.167 HD
ATOM     54  C   UNL A   1      38.927  27.632  29.657  1.00  0.00     0.031 A 
ATOM     55  C   UNL A   1      42.605  33.519  29.874  1.00  0.00     0.031 A 
ATOM     56  C   UNL A   1      39.315  27.669  31.046  1.00  0.00     0.049 A 
ATOM     57  C   UNL A   1      42.950  32.178  30.392  1.00  0.00     0.074 A 
ATOM     58  C   UNL A   1      38.647  27.705  32.252  1.00  0.00     0.029 A 
ATOM     59  N   UNL A   1      40.600  28.085  31.302  1.00  0.00    -0.354 N 
ATOM     60  N   UNL A   1      42.801  31.831  31.638  1.00  0.00    -0.248 NA
ATOM     61  C   UNL A   1      43.053  31.078  29.447  1.00  0.00     0.031 C 
ATOM     62  C   UNL A   1      39.434  28.556  33.084  1.00  0.00     0.029 A 
ATOM     63  C   UNL A   1      40.574  28.938  32.372  1.00  0.00     0.049 A 
ATOM     64  H   UNL A   1      41.403  27.814  30.801  1.00  0.00     0.167 HD
ATOM     65  C   UNL A   1      42.337  30.525  31.583  1.00  0.00     0.074 A 
ATOM     66  C   UNL A   1      42.645  30.073  30.228  1.00  0.00     0.031 C 
ATOM     67  C   UNL A   1      41.489  30.047  32.542  1.00  0.00     0.031 A 
BRANCH  54  68
ATOM     68  C   UNL A   1      39.672  26.772  28.660  1.00  0.00    -0.014 A 
ATOM     69  C   UNL A   1      40.611  27.389  27.813  1.00  0.00     0.009 A 
ATOM     70  C   UNL A   1      39.288  25.460  28.320  1.00  0.00     0.009 A 
ATOM     71  C   UNL A   1      41.068  26.761  26.647  1.00  0.00     0.001 A 
ATOM     72  C   UNL A   1      39.776  24.813  27.181  1.00  0.00     0.001 A 
ATOM     73  C   UNL A   1      40.643  25.476  26.327  1.00  0.00     0.000 A 
ENDBRANCH  54  68
BRANCH  55  74
ATOM     74  C   UNL A   1      43.586  34.370  29.171  1.00  0.00    -0.014 A 
ATOM     75  C   UNL A   1      43.441  34.661  27.805  1.00  0.00     0.009 A 
ATOM     76  C   UNL A   1      44.523  35.120  29.906  1.00  0.00     0.009 A 
ATOM     77  C   UNL A   1      44.179  35.692  27.208  1.00  0.00     0.001 A 
ATOM     78  C   UNL A   1      45.258  36.150  29.309  1.00  0.00     0.001 A 
ATOM     79  C   UNL A   1      45.075  36.446  27.962  1.00  0.00     0.000 A 
ENDBRANCH  55  74
BRANCH  67  80
ATOM     80  C   UNL A   1      41.309  30.877  33.792  1.00  0.00    -0.014 A 
ATOM     81  C   UNL A   1      40.372  31.921  33.898  1.00  0.00     0.009 A 
ATOM     82  C   UNL A   1      42.012  30.494  34.943  1.00  0.00     0.009 A 
ATOM     83  C   UNL A   1      40.167  32.578  35.116  1.00  0.00     0.001 A 
ATOM     84  C   UNL A   1      41.791  31.136  36.163  1.00  0.00     0.001 A 
ATOM     85  C   UNL A   1      40.874  32.181  36.250  1.00  0.00     0.000 A 
ENDBRANCH  67  80
ENDBRANCH  41  42
ENDBRANCH  33  36
ENDBRANCH  31  32
ENDBRANCH   1  31
TORSDOF 12
ENDMDL
MODEL 2
REMARK VINA RESULT:     -13.4      4.484      9.433
REMARK SMILES CC1=Nc2c(c(C)nn2-c2ccc(F)cc2)[C@H](c2ccc(C(=O)NCCCNC(=O)c3ccc(-c4c5nc(c(-c6ccccc6)c6ccc([nH]6)c(-c6ccccc6)c6nc(c(-c7ccccc7)c7ccc4[nH]7)C=C6)C=C5)cc3)cc2)S1
REMARK SMILES IDX 26 1 25 2 24 3 22 4 23 5 21 7 18 8 19 9 80 10 20 11 79 12
REMARK SMILES IDX 17 13 1 14 2 15 3 16 81 17 4 18 5 19 9 20 6 21 8 22 7 23
REMARK SMILES IDX 10 24 11 25 16 26 12 27 15 28 13 29 14 30 27 31 28 32 29 33
REMARK SMILES IDX 30 35 31 36 32 37 78 38 33 39 77 40 34 41 35 42 36 43 71 44
REMARK SMILES IDX 37 45 76 46 70 47 72 48 38 49 75 50 69 51 68 52 39 54 61 55
REMARK SMILES IDX 46 56 60 57 47 58 50 59 59 60 73 61 48 62 49 63 58 65 74 66
REMARK SMILES IDX 51 67 40 68 41 69 45 70 42 71 44 72 43 73 62 74 63 75 67 76
REMARK SMILES IDX 64 77 66 78 65 79 52 80 53 81 57 82 54 83 56 84 55 85
REMARK H PARENT 24 6 28 34 72 53 50 64
REMARK Flexibility Score: inf
ROOT
ATOM      1  C   UNL A   1      37.807  20.020  24.642  1.00  0.00     0.042 C 
ENDROOT
BRANCH   1   2
ATOM      2  C   UNL A   1      36.442  20.647  24.947  1.00  0.00     0.118 C 
BRANCH   2   3
ATOM      3  N   UNL A   1      35.392  19.644  25.054  1.00  0.00    -0.352 N 
ATOM      4  C   UNL A   1      34.038  19.738  24.855  1.00  0.00     0.251 C 
ATOM      5  O   UNL A   1      33.362  18.711  24.902  1.00  0.00    -0.269 OA
ATOM      6  H   UNL A   1      35.708  18.748  25.312  1.00  0.00     0.163 HD
BRANCH   4   7
ATOM      7  C   UNL A   1      33.376  21.029  24.538  1.00  0.00     0.039 A 
ATOM      8  C   UNL A   1      32.031  23.426  23.861  1.00  0.00    -0.030 A 
ATOM      9  C   UNL A   1      31.763  22.227  23.176  1.00  0.00     0.006 A 
ATOM     10  C   UNL A   1      32.975  23.394  24.899  1.00  0.00     0.006 A 
ATOM     11  C   UNL A   1      32.417  21.040  23.521  1.00  0.00     0.014 A 
ATOM     12  C   UNL A   1      33.624  22.207  25.241  1.00  0.00     0.014 A 
BRANCH   8  13
ATOM     13  C   UNL A   1      31.230  24.675  23.525  1.00  0.00     0.119 C 
ATOM     14  C   UNL A   1      33.963  27.273  21.773  1.00  0.00     0.075 C 
ATOM     15  C   UNL A   1      32.910  26.739  22.709  1.00  0.00     0.074 C 
ATOM     16  N   UNL A   1      32.901  27.209  23.915  1.00  0.00    -0.227 NA
ATOM     17  S   UNL A   1      31.816  25.543  22.028  1.00  0.00    -0.098 SA
ATOM     18  C   UNL A   1      32.038  26.676  24.811  1.00  0.00     0.161 A 
ATOM     19  C   UNL A   1      31.294  25.522  24.739  1.00  0.00     0.038 A 
ATOM     20  N   UNL A   1      31.853  27.179  26.087  1.00  0.00    -0.215 N 
ATOM     21  C   UNL A   1      30.730  25.373  26.034  1.00  0.00     0.067 A 
ATOM     22  N   UNL A   1      31.158  26.324  26.877  1.00  0.00    -0.171 NA
ATOM     23  C   UNL A   1      29.820  24.307  26.531  1.00  0.00     0.069 C 
BRANCH  20  24
ATOM     24  C   UNL A   1      32.312  28.426  26.562  1.00  0.00     0.067 A 
ATOM     25  C   UNL A   1      31.557  29.577  26.289  1.00  0.00     0.031 A 
ATOM     26  C   UNL A   1      33.532  28.509  27.238  1.00  0.00     0.031 A 
ATOM     27  C   UNL A   1      32.036  30.823  26.680  1.00  0.00     0.041 A 
ATOM     28  C   UNL A   1      34.028  29.770  27.578  1.00  0.00     0.041 A 
ATOM     29  C   UNL A   1      33.277  30.910  27.300  1.00  0.00     0.123 A 
ATOM     30  F   UNL A   1      33.761  32.116  27.625  1.00  0.00    -0.207 F 
ENDBRANCH  20  24
ENDBRANCH   8  13
ENDBRANCH   4   7
ENDBRANCH   2   3
ENDBRANCH   1   2
BRANCH   1  31
ATOM     31  C   UNL A   1      38.822  20.273  25.743  1.00  0.00     0.118 C 
BRANCH  31  32
ATOM     32  N   UNL A   1      39.878  19.259  25.767  1.00  0.00    -0.352 N 
ATOM     33  C   UNL A   1      41.239  19.424  25.954  1.00  0.00     0.251 C 
ATOM     34  H   UNL A   1      39.578  18.332  25.631  1.00  0.00     0.163 HD
ATOM     35  O   UNL A   1      42.026  18.560  25.617  1.00  0.00    -0.269 OA
BRANCH  33  36
ATOM     36  C   UNL A   1      41.718  20.672  26.574  1.00  0.00     0.039 A 
ATOM     37  C   UNL A   1      42.351  21.667  25.821  1.00  0.00     0.014 A 
ATOM     38  C   UNL A   1      41.502  20.841  27.936  1.00  0.00     0.014 A 
ATOM     39  C   UNL A   1      42.691  22.866  26.444  1.00  0.00     0.010 A 
ATOM     40  C   UNL A   1      41.654  22.078  28.495  1.00  0.00     0.010 A 
ATOM     41  C   UNL A   1      42.323  23.065  27.782  1.00  0.00    -0.014 A 
BRANCH  41  42
ATOM     42  C   UNL A   1      42.536  24.336  28.460  1.00  0.00     0.031 A 
ATOM     43  C   UNL A   1      41.551  25.392  28.114  1.00  0.00     0.074 A 
ATOM     44  C   UNL A   1      43.365  24.436  29.522  1.00  0.00     0.049 A 
ATOM     45  N   UNL A   1      41.768  26.508  27.504  1.00  0.00    -0.248 NA
ATOM     46  C   UNL A   1      40.125  25.114  28.359  1.00  0.00     0.031 C 
ATOM     47  C   UNL A   1      44.127  23.359  30.173  1.00  0.00     0.029 A 
ATOM     48  N   UNL A   1      43.585  25.494  30.347  1.00  0.00    -0.354 N 
ATOM     49  C   UNL A   1      40.545  27.171  27.480  1.00  0.00     0.074 A 
ATOM     50  C   UNL A   1      39.549  26.189  27.821  1.00  0.00     0.031 C 
ATOM     51  C   UNL A   1      44.507  23.754  31.407  1.00  0.00     0.029 A 
ATOM     52  C   UNL A   1      44.179  25.159  31.560  1.00  0.00     0.049 A 
ATOM     53  H   UNL A   1      43.347  26.418  30.106  1.00  0.00     0.167 HD
ATOM     54  C   UNL A   1      40.478  28.532  27.474  1.00  0.00     0.031 A 
ATOM     55  C   UNL A   1      44.362  25.968  32.629  1.00  0.00     0.031 A 
ATOM     56  C   UNL A   1      41.762  29.118  27.176  1.00  0.00     0.049 A 
ATOM     57  C   UNL A   1      44.240  27.361  32.151  1.00  0.00     0.074 A 
ATOM     58  C   UNL A   1      42.638  29.077  26.111  1.00  0.00     0.029 A 
ATOM     59  N   UNL A   1      42.485  29.566  28.256  1.00  0.00    -0.354 N 
ATOM     60  N   UNL A   1      45.090  27.916  31.335  1.00  0.00    -0.248 NA
ATOM     61  C   UNL A   1      42.940  28.007  32.229  1.00  0.00     0.031 C 
ATOM     62  C   UNL A   1      43.936  29.079  26.702  1.00  0.00     0.029 A 
ATOM     63  C   UNL A   1      43.791  29.192  28.087  1.00  0.00     0.049 A 
ATOM     64  H   UNL A   1      42.125  30.070  29.021  1.00  0.00     0.167 HD
ATOM     65  C   UNL A   1      44.307  28.674  30.478  1.00  0.00     0.074 A 
ATOM     66  C   UNL A   1      43.020  28.803  31.158  1.00  0.00     0.031 C 
ATOM     67  C   UNL A   1      44.686  28.868  29.179  1.00  0.00     0.031 A 
BRANCH  54  68
ATOM     68  C   UNL A   1      39.403  29.324  28.185  1.00  0.00    -0.014 A 
ATOM     69  C   UNL A   1      39.406  29.344  29.593  1.00  0.00     0.009 A 
ATOM     70  C   UNL A   1      38.237  29.800  27.554  1.00  0.00     0.009 A 
ATOM     71  C   UNL A   1      38.274  29.734  30.320  1.00  0.00     0.001 A 
ATOM     72  C   UNL A   1      37.122  30.231  28.277  1.00  0.00     0.001 A 
ATOM     73  C   UNL A   1      37.129  30.169  29.662  1.00  0.00     0.000 A 
ENDBRANCH  54  68
BRANCH  55  74
ATOM     74  C   UNL A   1      44.410  25.628  34.065  1.00  0.00    -0.014 A 
ATOM     75  C   UNL A   1      45.216  26.357  34.953  1.00  0.00     0.009 A 
ATOM     76  C   UNL A   1      43.455  24.753  34.614  1.00  0.00     0.009 A 
ATOM     77  C   UNL A   1      45.044  26.245  36.339  1.00  0.00     0.001 A 
ATOM     78  C   UNL A   1      43.282  24.642  35.998  1.00  0.00     0.001 A 
ATOM     79  C   UNL A   1      44.067  25.399  36.861  1.00  0.00     0.000 A 
ENDBRANCH  55  74
BRANCH  67  80
ATOM     80  C   UNL A   1      46.095  28.481  28.796  1.00  0.00    -0.014 A 
ATOM     81  C   UNL A   1      46.459  27.182  28.399  1.00  0.00     0.009 A 
ATOM     82  C   UNL A   1      47.053  29.499  28.698  1.00  0.00     0.009 A 
ATOM     83  C   UNL A   1      47.754  26.908  27.944  1.00  0.00     0.001 A 
ATOM     84  C   UNL A   1      48.338  29.230  28.223  1.00  0.00     0.001 A 
ATOM     85  C   UNL A   1      48.691  27.935  27.851  1.00  0.00     0.000 A 
ENDBRANCH  67  80
ENDBRANCH  41  42
ENDBRANCH  33  36
ENDBRANCH  31  32
ENDBRANCH   1  31
TORSDOF 12
ENDMDL
MODEL 3
REMARK VINA RESULT:     -13.3      2.790      6.081
REMARK SMILES CC1=Nc2c(c(C)nn2-c2ccc(F)cc2)[C@H](c2ccc(C(=O)NCCCNC(=O)c3ccc(-c4c5nc(c(-c6ccccc6)c6ccc([nH]6)c(-c6ccccc6)c6nc(c(-c7ccccc7)c7ccc4[nH]7)C=C6)C=C5)cc3)cc2)S1
REMARK SMILES IDX 26 1 25 2 24 3 22 4 23 5 21 7 18 8 19 9 80 10 20 11 79 12
REMARK SMILES IDX 17 13 1 14 2 15 3 16 81 17 4 18 5 19 9 20 6 21 8 22 7 23
REMARK SMILES IDX 10 24 11 25 16 26 12 27 15 28 13 29 14 30 27 31 28 32 29 33
REMARK SMILES IDX 30 35 31 36 32 37 78 38 33 39 77 40 34 41 35 42 36 43 71 44
REMARK SMILES IDX 37 45 76 46 70 47 72 48 38 49 75 50 69 51 68 52 39 54 61 55
REMARK SMILES IDX 46 56 60 57 47 58 50 59 59 60 73 61 48 62 49 63 58 65 74 66
REMARK SMILES IDX 51 67 40 68 41 69 45 70 42 71 44 72 43 73 62 74 63 75 67 76
REMARK SMILES IDX 64 77 66 78 65 79 52 80 53 81 57 82 54 83 56 84 55 85
REMARK H PARENT 24 6 28 34 72 53 50 64
REMARK Flexibility Score: inf
ROOT
ATOM      1  C   UNL A   1      32.285  30.025  26.807  1.00  0.00     0.042 C 
ENDROOT
BRANCH   1   2
ATOM      2  C   UNL A   1      32.570  29.789  25.319  1.00  0.00     0.118 C 
BRANCH   2   3
ATOM      3  N   UNL A   1      31.367  29.912  24.508  1.00  0.00    -0.352 N 
ATOM      4  C   UNL A   1      30.541  28.952  23.978  1.00  0.00     0.251 C 
ATOM      5  O   UNL A   1      29.510  29.311  23.409  1.00  0.00    -0.269 OA
ATOM      6  H   UNL A   1      31.102  30.839  24.306  1.00  0.00     0.163 HD
BRANCH   4   7
ATOM      7  C   UNL A   1      30.829  27.502  24.113  1.00  0.00     0.039 A 
ATOM      8  C   UNL A   1      31.357  24.725  24.246  1.00  0.00    -0.030 A 
ATOM      9  C   UNL A   1      30.787  25.300  23.095  1.00  0.00     0.006 A 
ATOM     10  C   UNL A   1      31.668  25.573  25.320  1.00  0.00     0.006 A 
ATOM     11  C   UNL A   1      30.540  26.674  23.024  1.00  0.00     0.014 A 
ATOM     12  C   UNL A   1      31.421  26.944  25.246  1.00  0.00     0.014 A 
BRANCH   8  13
ATOM     13  C   UNL A   1      31.701  23.242  24.251  1.00  0.00     0.119 C 
ATOM     14  C   UNL A   1      32.699  22.374  28.193  1.00  0.00     0.075 C 
ATOM     15  C   UNL A   1      32.801  22.487  26.693  1.00  0.00     0.074 C 
ATOM     16  N   UNL A   1      33.986  22.634  26.194  1.00  0.00    -0.227 NA
ATOM     17  S   UNL A   1      31.282  22.395  25.813  1.00  0.00    -0.098 SA
ATOM     18  C   UNL A   1      34.105  22.845  24.862  1.00  0.00     0.161 A 
ATOM     19  C   UNL A   1      33.147  23.173  23.932  1.00  0.00     0.038 A 
ATOM     20  N   UNL A   1      35.320  22.891  24.200  1.00  0.00    -0.215 N 
ATOM     21  C   UNL A   1      33.874  23.454  22.745  1.00  0.00     0.067 A 
ATOM     22  N   UNL A   1      35.198  23.384  22.943  1.00  0.00    -0.171 NA
ATOM     23  C   UNL A   1      33.352  23.849  21.410  1.00  0.00     0.069 C 
BRANCH  20  24
ATOM     24  C   UNL A   1      36.565  22.486  24.726  1.00  0.00     0.067 A 
ATOM     25  C   UNL A   1      36.953  21.144  24.597  1.00  0.00     0.031 A 
ATOM     26  C   UNL A   1      37.364  23.403  25.414  1.00  0.00     0.031 A 
ATOM     27  C   UNL A   1      38.141  20.712  25.179  1.00  0.00     0.041 A 
ATOM     28  C   UNL A   1      38.526  22.947  26.040  1.00  0.00     0.041 A 
ATOM     29  C   UNL A   1      38.904  21.611  25.914  1.00  0.00     0.123 A 
ATOM     30  F   UNL A   1      40.018  21.181  26.520  1.00  0.00    -0.207 F 
ENDBRANCH  20  24
ENDBRANCH   8  13
ENDBRANCH   4   7
ENDBRANCH   2   3
ENDBRANCH   1   2
BRANCH   1  31
ATOM     31  C   UNL A   1      33.540  30.357  27.593  1.00  0.00     0.118 C 
BRANCH  31  32
ATOM     32  N   UNL A   1      33.993  31.730  27.361  1.00  0.00    -0.352 N 
ATOM     33  C   UNL A   1      35.158  32.345  27.783  1.00  0.00     0.251 C 
ATOM     34  H   UNL A   1      33.383  32.293  26.832  1.00  0.00     0.163 HD
ATOM     35  O   UNL A   1      35.249  33.559  27.814  1.00  0.00    -0.269 OA
BRANCH  33  36
ATOM     36  C   UNL A   1      36.293  31.500  28.195  1.00  0.00     0.039 A 
ATOM     37  C   UNL A   1      36.487  30.223  27.657  1.00  0.00     0.014 A 
ATOM     38  C   UNL A   1      37.183  32.022  29.125  1.00  0.00     0.014 A 
ATOM     39  C   UNL A   1      37.632  29.512  28.010  1.00  0.00     0.010 A 
ATOM     40  C   UNL A   1      38.392  31.415  29.316  1.00  0.00     0.010 A 
ATOM     41  C   UNL A   1      38.586  30.127  28.831  1.00  0.00    -0.014 A 
BRANCH  41  42
ATOM     42  C   UNL A   1      39.860  29.494  29.141  1.00  0.00     0.031 A 
ATOM     43  C   UNL A   1      40.071  29.207  30.583  1.00  0.00     0.074 A 
ATOM     44  C   UNL A   1      40.630  28.951  28.173  1.00  0.00     0.049 A 
ATOM     45  N   UNL A   1      40.958  29.717  31.370  1.00  0.00    -0.248 NA
ATOM     46  C   UNL A   1      39.091  28.346  31.267  1.00  0.00     0.031 C 
ATOM     47  C   UNL A   1      40.339  28.868  26.733  1.00  0.00     0.029 A 
ATOM     48  N   UNL A   1      41.769  28.218  28.286  1.00  0.00    -0.354 N 
ATOM     49  C   UNL A   1      40.787  29.081  32.595  1.00  0.00     0.074 A 
ATOM     50  C   UNL A   1      39.510  28.419  32.531  1.00  0.00     0.031 C 
ATOM     51  C   UNL A   1      41.125  27.928  26.165  1.00  0.00     0.029 A 
ATOM     52  C   UNL A   1      42.089  27.481  27.151  1.00  0.00     0.049 A 
ATOM     53  H   UNL A   1      42.320  28.210  29.101  1.00  0.00     0.167 HD
ATOM     54  C   UNL A   1      41.833  28.901  33.450  1.00  0.00     0.031 A 
ATOM     55  C   UNL A   1      43.060  26.544  27.033  1.00  0.00     0.031 A 
ATOM     56  C   UNL A   1      42.967  29.706  33.068  1.00  0.00     0.049 A 
ATOM     57  C   UNL A   1      44.002  26.746  28.154  1.00  0.00     0.074 A 
ATOM     58  C   UNL A   1      43.211  31.056  32.928  1.00  0.00     0.029 A 
ATOM     59  N   UNL A   1      43.957  29.058  32.369  1.00  0.00    -0.354 N 
ATOM     60  N   UNL A   1      44.758  27.800  28.274  1.00  0.00    -0.248 NA
ATOM     61  C   UNL A   1      43.795  25.986  29.376  1.00  0.00     0.031 C 
ATOM     62  C   UNL A   1      44.071  31.159  31.794  1.00  0.00     0.029 A 
ATOM     63  C   UNL A   1      44.366  29.870  31.345  1.00  0.00     0.049 A 
ATOM     64  H   UNL A   1      44.313  28.163  32.571  1.00  0.00     0.167 HD
ATOM     65  C   UNL A   1      44.740  28.089  29.630  1.00  0.00     0.074 A 
ATOM     66  C   UNL A   1      44.253  26.869  30.269  1.00  0.00     0.031 C 
ATOM     67  C   UNL A   1      44.841  29.380  30.067  1.00  0.00     0.031 A 
BRANCH  54  68
ATOM     68  C   UNL A   1      42.001  27.679  34.327  1.00  0.00    -0.014 A 
ATOM     69  C   UNL A   1      41.777  27.812  35.711  1.00  0.00     0.009 A 
ATOM     70  C   UNL A   1      42.643  26.498  33.906  1.00  0.00     0.009 A 
ATOM     71  C   UNL A   1      42.249  26.858  36.622  1.00  0.00     0.001 A 
ATOM     72  C   UNL A   1      43.075  25.524  34.810  1.00  0.00     0.001 A 
ATOM     73  C   UNL A   1      42.906  25.719  36.171  1.00  0.00     0.000 A 
ENDBRANCH  54  68
BRANCH  55  74
ATOM     74  C   UNL A   1      43.114  25.353  26.162  1.00  0.00    -0.014 A 
ATOM     75  C   UNL A   1      44.193  25.144  25.290  1.00  0.00     0.009 A 
ATOM     76  C   UNL A   1      42.230  24.280  26.382  1.00  0.00     0.009 A 
ATOM     77  C   UNL A   1      44.404  23.895  24.693  1.00  0.00     0.001 A 
ATOM     78  C   UNL A   1      42.442  23.031  25.786  1.00  0.00     0.001 A 
ATOM     79  C   UNL A   1      43.538  22.834  24.953  1.00  0.00     0.000 A 
ENDBRANCH  55  74
BRANCH  67  80
ATOM     80  C   UNL A   1      45.253  30.429  29.061  1.00  0.00    -0.014 A 
ATOM     81  C   UNL A   1      46.584  30.843  28.877  1.00  0.00     0.009 A 
ATOM     82  C   UNL A   1      44.279  30.909  28.174  1.00  0.00     0.009 A 
ATOM     83  C   UNL A   1      46.923  31.732  27.851  1.00  0.00     0.001 A 
ATOM     84  C   UNL A   1      44.621  31.779  27.137  1.00  0.00     0.001 A 
ATOM     85  C   UNL A   1      45.941  32.195  26.978  1.00  0.00     0.000 A 
ENDBRANCH  67  80
ENDBRANCH  41  42
ENDBRANCH  33  36
ENDBRANCH  31  32
ENDBRANCH   1  31
TORSDOF 12
ENDMDL
