MODEL 1
REMARK VINA RESULT:     -11.2      0.000      0.000
REMARK SMILES COc1ccccc1C[C@@H](C(=O)NCCCNC(=O)c1ccc(-c2c3nc(c(-c4ccccc4)c4ccc([nH]4)c(-c4ccccc4)c4nc(c(-c5ccccc5)c5ccc2[nH]5)C=C4)C=C3)cc1)[C@@H]1C[C@H](C)C[C@H](C)C1
REMARK SMILES IDX 14 1 13 2 11 3 12 4 10 6 9 7 8 8 3 9 4 10 5 11 7 12 6 13
REMARK SMILES IDX 2 14 1 15 68 16 75 17 69 18 73 19 70 20 74 21 72 22 71 23
REMARK SMILES IDX 15 24 16 25 17 26 18 27 19 29 20 30 21 31 67 32 22 33 66 34
REMARK SMILES IDX 23 35 24 36 25 37 60 38 26 39 65 40 59 41 61 42 27 43 64 44
REMARK SMILES IDX 58 45 57 46 28 48 50 49 35 50 49 51 36 52 39 53 48 54 62 55
REMARK SMILES IDX 37 56 38 57 47 59 63 60 40 61 29 62 30 63 34 64 31 65 33 66
REMARK SMILES IDX 32 67 51 68 52 69 56 70 53 71 55 72 54 73 41 74 42 75 46 76
REMARK SMILES IDX 43 77 45 78 44 79
REMARK H PARENT 13 5 17 28 61 47 39 58
REMARK Flexibility Score: inf
ROOT
ATOM      1  C   UNL A   1      31.719  27.898  26.418  1.00  0.00     0.117 C 
ENDROOT
BRANCH   1   2
ATOM      2  N   UNL A   1      31.022  26.715  26.897  1.00  0.00    -0.356 N 
ATOM      3  C   UNL A   1      30.555  25.646  26.194  1.00  0.00     0.223 C 
ATOM      4  O   UNL A   1      29.544  25.096  26.643  1.00  0.00    -0.275 OA
ATOM      5  H   UNL A   1      30.864  26.683  27.869  1.00  0.00     0.163 HD
BRANCH   3   6
ATOM      6  C   UNL A   1      31.289  25.093  24.955  1.00  0.00     0.086 C 
BRANCH   6   7
ATOM      7  C   UNL A   1      30.355  25.258  23.731  1.00  0.00     0.053 C 
BRANCH   7   8
ATOM      8  C   UNL A   1      30.151  26.679  23.241  1.00  0.00    -0.005 A 
ATOM      9  C   UNL A   1      31.139  27.379  22.536  1.00  0.00     0.122 A 
ATOM     10  C   UNL A   1      30.982  28.729  22.208  1.00  0.00     0.047 A 
ATOM     11  C   UNL A   1      29.782  29.375  22.485  1.00  0.00     0.004 A 
ATOM     12  C   UNL A   1      28.927  27.328  23.460  1.00  0.00     0.007 A 
ATOM     13  C   UNL A   1      28.743  28.664  23.082  1.00  0.00     0.001 A 
BRANCH   9  14
ATOM     14  O   UNL A   1      32.290  26.748  22.139  1.00  0.00    -0.496 OA
ATOM     15  C   UNL A   1      33.418  27.489  22.623  1.00  0.00     0.278 C 
ENDBRANCH   9  14
ENDBRANCH   7   8
ENDBRANCH   6   7
BRANCH   6  16
ATOM     16  C   UNL A   1      31.658  23.586  25.314  1.00  0.00     0.002 C 
ATOM     17  C   UNL A   1      31.795  22.550  24.178  1.00  0.00     0.007 C 
ATOM     18  C   UNL A   1      32.769  23.458  26.382  1.00  0.00     0.007 C 
ATOM     19  C   UNL A   1      33.202  22.190  23.685  1.00  0.00    -0.014 C 
ATOM     20  C   UNL A   1      34.186  23.189  25.866  1.00  0.00    -0.014 C 
ATOM     21  C   UNL A   1      33.712  23.079  22.557  1.00  0.00     0.007 C 
ATOM     22  C   UNL A   1      34.207  22.059  24.831  1.00  0.00     0.006 C 
ATOM     23  C   UNL A   1      34.885  24.463  25.404  1.00  0.00     0.007 C 
ENDBRANCH   6  16
ENDBRANCH   3   6
ENDBRANCH   1   2
BRANCH   1  24
ATOM     24  C   UNL A   1      33.231  27.652  26.402  1.00  0.00     0.042 C 
BRANCH  24  25
ATOM     25  C   UNL A   1      34.080  28.822  25.908  1.00  0.00     0.118 C 
BRANCH  25  26
ATOM     26  N   UNL A   1      33.822  30.046  26.645  1.00  0.00    -0.352 N 
ATOM     27  C   UNL A   1      34.463  30.661  27.691  1.00  0.00     0.251 C 
ATOM     28  H   UNL A   1      33.024  30.532  26.332  1.00  0.00     0.163 HD
ATOM     29  O   UNL A   1      33.881  31.599  28.235  1.00  0.00    -0.269 OA
BRANCH  27  30
ATOM     30  C   UNL A   1      35.803  30.264  28.212  1.00  0.00     0.039 A 
ATOM     31  C   UNL A   1      36.895  30.399  27.338  1.00  0.00     0.014 A 
ATOM     32  C   UNL A   1      36.018  29.640  29.442  1.00  0.00     0.014 A 
ATOM     33  C   UNL A   1      38.169  29.934  27.691  1.00  0.00     0.010 A 
ATOM     34  C   UNL A   1      37.308  29.236  29.825  1.00  0.00     0.010 A 
ATOM     35  C   UNL A   1      38.397  29.357  28.947  1.00  0.00    -0.014 A 
BRANCH  35  36
ATOM     36  C   UNL A   1      39.746  28.843  29.328  1.00  0.00     0.031 A 
ATOM     37  C   UNL A   1      40.677  29.675  30.177  1.00  0.00     0.074 A 
ATOM     38  C   UNL A   1      40.164  27.635  28.897  1.00  0.00     0.049 A 
ATOM     39  N   UNL A   1      41.913  29.423  30.543  1.00  0.00    -0.248 NA
ATOM     40  C   UNL A   1      40.160  30.960  30.668  1.00  0.00     0.031 C 
ATOM     41  C   UNL A   1      39.384  26.712  28.073  1.00  0.00     0.029 A 
ATOM     42  N   UNL A   1      41.356  26.978  29.096  1.00  0.00    -0.354 N 
ATOM     43  C   UNL A   1      42.325  30.529  31.279  1.00  0.00     0.074 A 
ATOM     44  C   UNL A   1      41.219  31.463  31.286  1.00  0.00     0.031 C 
ATOM     45  C   UNL A   1      40.109  25.602  27.853  1.00  0.00     0.029 A 
ATOM     46  C   UNL A   1      41.418  25.750  28.483  1.00  0.00     0.049 A 
ATOM     47  H   UNL A   1      42.095  27.352  29.629  1.00  0.00     0.167 HD
ATOM     48  C   UNL A   1      43.508  30.748  31.904  1.00  0.00     0.031 A 
ATOM     49  C   UNL A   1      42.416  24.848  28.417  1.00  0.00     0.031 A 
ATOM     50  C   UNL A   1      44.608  29.819  31.934  1.00  0.00     0.049 A 
ATOM     51  C   UNL A   1      43.726  25.122  29.098  1.00  0.00     0.074 A 
ATOM     52  C   UNL A   1      45.823  29.944  32.589  1.00  0.00     0.029 A 
ATOM     53  N   UNL A   1      44.628  28.594  31.289  1.00  0.00    -0.354 N 
ATOM     54  N   UNL A   1      44.085  26.161  29.812  1.00  0.00    -0.248 NA
ATOM     55  C   UNL A   1      44.772  24.094  28.964  1.00  0.00     0.031 C 
ATOM     56  C   UNL A   1      46.593  28.813  32.307  1.00  0.00     0.029 A 
ATOM     57  C   UNL A   1      45.841  27.963  31.513  1.00  0.00     0.049 A 
ATOM     58  H   UNL A   1      43.889  28.226  30.752  1.00  0.00     0.167 HD
ATOM     59  C   UNL A   1      45.384  25.902  30.229  1.00  0.00     0.074 A 
ATOM     60  C   UNL A   1      45.749  24.604  29.701  1.00  0.00     0.031 C 
ATOM     61  C   UNL A   1      46.200  26.674  30.986  1.00  0.00     0.031 A 
BRANCH  48  62
ATOM     62  C   UNL A   1      43.686  32.065  32.607  1.00  0.00    -0.014 A 
ATOM     63  C   UNL A   1      44.192  33.187  31.934  1.00  0.00     0.009 A 
ATOM     64  C   UNL A   1      43.293  32.196  33.948  1.00  0.00     0.009 A 
ATOM     65  C   UNL A   1      44.332  34.405  32.600  1.00  0.00     0.001 A 
ATOM     66  C   UNL A   1      43.411  33.421  34.605  1.00  0.00     0.001 A 
ATOM     67  C   UNL A   1      43.939  34.523  33.932  1.00  0.00     0.000 A 
ENDBRANCH  48  62
BRANCH  49  68
ATOM     68  C   UNL A   1      42.218  23.580  27.666  1.00  0.00    -0.014 A 
ATOM     69  C   UNL A   1      41.646  22.465  28.295  1.00  0.00     0.009 A 
ATOM     70  C   UNL A   1      42.610  23.480  26.323  1.00  0.00     0.009 A 
ATOM     71  C   UNL A   1      41.489  21.264  27.598  1.00  0.00     0.001 A 
ATOM     72  C   UNL A   1      42.429  22.286  25.622  1.00  0.00     0.001 A 
ATOM     73  C   UNL A   1      41.877  21.177  26.262  1.00  0.00     0.000 A 
ENDBRANCH  49  68
BRANCH  61  74
ATOM     74  C   UNL A   1      47.557  26.125  31.320  1.00  0.00    -0.014 A 
ATOM     75  C   UNL A   1      47.806  25.500  32.551  1.00  0.00     0.009 A 
ATOM     76  C   UNL A   1      48.590  26.198  30.372  1.00  0.00     0.009 A 
ATOM     77  C   UNL A   1      49.071  24.981  32.837  1.00  0.00     0.001 A 
ATOM     78  C   UNL A   1      49.847  25.659  30.651  1.00  0.00     0.001 A 
ATOM     79  C   UNL A   1      50.089  25.058  31.886  1.00  0.00     0.000 A 
ENDBRANCH  61  74
ENDBRANCH  35  36
ENDBRANCH  27  30
ENDBRANCH  25  26
ENDBRANCH  24  25
ENDBRANCH   1  24
TORSDOF 14
ENDMDL
MODEL 2
REMARK VINA RESULT:     -11.1      0.770      1.295
REMARK SMILES COc1ccccc1C[C@@H](C(=O)NCCCNC(=O)c1ccc(-c2c3nc(c(-c4ccccc4)c4ccc([nH]4)c(-c4ccccc4)c4nc(c(-c5ccccc5)c5ccc2[nH]5)C=C4)C=C3)cc1)[C@@H]1C[C@H](C)C[C@H](C)C1
REMARK SMILES IDX 14 1 13 2 11 3 12 4 10 6 9 7 8 8 3 9 4 10 5 11 7 12 6 13
REMARK SMILES IDX 2 14 1 15 68 16 75 17 69 18 73 19 70 20 74 21 72 22 71 23
REMARK SMILES IDX 15 24 16 25 17 26 18 27 19 29 20 30 21 31 67 32 22 33 66 34
REMARK SMILES IDX 23 35 24 36 25 37 60 38 26 39 65 40 59 41 61 42 27 43 64 44
REMARK SMILES IDX 58 45 57 46 28 48 50 49 35 50 49 51 36 52 39 53 48 54 62 55
REMARK SMILES IDX 37 56 38 57 47 59 63 60 40 61 29 62 30 63 34 64 31 65 33 66
REMARK SMILES IDX 32 67 51 68 52 69 56 70 53 71 55 72 54 73 41 74 42 75 46 76
REMARK SMILES IDX 43 77 45 78 44 79
REMARK H PARENT 13 5 17 28 61 47 39 58
REMARK Flexibility Score: inf
ROOT
ATOM      1  C   UNL A   1      31.412  27.816  26.329  1.00  0.00     0.117 C 
ENDROOT
BRANCH   1   2
ATOM      2  N   UNL A   1      30.968  26.540  26.867  1.00  0.00    -0.356 N 
ATOM      3  C   UNL A   1      30.598  25.408  26.205  1.00  0.00     0.223 C 
ATOM      4  O   UNL A   1      29.743  24.707  26.756  1.00  0.00    -0.275 OA
ATOM      5  H   UNL A   1      30.927  26.487  27.849  1.00  0.00     0.163 HD
BRANCH   3   6
ATOM      6  C   UNL A   1      31.266  24.972  24.884  1.00  0.00     0.086 C 
BRANCH   6   7
ATOM      7  C   UNL A   1      30.237  25.161  23.742  1.00  0.00     0.053 C 
BRANCH   7   8
ATOM      8  C   UNL A   1      30.015  26.589  23.281  1.00  0.00    -0.005 A 
ATOM      9  C   UNL A   1      31.007  27.330  22.624  1.00  0.00     0.122 A 
ATOM     10  C   UNL A   1      30.827  28.684  22.325  1.00  0.00     0.047 A 
ATOM     11  C   UNL A   1      29.605  29.295  22.582  1.00  0.00     0.004 A 
ATOM     12  C   UNL A   1      28.770  27.204  23.480  1.00  0.00     0.007 A 
ATOM     13  C   UNL A   1      28.566  28.545  23.129  1.00  0.00     0.001 A 
BRANCH   9  14
ATOM     14  O   UNL A   1      32.183  26.735  22.247  1.00  0.00    -0.496 OA
ATOM     15  C   UNL A   1      33.279  27.496  22.773  1.00  0.00     0.278 C 
ENDBRANCH   9  14
ENDBRANCH   7   8
ENDBRANCH   6   7
BRANCH   6  16
ATOM     16  C   UNL A   1      31.735  23.469  25.118  1.00  0.00     0.002 C 
ATOM     17  C   UNL A   1      31.836  22.512  23.911  1.00  0.00     0.007 C 
ATOM     18  C   UNL A   1      32.929  23.337  26.092  1.00  0.00     0.007 C 
ATOM     19  C   UNL A   1      33.218  22.260  23.294  1.00  0.00    -0.014 C 
ATOM     20  C   UNL A   1      34.314  23.176  25.458  1.00  0.00    -0.014 C 
ATOM     21  C   UNL A   1      33.596  23.242  22.192  1.00  0.00     0.007 C 
ATOM     22  C   UNL A   1      34.312  22.113  24.353  1.00  0.00     0.006 C 
ATOM     23  C   UNL A   1      34.913  24.512  25.029  1.00  0.00     0.007 C 
ENDBRANCH   6  16
ENDBRANCH   3   6
ENDBRANCH   1   2
BRANCH   1  24
ATOM     24  C   UNL A   1      32.038  28.669  27.439  1.00  0.00     0.042 C 
BRANCH  24  25
ATOM     25  C   UNL A   1      33.355  29.351  27.076  1.00  0.00     0.118 C 
BRANCH  25  26
ATOM     26  N   UNL A   1      33.559  30.590  27.805  1.00  0.00    -0.352 N 
ATOM     27  C   UNL A   1      34.604  31.074  28.553  1.00  0.00     0.251 C 
ATOM     28  H   UNL A   1      32.793  31.206  27.754  1.00  0.00     0.163 HD
ATOM     29  O   UNL A   1      34.396  32.087  29.220  1.00  0.00    -0.269 OA
BRANCH  27  30
ATOM     30  C   UNL A   1      35.957  30.451  28.616  1.00  0.00     0.039 A 
ATOM     31  C   UNL A   1      36.350  29.895  29.846  1.00  0.00     0.014 A 
ATOM     32  C   UNL A   1      36.902  30.512  27.590  1.00  0.00     0.014 A 
ATOM     33  C   UNL A   1      37.648  29.404  30.039  1.00  0.00     0.010 A 
ATOM     34  C   UNL A   1      38.182  29.957  27.760  1.00  0.00     0.010 A 
ATOM     35  C   UNL A   1      38.580  29.415  28.992  1.00  0.00    -0.014 A 
BRANCH  35  36
ATOM     36  C   UNL A   1      39.970  28.909  29.191  1.00  0.00     0.031 A 
ATOM     37  C   UNL A   1      41.034  29.792  29.798  1.00  0.00     0.074 A 
ATOM     38  C   UNL A   1      40.304  27.659  28.809  1.00  0.00     0.049 A 
ATOM     39  N   UNL A   1      42.311  29.547  29.978  1.00  0.00    -0.248 NA
ATOM     40  C   UNL A   1      40.613  31.126  30.250  1.00  0.00     0.031 C 
ATOM     41  C   UNL A   1      39.392  26.684  28.209  1.00  0.00     0.029 A 
ATOM     42  N   UNL A   1      41.507  26.996  28.868  1.00  0.00    -0.354 N 
ATOM     43  C   UNL A   1      42.847  30.703  30.534  1.00  0.00     0.074 A 
ATOM     44  C   UNL A   1      41.763  31.658  30.638  1.00  0.00     0.031 C 
ATOM     45  C   UNL A   1      40.063  25.544  27.975  1.00  0.00     0.029 A 
ATOM     46  C   UNL A   1      41.459  25.719  28.365  1.00  0.00     0.049 A 
ATOM     47  H   UNL A   1      42.326  27.400  29.236  1.00  0.00     0.167 HD
ATOM     48  C   UNL A   1      44.118  30.951  30.934  1.00  0.00     0.031 A 
ATOM     49  C   UNL A   1      42.426  24.793  28.219  1.00  0.00     0.031 A 
ATOM     50  C   UNL A   1      45.202  30.005  30.868  1.00  0.00     0.049 A 
ATOM     51  C   UNL A   1      43.833  25.098  28.648  1.00  0.00     0.074 A 
ATOM     52  C   UNL A   1      46.509  30.162  31.301  1.00  0.00     0.029 A 
ATOM     53  N   UNL A   1      45.107  28.729  30.341  1.00  0.00    -0.354 N 
ATOM     54  N   UNL A   1      44.311  26.187  29.197  1.00  0.00    -0.248 NA
ATOM     55  C   UNL A   1      44.835  24.040  28.438  1.00  0.00     0.031 C 
ATOM     56  C   UNL A   1      47.215  28.993  30.999  1.00  0.00     0.029 A 
ATOM     57  C   UNL A   1      46.336  28.094  30.418  1.00  0.00     0.049 A 
ATOM     58  H   UNL A   1      44.287  28.331  29.967  1.00  0.00     0.167 HD
ATOM     59  C   UNL A   1      45.660  25.938  29.418  1.00  0.00     0.074 A 
ATOM     60  C   UNL A   1      45.924  24.592  28.956  1.00  0.00     0.031 C 
ATOM     61  C   UNL A   1      46.595  26.756  29.959  1.00  0.00     0.031 A 
BRANCH  48  62
ATOM     62  C   UNL A   1      44.418  32.320  31.477  1.00  0.00    -0.014 A 
ATOM     63  C   UNL A   1      44.813  33.368  30.632  1.00  0.00     0.009 A 
ATOM     64  C   UNL A   1      44.254  32.576  32.848  1.00  0.00     0.009 A 
ATOM     65  C   UNL A   1      45.068  34.638  31.154  1.00  0.00     0.001 A 
ATOM     66  C   UNL A   1      44.487  33.852  33.364  1.00  0.00     0.001 A 
ATOM     67  C   UNL A   1      44.903  34.880  32.517  1.00  0.00     0.000 A 
ENDBRANCH  48  62
BRANCH  49  68
ATOM     68  C   UNL A   1      42.099  23.469  27.627  1.00  0.00    -0.014 A 
ATOM     69  C   UNL A   1      42.338  23.220  26.268  1.00  0.00     0.009 A 
ATOM     70  C   UNL A   1      41.535  22.457  28.418  1.00  0.00     0.009 A 
ATOM     71  C   UNL A   1      42.001  21.986  25.706  1.00  0.00     0.001 A 
ATOM     72  C   UNL A   1      41.222  21.216  27.858  1.00  0.00     0.001 A 
ATOM     73  C   UNL A   1      41.447  20.985  26.502  1.00  0.00     0.000 A 
ENDBRANCH  49  68
BRANCH  61  74
ATOM     74  C   UNL A   1      47.985  26.210  30.113  1.00  0.00    -0.014 A 
ATOM     75  C   UNL A   1      48.898  26.238  29.049  1.00  0.00     0.009 A 
ATOM     76  C   UNL A   1      48.398  25.698  31.353  1.00  0.00     0.009 A 
ATOM     77  C   UNL A   1      50.193  25.739  29.217  1.00  0.00     0.001 A 
ATOM     78  C   UNL A   1      49.699  25.221  31.525  1.00  0.00     0.001 A 
ATOM     79  C   UNL A   1      50.593  25.236  30.455  1.00  0.00     0.000 A 
ENDBRANCH  61  74
ENDBRANCH  35  36
ENDBRANCH  27  30
ENDBRANCH  25  26
ENDBRANCH  24  25
ENDBRANCH   1  24
TORSDOF 14
ENDMDL
MODEL 3
REMARK VINA RESULT:     -10.9      1.744      3.425
REMARK SMILES COc1ccccc1C[C@@H](C(=O)NCCCNC(=O)c1ccc(-c2c3nc(c(-c4ccccc4)c4ccc([nH]4)c(-c4ccccc4)c4nc(c(-c5ccccc5)c5ccc2[nH]5)C=C4)C=C3)cc1)[C@@H]1C[C@H](C)C[C@H](C)C1
REMARK SMILES IDX 14 1 13 2 11 3 12 4 10 6 9 7 8 8 3 9 4 10 5 11 7 12 6 13
REMARK SMILES IDX 2 14 1 15 68 16 75 17 69 18 73 19 70 20 74 21 72 22 71 23
REMARK SMILES IDX 15 24 16 25 17 26 18 27 19 29 20 30 21 31 67 32 22 33 66 34
REMARK SMILES IDX 23 35 24 36 25 37 60 38 26 39 65 40 59 41 61 42 27 43 64 44
REMARK SMILES IDX 58 45 57 46 28 48 50 49 35 50 49 51 36 52 39 53 48 54 62 55
REMARK SMILES IDX 37 56 38 57 47 59 63 60 40 61 29 62 30 63 34 64 31 65 33 66
REMARK SMILES IDX 32 67 51 68 52 69 56 70 53 71 55 72 54 73 41 74 42 75 46 76
REMARK SMILES IDX 43 77 45 78 44 79
REMARK H PARENT 13 5 17 28 61 47 39 58
REMARK Flexibility Score: inf
ROOT
ATOM      1  C   UNL A   1      34.077  28.121  24.513  1.00  0.00     0.117 C 
ENDROOT
BRANCH   1   2
ATOM      2  N   UNL A   1      33.559  27.273  23.451  1.00  0.00    -0.356 N 
ATOM      3  C   UNL A   1      33.708  25.931  23.270  1.00  0.00     0.223 C 
ATOM      4  O   UNL A   1      33.723  25.536  22.099  1.00  0.00    -0.275 OA
ATOM      5  H   UNL A   1      33.026  27.735  22.764  1.00  0.00     0.163 HD
BRANCH   3   6
ATOM      6  C   UNL A   1      33.768  24.943  24.453  1.00  0.00     0.086 C 
BRANCH   6   7
ATOM      7  C   UNL A   1      34.348  23.605  23.932  1.00  0.00     0.053 C 
BRANCH   7   8
ATOM      8  C   UNL A   1      35.625  23.132  24.600  1.00  0.00    -0.005 A 
ATOM      9  C   UNL A   1      35.919  21.774  24.782  1.00  0.00     0.122 A 
ATOM     10  C   UNL A   1      37.036  21.362  25.515  1.00  0.00     0.047 A 
ATOM     11  C   UNL A   1      37.942  22.305  25.988  1.00  0.00     0.004 A 
ATOM     12  C   UNL A   1      36.578  24.066  25.032  1.00  0.00     0.007 A 
ATOM     13  C   UNL A   1      37.729  23.655  25.718  1.00  0.00     0.001 A 
BRANCH   9  14
ATOM     14  O   UNL A   1      35.116  20.809  24.232  1.00  0.00    -0.496 OA
ATOM     15  C   UNL A   1      35.266  19.595  24.981  1.00  0.00     0.278 C 
ENDBRANCH   9  14
ENDBRANCH   7   8
ENDBRANCH   6   7
BRANCH   6  16
ATOM     16  C   UNL A   1      32.280  24.852  25.012  1.00  0.00     0.002 C 
ATOM     17  C   UNL A   1      31.272  23.904  24.328  1.00  0.00     0.007 C 
ATOM     18  C   UNL A   1      32.199  24.805  26.555  1.00  0.00     0.007 C 
ATOM     19  C   UNL A   1      31.003  22.538  24.973  1.00  0.00    -0.014 C 
ATOM     20  C   UNL A   1      32.021  23.422  27.189  1.00  0.00    -0.014 C 
ATOM     21  C   UNL A   1      31.939  21.432  24.502  1.00  0.00     0.007 C 
ATOM     22  C   UNL A   1      30.911  22.622  26.498  1.00  0.00     0.006 C 
ATOM     23  C   UNL A   1      33.341  22.668  27.313  1.00  0.00     0.007 C 
ENDBRANCH   6  16
ENDBRANCH   3   6
ENDBRANCH   1   2
BRANCH   1  24
ATOM     24  C   UNL A   1      33.021  28.300  25.610  1.00  0.00     0.042 C 
BRANCH  24  25
ATOM     25  C   UNL A   1      33.570  28.483  27.023  1.00  0.00     0.118 C 
BRANCH  25  26
ATOM     26  N   UNL A   1      33.521  29.866  27.463  1.00  0.00    -0.352 N 
ATOM     27  C   UNL A   1      34.391  30.652  28.178  1.00  0.00     0.251 C 
ATOM     28  H   UNL A   1      32.697  30.334  27.197  1.00  0.00     0.163 HD
ATOM     29  O   UNL A   1      33.974  31.742  28.569  1.00  0.00    -0.269 OA
BRANCH  27  30
ATOM     30  C   UNL A   1      35.793  30.269  28.514  1.00  0.00     0.039 A 
ATOM     31  C   UNL A   1      36.757  30.415  27.503  1.00  0.00     0.014 A 
ATOM     32  C   UNL A   1      36.177  29.650  29.705  1.00  0.00     0.014 A 
ATOM     33  C   UNL A   1      38.072  29.963  27.682  1.00  0.00     0.010 A 
ATOM     34  C   UNL A   1      37.511  29.260  29.913  1.00  0.00     0.010 A 
ATOM     35  C   UNL A   1      38.472  29.391  28.897  1.00  0.00    -0.014 A 
BRANCH  35  36
ATOM     36  C   UNL A   1      39.865  28.892  29.094  1.00  0.00     0.031 A 
ATOM     37  C   UNL A   1      40.929  29.786  29.685  1.00  0.00     0.074 A 
ATOM     38  C   UNL A   1      40.202  27.639  28.724  1.00  0.00     0.049 A 
ATOM     39  N   UNL A   1      42.208  29.549  29.860  1.00  0.00    -0.248 NA
ATOM     40  C   UNL A   1      40.504  31.123  30.124  1.00  0.00     0.031 C 
ATOM     41  C   UNL A   1      39.291  26.654  28.140  1.00  0.00     0.029 A 
ATOM     42  N   UNL A   1      41.408  26.982  28.784  1.00  0.00    -0.354 N 
ATOM     43  C   UNL A   1      42.741  30.714  30.400  1.00  0.00     0.074 A 
ATOM     44  C   UNL A   1      41.654  31.665  30.500  1.00  0.00     0.031 C 
ATOM     45  C   UNL A   1      39.965  25.514  27.915  1.00  0.00     0.029 A 
ATOM     46  C   UNL A   1      41.363  25.699  28.296  1.00  0.00     0.049 A 
ATOM     47  H   UNL A   1      42.227  27.394  29.143  1.00  0.00     0.167 HD
ATOM     48  C   UNL A   1      44.014  30.971  30.791  1.00  0.00     0.031 A 
ATOM     49  C   UNL A   1      42.333  24.776  28.154  1.00  0.00     0.031 A 
ATOM     50  C   UNL A   1      45.101  30.029  30.729  1.00  0.00     0.049 A 
ATOM     51  C   UNL A   1      43.741  25.091  28.572  1.00  0.00     0.074 A 
ATOM     52  C   UNL A   1      46.410  30.196  31.152  1.00  0.00     0.029 A 
ATOM     53  N   UNL A   1      45.009  28.746  30.217  1.00  0.00    -0.354 N 
ATOM     54  N   UNL A   1      44.218  26.189  29.106  1.00  0.00    -0.248 NA
ATOM     55  C   UNL A   1      44.746  24.036  28.368  1.00  0.00     0.031 C 
ATOM     56  C   UNL A   1      47.119  29.027  30.860  1.00  0.00     0.029 A 
ATOM     57  C   UNL A   1      46.241  28.118  30.295  1.00  0.00     0.049 A 
ATOM     58  H   UNL A   1      44.189  28.341  29.852  1.00  0.00     0.167 HD
ATOM     59  C   UNL A   1      45.568  25.948  29.322  1.00  0.00     0.074 A 
ATOM     60  C   UNL A   1      45.835  24.598  28.874  1.00  0.00     0.031 C 
ATOM     61  C   UNL A   1      46.503  26.776  29.849  1.00  0.00     0.031 A 
BRANCH  48  62
ATOM     62  C   UNL A   1      44.311  32.348  31.317  1.00  0.00    -0.014 A 
ATOM     63  C   UNL A   1      44.108  32.671  32.667  1.00  0.00     0.009 A 
ATOM     64  C   UNL A   1      44.851  33.318  30.458  1.00  0.00     0.009 A 
ATOM     65  C   UNL A   1      44.407  33.950  33.139  1.00  0.00     0.001 A 
ATOM     66  C   UNL A   1      45.172  34.589  30.938  1.00  0.00     0.001 A 
ATOM     67  C   UNL A   1      44.942  34.907  32.276  1.00  0.00     0.000 A 
ENDBRANCH  48  62
BRANCH  49  68
ATOM     68  C   UNL A   1      42.008  23.444  27.580  1.00  0.00    -0.014 A 
ATOM     69  C   UNL A   1      41.401  22.458  28.372  1.00  0.00     0.009 A 
ATOM     70  C   UNL A   1      42.314  23.152  26.242  1.00  0.00     0.009 A 
ATOM     71  C   UNL A   1      41.124  21.197  27.840  1.00  0.00     0.001 A 
ATOM     72  C   UNL A   1      42.014  21.898  25.707  1.00  0.00     0.001 A 
ATOM     73  C   UNL A   1      41.427  20.919  26.507  1.00  0.00     0.000 A 
ENDBRANCH  49  68
BRANCH  61  74
ATOM     74  C   UNL A   1      47.896  26.237  30.002  1.00  0.00    -0.014 A 
ATOM     75  C   UNL A   1      48.349  25.733  31.230  1.00  0.00     0.009 A 
ATOM     76  C   UNL A   1      48.752  26.196  28.890  1.00  0.00     0.009 A 
ATOM     77  C   UNL A   1      49.644  25.221  31.348  1.00  0.00     0.001 A 
ATOM     78  C   UNL A   1      50.038  25.664  29.006  1.00  0.00     0.001 A 
ATOM     79  C   UNL A   1      50.485  25.183  30.236  1.00  0.00     0.000 A 
ENDBRANCH  61  74
ENDBRANCH  35  36
ENDBRANCH  27  30
ENDBRANCH  25  26
ENDBRANCH  24  25
ENDBRANCH   1  24
TORSDOF 14
ENDMDL
