MODEL 1
REMARK VINA RESULT:     -13.8      0.000      0.000
REMARK SMILES O=C(C[C@]12CSc3[nH]c(=O)sc3[C@@H]1c1cc(Cl)ccc1OC2=O)NCCCNC(=O)c1ccc(-c2c3nc(c(-c4ccccc4)c4ccc([nH]4)c(-c4ccccc4)c4nc(c(-c5ccccc5)c5ccc2[nH]5)C=C4)C=C3)cc1
REMARK SMILES IDX 26 1 25 2 24 3 1 4 2 5 3 7 4 8 5 9 13 10 22 11 6 12 12 13
REMARK SMILES IDX 14 14 21 15 23 16 7 17 11 18 15 19 20 20 8 21 9 22 16 23
REMARK SMILES IDX 19 24 10 26 17 27 18 28 27 29 28 30 29 31 30 33 31 34 32 35
REMARK SMILES IDX 78 36 33 37 77 38 34 39 35 40 36 41 71 42 37 43 76 44 70 45
REMARK SMILES IDX 72 46 38 47 75 48 69 49 68 50 39 52 61 53 46 54 60 55 47 56
REMARK SMILES IDX 50 57 59 58 73 59 48 60 49 61 58 63 74 64 51 65 40 66 41 67
REMARK SMILES IDX 45 68 42 69 44 70 43 71 62 72 63 73 67 74 64 75 66 76 65 77
REMARK SMILES IDX 52 78 53 79 57 80 54 81 56 82 55 83
REMARK H PARENT 24 6 8 25 28 32 72 51 50 62
REMARK Flexibility Score: inf
ROOT
ATOM      1  C   UNL A   1      34.708  30.373  27.648  1.00  0.00     0.042 C 
ENDROOT
BRANCH   1   2
ATOM      2  C   UNL A   1      33.492  29.917  26.849  1.00  0.00     0.117 C 
BRANCH   2   3
ATOM      3  N   UNL A   1      33.444  30.078  25.374  1.00  0.00    -0.356 N 
ATOM      4  O   UNL A   1      34.486  28.489  24.191  1.00  0.00    -0.275 OA
ATOM      5  C   UNL A   1      33.410  29.034  24.468  1.00  0.00     0.221 C 
ATOM      6  H   UNL A   1      33.434  30.995  25.015  1.00  0.00     0.163 HD
BRANCH   5   7
ATOM      7  C   UNL A   1      32.064  28.463  23.711  1.00  0.00     0.120 C 
BRANCH   7   8
ATOM      8  C   UNL A   1      30.659  27.592  24.251  1.00  0.00     0.098 C 
ATOM      9  C   UNL A   1      31.029  27.379  25.733  1.00  0.00     0.097 C 
ATOM     10  C   UNL A   1      30.604  26.817  22.941  1.00  0.00     0.085 C 
ATOM     11  C   UNL A   1      29.417  26.382  24.392  1.00  0.00     0.319 C 
ATOM     12  S   UNL A   1      32.191  26.043  26.027  1.00  0.00    -0.106 SA
ATOM     13  C   UNL A   1      31.920  25.956  23.241  1.00  0.00     0.049 A 
ATOM     14  C   UNL A   1      29.562  28.167  22.707  1.00  0.00     0.006 A 
ATOM     15  O   UNL A   1      28.166  26.703  23.876  1.00  0.00    -0.426 OA
ATOM     16  O   UNL A   1      29.566  25.249  24.847  1.00  0.00    -0.251 OA
ATOM     17  C   UNL A   1      32.515  25.582  24.412  1.00  0.00     0.090 A 
ATOM     18  S   UNL A   1      32.815  25.147  21.924  1.00  0.00    -0.077 S 
ATOM     19  C   UNL A   1      29.727  29.556  22.480  1.00  0.00     0.028 A 
ATOM     20  C   UNL A   1      28.276  27.863  23.152  1.00  0.00     0.134 A 
ATOM     21  N   UNL A   1      33.586  24.755  24.308  1.00  0.00    -0.307 N 
ATOM     22  C   UNL A   1      33.962  24.382  23.053  1.00  0.00     0.305 A 
ATOM     23  C   UNL A   1      28.665  30.480  22.501  1.00  0.00     0.041 A 
ATOM     24  C   UNL A   1      27.187  28.742  23.158  1.00  0.00     0.049 A 
ATOM     25  H   UNL A   1      34.070  24.438  25.104  1.00  0.00     0.171 HD
ATOM     26  O   UNL A   1      34.904  23.688  22.751  1.00  0.00    -0.257 OA
ATOM     27  Cl  UNL A   1      28.988  32.151  22.222  1.00  0.00    -0.084 Cl
ATOM     28  C   UNL A   1      27.384  30.068  22.806  1.00  0.00     0.024 A 
ENDBRANCH   7   8
ENDBRANCH   5   7
ENDBRANCH   2   3
ENDBRANCH   1   2
BRANCH   1  29
ATOM     29  C   UNL A   1      34.722  31.848  28.011  1.00  0.00     0.118 C 
BRANCH  29  30
ATOM     30  N   UNL A   1      34.438  32.091  29.414  1.00  0.00    -0.352 N 
ATOM     31  C   UNL A   1      35.182  32.030  30.560  1.00  0.00     0.251 C 
ATOM     32  H   UNL A   1      33.504  32.359  29.575  1.00  0.00     0.163 HD
ATOM     33  O   UNL A   1      34.700  32.593  31.546  1.00  0.00    -0.269 OA
BRANCH  31  34
ATOM     34  C   UNL A   1      36.460  31.289  30.729  1.00  0.00     0.039 A 
ATOM     35  C   UNL A   1      37.733  31.821  30.520  1.00  0.00     0.014 A 
ATOM     36  C   UNL A   1      36.332  29.902  30.961  1.00  0.00     0.014 A 
ATOM     37  C   UNL A   1      38.834  30.970  30.438  1.00  0.00     0.010 A 
ATOM     38  C   UNL A   1      37.425  29.052  30.878  1.00  0.00     0.010 A 
ATOM     39  C   UNL A   1      38.663  29.583  30.551  1.00  0.00    -0.014 A 
BRANCH  39  40
ATOM     40  C   UNL A   1      39.831  28.722  30.402  1.00  0.00     0.031 A 
ATOM     41  C   UNL A   1      40.573  28.483  31.671  1.00  0.00     0.074 A 
ATOM     42  C   UNL A   1      40.185  28.131  29.242  1.00  0.00     0.049 A 
ATOM     43  N   UNL A   1      41.785  28.834  31.943  1.00  0.00    -0.248 NA
ATOM     44  C   UNL A   1      39.843  27.916  32.815  1.00  0.00     0.031 C 
ATOM     45  C   UNL A   1      39.452  28.072  27.974  1.00  0.00     0.029 A 
ATOM     46  N   UNL A   1      41.276  27.359  28.986  1.00  0.00    -0.354 N 
ATOM     47  C   UNL A   1      42.033  28.415  33.247  1.00  0.00     0.074 A 
ATOM     48  C   UNL A   1      40.769  27.966  33.774  1.00  0.00     0.031 C 
ATOM     49  C   UNL A   1      39.988  27.106  27.190  1.00  0.00     0.029 A 
ATOM     50  C   UNL A   1      41.185  26.589  27.832  1.00  0.00     0.049 A 
ATOM     51  H   UNL A   1      42.068  27.346  29.571  1.00  0.00     0.167 HD
ATOM     52  C   UNL A   1      43.300  28.322  33.737  1.00  0.00     0.031 A 
ATOM     53  C   UNL A   1      42.006  25.567  27.473  1.00  0.00     0.031 A 
ATOM     54  C   UNL A   1      44.236  29.047  32.921  1.00  0.00     0.049 A 
ATOM     55  C   UNL A   1      43.281  25.751  28.209  1.00  0.00     0.074 A 
ATOM     56  C   UNL A   1      44.398  30.381  32.606  1.00  0.00     0.029 A 
ATOM     57  N   UNL A   1      44.934  28.341  31.970  1.00  0.00    -0.354 N 
ATOM     58  N   UNL A   1      44.094  26.742  27.980  1.00  0.00    -0.248 NA
ATOM     59  C   UNL A   1      43.403  25.124  29.516  1.00  0.00     0.031 C 
ATOM     60  C   UNL A   1      44.735  30.384  31.223  1.00  0.00     0.029 A 
ATOM     61  C   UNL A   1      44.862  29.058  30.803  1.00  0.00     0.049 A 
ATOM     62  H   UNL A   1      45.398  27.483  32.101  1.00  0.00     0.167 HD
ATOM     63  C   UNL A   1      44.492  27.160  29.240  1.00  0.00     0.074 A 
ATOM     64  C   UNL A   1      44.101  26.077  30.144  1.00  0.00     0.031 C 
ATOM     65  C   UNL A   1      44.827  28.461  29.485  1.00  0.00     0.031 A 
BRANCH  52  66
ATOM     66  C   UNL A   1      43.745  27.302  34.751  1.00  0.00    -0.014 A 
ATOM     67  C   UNL A   1      43.889  27.587  36.120  1.00  0.00     0.009 A 
ATOM     68  C   UNL A   1      43.760  25.943  34.382  1.00  0.00     0.009 A 
ATOM     69  C   UNL A   1      44.006  26.576  37.078  1.00  0.00     0.001 A 
ATOM     70  C   UNL A   1      43.839  24.927  35.342  1.00  0.00     0.001 A 
ATOM     71  C   UNL A   1      43.954  25.245  36.692  1.00  0.00     0.000 A 
ENDBRANCH  52  66
BRANCH  53  72
ATOM     72  C   UNL A   1      41.620  24.250  26.907  1.00  0.00    -0.014 A 
ATOM     73  C   UNL A   1      40.571  23.514  27.486  1.00  0.00     0.009 A 
ATOM     74  C   UNL A   1      42.467  23.573  26.010  1.00  0.00     0.009 A 
ATOM     75  C   UNL A   1      40.406  22.147  27.227  1.00  0.00     0.001 A 
ATOM     76  C   UNL A   1      42.302  22.203  25.751  1.00  0.00     0.001 A 
ATOM     77  C   UNL A   1      41.284  21.487  26.375  1.00  0.00     0.000 A 
ENDBRANCH  53  72
BRANCH  65  78
ATOM     78  C   UNL A   1      44.907  29.427  28.323  1.00  0.00    -0.014 A 
ATOM     79  C   UNL A   1      46.180  29.799  27.863  1.00  0.00     0.009 A 
ATOM     80  C   UNL A   1      43.795  30.139  27.835  1.00  0.00     0.009 A 
ATOM     81  C   UNL A   1      46.345  30.861  26.972  1.00  0.00     0.001 A 
ATOM     82  C   UNL A   1      43.957  31.186  26.919  1.00  0.00     0.001 A 
ATOM     83  C   UNL A   1      45.234  31.555  26.500  1.00  0.00     0.000 A 
ENDBRANCH  65  78
ENDBRANCH  39  40
ENDBRANCH  31  34
ENDBRANCH  29  30
ENDBRANCH   1  29
TORSDOF 11
ENDMDL
MODEL 2
REMARK VINA RESULT:     -13.6      3.148      7.780
REMARK SMILES O=C(C[C@]12CSc3[nH]c(=O)sc3[C@@H]1c1cc(Cl)ccc1OC2=O)NCCCNC(=O)c1ccc(-c2c3nc(c(-c4ccccc4)c4ccc([nH]4)c(-c4ccccc4)c4nc(c(-c5ccccc5)c5ccc2[nH]5)C=C4)C=C3)cc1
REMARK SMILES IDX 26 1 25 2 24 3 1 4 2 5 3 7 4 8 5 9 13 10 22 11 6 12 12 13
REMARK SMILES IDX 14 14 21 15 23 16 7 17 11 18 15 19 20 20 8 21 9 22 16 23
REMARK SMILES IDX 19 24 10 26 17 27 18 28 27 29 28 30 29 31 30 33 31 34 32 35
REMARK SMILES IDX 78 36 33 37 77 38 34 39 35 40 36 41 71 42 37 43 76 44 70 45
REMARK SMILES IDX 72 46 38 47 75 48 69 49 68 50 39 52 61 53 46 54 60 55 47 56
REMARK SMILES IDX 50 57 59 58 73 59 48 60 49 61 58 63 74 64 51 65 40 66 41 67
REMARK SMILES IDX 45 68 42 69 44 70 43 71 62 72 63 73 67 74 64 75 66 76 65 77
REMARK SMILES IDX 52 78 53 79 57 80 54 81 56 82 55 83
REMARK H PARENT 24 6 8 25 28 32 72 51 50 62
REMARK Flexibility Score: inf
ROOT
ATOM      1  C   UNL A   1      38.789  21.709  25.741  1.00  0.00     0.042 C 
ENDROOT
BRANCH   1   2
ATOM      2  C   UNL A   1      37.873  22.879  26.084  1.00  0.00     0.117 C 
BRANCH   2   3
ATOM      3  N   UNL A   1      37.255  23.703  25.014  1.00  0.00    -0.356 N 
ATOM      4  O   UNL A   1      36.533  22.576  23.220  1.00  0.00    -0.275 OA
ATOM      5  C   UNL A   1      36.228  23.281  24.189  1.00  0.00     0.221 C 
ATOM      6  H   UNL A   1      37.601  24.615  24.882  1.00  0.00     0.163 HD
BRANCH   5   7
ATOM      7  C   UNL A   1      34.634  23.652  24.376  1.00  0.00     0.120 C 
BRANCH   7   8
ATOM      8  C   UNL A   1      33.601  23.853  25.759  1.00  0.00     0.098 C 
ATOM      9  C   UNL A   1      34.525  23.305  26.866  1.00  0.00     0.097 C 
ATOM     10  C   UNL A   1      32.384  23.436  24.945  1.00  0.00     0.085 C 
ATOM     11  C   UNL A   1      32.243  23.733  26.840  1.00  0.00     0.319 C 
ATOM     12  S   UNL A   1      34.597  21.513  26.957  1.00  0.00    -0.106 SA
ATOM     13  C   UNL A   1      32.827  21.902  24.822  1.00  0.00     0.049 A 
ATOM     14  C   UNL A   1      32.425  25.153  24.842  1.00  0.00     0.006 A 
ATOM     15  O   UNL A   1      31.403  24.839  26.919  1.00  0.00    -0.426 OA
ATOM     16  O   UNL A   1      31.926  22.736  27.489  1.00  0.00    -0.251 OA
ATOM     17  C   UNL A   1      33.616  21.117  25.614  1.00  0.00     0.090 A 
ATOM     18  S   UNL A   1      32.147  20.842  23.555  1.00  0.00    -0.077 S 
ATOM     19  C   UNL A   1      33.203  26.116  24.153  1.00  0.00     0.028 A 
ATOM     20  C   UNL A   1      31.738  25.715  25.918  1.00  0.00     0.134 A 
ATOM     21  N   UNL A   1      33.707  19.808  25.265  1.00  0.00    -0.307 N 
ATOM     22  C   UNL A   1      33.010  19.408  24.166  1.00  0.00     0.305 A 
ATOM     23  C   UNL A   1      33.127  27.500  24.398  1.00  0.00     0.041 A 
ATOM     24  C   UNL A   1      31.611  27.084  26.178  1.00  0.00     0.049 A 
ATOM     25  H   UNL A   1      34.254  19.176  25.785  1.00  0.00     0.171 HD
ATOM     26  O   UNL A   1      32.992  18.303  23.677  1.00  0.00    -0.257 OA
ATOM     27  Cl  UNL A   1      34.134  28.578  23.504  1.00  0.00    -0.084 Cl
ATOM     28  C   UNL A   1      32.302  27.991  25.390  1.00  0.00     0.024 A 
ENDBRANCH   7   8
ENDBRANCH   5   7
ENDBRANCH   2   3
ENDBRANCH   1   2
BRANCH   1  29
ATOM     29  C   UNL A   1      40.016  21.573  26.628  1.00  0.00     0.118 C 
BRANCH  29  30
ATOM     30  N   UNL A   1      41.221  22.104  26.016  1.00  0.00    -0.352 N 
ATOM     31  C   UNL A   1      41.946  23.251  26.181  1.00  0.00     0.251 C 
ATOM     32  H   UNL A   1      41.598  21.506  25.330  1.00  0.00     0.163 HD
ATOM     33  O   UNL A   1      43.085  23.242  25.708  1.00  0.00    -0.269 OA
BRANCH  31  34
ATOM     34  C   UNL A   1      41.455  24.509  26.805  1.00  0.00     0.039 A 
ATOM     35  C   UNL A   1      40.575  25.413  26.210  1.00  0.00     0.014 A 
ATOM     36  C   UNL A   1      42.073  24.863  28.024  1.00  0.00     0.014 A 
ATOM     37  C   UNL A   1      40.403  26.680  26.766  1.00  0.00     0.010 A 
ATOM     38  C   UNL A   1      41.907  26.124  28.579  1.00  0.00     0.010 A 
ATOM     39  C   UNL A   1      41.123  27.051  27.910  1.00  0.00    -0.014 A 
BRANCH  39  40
ATOM     40  C   UNL A   1      40.959  28.405  28.428  1.00  0.00     0.031 A 
ATOM     41  C   UNL A   1      42.054  29.337  28.044  1.00  0.00     0.074 A 
ATOM     42  C   UNL A   1      39.884  28.813  29.135  1.00  0.00     0.049 A 
ATOM     43  N   UNL A   1      42.887  29.929  28.835  1.00  0.00    -0.248 NA
ATOM     44  C   UNL A   1      42.349  29.524  26.616  1.00  0.00     0.031 C 
ATOM     45  C   UNL A   1      38.629  28.104  29.401  1.00  0.00     0.029 A 
ATOM     46  N   UNL A   1      39.659  30.029  29.704  1.00  0.00    -0.354 N 
ATOM     47  C   UNL A   1      43.734  30.679  28.024  1.00  0.00     0.074 A 
ATOM     48  C   UNL A   1      43.434  30.299  26.666  1.00  0.00     0.031 C 
ATOM     49  C   UNL A   1      37.700  28.985  29.843  1.00  0.00     0.029 A 
ATOM     50  C   UNL A   1      38.333  30.279  30.035  1.00  0.00     0.049 A 
ATOM     51  H   UNL A   1      40.380  30.680  29.869  1.00  0.00     0.167 HD
ATOM     52  C   UNL A   1      44.508  31.678  28.532  1.00  0.00     0.031 A 
ATOM     53  C   UNL A   1      37.797  31.479  30.383  1.00  0.00     0.031 A 
ATOM     54  C   UNL A   1      44.622  31.580  29.962  1.00  0.00     0.049 A 
ATOM     55  C   UNL A   1      38.912  32.334  30.861  1.00  0.00     0.074 A 
ATOM     56  C   UNL A   1      45.170  30.645  30.817  1.00  0.00     0.029 A 
ATOM     57  N   UNL A   1      43.766  32.340  30.724  1.00  0.00    -0.354 N 
ATOM     58  N   UNL A   1      39.571  32.091  31.957  1.00  0.00    -0.248 NA
ATOM     59  C   UNL A   1      39.603  33.154  29.877  1.00  0.00     0.031 C 
ATOM     60  C   UNL A   1      44.246  30.561  31.896  1.00  0.00     0.029 A 
ATOM     61  C   UNL A   1      43.249  31.517  31.691  1.00  0.00     0.049 A 
ATOM     62  H   UNL A   1      43.563  33.295  30.599  1.00  0.00     0.167 HD
ATOM     63  C   UNL A   1      40.896  32.320  31.620  1.00  0.00     0.074 A 
ATOM     64  C   UNL A   1      40.849  33.050  30.352  1.00  0.00     0.031 C 
ATOM     65  C   UNL A   1      41.912  31.643  32.233  1.00  0.00     0.031 A 
BRANCH  52  66
ATOM     66  C   UNL A   1      44.878  32.929  27.783  1.00  0.00    -0.014 A 
ATOM     67  C   UNL A   1      46.118  33.110  27.146  1.00  0.00     0.009 A 
ATOM     68  C   UNL A   1      43.864  33.853  27.467  1.00  0.00     0.009 A 
ATOM     69  C   UNL A   1      46.331  34.131  26.217  1.00  0.00     0.001 A 
ATOM     70  C   UNL A   1      44.061  34.855  26.508  1.00  0.00     0.001 A 
ATOM     71  C   UNL A   1      45.294  34.987  25.877  1.00  0.00     0.000 A 
ENDBRANCH  52  66
BRANCH  53  72
ATOM     72  C   UNL A   1      36.510  32.064  29.928  1.00  0.00    -0.014 A 
ATOM     73  C   UNL A   1      36.254  32.220  28.554  1.00  0.00     0.009 A 
ATOM     74  C   UNL A   1      35.673  32.752  30.825  1.00  0.00     0.009 A 
ATOM     75  C   UNL A   1      35.243  33.070  28.090  1.00  0.00     0.001 A 
ATOM     76  C   UNL A   1      34.659  33.604  30.360  1.00  0.00     0.001 A 
ATOM     77  C   UNL A   1      34.457  33.778  28.993  1.00  0.00     0.000 A 
ENDBRANCH  53  72
BRANCH  65  78
ATOM     78  C   UNL A   1      41.589  30.739  33.402  1.00  0.00    -0.014 A 
ATOM     79  C   UNL A   1      41.876  31.207  34.694  1.00  0.00     0.009 A 
ATOM     80  C   UNL A   1      41.234  29.385  33.254  1.00  0.00     0.009 A 
ATOM     81  C   UNL A   1      41.841  30.351  35.796  1.00  0.00     0.001 A 
ATOM     82  C   UNL A   1      41.171  28.532  34.363  1.00  0.00     0.001 A 
ATOM     83  C   UNL A   1      41.489  29.014  35.632  1.00  0.00     0.000 A 
ENDBRANCH  65  78
ENDBRANCH  39  40
ENDBRANCH  31  34
ENDBRANCH  29  30
ENDBRANCH   1  29
TORSDOF 11
ENDMDL
MODEL 3
REMARK VINA RESULT:     -13.6      3.567      8.407
REMARK SMILES O=C(C[C@]12CSc3[nH]c(=O)sc3[C@@H]1c1cc(Cl)ccc1OC2=O)NCCCNC(=O)c1ccc(-c2c3nc(c(-c4ccccc4)c4ccc([nH]4)c(-c4ccccc4)c4nc(c(-c5ccccc5)c5ccc2[nH]5)C=C4)C=C3)cc1
REMARK SMILES IDX 26 1 25 2 24 3 1 4 2 5 3 7 4 8 5 9 13 10 22 11 6 12 12 13
REMARK SMILES IDX 14 14 21 15 23 16 7 17 11 18 15 19 20 20 8 21 9 22 16 23
REMARK SMILES IDX 19 24 10 26 17 27 18 28 27 29 28 30 29 31 30 33 31 34 32 35
REMARK SMILES IDX 78 36 33 37 77 38 34 39 35 40 36 41 71 42 37 43 76 44 70 45
REMARK SMILES IDX 72 46 38 47 75 48 69 49 68 50 39 52 61 53 46 54 60 55 47 56
REMARK SMILES IDX 50 57 59 58 73 59 48 60 49 61 58 63 74 64 51 65 40 66 41 67
REMARK SMILES IDX 45 68 42 69 44 70 43 71 62 72 63 73 67 74 64 75 66 76 65 77
REMARK SMILES IDX 52 78 53 79 57 80 54 81 56 82 55 83
REMARK H PARENT 24 6 8 25 28 32 72 51 50 62
REMARK Flexibility Score: inf
ROOT
ATOM      1  C   UNL A   1      38.780  23.017  26.139  1.00  0.00     0.042 C 
ENDROOT
BRANCH   1   2
ATOM      2  C   UNL A   1      37.641  22.218  25.517  1.00  0.00     0.117 C 
BRANCH   2   3
ATOM      3  N   UNL A   1      36.554  21.657  26.358  1.00  0.00    -0.356 N 
ATOM      4  O   UNL A   1      35.112  23.149  27.199  1.00  0.00    -0.275 OA
ATOM      5  C   UNL A   1      35.276  22.180  26.448  1.00  0.00     0.221 C 
ATOM      6  H   UNL A   1      36.757  20.855  26.892  1.00  0.00     0.163 HD
BRANCH   5   7
ATOM      7  C   UNL A   1      33.951  21.614  25.652  1.00  0.00     0.120 C 
BRANCH   7   8
ATOM      8  C   UNL A   1      33.423  21.677  23.997  1.00  0.00     0.098 C 
ATOM      9  C   UNL A   1      34.470  22.652  23.419  1.00  0.00     0.097 C 
ATOM     10  C   UNL A   1      31.964  21.658  24.432  1.00  0.00     0.085 C 
ATOM     11  C   UNL A   1      32.435  21.909  22.584  1.00  0.00     0.319 C 
ATOM     12  S   UNL A   1      34.152  24.384  23.774  1.00  0.00    -0.106 SA
ATOM     13  C   UNL A   1      31.991  23.137  25.047  1.00  0.00     0.049 A 
ATOM     14  C   UNL A   1      32.367  20.010  24.144  1.00  0.00     0.006 A 
ATOM     15  O   UNL A   1      31.928  20.765  21.976  1.00  0.00    -0.426 OA
ATOM     16  O   UNL A   1      32.093  22.995  22.116  1.00  0.00    -0.251 OA
ATOM     17  C   UNL A   1      32.768  24.224  24.767  1.00  0.00     0.090 A 
ATOM     18  S   UNL A   1      30.758  23.670  26.223  1.00  0.00    -0.077 S 
ATOM     19  C   UNL A   1      33.120  19.011  24.810  1.00  0.00     0.028 A 
ATOM     20  C   UNL A   1      32.159  19.693  22.801  1.00  0.00     0.134 A 
ATOM     21  N   UNL A   1      32.455  25.373  25.418  1.00  0.00    -0.307 N 
ATOM     22  C   UNL A   1      31.404  25.330  26.283  1.00  0.00     0.305 A 
ATOM     23  C   UNL A   1      33.435  17.763  24.240  1.00  0.00     0.041 A 
ATOM     24  C   UNL A   1      32.428  18.456  22.205  1.00  0.00     0.049 A 
ATOM     25  H   UNL A   1      32.966  26.202  25.271  1.00  0.00     0.171 HD
ATOM     26  O   UNL A   1      30.997  26.229  26.979  1.00  0.00    -0.257 OA
ATOM     27  Cl  UNL A   1      34.369  16.629  25.144  1.00  0.00    -0.084 Cl
ATOM     28  C   UNL A   1      33.058  17.469  22.946  1.00  0.00     0.024 A 
ENDBRANCH   7   8
ENDBRANCH   5   7
ENDBRANCH   2   3
ENDBRANCH   1   2
BRANCH   1  29
ATOM     29  C   UNL A   1      39.934  22.184  26.673  1.00  0.00     0.118 C 
BRANCH  29  30
ATOM     30  N   UNL A   1      41.133  22.286  25.860  1.00  0.00    -0.352 N 
ATOM     31  C   UNL A   1      42.205  23.134  25.848  1.00  0.00     0.251 C 
ATOM     32  H   UNL A   1      41.184  21.591  25.164  1.00  0.00     0.163 HD
ATOM     33  O   UNL A   1      43.190  22.748  25.215  1.00  0.00    -0.269 OA
BRANCH  31  34
ATOM     34  C   UNL A   1      42.249  24.488  26.460  1.00  0.00     0.039 A 
ATOM     35  C   UNL A   1      42.798  24.791  27.706  1.00  0.00     0.014 A 
ATOM     36  C   UNL A   1      41.529  25.489  25.773  1.00  0.00     0.014 A 
ATOM     37  C   UNL A   1      42.539  26.028  28.295  1.00  0.00     0.010 A 
ATOM     38  C   UNL A   1      41.267  26.721  26.355  1.00  0.00     0.010 A 
ATOM     39  C   UNL A   1      41.719  26.961  27.644  1.00  0.00    -0.014 A 
BRANCH  39  40
ATOM     40  C   UNL A   1      41.425  28.221  28.318  1.00  0.00     0.031 A 
ATOM     41  C   UNL A   1      42.437  29.286  28.080  1.00  0.00     0.074 A 
ATOM     42  C   UNL A   1      40.307  28.442  29.039  1.00  0.00     0.049 A 
ATOM     43  N   UNL A   1      43.200  29.846  28.958  1.00  0.00    -0.248 NA
ATOM     44  C   UNL A   1      42.737  29.673  26.693  1.00  0.00     0.031 C 
ATOM     45  C   UNL A   1      39.117  27.598  29.183  1.00  0.00     0.029 A 
ATOM     46  N   UNL A   1      39.963  29.554  29.746  1.00  0.00    -0.354 N 
ATOM     47  C   UNL A   1      43.989  30.762  28.267  1.00  0.00     0.074 A 
ATOM     48  C   UNL A   1      43.746  30.528  26.866  1.00  0.00     0.031 C 
ATOM     49  C   UNL A   1      38.104  28.333  29.704  1.00  0.00     0.029 A 
ATOM     50  C   UNL A   1      38.614  29.644  30.068  1.00  0.00     0.049 A 
ATOM     51  H   UNL A   1      40.619  30.241  30.008  1.00  0.00     0.167 HD
ATOM     52  C   UNL A   1      44.661  31.754  28.914  1.00  0.00     0.031 A 
ATOM     53  C   UNL A   1      37.967  30.741  30.545  1.00  0.00     0.031 A 
ATOM     54  C   UNL A   1      44.761  31.492  30.324  1.00  0.00     0.049 A 
ATOM     55  C   UNL A   1      38.992  31.624  31.153  1.00  0.00     0.074 A 
ATOM     56  C   UNL A   1      45.377  30.510  31.074  1.00  0.00     0.029 A 
ATOM     57  N   UNL A   1      43.827  32.074  31.149  1.00  0.00    -0.354 N 
ATOM     58  N   UNL A   1      39.653  31.307  32.229  1.00  0.00    -0.248 NA
ATOM     59  C   UNL A   1      39.622  32.617  30.295  1.00  0.00     0.031 C 
ATOM     60  C   UNL A   1      44.447  30.213  32.109  1.00  0.00     0.029 A 
ATOM     61  C   UNL A   1      43.371  31.096  31.995  1.00  0.00     0.049 A 
ATOM     62  H   UNL A   1      43.541  33.015  31.135  1.00  0.00     0.167 HD
ATOM     63  C   UNL A   1      40.957  31.691  31.958  1.00  0.00     0.074 A 
ATOM     64  C   UNL A   1      40.864  32.565  30.788  1.00  0.00     0.031 C 
ATOM     65  C   UNL A   1      42.020  31.036  32.511  1.00  0.00     0.031 A 
BRANCH  52  66
ATOM     66  C   UNL A   1      44.928  33.116  28.333  1.00  0.00    -0.014 A 
ATOM     67  C   UNL A   1      46.140  33.467  27.712  1.00  0.00     0.009 A 
ATOM     68  C   UNL A   1      43.846  33.999  28.152  1.00  0.00     0.009 A 
ATOM     69  C   UNL A   1      46.262  34.614  26.923  1.00  0.00     0.001 A 
ATOM     70  C   UNL A   1      43.955  35.129  27.332  1.00  0.00     0.001 A 
ATOM     71  C   UNL A   1      45.162  35.431  26.710  1.00  0.00     0.000 A 
ENDBRANCH  52  66
BRANCH  53  72
ATOM     72  C   UNL A   1      36.640  31.262  30.130  1.00  0.00    -0.014 A 
ATOM     73  C   UNL A   1      36.341  31.420  28.764  1.00  0.00     0.009 A 
ATOM     74  C   UNL A   1      35.791  31.894  31.056  1.00  0.00     0.009 A 
ATOM     75  C   UNL A   1      35.274  32.221  28.337  1.00  0.00     0.001 A 
ATOM     76  C   UNL A   1      34.721  32.697  30.627  1.00  0.00     0.001 A 
ATOM     77  C   UNL A   1      34.476  32.875  29.269  1.00  0.00     0.000 A 
ENDBRANCH  53  72
BRANCH  65  78
ATOM     78  C   UNL A   1      41.761  29.970  33.553  1.00  0.00    -0.014 A 
ATOM     79  C   UNL A   1      41.978  30.300  34.900  1.00  0.00     0.009 A 
ATOM     80  C   UNL A   1      41.538  28.618  33.233  1.00  0.00     0.009 A 
ATOM     81  C   UNL A   1      42.003  29.316  35.890  1.00  0.00     0.001 A 
ATOM     82  C   UNL A   1      41.534  27.633  34.229  1.00  0.00     0.001 A 
ATOM     83  C   UNL A   1      41.781  27.983  35.555  1.00  0.00     0.000 A 
ENDBRANCH  65  78
ENDBRANCH  39  40
ENDBRANCH  31  34
ENDBRANCH  29  30
ENDBRANCH   1  29
TORSDOF 11
ENDMDL
