MODEL 1
REMARK VINA RESULT:     -11.1      0.000      0.000
REMARK SMILES C[C@H]1[C@H](C(=O)NCCCNC(=O)c2ccc(-c3c4nc(c(-c5ccccc5)c5ccc([nH]5)c(-c5ccccc5)c5nc(c(-c6ccccc6)c6ccc3[nH]6)C=C5)C=C4)cc2)CCN1C(=O)NCc1ccncc1
REMARK SMILES IDX 7 1 6 2 4 3 5 4 3 6 1 7 2 8 63 9 61 10 62 11 64 12 65 13
REMARK SMILES IDX 66 14 67 16 68 17 69 18 73 19 70 20 72 21 71 22 8 23 9 24
REMARK SMILES IDX 10 25 11 26 12 28 13 29 14 30 60 31 15 32 59 33 16 34 17 35
REMARK SMILES IDX 18 36 53 37 19 38 58 39 52 40 54 41 20 42 57 43 51 44 50 45
REMARK SMILES IDX 21 47 43 48 28 49 42 50 29 51 32 52 41 53 55 54 30 55 31 56
REMARK SMILES IDX 40 58 56 59 33 60 22 61 23 62 27 63 24 64 26 65 25 66 44 67
REMARK SMILES IDX 45 68 49 69 46 70 48 71 47 72 34 73 35 74 39 75 36 76 38 77
REMARK SMILES IDX 37 78
REMARK H PARENT 6 5 66 15 10 27 54 46 32 57
REMARK Flexibility Score: inf
ROOT
ATOM      1  C   UNL A   1      36.618  20.436  24.825  1.00  0.00     0.117 C 
ENDROOT
BRANCH   1   2
ATOM      2  N   UNL A   1      36.939  21.571  23.977  1.00  0.00    -0.356 N 
ATOM      3  C   UNL A   1      36.254  22.695  23.654  1.00  0.00     0.225 C 
ATOM      4  O   UNL A   1      36.798  23.460  22.850  1.00  0.00    -0.275 OA
ATOM      5  H   UNL A   1      37.826  21.512  23.555  1.00  0.00     0.163 HD
BRANCH   3   6
ATOM      6  C   UNL A   1      34.865  23.029  24.177  1.00  0.00     0.102 C 
ATOM      7  C   UNL A   1      34.161  24.910  25.681  1.00  0.00     0.032 C 
ATOM      8  C   UNL A   1      34.624  24.543  24.264  1.00  0.00     0.096 C 
ATOM      9  N   UNL A   1      33.575  24.819  23.294  1.00  0.00    -0.321 N 
ATOM     10  C   UNL A   1      33.694  22.435  23.401  1.00  0.00     0.037 C 
ATOM     11  C   UNL A   1      32.797  23.612  23.048  1.00  0.00     0.122 C 
BRANCH   9  12
ATOM     12  C   UNL A   1      33.218  25.959  22.649  1.00  0.00     0.317 C 
ATOM     13  O   UNL A   1      33.818  26.332  21.635  1.00  0.00    -0.249 OA
ATOM     14  N   UNL A   1      32.227  26.768  23.044  1.00  0.00    -0.334 N 
ATOM     15  H   UNL A   1      32.204  27.590  22.502  1.00  0.00     0.165 HD
BRANCH  14  16
ATOM     16  C   UNL A   1      31.178  26.777  24.043  1.00  0.00     0.153 C 
BRANCH  16  17
ATOM     17  C   UNL A   1      31.433  27.794  25.125  1.00  0.00    -0.026 A 
ATOM     18  C   UNL A   1      31.639  29.145  24.819  1.00  0.00     0.025 A 
ATOM     19  C   UNL A   1      31.436  27.417  26.472  1.00  0.00     0.025 A 
ATOM     20  C   UNL A   1      31.864  30.038  25.855  1.00  0.00     0.111 A 
ATOM     21  C   UNL A   1      31.668  28.386  27.437  1.00  0.00     0.111 A 
ATOM     22  N   UNL A   1      31.892  29.684  27.157  1.00  0.00    -0.265 NA
ENDBRANCH  16  17
ENDBRANCH  14  16
ENDBRANCH   9  12
ENDBRANCH   3   6
ENDBRANCH   1   2
BRANCH   1  23
ATOM     23  C   UNL A   1      37.805  19.504  25.031  1.00  0.00     0.042 C 
BRANCH  23  24
ATOM     24  C   UNL A   1      38.931  20.078  25.883  1.00  0.00     0.118 C 
BRANCH  24  25
ATOM     25  N   UNL A   1      40.156  19.295  25.806  1.00  0.00    -0.352 N 
ATOM     26  C   UNL A   1      41.459  19.663  26.024  1.00  0.00     0.251 C 
ATOM     27  H   UNL A   1      40.028  18.351  25.558  1.00  0.00     0.163 HD
ATOM     28  O   UNL A   1      42.361  18.879  25.732  1.00  0.00    -0.269 OA
BRANCH  26  29
ATOM     29  C   UNL A   1      41.801  20.989  26.588  1.00  0.00     0.039 A 
ATOM     30  C   UNL A   1      42.191  22.006  25.712  1.00  0.00     0.014 A 
ATOM     31  C   UNL A   1      41.799  21.224  27.966  1.00  0.00     0.014 A 
ATOM     32  C   UNL A   1      42.526  23.268  26.209  1.00  0.00     0.010 A 
ATOM     33  C   UNL A   1      42.069  22.502  28.458  1.00  0.00     0.010 A 
ATOM     34  C   UNL A   1      42.443  23.533  27.585  1.00  0.00    -0.014 A 
BRANCH  34  35
ATOM     35  C   UNL A   1      42.746  24.884  28.119  1.00  0.00     0.031 A 
ATOM     36  C   UNL A   1      44.150  25.258  28.508  1.00  0.00     0.074 A 
ATOM     37  C   UNL A   1      41.746  25.769  28.295  1.00  0.00     0.049 A 
ATOM     38  N   UNL A   1      44.597  26.383  29.007  1.00  0.00    -0.248 NA
ATOM     39  C   UNL A   1      45.184  24.225  28.329  1.00  0.00     0.031 C 
ATOM     40  C   UNL A   1      40.334  25.519  27.999  1.00  0.00     0.029 A 
ATOM     41  N   UNL A   1      41.765  27.057  28.767  1.00  0.00    -0.354 N 
ATOM     42  C   UNL A   1      45.958  26.190  29.215  1.00  0.00     0.074 A 
ATOM     43  C   UNL A   1      46.256  24.828  28.826  1.00  0.00     0.031 C 
ATOM     44  C   UNL A   1      39.626  26.627  28.275  1.00  0.00     0.029 A 
ATOM     45  C   UNL A   1      40.529  27.650  28.795  1.00  0.00     0.049 A 
ATOM     46  H   UNL A   1      42.589  27.510  29.059  1.00  0.00     0.167 HD
ATOM     47  C   UNL A   1      46.880  27.069  29.674  1.00  0.00     0.031 A 
ATOM     48  C   UNL A   1      40.159  28.881  29.196  1.00  0.00     0.031 A 
ATOM     49  C   UNL A   1      46.592  28.426  30.059  1.00  0.00     0.049 A 
ATOM     50  C   UNL A   1      41.201  29.840  29.695  1.00  0.00     0.074 A 
ATOM     51  C   UNL A   1      47.469  29.406  30.490  1.00  0.00     0.029 A 
ATOM     52  N   UNL A   1      45.327  28.993  30.059  1.00  0.00    -0.354 N 
ATOM     53  N   UNL A   1      42.492  29.662  29.828  1.00  0.00    -0.248 NA
ATOM     54  C   UNL A   1      40.732  31.177  30.086  1.00  0.00     0.031 C 
ATOM     55  C   UNL A   1      46.729  30.556  30.788  1.00  0.00     0.029 A 
ATOM     56  C   UNL A   1      45.398  30.304  30.499  1.00  0.00     0.049 A 
ATOM     57  H   UNL A   1      44.501  28.531  29.787  1.00  0.00     0.167 HD
ATOM     58  C   UNL A   1      42.993  30.867  30.302  1.00  0.00     0.074 A 
ATOM     59  C   UNL A   1      41.870  31.775  30.413  1.00  0.00     0.031 C 
ATOM     60  C   UNL A   1      44.271  31.192  30.615  1.00  0.00     0.031 A 
BRANCH  47  61
ATOM     61  C   UNL A   1      48.296  26.582  29.791  1.00  0.00    -0.014 A 
ATOM     62  C   UNL A   1      49.198  26.716  28.722  1.00  0.00     0.009 A 
ATOM     63  C   UNL A   1      48.744  26.007  30.989  1.00  0.00     0.009 A 
ATOM     64  C   UNL A   1      50.510  26.251  28.841  1.00  0.00     0.001 A 
ATOM     65  C   UNL A   1      50.063  25.566  31.115  1.00  0.00     0.001 A 
ATOM     66  C   UNL A   1      50.941  25.680  30.038  1.00  0.00     0.000 A 
ENDBRANCH  47  61
BRANCH  48  67
ATOM     67  C   UNL A   1      38.732  29.282  29.124  1.00  0.00    -0.014 A 
ATOM     68  C   UNL A   1      38.200  29.802  27.935  1.00  0.00     0.009 A 
ATOM     69  C   UNL A   1      37.895  29.141  30.242  1.00  0.00     0.009 A 
ATOM     70  C   UNL A   1      36.861  30.193  27.873  1.00  0.00     0.001 A 
ATOM     71  C   UNL A   1      36.551  29.511  30.170  1.00  0.00     0.001 A 
ATOM     72  C   UNL A   1      36.037  30.044  28.988  1.00  0.00     0.000 A 
ENDBRANCH  48  67
BRANCH  60  73
ATOM     73  C   UNL A   1      44.519  32.594  31.092  1.00  0.00    -0.014 A 
ATOM     74  C   UNL A   1      44.394  32.932  32.448  1.00  0.00     0.009 A 
ATOM     75  C   UNL A   1      44.908  33.583  30.175  1.00  0.00     0.009 A 
ATOM     76  C   UNL A   1      44.620  34.244  32.871  1.00  0.00     0.001 A 
ATOM     77  C   UNL A   1      45.156  34.887  30.604  1.00  0.00     0.001 A 
ATOM     78  C   UNL A   1      45.003  35.219  31.950  1.00  0.00     0.000 A 
ENDBRANCH  60  73
ENDBRANCH  34  35
ENDBRANCH  26  29
ENDBRANCH  24  25
ENDBRANCH  23  24
ENDBRANCH   1  23
TORSDOF 13
ENDMDL
MODEL 2
REMARK VINA RESULT:     -11.1      2.596      7.450
REMARK SMILES C[C@H]1[C@H](C(=O)NCCCNC(=O)c2ccc(-c3c4nc(c(-c5ccccc5)c5ccc([nH]5)c(-c5ccccc5)c5nc(c(-c6ccccc6)c6ccc3[nH]6)C=C5)C=C4)cc2)CCN1C(=O)NCc1ccncc1
REMARK SMILES IDX 7 1 6 2 4 3 5 4 3 6 1 7 2 8 63 9 61 10 62 11 64 12 65 13
REMARK SMILES IDX 66 14 67 16 68 17 69 18 73 19 70 20 72 21 71 22 8 23 9 24
REMARK SMILES IDX 10 25 11 26 12 28 13 29 14 30 60 31 15 32 59 33 16 34 17 35
REMARK SMILES IDX 18 36 53 37 19 38 58 39 52 40 54 41 20 42 57 43 51 44 50 45
REMARK SMILES IDX 21 47 43 48 28 49 42 50 29 51 32 52 41 53 55 54 30 55 31 56
REMARK SMILES IDX 40 58 56 59 33 60 22 61 23 62 27 63 24 64 26 65 25 66 44 67
REMARK SMILES IDX 45 68 49 69 46 70 48 71 47 72 34 73 35 74 39 75 36 76 38 77
REMARK SMILES IDX 37 78
REMARK H PARENT 6 5 66 15 10 27 54 46 32 57
REMARK Flexibility Score: inf
ROOT
ATOM      1  C   UNL A   1      33.982  26.747  25.459  1.00  0.00     0.117 C 
ENDROOT
BRANCH   1   2
ATOM      2  N   UNL A   1      33.080  25.945  26.268  1.00  0.00    -0.356 N 
ATOM      3  C   UNL A   1      31.891  25.352  25.998  1.00  0.00     0.225 C 
ATOM      4  O   UNL A   1      31.340  24.768  26.938  1.00  0.00    -0.275 OA
ATOM      5  H   UNL A   1      33.392  25.806  27.191  1.00  0.00     0.163 HD
BRANCH   3   6
ATOM      6  C   UNL A   1      31.195  25.409  24.647  1.00  0.00     0.102 C 
ATOM      7  C   UNL A   1      29.217  26.788  23.952  1.00  0.00     0.032 C 
ATOM      8  C   UNL A   1      30.712  26.825  24.299  1.00  0.00     0.096 C 
ATOM      9  N   UNL A   1      31.499  27.222  23.140  1.00  0.00    -0.321 N 
ATOM     10  C   UNL A   1      32.002  24.907  23.454  1.00  0.00     0.037 C 
ATOM     11  C   UNL A   1      31.979  26.040  22.438  1.00  0.00     0.122 C 
BRANCH   9  12
ATOM     12  C   UNL A   1      31.807  28.444  22.634  1.00  0.00     0.317 C 
ATOM     13  O   UNL A   1      32.981  28.820  22.550  1.00  0.00    -0.249 OA
ATOM     14  N   UNL A   1      30.900  29.331  22.207  1.00  0.00    -0.334 N 
ATOM     15  H   UNL A   1      31.326  30.190  21.980  1.00  0.00     0.165 HD
BRANCH  14  16
ATOM     16  C   UNL A   1      29.471  29.387  21.985  1.00  0.00     0.153 C 
BRANCH  16  17
ATOM     17  C   UNL A   1      28.957  30.803  21.935  1.00  0.00    -0.026 A 
ATOM     18  C   UNL A   1      28.286  31.295  20.809  1.00  0.00     0.025 A 
ATOM     19  C   UNL A   1      29.111  31.656  23.034  1.00  0.00     0.025 A 
ATOM     20  C   UNL A   1      27.831  32.604  20.821  1.00  0.00     0.111 A 
ATOM     21  C   UNL A   1      28.619  32.949  22.950  1.00  0.00     0.111 A 
ATOM     22  N   UNL A   1      27.992  33.444  21.865  1.00  0.00    -0.265 NA
ENDBRANCH  16  17
ENDBRANCH  14  16
ENDBRANCH   9  12
ENDBRANCH   3   6
ENDBRANCH   1   2
BRANCH   1  23
ATOM     23  C   UNL A   1      33.963  28.220  25.845  1.00  0.00     0.042 C 
BRANCH  23  24
ATOM     24  C   UNL A   1      33.549  28.500  27.286  1.00  0.00     0.118 C 
BRANCH  24  25
ATOM     25  N   UNL A   1      33.532  29.920  27.604  1.00  0.00    -0.352 N 
ATOM     26  C   UNL A   1      34.485  30.707  28.200  1.00  0.00     0.251 C 
ATOM     27  H   UNL A   1      32.705  30.391  27.352  1.00  0.00     0.163 HD
ATOM     28  O   UNL A   1      34.193  31.855  28.533  1.00  0.00    -0.269 OA
BRANCH  26  29
ATOM     29  C   UNL A   1      35.851  30.198  28.461  1.00  0.00     0.039 A 
ATOM     30  C   UNL A   1      36.788  30.241  27.424  1.00  0.00     0.014 A 
ATOM     31  C   UNL A   1      36.202  29.631  29.690  1.00  0.00     0.014 A 
ATOM     32  C   UNL A   1      38.085  29.766  27.632  1.00  0.00     0.010 A 
ATOM     33  C   UNL A   1      37.515  29.218  29.919  1.00  0.00     0.010 A 
ATOM     34  C   UNL A   1      38.466  29.274  28.890  1.00  0.00    -0.014 A 
BRANCH  34  35
ATOM     35  C   UNL A   1      39.855  28.815  29.139  1.00  0.00     0.031 A 
ATOM     36  C   UNL A   1      40.857  29.723  29.795  1.00  0.00     0.074 A 
ATOM     37  C   UNL A   1      40.230  27.586  28.735  1.00  0.00     0.049 A 
ATOM     38  N   UNL A   1      42.117  29.499  30.077  1.00  0.00    -0.248 NA
ATOM     39  C   UNL A   1      40.387  31.067  30.170  1.00  0.00     0.031 C 
ATOM     40  C   UNL A   1      39.370  26.621  28.048  1.00  0.00     0.029 A 
ATOM     41  N   UNL A   1      41.436  26.940  28.844  1.00  0.00    -0.354 N 
ATOM     42  C   UNL A   1      42.592  30.674  30.645  1.00  0.00     0.074 A 
ATOM     43  C   UNL A   1      41.499  31.622  30.634  1.00  0.00     0.031 C 
ATOM     44  C   UNL A   1      40.069  25.498  27.817  1.00  0.00     0.029 A 
ATOM     45  C   UNL A   1      41.431  25.676  28.311  1.00  0.00     0.049 A 
ATOM     46  H   UNL A   1      42.229  27.346  29.263  1.00  0.00     0.167 HD
ATOM     47  C   UNL A   1      43.823  30.938  31.145  1.00  0.00     0.031 A 
ATOM     48  C   UNL A   1      42.414  24.760  28.226  1.00  0.00     0.031 A 
ATOM     49  C   UNL A   1      44.914  29.999  31.164  1.00  0.00     0.049 A 
ATOM     50  C   UNL A   1      43.769  25.073  28.794  1.00  0.00     0.074 A 
ATOM     51  C   UNL A   1      46.183  30.159  31.694  1.00  0.00     0.029 A 
ATOM     52  N   UNL A   1      44.864  28.723  30.626  1.00  0.00    -0.354 N 
ATOM     53  N   UNL A   1      44.184  26.167  29.383  1.00  0.00    -0.248 NA
ATOM     54  C   UNL A   1      44.785  24.016  28.697  1.00  0.00     0.031 C 
ATOM     55  C   UNL A   1      46.913  28.993  31.442  1.00  0.00     0.029 A 
ATOM     56  C   UNL A   1      46.084  28.090  30.796  1.00  0.00     0.049 A 
ATOM     57  H   UNL A   1      44.077  28.325  30.188  1.00  0.00     0.167 HD
ATOM     58  C   UNL A   1      45.504  25.925  29.742  1.00  0.00     0.074 A 
ATOM     59  C   UNL A   1      45.813  24.573  29.322  1.00  0.00     0.031 C 
ATOM     60  C   UNL A   1      46.380  26.750  30.364  1.00  0.00     0.031 A 
BRANCH  47  61
ATOM     61  C   UNL A   1      44.055  32.309  31.713  1.00  0.00    -0.014 A 
ATOM     62  C   UNL A   1      43.755  32.598  33.054  1.00  0.00     0.009 A 
ATOM     63  C   UNL A   1      44.604  33.318  30.907  1.00  0.00     0.009 A 
ATOM     64  C   UNL A   1      43.968  33.880  33.566  1.00  0.00     0.001 A 
ATOM     65  C   UNL A   1      44.840  34.592  31.428  1.00  0.00     0.001 A 
ATOM     66  C   UNL A   1      44.513  34.874  32.754  1.00  0.00     0.000 A 
ENDBRANCH  47  61
BRANCH  48  67
ATOM     67  C   UNL A   1      42.145  23.445  27.591  1.00  0.00    -0.014 A 
ATOM     68  C   UNL A   1      41.491  22.431  28.306  1.00  0.00     0.009 A 
ATOM     69  C   UNL A   1      42.534  23.203  26.264  1.00  0.00     0.009 A 
ATOM     70  C   UNL A   1      41.252  21.191  27.711  1.00  0.00     0.001 A 
ATOM     71  C   UNL A   1      42.273  21.970  25.665  1.00  0.00     0.001 A 
ATOM     72  C   UNL A   1      41.639  20.962  26.391  1.00  0.00     0.000 A 
ENDBRANCH  48  67
BRANCH  60  73
ATOM     73  C   UNL A   1      47.751  26.202  30.642  1.00  0.00    -0.014 A 
ATOM     74  C   UNL A   1      48.739  26.180  29.645  1.00  0.00     0.009 A 
ATOM     75  C   UNL A   1      48.064  25.726  31.924  1.00  0.00     0.009 A 
ATOM     76  C   UNL A   1      50.005  25.658  29.920  1.00  0.00     0.001 A 
ATOM     77  C   UNL A   1      49.337  25.227  32.202  1.00  0.00     0.001 A 
ATOM     78  C   UNL A   1      50.303  25.185  31.197  1.00  0.00     0.000 A 
ENDBRANCH  60  73
ENDBRANCH  34  35
ENDBRANCH  26  29
ENDBRANCH  24  25
ENDBRANCH  23  24
ENDBRANCH   1  23
TORSDOF 13
ENDMDL
MODEL 3
REMARK VINA RESULT:     -11.1      1.565      6.257
REMARK SMILES C[C@H]1[C@H](C(=O)NCCCNC(=O)c2ccc(-c3c4nc(c(-c5ccccc5)c5ccc([nH]5)c(-c5ccccc5)c5nc(c(-c6ccccc6)c6ccc3[nH]6)C=C5)C=C4)cc2)CCN1C(=O)NCc1ccncc1
REMARK SMILES IDX 7 1 6 2 4 3 5 4 3 6 1 7 2 8 63 9 61 10 62 11 64 12 65 13
REMARK SMILES IDX 66 14 67 16 68 17 69 18 73 19 70 20 72 21 71 22 8 23 9 24
REMARK SMILES IDX 10 25 11 26 12 28 13 29 14 30 60 31 15 32 59 33 16 34 17 35
REMARK SMILES IDX 18 36 53 37 19 38 58 39 52 40 54 41 20 42 57 43 51 44 50 45
REMARK SMILES IDX 21 47 43 48 28 49 42 50 29 51 32 52 41 53 55 54 30 55 31 56
REMARK SMILES IDX 40 58 56 59 33 60 22 61 23 62 27 63 24 64 26 65 25 66 44 67
REMARK SMILES IDX 45 68 49 69 46 70 48 71 47 72 34 73 35 74 39 75 36 76 38 77
REMARK SMILES IDX 37 78
REMARK H PARENT 6 5 66 15 10 27 54 46 32 57
REMARK Flexibility Score: inf
ROOT
ATOM      1  C   UNL A   1      36.516  20.564  24.655  1.00  0.00     0.117 C 
ENDROOT
BRANCH   1   2
ATOM      2  N   UNL A   1      35.227  20.120  25.161  1.00  0.00    -0.356 N 
ATOM      3  C   UNL A   1      34.048  20.761  25.349  1.00  0.00     0.225 C 
ATOM      4  O   UNL A   1      33.134  20.097  25.852  1.00  0.00    -0.275 OA
ATOM      5  H   UNL A   1      35.208  19.169  25.415  1.00  0.00     0.163 HD
BRANCH   3   6
ATOM      6  C   UNL A   1      33.812  22.229  25.028  1.00  0.00     0.102 C 
ATOM      7  C   UNL A   1      32.077  23.255  23.535  1.00  0.00     0.032 C 
ATOM      8  C   UNL A   1      32.320  22.561  24.882  1.00  0.00     0.096 C 
ATOM      9  N   UNL A   1      32.021  23.464  25.985  1.00  0.00    -0.321 N 
ATOM     10  C   UNL A   1      34.399  23.234  26.015  1.00  0.00     0.037 C 
ATOM     11  C   UNL A   1      33.239  24.128  26.427  1.00  0.00     0.122 C 
BRANCH   9  12
ATOM     12  C   UNL A   1      30.853  23.778  26.603  1.00  0.00     0.317 C 
ATOM     13  O   UNL A   1      30.425  23.097  27.540  1.00  0.00    -0.249 OA
ATOM     14  N   UNL A   1      30.075  24.811  26.257  1.00  0.00    -0.334 N 
ATOM     15  H   UNL A   1      29.227  24.798  26.759  1.00  0.00     0.165 HD
BRANCH  14  16
ATOM     16  C   UNL A   1      30.126  25.943  25.355  1.00  0.00     0.153 C 
BRANCH  16  17
ATOM     17  C   UNL A   1      31.241  26.896  25.701  1.00  0.00    -0.026 A 
ATOM     18  C   UNL A   1      32.183  27.291  24.743  1.00  0.00     0.025 A 
ATOM     19  C   UNL A   1      31.344  27.437  26.986  1.00  0.00     0.025 A 
ATOM     20  C   UNL A   1      33.185  28.174  25.114  1.00  0.00     0.111 A 
ATOM     21  C   UNL A   1      32.381  28.316  27.261  1.00  0.00     0.111 A 
ATOM     22  N   UNL A   1      33.309  28.687  26.357  1.00  0.00    -0.265 NA
ENDBRANCH  16  17
ENDBRANCH  14  16
ENDBRANCH   9  12
ENDBRANCH   3   6
ENDBRANCH   1   2
BRANCH   1  23
ATOM     23  C   UNL A   1      37.639  19.589  24.980  1.00  0.00     0.042 C 
BRANCH  23  24
ATOM     24  C   UNL A   1      38.821  20.198  25.727  1.00  0.00     0.118 C 
BRANCH  24  25
ATOM     25  N   UNL A   1      39.985  19.324  25.754  1.00  0.00    -0.352 N 
ATOM     26  C   UNL A   1      41.294  19.602  26.053  1.00  0.00     0.251 C 
ATOM     27  H   UNL A   1      39.803  18.386  25.520  1.00  0.00     0.163 HD
ATOM     28  O   UNL A   1      42.153  18.745  25.845  1.00  0.00    -0.269 OA
BRANCH  26  29
ATOM     29  C   UNL A   1      41.697  20.914  26.609  1.00  0.00     0.039 A 
ATOM     30  C   UNL A   1      42.207  21.879  25.736  1.00  0.00     0.014 A 
ATOM     31  C   UNL A   1      41.633  21.183  27.980  1.00  0.00     0.014 A 
ATOM     32  C   UNL A   1      42.602  23.127  26.226  1.00  0.00     0.010 A 
ATOM     33  C   UNL A   1      41.965  22.451  28.459  1.00  0.00     0.010 A 
ATOM     34  C   UNL A   1      42.460  23.432  27.588  1.00  0.00    -0.014 A 
BRANCH  34  35
ATOM     35  C   UNL A   1      42.827  24.771  28.111  1.00  0.00     0.031 A 
ATOM     36  C   UNL A   1      41.776  25.825  28.326  1.00  0.00     0.074 A 
ATOM     37  C   UNL A   1      44.121  25.056  28.357  1.00  0.00     0.049 A 
ATOM     38  N   UNL A   1      41.914  27.053  28.760  1.00  0.00    -0.248 NA
ATOM     39  C   UNL A   1      40.391  25.455  27.995  1.00  0.00     0.031 C 
ATOM     40  C   UNL A   1      45.244  24.139  28.150  1.00  0.00     0.029 A 
ATOM     41  N   UNL A   1      44.707  26.201  28.832  1.00  0.00    -0.354 N 
ATOM     42  C   UNL A   1      40.640  27.607  28.739  1.00  0.00     0.074 A 
ATOM     43  C   UNL A   1      39.748  26.595  28.214  1.00  0.00     0.031 C 
ATOM     44  C   UNL A   1      46.381  24.751  28.518  1.00  0.00     0.029 A 
ATOM     45  C   UNL A   1      46.071  26.108  28.956  1.00  0.00     0.049 A 
ATOM     46  H   UNL A   1      44.198  27.012  29.061  1.00  0.00     0.167 HD
ATOM     47  C   UNL A   1      40.244  28.840  29.134  1.00  0.00     0.031 A 
ATOM     48  C   UNL A   1      46.974  27.015  29.375  1.00  0.00     0.031 A 
ATOM     49  C   UNL A   1      41.124  29.849  29.661  1.00  0.00     0.049 A 
ATOM     50  C   UNL A   1      46.509  28.374  29.814  1.00  0.00     0.074 A 
ATOM     51  C   UNL A   1      40.806  31.111  30.132  1.00  0.00     0.029 A 
ATOM     52  N   UNL A   1      42.497  29.711  29.783  1.00  0.00    -0.354 N 
ATOM     53  N   UNL A   1      45.292  28.860  29.846  1.00  0.00    -0.248 NA
ATOM     54  C   UNL A   1      47.543  29.303  30.290  1.00  0.00     0.031 C 
ATOM     55  C   UNL A   1      41.994  31.751  30.505  1.00  0.00     0.029 A 
ATOM     56  C   UNL A   1      43.044  30.870  30.308  1.00  0.00     0.049 A 
ATOM     57  H   UNL A   1      43.008  28.906  29.534  1.00  0.00     0.167 HD
ATOM     58  C   UNL A   1      45.412  30.145  30.359  1.00  0.00     0.074 A 
ATOM     59  C   UNL A   1      46.818  30.355  30.644  1.00  0.00     0.031 C 
ATOM     60  C   UNL A   1      44.444  31.068  30.575  1.00  0.00     0.031 A 
BRANCH  47  61
ATOM     61  C   UNL A   1      38.783  29.167  29.004  1.00  0.00    -0.014 A 
ATOM     62  C   UNL A   1      37.912  29.040  30.099  1.00  0.00     0.009 A 
ATOM     63  C   UNL A   1      38.274  29.633  27.782  1.00  0.00     0.009 A 
ATOM     64  C   UNL A   1      36.555  29.339  29.961  1.00  0.00     0.001 A 
ATOM     65  C   UNL A   1      36.921  29.956  27.654  1.00  0.00     0.001 A 
ATOM     66  C   UNL A   1      36.062  29.800  28.741  1.00  0.00     0.000 A 
ENDBRANCH  47  61
BRANCH  48  67
ATOM     67  C   UNL A   1      48.414  26.658  29.415  1.00  0.00    -0.014 A 
ATOM     68  C   UNL A   1      49.232  26.879  28.298  1.00  0.00     0.009 A 
ATOM     69  C   UNL A   1      48.977  26.102  30.574  1.00  0.00     0.009 A 
ATOM     70  C   UNL A   1      50.583  26.528  28.333  1.00  0.00     0.001 A 
ATOM     71  C   UNL A   1      50.332  25.774  30.614  1.00  0.00     0.001 A 
ATOM     72  C   UNL A   1      51.133  25.981  29.492  1.00  0.00     0.000 A 
ENDBRANCH  48  67
BRANCH  60  73
ATOM     73  C   UNL A   1      44.874  32.380  31.164  1.00  0.00    -0.014 A 
ATOM     74  C   UNL A   1      45.254  33.455  30.344  1.00  0.00     0.009 A 
ATOM     75  C   UNL A   1      44.876  32.552  32.557  1.00  0.00     0.009 A 
ATOM     76  C   UNL A   1      45.660  34.665  30.910  1.00  0.00     0.001 A 
ATOM     77  C   UNL A   1      45.259  33.770  33.119  1.00  0.00     0.001 A 
ATOM     78  C   UNL A   1      45.660  34.822  32.296  1.00  0.00     0.000 A 
ENDBRANCH  60  73
ENDBRANCH  34  35
ENDBRANCH  26  29
ENDBRANCH  24  25
ENDBRANCH  23  24
ENDBRANCH   1  23
TORSDOF 13
ENDMDL
