MODEL 1
REMARK VINA RESULT:     -10.7      0.000      0.000
REMARK SMILES Cc1cc(NC[C@H](C)[NH+](C)C)cc(C(=O)NCCCNC(=O)c2ccc(-c3c4nc(c(-c5ccccc5)c5ccc([nH]5)c(-c5ccccc5)c5nc(c(-c6ccccc6)c6ccc3[nH]6)C=C5)C=C4)cc2)c1N
REMARK SMILES IDX 17 1 16 2 14 3 15 4 13 6 1 7 2 8 3 9 71 10 4 11 12 12 72 13
REMARK SMILES IDX 5 16 6 18 7 19 8 20 9 21 10 22 11 23 18 25 19 26 20 27 21 28
REMARK SMILES IDX 22 30 23 31 24 32 70 33 25 34 69 35 26 36 27 37 28 38 63 39
REMARK SMILES IDX 29 40 68 41 62 42 64 43 30 44 67 45 61 46 60 47 31 49 53 50
REMARK SMILES IDX 38 51 52 52 39 53 42 54 51 55 65 56 40 57 41 58 50 60 66 61
REMARK SMILES IDX 43 62 32 63 33 64 37 65 34 66 36 67 35 68 54 69 55 70 59 71
REMARK SMILES IDX 56 72 58 73 57 74 44 75 45 76 49 77 46 78 48 79 47 80
REMARK H PARENT 16 5 72 14 72 15 5 17 9 24 20 29 64 48 42 59
REMARK Flexibility Score: inf
ROOT
ATOM      1  C   UNL A   1      33.605  29.371  25.127  1.00  0.00     0.118 C 
ENDROOT
BRANCH   1   2
ATOM      2  N   UNL A   1      33.833  28.943  23.756  1.00  0.00    -0.352 N 
ATOM      3  C   UNL A   1      33.024  28.381  22.793  1.00  0.00     0.253 C 
ATOM      4  O   UNL A   1      33.555  28.157  21.702  1.00  0.00    -0.269 OA
ATOM      5  H   UNL A   1      34.758  29.085  23.453  1.00  0.00     0.163 HD
BRANCH   3   6
ATOM      6  C   UNL A   1      31.570  28.074  22.995  1.00  0.00     0.065 A 
ATOM      7  C   UNL A   1      28.120  29.457  22.081  1.00  0.00     0.046 C 
ATOM      8  C   UNL A   1      29.219  28.616  22.674  1.00  0.00    -0.025 A 
ATOM      9  C   UNL A   1      28.872  27.522  23.492  1.00  0.00     0.031 A 
ATOM     10  C   UNL A   1      30.578  28.906  22.422  1.00  0.00     0.047 A 
ATOM     11  C   UNL A   1      29.840  26.687  24.046  1.00  0.00     0.035 A 
ATOM     12  C   UNL A   1      31.168  26.936  23.700  1.00  0.00     0.041 A 
BRANCH  10  13
ATOM     13  N   UNL A   1      30.922  30.082  21.745  1.00  0.00    -0.398 N 
ATOM     14  H   UNL A   1      31.868  30.290  21.569  1.00  0.00     0.156 HD
ATOM     15  H   UNL A   1      30.218  30.700  21.444  1.00  0.00     0.156 HD
ENDBRANCH  10  13
BRANCH  11  16
ATOM     16  N   UNL A   1      29.478  25.647  24.891  1.00  0.00    -0.379 N 
ATOM     17  H   UNL A   1      28.639  25.159  24.726  1.00  0.00     0.160 HD
BRANCH  16  18
ATOM     18  C   UNL A   1      30.324  25.263  26.023  1.00  0.00     0.177 C 
BRANCH  18  19
ATOM     19  C   UNL A   1      30.755  23.768  26.000  1.00  0.00     0.199 C 
ATOM     20  C   UNL A   1      29.887  22.994  27.011  1.00  0.00     0.077 C 
BRANCH  19  21
ATOM     21  N   UNL A   1      32.192  23.467  26.223  1.00  0.00    -0.336 N 
ATOM     22  C   UNL A   1      32.610  22.220  25.584  1.00  0.00     0.332 C 
ATOM     23  C   UNL A   1      33.109  24.545  25.856  1.00  0.00     0.332 C 
ATOM     24  H   UNL A   1      32.256  23.360  27.236  1.00  0.00     0.347 HD
ENDBRANCH  19  21
ENDBRANCH  18  19
ENDBRANCH  16  18
ENDBRANCH  11  16
ENDBRANCH   3   6
ENDBRANCH   1   2
BRANCH   1  25
ATOM     25  C   UNL A   1      33.697  28.187  26.096  1.00  0.00     0.042 C 
BRANCH  25  26
ATOM     26  C   UNL A   1      33.548  28.593  27.558  1.00  0.00     0.118 C 
BRANCH  26  27
ATOM     27  N   UNL A   1      33.591  30.038  27.725  1.00  0.00    -0.352 N 
ATOM     28  C   UNL A   1      34.579  30.836  28.246  1.00  0.00     0.251 C 
ATOM     29  H   UNL A   1      32.788  30.517  27.417  1.00  0.00     0.163 HD
ATOM     30  O   UNL A   1      34.332  32.008  28.511  1.00  0.00    -0.269 OA
BRANCH  28  31
ATOM     31  C   UNL A   1      35.932  30.295  28.499  1.00  0.00     0.039 A 
ATOM     32  C   UNL A   1      36.852  30.271  27.445  1.00  0.00     0.014 A 
ATOM     33  C   UNL A   1      36.283  29.767  29.743  1.00  0.00     0.014 A 
ATOM     34  C   UNL A   1      38.138  29.766  27.655  1.00  0.00     0.010 A 
ATOM     35  C   UNL A   1      37.585  29.326  29.970  1.00  0.00     0.010 A 
ATOM     36  C   UNL A   1      38.524  29.315  28.927  1.00  0.00    -0.014 A 
BRANCH  36  37
ATOM     37  C   UNL A   1      39.902  28.830  29.190  1.00  0.00     0.031 A 
ATOM     38  C   UNL A   1      40.922  29.746  29.807  1.00  0.00     0.074 A 
ATOM     39  C   UNL A   1      40.254  27.589  28.804  1.00  0.00     0.049 A 
ATOM     40  N   UNL A   1      42.194  29.533  30.029  1.00  0.00    -0.248 NA
ATOM     41  C   UNL A   1      40.459  31.085  30.203  1.00  0.00     0.031 C 
ATOM     42  C   UNL A   1      39.365  26.615  28.166  1.00  0.00     0.029 A 
ATOM     43  N   UNL A   1      41.459  26.937  28.883  1.00  0.00    -0.354 N 
ATOM     44  C   UNL A   1      42.686  30.715  30.569  1.00  0.00     0.074 A 
ATOM     45  C   UNL A   1      41.587  31.655  30.601  1.00  0.00     0.031 C 
ATOM     46  C   UNL A   1      40.050  25.485  27.927  1.00  0.00     0.029 A 
ATOM     47  C   UNL A   1      41.433  25.669  28.355  1.00  0.00     0.049 A 
ATOM     48  H   UNL A   1      42.265  27.340  29.280  1.00  0.00     0.167 HD
ATOM     49  C   UNL A   1      43.938  30.990  31.009  1.00  0.00     0.031 A 
ATOM     50  C   UNL A   1      42.416  24.760  28.220  1.00  0.00     0.031 A 
ATOM     51  C   UNL A   1      45.027  30.051  30.987  1.00  0.00     0.049 A 
ATOM     52  C   UNL A   1      43.799  25.092  28.706  1.00  0.00     0.074 A 
ATOM     53  C   UNL A   1      46.316  30.216  31.464  1.00  0.00     0.029 A 
ATOM     54  N   UNL A   1      44.956  28.772  30.457  1.00  0.00    -0.354 N 
ATOM     55  N   UNL A   1      44.232  26.193  29.270  1.00  0.00    -0.248 NA
ATOM     56  C   UNL A   1      44.825  24.052  28.545  1.00  0.00     0.031 C 
ATOM     57  C   UNL A   1      47.039  29.053  31.179  1.00  0.00     0.029 A 
ATOM     58  C   UNL A   1      46.184  28.144  30.574  1.00  0.00     0.049 A 
ATOM     59  H   UNL A   1      44.151  28.370  30.057  1.00  0.00     0.167 HD
ATOM     60  C   UNL A   1      45.573  25.970  29.555  1.00  0.00     0.074 A 
ATOM     61  C   UNL A   1      45.877  24.623  29.116  1.00  0.00     0.031 C 
ATOM     62  C   UNL A   1      46.470  26.805  30.132  1.00  0.00     0.031 A 
BRANCH  49  63
ATOM     63  C   UNL A   1      44.197  32.371  31.544  1.00  0.00    -0.014 A 
ATOM     64  C   UNL A   1      44.018  32.671  32.904  1.00  0.00     0.009 A 
ATOM     65  C   UNL A   1      44.665  33.377  30.684  1.00  0.00     0.009 A 
ATOM     66  C   UNL A   1      44.267  33.959  33.383  1.00  0.00     0.001 A 
ATOM     67  C   UNL A   1      44.940  34.656  31.172  1.00  0.00     0.001 A 
ATOM     68  C   UNL A   1      44.732  34.948  32.519  1.00  0.00     0.000 A 
ENDBRANCH  49  63
BRANCH  50  69
ATOM     69  C   UNL A   1      42.126  23.440  27.600  1.00  0.00    -0.014 A 
ATOM     70  C   UNL A   1      42.451  23.198  26.257  1.00  0.00     0.009 A 
ATOM     71  C   UNL A   1      41.525  22.415  28.348  1.00  0.00     0.009 A 
ATOM     72  C   UNL A   1      42.157  21.966  25.668  1.00  0.00     0.001 A 
ATOM     73  C   UNL A   1      41.259  21.174  27.765  1.00  0.00     0.001 A 
ATOM     74  C   UNL A   1      41.567  20.954  26.424  1.00  0.00     0.000 A 
ENDBRANCH  50  69
BRANCH  62  75
ATOM     75  C   UNL A   1      47.859  26.275  30.353  1.00  0.00    -0.014 A 
ATOM     76  C   UNL A   1      48.244  25.736  31.590  1.00  0.00     0.009 A 
ATOM     77  C   UNL A   1      48.777  26.272  29.292  1.00  0.00     0.009 A 
ATOM     78  C   UNL A   1      49.534  25.231  31.766  1.00  0.00     0.001 A 
ATOM     79  C   UNL A   1      50.056  25.741  29.463  1.00  0.00     0.001 A 
ATOM     80  C   UNL A   1      50.437  25.229  30.702  1.00  0.00     0.000 A 
ENDBRANCH  62  75
ENDBRANCH  36  37
ENDBRANCH  28  31
ENDBRANCH  26  27
ENDBRANCH  25  26
ENDBRANCH   1  25
TORSDOF 15
ENDMDL
MODEL 2
REMARK VINA RESULT:     -10.6      3.027      7.879
REMARK SMILES Cc1cc(NC[C@H](C)[NH+](C)C)cc(C(=O)NCCCNC(=O)c2ccc(-c3c4nc(c(-c5ccccc5)c5ccc([nH]5)c(-c5ccccc5)c5nc(c(-c6ccccc6)c6ccc3[nH]6)C=C5)C=C4)cc2)c1N
REMARK SMILES IDX 17 1 16 2 14 3 15 4 13 6 1 7 2 8 3 9 71 10 4 11 12 12 72 13
REMARK SMILES IDX 5 16 6 18 7 19 8 20 9 21 10 22 11 23 18 25 19 26 20 27 21 28
REMARK SMILES IDX 22 30 23 31 24 32 70 33 25 34 69 35 26 36 27 37 28 38 63 39
REMARK SMILES IDX 29 40 68 41 62 42 64 43 30 44 67 45 61 46 60 47 31 49 53 50
REMARK SMILES IDX 38 51 52 52 39 53 42 54 51 55 65 56 40 57 41 58 50 60 66 61
REMARK SMILES IDX 43 62 32 63 33 64 37 65 34 66 36 67 35 68 54 69 55 70 59 71
REMARK SMILES IDX 56 72 58 73 57 74 44 75 45 76 49 77 46 78 48 79 47 80
REMARK H PARENT 16 5 72 14 72 15 5 17 9 24 20 29 64 48 42 59
REMARK Flexibility Score: inf
ROOT
ATOM      1  C   UNL A   1      37.912  21.941  25.574  1.00  0.00     0.118 C 
ENDROOT
BRANCH   1   2
ATOM      2  N   UNL A   1      37.396  22.427  24.304  1.00  0.00    -0.352 N 
ATOM      3  C   UNL A   1      36.126  22.641  23.817  1.00  0.00     0.253 C 
ATOM      4  O   UNL A   1      36.051  23.091  22.670  1.00  0.00    -0.269 OA
ATOM      5  H   UNL A   1      38.103  22.651  23.657  1.00  0.00     0.163 HD
BRANCH   3   6
ATOM      6  C   UNL A   1      34.873  22.391  24.605  1.00  0.00     0.065 A 
ATOM      7  C   UNL A   1      32.025  24.320  26.283  1.00  0.00     0.046 C 
ATOM      8  C   UNL A   1      32.925  23.208  25.813  1.00  0.00    -0.025 A 
ATOM      9  C   UNL A   1      32.608  21.881  26.166  1.00  0.00     0.031 A 
ATOM     10  C   UNL A   1      34.070  23.476  25.030  1.00  0.00     0.047 A 
ATOM     11  C   UNL A   1      33.383  20.806  25.737  1.00  0.00     0.035 A 
ATOM     12  C   UNL A   1      34.449  21.090  24.884  1.00  0.00     0.041 A 
BRANCH  10  13
ATOM     13  N   UNL A   1      34.469  24.801  24.818  1.00  0.00    -0.398 N 
ATOM     14  H   UNL A   1      35.289  24.991  24.309  1.00  0.00     0.156 HD
ATOM     15  H   UNL A   1      33.929  25.541  25.177  1.00  0.00     0.156 HD
ENDBRANCH  10  13
BRANCH  11  16
ATOM     16  N   UNL A   1      33.082  19.511  26.140  1.00  0.00    -0.379 N 
ATOM     17  H   UNL A   1      33.163  19.269  27.091  1.00  0.00     0.160 HD
BRANCH  16  18
ATOM     18  C   UNL A   1      32.646  18.501  25.174  1.00  0.00     0.177 C 
BRANCH  18  19
ATOM     19  C   UNL A   1      33.788  17.557  24.700  1.00  0.00     0.199 C 
ATOM     20  C   UNL A   1      33.496  17.127  23.250  1.00  0.00     0.077 C 
BRANCH  19  21
ATOM     21  N   UNL A   1      34.086  16.368  25.536  1.00  0.00    -0.336 N 
ATOM     22  C   UNL A   1      33.101  15.300  25.365  1.00  0.00     0.332 C 
ATOM     23  C   UNL A   1      35.436  15.828  25.377  1.00  0.00     0.332 C 
ATOM     24  H   UNL A   1      34.025  16.727  26.489  1.00  0.00     0.347 HD
ENDBRANCH  19  21
ENDBRANCH  18  19
ENDBRANCH  16  18
ENDBRANCH  11  16
ENDBRANCH   3   6
ENDBRANCH   1   2
BRANCH   1  25
ATOM     25  C   UNL A   1      39.216  21.163  25.376  1.00  0.00     0.042 C 
BRANCH  25  26
ATOM     26  C   UNL A   1      39.289  19.889  26.211  1.00  0.00     0.118 C 
BRANCH  26  27
ATOM     27  N   UNL A   1      40.536  19.171  25.994  1.00  0.00    -0.352 N 
ATOM     28  C   UNL A   1      41.829  19.631  25.989  1.00  0.00     0.251 C 
ATOM     29  H   UNL A   1      40.437  18.206  25.823  1.00  0.00     0.163 HD
ATOM     30  O   UNL A   1      42.725  18.912  25.559  1.00  0.00    -0.269 OA
BRANCH  28  31
ATOM     31  C   UNL A   1      42.150  20.987  26.487  1.00  0.00     0.039 A 
ATOM     32  C   UNL A   1      42.561  21.958  25.570  1.00  0.00     0.014 A 
ATOM     33  C   UNL A   1      42.098  21.291  27.850  1.00  0.00     0.014 A 
ATOM     34  C   UNL A   1      42.871  23.247  26.011  1.00  0.00     0.010 A 
ATOM     35  C   UNL A   1      42.342  22.593  28.282  1.00  0.00     0.010 A 
ATOM     36  C   UNL A   1      42.736  23.583  27.368  1.00  0.00    -0.014 A 
BRANCH  36  37
ATOM     37  C   UNL A   1      43.001  24.960  27.853  1.00  0.00     0.031 A 
ATOM     38  C   UNL A   1      44.397  25.378  28.222  1.00  0.00     0.074 A 
ATOM     39  C   UNL A   1      41.972  25.811  28.031  1.00  0.00     0.049 A 
ATOM     40  N   UNL A   1      44.810  26.504  28.747  1.00  0.00    -0.248 NA
ATOM     41  C   UNL A   1      45.467  24.392  27.996  1.00  0.00     0.031 C 
ATOM     42  C   UNL A   1      40.568  25.515  27.740  1.00  0.00     0.029 A 
ATOM     43  N   UNL A   1      41.949  27.096  28.511  1.00  0.00    -0.354 N 
ATOM     44  C   UNL A   1      46.179  26.353  28.934  1.00  0.00     0.074 A 
ATOM     45  C   UNL A   1      46.520  25.014  28.506  1.00  0.00     0.031 C 
ATOM     46  C   UNL A   1      39.823  26.594  28.032  1.00  0.00     0.029 A 
ATOM     47  C   UNL A   1      40.688  27.639  28.568  1.00  0.00     0.049 A 
ATOM     48  H   UNL A   1      42.759  27.583  28.788  1.00  0.00     0.167 HD
ATOM     49  C   UNL A   1      47.074  27.254  29.406  1.00  0.00     0.031 A 
ATOM     50  C   UNL A   1      40.274  28.839  29.014  1.00  0.00     0.031 A 
ATOM     51  C   UNL A   1      46.736  28.590  29.821  1.00  0.00     0.049 A 
ATOM     52  C   UNL A   1      41.284  29.817  29.544  1.00  0.00     0.074 A 
ATOM     53  C   UNL A   1      47.580  29.595  30.259  1.00  0.00     0.029 A 
ATOM     54  N   UNL A   1      45.449  29.105  29.849  1.00  0.00    -0.354 N 
ATOM     55  N   UNL A   1      42.583  29.682  29.656  1.00  0.00    -0.248 NA
ATOM     56  C   UNL A   1      40.772  31.117  30.000  1.00  0.00     0.031 C 
ATOM     57  C   UNL A   1      46.798  30.704  30.599  1.00  0.00     0.029 A 
ATOM     58  C   UNL A   1      45.473  30.406  30.320  1.00  0.00     0.049 A 
ATOM     59  H   UNL A   1      44.639  28.617  29.576  1.00  0.00     0.167 HD
ATOM     60  C   UNL A   1      43.046  30.885  30.170  1.00  0.00     0.074 A 
ATOM     61  C   UNL A   1      41.891  31.745  30.333  1.00  0.00     0.031 C 
ATOM     62  C   UNL A   1      44.315  31.247  30.477  1.00  0.00     0.031 A 
BRANCH  49  63
ATOM     63  C   UNL A   1      48.509  26.816  29.511  1.00  0.00    -0.014 A 
ATOM     64  C   UNL A   1      48.990  26.163  30.658  1.00  0.00     0.009 A 
ATOM     65  C   UNL A   1      49.383  27.024  28.433  1.00  0.00     0.009 A 
ATOM     66  C   UNL A   1      50.325  25.761  30.735  1.00  0.00     0.001 A 
ATOM     67  C   UNL A   1      50.710  26.596  28.503  1.00  0.00     0.001 A 
ATOM     68  C   UNL A   1      51.182  25.973  29.657  1.00  0.00     0.000 A 
ENDBRANCH  49  63
BRANCH  50  69
ATOM     69  C   UNL A   1      38.829  29.188  28.971  1.00  0.00    -0.014 A 
ATOM     70  C   UNL A   1      38.256  29.701  27.798  1.00  0.00     0.009 A 
ATOM     71  C   UNL A   1      38.016  29.007  30.101  1.00  0.00     0.009 A 
ATOM     72  C   UNL A   1      36.905  30.051  27.765  1.00  0.00     0.001 A 
ATOM     73  C   UNL A   1      36.658  29.330  30.056  1.00  0.00     0.001 A 
ATOM     74  C   UNL A   1      36.106  29.859  28.892  1.00  0.00     0.000 A 
ENDBRANCH  50  69
BRANCH  62  75
ATOM     75  C   UNL A   1      44.528  32.644  30.988  1.00  0.00    -0.014 A 
ATOM     76  C   UNL A   1      44.474  32.934  32.359  1.00  0.00     0.009 A 
ATOM     77  C   UNL A   1      44.834  33.674  30.084  1.00  0.00     0.009 A 
ATOM     78  C   UNL A   1      44.694  34.236  32.812  1.00  0.00     0.001 A 
ATOM     79  C   UNL A   1      45.082  34.968  30.542  1.00  0.00     0.001 A 
ATOM     80  C   UNL A   1      45.004  35.250  31.905  1.00  0.00     0.000 A 
ENDBRANCH  62  75
ENDBRANCH  36  37
ENDBRANCH  28  31
ENDBRANCH  26  27
ENDBRANCH  25  26
ENDBRANCH   1  25
TORSDOF 15
ENDMDL
MODEL 3
REMARK VINA RESULT:     -10.5      3.134      7.705
REMARK SMILES Cc1cc(NC[C@H](C)[NH+](C)C)cc(C(=O)NCCCNC(=O)c2ccc(-c3c4nc(c(-c5ccccc5)c5ccc([nH]5)c(-c5ccccc5)c5nc(c(-c6ccccc6)c6ccc3[nH]6)C=C5)C=C4)cc2)c1N
REMARK SMILES IDX 17 1 16 2 14 3 15 4 13 6 1 7 2 8 3 9 71 10 4 11 12 12 72 13
REMARK SMILES IDX 5 16 6 18 7 19 8 20 9 21 10 22 11 23 18 25 19 26 20 27 21 28
REMARK SMILES IDX 22 30 23 31 24 32 70 33 25 34 69 35 26 36 27 37 28 38 63 39
REMARK SMILES IDX 29 40 68 41 62 42 64 43 30 44 67 45 61 46 60 47 31 49 53 50
REMARK SMILES IDX 38 51 52 52 39 53 42 54 51 55 65 56 40 57 41 58 50 60 66 61
REMARK SMILES IDX 43 62 32 63 33 64 37 65 34 66 36 67 35 68 54 69 55 70 59 71
REMARK SMILES IDX 56 72 58 73 57 74 44 75 45 76 49 77 46 78 48 79 47 80
REMARK H PARENT 16 5 72 14 72 15 5 17 9 24 20 29 64 48 42 59
REMARK Flexibility Score: inf
ROOT
ATOM      1  C   UNL A   1      33.153  30.417  27.219  1.00  0.00     0.118 C 
ENDROOT
BRANCH   1   2
ATOM      2  N   UNL A   1      32.327  29.282  27.598  1.00  0.00    -0.352 N 
ATOM      3  C   UNL A   1      31.812  28.211  26.903  1.00  0.00     0.253 C 
ATOM      4  O   UNL A   1      31.151  27.402  27.561  1.00  0.00    -0.269 OA
ATOM      5  H   UNL A   1      32.085  29.278  28.552  1.00  0.00     0.163 HD
BRANCH   3   6
ATOM      6  C   UNL A   1      32.042  27.973  25.439  1.00  0.00     0.065 A 
ATOM      7  C   UNL A   1      33.857  25.542  23.105  1.00  0.00     0.046 C 
ATOM      8  C   UNL A   1      33.053  26.704  23.625  1.00  0.00    -0.025 A 
ATOM      9  C   UNL A   1      32.533  27.637  22.705  1.00  0.00     0.031 A 
ATOM     10  C   UNL A   1      32.816  26.869  25.008  1.00  0.00     0.047 A 
ATOM     11  C   UNL A   1      31.757  28.717  23.119  1.00  0.00     0.035 A 
ATOM     12  C   UNL A   1      31.454  28.799  24.477  1.00  0.00     0.041 A 
BRANCH  10  13
ATOM     13  N   UNL A   1      33.464  26.036  25.926  1.00  0.00    -0.398 N 
ATOM     14  H   UNL A   1      34.443  25.936  25.894  1.00  0.00     0.156 HD
ATOM     15  H   UNL A   1      32.942  25.551  26.605  1.00  0.00     0.156 HD
ENDBRANCH  10  13
BRANCH  11  16
ATOM     16  N   UNL A   1      31.299  29.652  22.200  1.00  0.00    -0.379 N 
ATOM     17  H   UNL A   1      31.943  30.252  21.759  1.00  0.00     0.160 HD
BRANCH  16  18
ATOM     18  C   UNL A   1      29.875  29.761  21.878  1.00  0.00     0.177 C 
BRANCH  18  19
ATOM     19  C   UNL A   1      29.143  30.888  22.663  1.00  0.00     0.199 C 
ATOM     20  C   UNL A   1      27.702  30.425  22.953  1.00  0.00     0.077 C 
BRANCH  19  21
ATOM     21  N   UNL A   1      29.132  32.246  22.062  1.00  0.00    -0.336 N 
ATOM     22  C   UNL A   1      28.093  32.402  21.045  1.00  0.00     0.332 C 
ATOM     23  C   UNL A   1      29.051  33.343  23.026  1.00  0.00     0.332 C 
ATOM     24  H   UNL A   1      30.047  32.314  21.616  1.00  0.00     0.347 HD
ENDBRANCH  19  21
ENDBRANCH  18  19
ENDBRANCH  16  18
ENDBRANCH  11  16
ENDBRANCH   3   6
ENDBRANCH   1   2
BRANCH   1  25
ATOM     25  C   UNL A   1      32.363  31.727  27.308  1.00  0.00     0.042 C 
BRANCH  25  26
ATOM     26  C   UNL A   1      33.231  32.966  27.119  1.00  0.00     0.118 C 
BRANCH  26  27
ATOM     27  N   UNL A   1      32.839  34.043  28.016  1.00  0.00    -0.352 N 
ATOM     28  C   UNL A   1      33.339  34.391  29.245  1.00  0.00     0.251 C 
ATOM     29  H   UNL A   1      32.100  34.607  27.692  1.00  0.00     0.163 HD
ATOM     30  O   UNL A   1      32.722  35.187  29.946  1.00  0.00    -0.269 OA
BRANCH  28  31
ATOM     31  C   UNL A   1      34.608  33.811  29.736  1.00  0.00     0.039 A 
ATOM     32  C   UNL A   1      34.558  32.851  30.752  1.00  0.00     0.014 A 
ATOM     33  C   UNL A   1      35.842  34.240  29.242  1.00  0.00     0.014 A 
ATOM     34  C   UNL A   1      35.740  32.285  31.235  1.00  0.00     0.010 A 
ATOM     35  C   UNL A   1      37.016  33.628  29.676  1.00  0.00     0.010 A 
ATOM     36  C   UNL A   1      36.978  32.649  30.681  1.00  0.00    -0.014 A 
BRANCH  36  37
ATOM     37  C   UNL A   1      38.243  32.019  31.135  1.00  0.00     0.031 A 
ATOM     38  C   UNL A   1      38.790  30.816  30.418  1.00  0.00     0.074 A 
ATOM     39  C   UNL A   1      38.859  32.486  32.239  1.00  0.00     0.049 A 
ATOM     40  N   UNL A   1      39.827  30.077  30.720  1.00  0.00    -0.248 NA
ATOM     41  C   UNL A   1      38.061  30.369  29.220  1.00  0.00     0.031 C 
ATOM     42  C   UNL A   1      38.411  33.626  33.041  1.00  0.00     0.029 A 
ATOM     43  N   UNL A   1      39.990  32.050  32.882  1.00  0.00    -0.354 N 
ATOM     44  C   UNL A   1      39.862  29.068  29.765  1.00  0.00     0.074 A 
ATOM     45  C   UNL A   1      38.719  29.265  28.900  1.00  0.00     0.031 C 
ATOM     46  C   UNL A   1      39.267  33.809  34.059  1.00  0.00     0.029 A 
ATOM     47  C   UNL A   1      40.298  32.777  34.006  1.00  0.00     0.049 A 
ATOM     48  H   UNL A   1      40.529  31.288  32.568  1.00  0.00     0.167 HD
ATOM     49  C   UNL A   1      40.772  28.075  29.614  1.00  0.00     0.031 A 
ATOM     50  C   UNL A   1      41.291  32.623  34.901  1.00  0.00     0.031 A 
ATOM     51  C   UNL A   1      41.914  27.888  30.467  1.00  0.00     0.049 A 
ATOM     52  C   UNL A   1      42.281  31.508  34.717  1.00  0.00     0.074 A 
ATOM     53  C   UNL A   1      42.924  26.947  30.360  1.00  0.00     0.029 A 
ATOM     54  N   UNL A   1      42.198  28.656  31.586  1.00  0.00    -0.354 N 
ATOM     55  N   UNL A   1      42.335  30.600  33.774  1.00  0.00    -0.248 NA
ATOM     56  C   UNL A   1      43.352  31.402  35.718  1.00  0.00     0.031 C 
ATOM     57  C   UNL A   1      43.793  27.115  31.444  1.00  0.00     0.029 A 
ATOM     58  C   UNL A   1      43.354  28.195  32.193  1.00  0.00     0.049 A 
ATOM     59  H   UNL A   1      41.657  29.415  31.902  1.00  0.00     0.167 HD
ATOM     60  C   UNL A   1      43.458  29.832  34.051  1.00  0.00     0.074 A 
ATOM     61  C   UNL A   1      44.065  30.390  35.242  1.00  0.00     0.031 C 
ATOM     62  C   UNL A   1      43.944  28.762  33.377  1.00  0.00     0.031 A 
BRANCH  49  63
ATOM     63  C   UNL A   1      40.558  27.105  28.485  1.00  0.00    -0.014 A 
ATOM     64  C   UNL A   1      39.758  25.963  28.647  1.00  0.00     0.009 A 
ATOM     65  C   UNL A   1      41.132  27.358  27.229  1.00  0.00     0.009 A 
ATOM     66  C   UNL A   1      39.568  25.075  27.585  1.00  0.00     0.001 A 
ATOM     67  C   UNL A   1      40.917  26.483  26.162  1.00  0.00     0.001 A 
ATOM     68  C   UNL A   1      40.143  25.338  26.344  1.00  0.00     0.000 A 
ENDBRANCH  49  63
BRANCH  50  69
ATOM     69  C   UNL A   1      41.404  33.558  36.052  1.00  0.00    -0.014 A 
ATOM     70  C   UNL A   1      40.727  33.292  37.251  1.00  0.00     0.009 A 
ATOM     71  C   UNL A   1      42.191  34.716  35.958  1.00  0.00     0.009 A 
ATOM     72  C   UNL A   1      40.814  34.182  38.324  1.00  0.00     0.001 A 
ATOM     73  C   UNL A   1      42.300  35.589  37.043  1.00  0.00     0.001 A 
ATOM     74  C   UNL A   1      41.605  35.325  38.221  1.00  0.00     0.000 A 
ENDBRANCH  50  69
BRANCH  62  75
ATOM     75  C   UNL A   1      45.214  28.144  33.892  1.00  0.00    -0.014 A 
ATOM     76  C   UNL A   1      45.188  27.083  34.809  1.00  0.00     0.009 A 
ATOM     77  C   UNL A   1      46.451  28.601  33.412  1.00  0.00     0.009 A 
ATOM     78  C   UNL A   1      46.380  26.511  35.258  1.00  0.00     0.001 A 
ATOM     79  C   UNL A   1      47.639  28.009  33.840  1.00  0.00     0.001 A 
ATOM     80  C   UNL A   1      47.604  26.970  34.770  1.00  0.00     0.000 A 
ENDBRANCH  62  75
ENDBRANCH  36  37
ENDBRANCH  28  31
ENDBRANCH  26  27
ENDBRANCH  25  26
ENDBRANCH   1  25
TORSDOF 15
ENDMDL
