MODEL 1
REMARK VINA RESULT:     -11.4      0.000      0.000
REMARK SMILES O=C(CCSc1nc2ccc(Cl)cc2c(=O)n1Cc1ccncc1)NCCCNC(=O)c1ccc(-c2c3nc(c(-c4ccccc4)c4ccc([nH]4)c(-c4ccccc4)c4nc(c(-c5ccccc5)c5ccc2[nH]5)C=C4)C=C3)cc1
REMARK SMILES IDX 1 1 2 2 25 3 3 5 4 6 5 7 6 8 7 9 17 10 8 11 15 12 9 13 14 14
REMARK SMILES IDX 16 15 10 16 13 17 11 18 12 19 18 20 19 21 20 22 24 23 21 24
REMARK SMILES IDX 23 25 22 26 26 27 27 28 28 29 29 30 30 31 31 33 32 34 33 35
REMARK SMILES IDX 79 36 34 37 78 38 35 39 36 40 37 41 72 42 38 43 77 44 71 45
REMARK SMILES IDX 73 46 39 47 76 48 70 49 69 50 40 52 62 53 47 54 61 55 48 56
REMARK SMILES IDX 51 57 60 58 74 59 49 60 50 61 59 63 75 64 52 65 41 66 42 67
REMARK SMILES IDX 46 68 43 69 45 70 44 71 63 72 64 73 68 74 65 75 67 76 66 77
REMARK SMILES IDX 53 78 54 79 58 80 55 81 57 82 56 83
REMARK H PARENT 25 4 29 32 73 51 51 62
REMARK Flexibility Score: inf
ROOT
ATOM      1  O   UNL A   1      36.520  32.205  27.794  1.00  0.00    -0.275 OA
ATOM      2  C   UNL A   1      35.491  31.566  27.982  1.00  0.00     0.220 C 
ATOM      3  N   UNL A   1      34.291  32.116  28.355  1.00  0.00    -0.356 N 
ATOM      4  H   UNL A   1      33.451  31.715  28.036  1.00  0.00     0.163 HD
ENDROOT
BRANCH   2   5
ATOM      5  C   UNL A   1      35.489  30.064  27.974  1.00  0.00     0.111 C 
BRANCH   5   6
ATOM      6  C   UNL A   1      34.695  29.476  26.798  1.00  0.00     0.088 C 
BRANCH   6   7
ATOM      7  S   UNL A   1      33.194  28.504  27.184  1.00  0.00    -0.087 SA
BRANCH   7   8
ATOM      8  C   UNL A   1      32.172  28.709  25.763  1.00  0.00     0.171 A 
ATOM      9  N   UNL A   1      31.472  29.800  25.674  1.00  0.00    -0.224 NA
ATOM     10  N   UNL A   1      32.215  27.731  24.768  1.00  0.00    -0.283 N 
ATOM     11  C   UNL A   1      30.691  30.015  24.525  1.00  0.00     0.079 A 
ATOM     12  C   UNL A   1      31.678  28.024  23.517  1.00  0.00     0.262 A 
ATOM     13  C   UNL A   1      29.796  31.089  24.467  1.00  0.00     0.031 A 
ATOM     14  C   UNL A   1      30.758  29.162  23.430  1.00  0.00     0.067 A 
ATOM     15  O   UNL A   1      31.928  27.407  22.484  1.00  0.00    -0.269 OA
ATOM     16  C   UNL A   1      28.986  31.287  23.337  1.00  0.00     0.023 A 
ATOM     17  C   UNL A   1      29.956  29.344  22.295  1.00  0.00     0.036 A 
ATOM     18  C   UNL A   1      29.070  30.411  22.255  1.00  0.00     0.042 A 
ATOM     19  Cl  UNL A   1      28.079  30.646  20.870  1.00  0.00    -0.084 Cl
BRANCH  10  20
ATOM     20  C   UNL A   1      32.908  26.424  24.865  1.00  0.00     0.163 C 
BRANCH  20  21
ATOM     21  C   UNL A   1      32.124  25.346  25.613  1.00  0.00    -0.025 A 
ATOM     22  C   UNL A   1      30.726  25.349  25.705  1.00  0.00     0.025 A 
ATOM     23  C   UNL A   1      32.795  24.301  26.257  1.00  0.00     0.025 A 
ATOM     24  C   UNL A   1      30.087  24.390  26.481  1.00  0.00     0.111 A 
ATOM     25  C   UNL A   1      32.074  23.397  27.029  1.00  0.00     0.111 A 
ATOM     26  N   UNL A   1      30.732  23.424  27.164  1.00  0.00    -0.265 NA
ENDBRANCH  20  21
ENDBRANCH  10  20
ENDBRANCH   7   8
ENDBRANCH   6   7
ENDBRANCH   5   6
ENDBRANCH   2   5
BRANCH   3  27
ATOM     27  C   UNL A   1      34.247  33.278  29.211  1.00  0.00     0.117 C 
BRANCH  27  28
ATOM     28  C   UNL A   1      33.281  34.362  28.826  1.00  0.00     0.042 C 
BRANCH  28  29
ATOM     29  C   UNL A   1      33.628  35.678  29.489  1.00  0.00     0.118 C 
BRANCH  29  30
ATOM     30  N   UNL A   1      32.657  36.123  30.498  1.00  0.00    -0.352 N 
ATOM     31  C   UNL A   1      32.592  35.926  31.864  1.00  0.00     0.251 C 
ATOM     32  H   UNL A   1      31.917  36.659  30.134  1.00  0.00     0.163 HD
ATOM     33  O   UNL A   1      31.633  36.354  32.498  1.00  0.00    -0.269 OA
BRANCH  31  34
ATOM     34  C   UNL A   1      33.649  35.155  32.551  1.00  0.00     0.039 A 
ATOM     35  C   UNL A   1      34.884  35.738  32.763  1.00  0.00     0.014 A 
ATOM     36  C   UNL A   1      33.450  33.820  32.916  1.00  0.00     0.014 A 
ATOM     37  C   UNL A   1      35.985  34.928  32.946  1.00  0.00     0.010 A 
ATOM     38  C   UNL A   1      34.539  33.055  33.364  1.00  0.00     0.010 A 
ATOM     39  C   UNL A   1      35.838  33.582  33.313  1.00  0.00    -0.014 A 
BRANCH  39  40
ATOM     40  C   UNL A   1      37.070  32.816  33.659  1.00  0.00     0.031 A 
ATOM     41  C   UNL A   1      37.754  31.920  32.658  1.00  0.00     0.074 A 
ATOM     42  C   UNL A   1      37.642  33.029  34.866  1.00  0.00     0.049 A 
ATOM     43  N   UNL A   1      38.838  31.203  32.817  1.00  0.00    -0.248 NA
ATOM     44  C   UNL A   1      37.149  31.792  31.324  1.00  0.00     0.031 C 
ATOM     45  C   UNL A   1      37.087  33.883  35.923  1.00  0.00     0.029 A 
ATOM     46  N   UNL A   1      38.847  32.625  35.384  1.00  0.00    -0.354 N 
ATOM     47  C   UNL A   1      39.006  30.494  31.633  1.00  0.00     0.074 A 
ATOM     48  C   UNL A   1      37.914  30.865  30.761  1.00  0.00     0.031 C 
ATOM     49  C   UNL A   1      38.012  34.080  36.867  1.00  0.00     0.029 A 
ATOM     50  C   UNL A   1      39.159  33.233  36.579  1.00  0.00     0.049 A 
ATOM     51  H   UNL A   1      39.431  31.967  34.943  1.00  0.00     0.167 HD
ATOM     52  C   UNL A   1      39.982  29.612  31.310  1.00  0.00     0.031 A 
ATOM     53  C   UNL A   1      40.232  33.110  37.383  1.00  0.00     0.031 A 
ATOM     54  C   UNL A   1      41.091  29.288  32.168  1.00  0.00     0.049 A 
ATOM     55  C   UNL A   1      41.293  32.128  37.004  1.00  0.00     0.074 A 
ATOM     56  C   UNL A   1      42.127  28.401  31.934  1.00  0.00     0.029 A 
ATOM     57  N   UNL A   1      41.323  29.857  33.410  1.00  0.00    -0.354 N 
ATOM     58  N   UNL A   1      41.391  31.410  35.912  1.00  0.00    -0.248 NA
ATOM     59  C   UNL A   1      42.369  31.904  37.977  1.00  0.00     0.031 C 
ATOM     60  C   UNL A   1      42.960  28.397  33.055  1.00  0.00     0.029 A 
ATOM     61  C   UNL A   1      42.479  29.328  33.962  1.00  0.00     0.049 A 
ATOM     62  H   UNL A   1      40.753  30.536  33.838  1.00  0.00     0.167 HD
ATOM     63  C   UNL A   1      42.531  30.638  36.069  1.00  0.00     0.074 A 
ATOM     64  C   UNL A   1      43.110  31.003  37.346  1.00  0.00     0.031 C 
ATOM     65  C   UNL A   1      43.037  29.699  35.236  1.00  0.00     0.031 A 
BRANCH  52  66
ATOM     66  C   UNL A   1      39.887  28.899  29.988  1.00  0.00    -0.014 A 
ATOM     67  C   UNL A   1      40.306  29.555  28.818  1.00  0.00     0.009 A 
ATOM     68  C   UNL A   1      39.310  27.625  29.878  1.00  0.00     0.009 A 
ATOM     69  C   UNL A   1      40.138  28.959  27.567  1.00  0.00     0.001 A 
ATOM     70  C   UNL A   1      39.169  27.018  28.627  1.00  0.00     0.001 A 
ATOM     71  C   UNL A   1      39.573  27.690  27.473  1.00  0.00     0.000 A 
ENDBRANCH  52  66
BRANCH  53  72
ATOM     72  C   UNL A   1      40.307  33.912  38.634  1.00  0.00    -0.014 A 
ATOM     73  C   UNL A   1      40.967  35.153  38.650  1.00  0.00     0.009 A 
ATOM     74  C   UNL A   1      39.794  33.407  39.838  1.00  0.00     0.009 A 
ATOM     75  C   UNL A   1      41.159  35.845  39.847  1.00  0.00     0.001 A 
ATOM     76  C   UNL A   1      39.953  34.121  41.028  1.00  0.00     0.001 A 
ATOM     77  C   UNL A   1      40.648  35.330  41.036  1.00  0.00     0.000 A 
ENDBRANCH  53  72
BRANCH  65  78
ATOM     78  C   UNL A   1      44.289  28.998  35.671  1.00  0.00    -0.014 A 
ATOM     79  C   UNL A   1      45.539  29.497  35.278  1.00  0.00     0.009 A 
ATOM     80  C   UNL A   1      44.225  27.796  36.392  1.00  0.00     0.009 A 
ATOM     81  C   UNL A   1      46.706  28.799  35.588  1.00  0.00     0.001 A 
ATOM     82  C   UNL A   1      45.397  27.113  36.722  1.00  0.00     0.001 A 
ATOM     83  C   UNL A   1      46.634  27.610  36.313  1.00  0.00     0.000 A 
ENDBRANCH  65  78
ENDBRANCH  39  40
ENDBRANCH  31  34
ENDBRANCH  29  30
ENDBRANCH  28  29
ENDBRANCH  27  28
ENDBRANCH   3  27
TORSDOF 15
ENDMDL
MODEL 2
REMARK VINA RESULT:     -11.2      0.329      5.768
REMARK SMILES O=C(CCSc1nc2ccc(Cl)cc2c(=O)n1Cc1ccncc1)NCCCNC(=O)c1ccc(-c2c3nc(c(-c4ccccc4)c4ccc([nH]4)c(-c4ccccc4)c4nc(c(-c5ccccc5)c5ccc2[nH]5)C=C4)C=C3)cc1
REMARK SMILES IDX 1 1 2 2 25 3 3 5 4 6 5 7 6 8 7 9 17 10 8 11 15 12 9 13 14 14
REMARK SMILES IDX 16 15 10 16 13 17 11 18 12 19 18 20 19 21 20 22 24 23 21 24
REMARK SMILES IDX 23 25 22 26 26 27 27 28 28 29 29 30 30 31 31 33 32 34 33 35
REMARK SMILES IDX 79 36 34 37 78 38 35 39 36 40 37 41 72 42 38 43 77 44 71 45
REMARK SMILES IDX 73 46 39 47 76 48 70 49 69 50 40 52 62 53 47 54 61 55 48 56
REMARK SMILES IDX 51 57 60 58 74 59 49 60 50 61 59 63 75 64 52 65 41 66 42 67
REMARK SMILES IDX 46 68 43 69 45 70 44 71 63 72 64 73 68 74 65 75 67 76 66 77
REMARK SMILES IDX 53 78 54 79 58 80 55 81 57 82 56 83
REMARK H PARENT 25 4 29 32 73 51 51 62
REMARK Flexibility Score: inf
ROOT
ATOM      1  O   UNL A   1      36.387  32.159  27.821  1.00  0.00    -0.275 OA
ATOM      2  C   UNL A   1      35.324  31.574  27.996  1.00  0.00     0.220 C 
ATOM      3  N   UNL A   1      34.145  32.189  28.333  1.00  0.00    -0.356 N 
ATOM      4  H   UNL A   1      33.293  31.824  28.002  1.00  0.00     0.163 HD
ENDROOT
BRANCH   2   5
ATOM      5  C   UNL A   1      35.248  30.074  28.013  1.00  0.00     0.111 C 
BRANCH   5   6
ATOM      6  C   UNL A   1      34.610  29.496  26.741  1.00  0.00     0.088 C 
BRANCH   6   7
ATOM      7  S   UNL A   1      33.335  28.199  26.940  1.00  0.00    -0.087 SA
BRANCH   7   8
ATOM      8  C   UNL A   1      32.242  28.459  25.582  1.00  0.00     0.171 A 
ATOM      9  N   UNL A   1      31.598  29.586  25.531  1.00  0.00    -0.224 NA
ATOM     10  N   UNL A   1      32.173  27.480  24.590  1.00  0.00    -0.283 N 
ATOM     11  C   UNL A   1      30.762  29.842  24.430  1.00  0.00     0.079 A 
ATOM     12  C   UNL A   1      31.578  27.801  23.372  1.00  0.00     0.262 A 
ATOM     13  C   UNL A   1      29.924  30.963  24.421  1.00  0.00     0.031 A 
ATOM     14  C   UNL A   1      30.717  28.986  23.336  1.00  0.00     0.067 A 
ATOM     15  O   UNL A   1      31.732  27.170  22.329  1.00  0.00    -0.269 OA
ATOM     16  C   UNL A   1      29.060  31.204  23.341  1.00  0.00     0.023 A 
ATOM     17  C   UNL A   1      29.860  29.211  22.250  1.00  0.00     0.036 A 
ATOM     18  C   UNL A   1      29.032  30.325  22.260  1.00  0.00     0.042 A 
ATOM     19  Cl  UNL A   1      27.974  30.612  20.935  1.00  0.00    -0.084 Cl
BRANCH  10  20
ATOM     20  C   UNL A   1      32.798  26.136  24.651  1.00  0.00     0.163 C 
BRANCH  20  21
ATOM     21  C   UNL A   1      32.040  25.123  25.507  1.00  0.00    -0.025 A 
ATOM     22  C   UNL A   1      30.656  25.188  25.716  1.00  0.00     0.025 A 
ATOM     23  C   UNL A   1      32.723  24.078  26.138  1.00  0.00     0.025 A 
ATOM     24  C   UNL A   1      30.049  24.288  26.584  1.00  0.00     0.111 A 
ATOM     25  C   UNL A   1      32.036  23.236  27.006  1.00  0.00     0.111 A 
ATOM     26  N   UNL A   1      30.713  23.325  27.251  1.00  0.00    -0.265 NA
ENDBRANCH  20  21
ENDBRANCH  10  20
ENDBRANCH   7   8
ENDBRANCH   6   7
ENDBRANCH   5   6
ENDBRANCH   2   5
BRANCH   3  27
ATOM     27  C   UNL A   1      34.140  33.367  29.168  1.00  0.00     0.117 C 
BRANCH  27  28
ATOM     28  C   UNL A   1      33.314  34.527  28.692  1.00  0.00     0.042 C 
BRANCH  28  29
ATOM     29  C   UNL A   1      33.572  35.770  29.516  1.00  0.00     0.118 C 
BRANCH  29  30
ATOM     30  N   UNL A   1      32.558  36.036  30.546  1.00  0.00    -0.352 N 
ATOM     31  C   UNL A   1      32.520  35.752  31.898  1.00  0.00     0.251 C 
ATOM     32  H   UNL A   1      31.759  36.501  30.211  1.00  0.00     0.163 HD
ATOM     33  O   UNL A   1      31.519  36.025  32.552  1.00  0.00    -0.269 OA
BRANCH  31  34
ATOM     34  C   UNL A   1      33.663  35.072  32.542  1.00  0.00     0.039 A 
ATOM     35  C   UNL A   1      34.845  35.763  32.729  1.00  0.00     0.014 A 
ATOM     36  C   UNL A   1      33.598  33.720  32.892  1.00  0.00     0.014 A 
ATOM     37  C   UNL A   1      36.021  35.055  32.867  1.00  0.00     0.010 A 
ATOM     38  C   UNL A   1      34.765  33.052  33.298  1.00  0.00     0.010 A 
ATOM     39  C   UNL A   1      36.008  33.697  33.218  1.00  0.00    -0.014 A 
BRANCH  39  40
ATOM     40  C   UNL A   1      37.315  33.043  33.517  1.00  0.00     0.031 A 
ATOM     41  C   UNL A   1      37.982  33.179  34.861  1.00  0.00     0.074 A 
ATOM     42  C   UNL A   1      37.846  32.216  32.587  1.00  0.00     0.049 A 
ATOM     43  N   UNL A   1      39.114  32.657  35.264  1.00  0.00    -0.248 NA
ATOM     44  C   UNL A   1      37.320  34.014  35.876  1.00  0.00     0.031 C 
ATOM     45  C   UNL A   1      37.291  31.985  31.248  1.00  0.00     0.029 A 
ATOM     46  N   UNL A   1      38.910  31.351  32.644  1.00  0.00    -0.354 N 
ATOM     47  C   UNL A   1      39.328  33.149  36.546  1.00  0.00     0.074 A 
ATOM     48  C   UNL A   1      38.212  34.012  36.859  1.00  0.00     0.031 C 
ATOM     49  C   UNL A   1      37.899  30.934  30.690  1.00  0.00     0.029 A 
ATOM     50  C   UNL A   1      38.999  30.522  31.548  1.00  0.00     0.049 A 
ATOM     51  H   UNL A   1      39.546  31.325  33.394  1.00  0.00     0.167 HD
ATOM     52  C   UNL A   1      40.366  32.902  37.380  1.00  0.00     0.031 A 
ATOM     53  C   UNL A   1      39.880  29.553  31.238  1.00  0.00     0.031 A 
ATOM     54  C   UNL A   1      41.448  32.002  37.077  1.00  0.00     0.049 A 
ATOM     55  C   UNL A   1      41.018  29.304  32.175  1.00  0.00     0.074 A 
ATOM     56  C   UNL A   1      42.551  31.692  37.853  1.00  0.00     0.029 A 
ATOM     57  N   UNL A   1      41.549  31.250  35.917  1.00  0.00    -0.354 N 
ATOM     58  N   UNL A   1      41.242  29.838  33.350  1.00  0.00    -0.248 NA
ATOM     59  C   UNL A   1      42.045  28.353  31.734  1.00  0.00     0.031 C 
ATOM     60  C   UNL A   1      43.344  30.788  37.143  1.00  0.00     0.029 A 
ATOM     61  C   UNL A   1      42.705  30.486  35.950  1.00  0.00     0.049 A 
ATOM     62  H   UNL A   1      40.898  31.256  35.179  1.00  0.00     0.167 HD
ATOM     63  C   UNL A   1      42.442  29.300  33.786  1.00  0.00     0.074 A 
ATOM     64  C   UNL A   1      42.880  28.370  32.765  1.00  0.00     0.031 C 
ATOM     65  C   UNL A   1      43.126  29.571  34.922  1.00  0.00     0.031 A 
BRANCH  52  66
ATOM     66  C   UNL A   1      40.415  33.638  38.692  1.00  0.00    -0.014 A 
ATOM     67  C   UNL A   1      41.013  34.909  38.748  1.00  0.00     0.009 A 
ATOM     68  C   UNL A   1      39.957  33.053  39.883  1.00  0.00     0.009 A 
ATOM     69  C   UNL A   1      41.163  35.573  39.967  1.00  0.00     0.001 A 
ATOM     70  C   UNL A   1      40.083  33.732  41.097  1.00  0.00     0.001 A 
ATOM     71  C   UNL A   1      40.695  34.986  41.140  1.00  0.00     0.000 A 
ENDBRANCH  52  66
BRANCH  53  72
ATOM     72  C   UNL A   1      39.725  28.800  29.964  1.00  0.00    -0.014 A 
ATOM     73  C   UNL A   1      39.208  27.492  29.965  1.00  0.00     0.009 A 
ATOM     74  C   UNL A   1      40.168  29.348  28.752  1.00  0.00     0.009 A 
ATOM     75  C   UNL A   1      39.187  26.732  28.795  1.00  0.00     0.001 A 
ATOM     76  C   UNL A   1      40.108  28.598  27.574  1.00  0.00     0.001 A 
ATOM     77  C   UNL A   1      39.634  27.287  27.598  1.00  0.00     0.000 A 
ENDBRANCH  53  72
BRANCH  65  78
ATOM     78  C   UNL A   1      44.423  28.847  35.133  1.00  0.00    -0.014 A 
ATOM     79  C   UNL A   1      45.622  29.426  34.690  1.00  0.00     0.009 A 
ATOM     80  C   UNL A   1      44.445  27.558  35.684  1.00  0.00     0.009 A 
ATOM     81  C   UNL A   1      46.822  28.721  34.786  1.00  0.00     0.001 A 
ATOM     82  C   UNL A   1      45.652  26.865  35.802  1.00  0.00     0.001 A 
ATOM     83  C   UNL A   1      46.836  27.444  35.344  1.00  0.00     0.000 A 
ENDBRANCH  65  78
ENDBRANCH  39  40
ENDBRANCH  31  34
ENDBRANCH  29  30
ENDBRANCH  28  29
ENDBRANCH  27  28
ENDBRANCH   3  27
TORSDOF 15
ENDMDL
MODEL 3
REMARK VINA RESULT:     -11.1      5.573     10.184
REMARK SMILES O=C(CCSc1nc2ccc(Cl)cc2c(=O)n1Cc1ccncc1)NCCCNC(=O)c1ccc(-c2c3nc(c(-c4ccccc4)c4ccc([nH]4)c(-c4ccccc4)c4nc(c(-c5ccccc5)c5ccc2[nH]5)C=C4)C=C3)cc1
REMARK SMILES IDX 1 1 2 2 25 3 3 5 4 6 5 7 6 8 7 9 17 10 8 11 15 12 9 13 14 14
REMARK SMILES IDX 16 15 10 16 13 17 11 18 12 19 18 20 19 21 20 22 24 23 21 24
REMARK SMILES IDX 23 25 22 26 26 27 27 28 28 29 29 30 30 31 31 33 32 34 33 35
REMARK SMILES IDX 79 36 34 37 78 38 35 39 36 40 37 41 72 42 38 43 77 44 71 45
REMARK SMILES IDX 73 46 39 47 76 48 70 49 69 50 40 52 62 53 47 54 61 55 48 56
REMARK SMILES IDX 51 57 60 58 74 59 49 60 50 61 59 63 75 64 52 65 41 66 42 67
REMARK SMILES IDX 46 68 43 69 45 70 44 71 63 72 64 73 68 74 65 75 67 76 66 77
REMARK SMILES IDX 53 78 54 79 58 80 55 81 57 82 56 83
REMARK H PARENT 25 4 29 32 73 51 51 62
REMARK Flexibility Score: inf
ROOT
ATOM      1  O   UNL A   1      33.420  19.679  24.259  1.00  0.00    -0.275 OA
ATOM      2  C   UNL A   1      34.014  20.358  25.089  1.00  0.00     0.220 C 
ATOM      3  N   UNL A   1      35.379  20.458  25.178  1.00  0.00    -0.356 N 
ATOM      4  H   UNL A   1      35.788  21.303  25.473  1.00  0.00     0.163 HD
ENDROOT
BRANCH   2   5
ATOM      5  C   UNL A   1      33.285  21.036  26.214  1.00  0.00     0.111 C 
BRANCH   5   6
ATOM      6  C   UNL A   1      32.209  22.015  25.721  1.00  0.00     0.088 C 
BRANCH   6   7
ATOM      7  S   UNL A   1      31.657  23.325  26.873  1.00  0.00    -0.087 SA
BRANCH   7   8
ATOM      8  C   UNL A   1      31.505  24.756  25.854  1.00  0.00     0.171 A 
ATOM      9  N   UNL A   1      30.321  25.065  25.418  1.00  0.00    -0.224 NA
ATOM     10  N   UNL A   1      32.644  25.529  25.623  1.00  0.00    -0.283 N 
ATOM     11  C   UNL A   1      30.164  26.232  24.650  1.00  0.00     0.079 A 
ATOM     12  C   UNL A   1      32.489  26.812  25.104  1.00  0.00     0.262 A 
ATOM     13  C   UNL A   1      28.944  26.508  24.022  1.00  0.00     0.031 A 
ATOM     14  C   UNL A   1      31.209  27.129  24.465  1.00  0.00     0.067 A 
ATOM     15  O   UNL A   1      33.341  27.696  25.154  1.00  0.00    -0.269 OA
ATOM     16  C   UNL A   1      28.791  27.653  23.223  1.00  0.00     0.023 A 
ATOM     17  C   UNL A   1      31.075  28.276  23.671  1.00  0.00     0.036 A 
ATOM     18  C   UNL A   1      29.860  28.531  23.051  1.00  0.00     0.042 A 
ATOM     19  Cl  UNL A   1      29.681  29.933  22.071  1.00  0.00    -0.084 Cl
BRANCH  10  20
ATOM     20  C   UNL A   1      34.031  25.166  26.002  1.00  0.00     0.163 C 
BRANCH  20  21
ATOM     21  C   UNL A   1      34.806  24.410  24.924  1.00  0.00    -0.025 A 
ATOM     22  C   UNL A   1      34.238  24.041  23.698  1.00  0.00     0.025 A 
ATOM     23  C   UNL A   1      36.139  24.042  25.136  1.00  0.00     0.025 A 
ATOM     24  C   UNL A   1      34.973  23.272  22.804  1.00  0.00     0.111 A 
ATOM     25  C   UNL A   1      36.791  23.255  24.194  1.00  0.00     0.111 A 
ATOM     26  N   UNL A   1      36.232  22.852  23.033  1.00  0.00    -0.265 NA
ENDBRANCH  20  21
ENDBRANCH  10  20
ENDBRANCH   7   8
ENDBRANCH   6   7
ENDBRANCH   5   6
ENDBRANCH   2   5
BRANCH   3  27
ATOM     27  C   UNL A   1      36.225  19.336  24.844  1.00  0.00     0.117 C 
BRANCH  27  28
ATOM     28  C   UNL A   1      37.666  19.642  24.553  1.00  0.00     0.042 C 
BRANCH  28  29
ATOM     29  C   UNL A   1      38.505  19.622  25.812  1.00  0.00     0.118 C 
BRANCH  29  30
ATOM     30  N   UNL A   1      39.826  18.999  25.651  1.00  0.00    -0.352 N 
ATOM     31  C   UNL A   1      41.097  19.439  25.966  1.00  0.00     0.251 C 
ATOM     32  H   UNL A   1      39.800  18.104  25.243  1.00  0.00     0.163 HD
ATOM     33  O   UNL A   1      42.071  18.751  25.675  1.00  0.00    -0.269 OA
BRANCH  31  34
ATOM     34  C   UNL A   1      41.286  20.758  26.604  1.00  0.00     0.039 A 
ATOM     35  C   UNL A   1      41.095  21.905  25.856  1.00  0.00     0.014 A 
ATOM     36  C   UNL A   1      41.734  20.867  27.924  1.00  0.00     0.014 A 
ATOM     37  C   UNL A   1      41.707  23.075  26.256  1.00  0.00     0.010 A 
ATOM     38  C   UNL A   1      42.110  22.123  28.425  1.00  0.00     0.010 A 
ATOM     39  C   UNL A   1      42.171  23.233  27.570  1.00  0.00    -0.014 A 
BRANCH  39  40
ATOM     40  C   UNL A   1      42.665  24.581  27.976  1.00  0.00     0.031 A 
ATOM     41  C   UNL A   1      44.111  24.976  27.822  1.00  0.00     0.074 A 
ATOM     42  C   UNL A   1      41.761  25.501  28.383  1.00  0.00     0.049 A 
ATOM     43  N   UNL A   1      44.679  26.117  28.123  1.00  0.00    -0.248 NA
ATOM     44  C   UNL A   1      45.045  23.973  27.286  1.00  0.00     0.031 C 
ATOM     45  C   UNL A   1      40.326  25.251  28.562  1.00  0.00     0.029 A 
ATOM     46  N   UNL A   1      41.883  26.845  28.635  1.00  0.00    -0.354 N 
ATOM     47  C   UNL A   1      46.036  25.947  27.875  1.00  0.00     0.074 A 
ATOM     48  C   UNL A   1      46.212  24.594  27.398  1.00  0.00     0.031 C 
ATOM     49  C   UNL A   1      39.686  26.414  28.716  1.00  0.00     0.029 A 
ATOM     50  C   UNL A   1      40.674  27.477  28.821  1.00  0.00     0.049 A 
ATOM     51  H   UNL A   1      42.749  27.310  28.677  1.00  0.00     0.167 HD
ATOM     52  C   UNL A   1      47.041  26.842  28.036  1.00  0.00     0.031 A 
ATOM     53  C   UNL A   1      40.377  28.765  29.080  1.00  0.00     0.031 A 
ATOM     54  C   UNL A   1      46.847  28.202  28.464  1.00  0.00     0.049 A 
ATOM     55  C   UNL A   1      41.505  29.730  29.256  1.00  0.00     0.074 A 
ATOM     56  C   UNL A   1      47.802  29.184  28.666  1.00  0.00     0.029 A 
ATOM     57  N   UNL A   1      45.616  28.780  28.733  1.00  0.00    -0.354 N 
ATOM     58  N   UNL A   1      42.789  29.527  29.091  1.00  0.00    -0.248 NA
ATOM     59  C   UNL A   1      41.156  31.087  29.691  1.00  0.00     0.031 C 
ATOM     60  C   UNL A   1      47.153  30.341  29.102  1.00  0.00     0.029 A 
ATOM     61  C   UNL A   1      45.788  30.101  29.112  1.00  0.00     0.049 A 
ATOM     62  H   UNL A   1      44.747  28.321  28.663  1.00  0.00     0.167 HD
ATOM     63  C   UNL A   1      43.405  30.726  29.414  1.00  0.00     0.074 A 
ATOM     64  C   UNL A   1      42.350  31.661  29.749  1.00  0.00     0.031 C 
ATOM     65  C   UNL A   1      44.727  31.015  29.447  1.00  0.00     0.031 A 
BRANCH  52  66
ATOM     66  C   UNL A   1      48.451  26.381  27.785  1.00  0.00    -0.014 A 
ATOM     67  C   UNL A   1      49.010  26.534  26.505  1.00  0.00     0.009 A 
ATOM     68  C   UNL A   1      49.197  25.721  28.774  1.00  0.00     0.009 A 
ATOM     69  C   UNL A   1      50.278  26.027  26.215  1.00  0.00     0.001 A 
ATOM     70  C   UNL A   1      50.477  25.239  28.489  1.00  0.00     0.001 A 
ATOM     71  C   UNL A   1      51.012  25.383  27.208  1.00  0.00     0.000 A 
ENDBRANCH  52  66
BRANCH  53  72
ATOM     72  C   UNL A   1      38.955  29.174  29.229  1.00  0.00    -0.014 A 
ATOM     73  C   UNL A   1      38.248  29.711  28.139  1.00  0.00     0.009 A 
ATOM     74  C   UNL A   1      38.320  29.110  30.478  1.00  0.00     0.009 A 
ATOM     75  C   UNL A   1      36.960  30.222  28.305  1.00  0.00     0.001 A 
ATOM     76  C   UNL A   1      37.016  29.586  30.632  1.00  0.00     0.001 A 
ATOM     77  C   UNL A   1      36.343  30.156  29.552  1.00  0.00     0.000 A 
ENDBRANCH  53  72
BRANCH  65  78
ATOM     78  C   UNL A   1      45.116  32.404  29.855  1.00  0.00    -0.014 A 
ATOM     79  C   UNL A   1      45.258  33.402  28.878  1.00  0.00     0.009 A 
ATOM     80  C   UNL A   1      45.429  32.701  31.189  1.00  0.00     0.009 A 
ATOM     81  C   UNL A   1      45.718  34.671  29.229  1.00  0.00     0.001 A 
ATOM     82  C   UNL A   1      45.866  33.980  31.541  1.00  0.00     0.001 A 
ATOM     83  C   UNL A   1      46.019  34.959  30.559  1.00  0.00     0.000 A 
ENDBRANCH  65  78
ENDBRANCH  39  40
ENDBRANCH  31  34
ENDBRANCH  29  30
ENDBRANCH  28  29
ENDBRANCH  27  28
ENDBRANCH   3  27
TORSDOF 15
ENDMDL
