MODEL 1
REMARK VINA RESULT:     -11.6      0.000      0.000
REMARK SMILES O=C(NCCCNC(=O)[C@@]1([NH2+]C2CC2)CC[C@@H]([N@@H+]2CC[N@@H+]3CCC[C@@H]3C2)C1)c1ccc(-c2c3nc(c(-c4ccccc4)c4ccc([nH]4)c(-c4ccccc4)c4nc(c(-c5ccccc5)c5ccc2[nH]5)C=C4)C=C3)cc1
REMARK SMILES IDX 5 1 4 2 3 3 1 4 2 5 28 7 29 8 75 9 30 10 74 11 31 12 32 13
REMARK SMILES IDX 33 14 68 15 34 16 73 17 67 18 69 19 35 20 72 21 66 22 65 23
REMARK SMILES IDX 36 25 58 26 43 27 57 28 44 29 47 30 56 31 70 32 45 33 46 34
REMARK SMILES IDX 55 36 71 37 48 38 37 39 38 40 42 41 39 42 41 43 40 44 59 45
REMARK SMILES IDX 60 46 64 47 61 48 63 49 62 50 49 51 50 52 54 53 51 54 53 55
REMARK SMILES IDX 52 56 6 57 7 58 8 59 9 61 10 62 15 63 27 64 16 65 17 66
REMARK SMILES IDX 11 67 12 70 13 71 14 72 18 73 19 74 26 75 20 77 25 78 21 79
REMARK SMILES IDX 24 80 22 81 23 83
REMARK H PARENT 3 6 69 24 47 35 7 60 11 68 11 69 18 76 21 82
REMARK Flexibility Score: inf
ROOT
ATOM      1  C   UNL A   1      32.950  28.515  27.249  1.00  0.00     0.042 C 
ENDROOT
BRANCH   1   2
ATOM      2  C   UNL A   1      33.750  29.628  26.587  1.00  0.00     0.118 C 
BRANCH   2   3
ATOM      3  N   UNL A   1      33.816  30.805  27.432  1.00  0.00    -0.352 N 
ATOM      4  O   UNL A   1      34.447  31.990  29.237  1.00  0.00    -0.269 OA
ATOM      5  C   UNL A   1      34.708  31.097  28.433  1.00  0.00     0.251 C 
ATOM      6  H   UNL A   1      33.128  31.488  27.265  1.00  0.00     0.163 HD
BRANCH   5   7
ATOM      7  C   UNL A   1      35.988  30.357  28.550  1.00  0.00     0.039 A 
ATOM      8  C   UNL A   1      36.948  30.411  27.535  1.00  0.00     0.014 A 
ATOM      9  C   UNL A   1      36.281  29.699  29.750  1.00  0.00     0.014 A 
ATOM     10  C   UNL A   1      38.172  29.764  27.693  1.00  0.00     0.010 A 
ATOM     11  C   UNL A   1      37.536  29.112  29.938  1.00  0.00     0.010 A 
ATOM     12  C   UNL A   1      38.496  29.156  28.916  1.00  0.00    -0.014 A 
BRANCH  12  13
ATOM     13  C   UNL A   1      39.899  28.752  29.176  1.00  0.00     0.031 A 
ATOM     14  C   UNL A   1      40.886  29.679  29.822  1.00  0.00     0.074 A 
ATOM     15  C   UNL A   1      40.281  27.521  28.785  1.00  0.00     0.049 A 
ATOM     16  N   UNL A   1      42.148  29.465  30.097  1.00  0.00    -0.248 NA
ATOM     17  C   UNL A   1      40.405  31.015  30.202  1.00  0.00     0.031 C 
ATOM     18  C   UNL A   1      39.416  26.543  28.116  1.00  0.00     0.029 A 
ATOM     19  N   UNL A   1      41.487  26.876  28.890  1.00  0.00    -0.354 N 
ATOM     20  C   UNL A   1      42.619  30.641  30.664  1.00  0.00     0.074 A 
ATOM     21  C   UNL A   1      41.509  31.572  30.686  1.00  0.00     0.031 C 
ATOM     22  C   UNL A   1      40.108  25.416  27.900  1.00  0.00     0.029 A 
ATOM     23  C   UNL A   1      41.477  25.608  28.361  1.00  0.00     0.049 A 
ATOM     24  H   UNL A   1      42.282  27.282  29.304  1.00  0.00     0.167 HD
ATOM     25  C   UNL A   1      43.864  30.915  31.122  1.00  0.00     0.031 A 
ATOM     26  C   UNL A   1      42.465  24.705  28.235  1.00  0.00     0.031 A 
ATOM     27  C   UNL A   1      44.962  29.983  31.104  1.00  0.00     0.049 A 
ATOM     28  C   UNL A   1      43.836  25.050  28.728  1.00  0.00     0.074 A 
ATOM     29  C   UNL A   1      46.240  30.149  31.614  1.00  0.00     0.029 A 
ATOM     30  N   UNL A   1      44.921  28.721  30.534  1.00  0.00    -0.354 N 
ATOM     31  N   UNL A   1      44.243  26.142  29.326  1.00  0.00    -0.248 NA
ATOM     32  C   UNL A   1      44.886  24.043  28.519  1.00  0.00     0.031 C 
ATOM     33  C   UNL A   1      46.985  29.005  31.309  1.00  0.00     0.029 A 
ATOM     34  C   UNL A   1      46.161  28.113  30.644  1.00  0.00     0.049 A 
ATOM     35  H   UNL A   1      44.128  28.316  30.114  1.00  0.00     0.167 HD
ATOM     36  C   UNL A   1      45.596  25.956  29.565  1.00  0.00     0.074 A 
ATOM     37  C   UNL A   1      45.934  24.634  29.074  1.00  0.00     0.031 C 
ATOM     38  C   UNL A   1      46.483  26.808  30.133  1.00  0.00     0.031 A 
BRANCH  25  39
ATOM     39  C   UNL A   1      44.124  32.288  31.669  1.00  0.00    -0.014 A 
ATOM     40  C   UNL A   1      44.527  33.338  30.831  1.00  0.00     0.009 A 
ATOM     41  C   UNL A   1      43.876  32.554  33.025  1.00  0.00     0.009 A 
ATOM     42  C   UNL A   1      44.691  34.627  31.345  1.00  0.00     0.001 A 
ATOM     43  C   UNL A   1      44.025  33.846  33.532  1.00  0.00     0.001 A 
ATOM     44  C   UNL A   1      44.434  34.881  32.692  1.00  0.00     0.000 A 
ENDBRANCH  25  39
BRANCH  26  45
ATOM     45  C   UNL A   1      42.195  23.402  27.575  1.00  0.00    -0.014 A 
ATOM     46  C   UNL A   1      41.615  22.345  28.290  1.00  0.00     0.009 A 
ATOM     47  C   UNL A   1      42.511  23.216  26.219  1.00  0.00     0.009 A 
ATOM     48  C   UNL A   1      41.376  21.120  27.664  1.00  0.00     0.001 A 
ATOM     49  C   UNL A   1      42.246  22.000  25.590  1.00  0.00     0.001 A 
ATOM     50  C   UNL A   1      41.686  20.949  26.316  1.00  0.00     0.000 A 
ENDBRANCH  26  45
BRANCH  38  51
ATOM     51  C   UNL A   1      47.899  26.331  30.244  1.00  0.00    -0.014 A 
ATOM     52  C   UNL A   1      48.376  25.773  31.441  1.00  0.00     0.009 A 
ATOM     53  C   UNL A   1      48.760  26.423  29.141  1.00  0.00     0.009 A 
ATOM     54  C   UNL A   1      49.699  25.341  31.538  1.00  0.00     0.001 A 
ATOM     55  C   UNL A   1      50.077  25.969  29.235  1.00  0.00     0.001 A 
ATOM     56  C   UNL A   1      50.547  25.437  30.435  1.00  0.00     0.000 A 
ENDBRANCH  38  51
ENDBRANCH  12  13
ENDBRANCH   5   7
ENDBRANCH   2   3
ENDBRANCH   1   2
BRANCH   1  57
ATOM     57  C   UNL A   1      31.534  28.365  26.705  1.00  0.00     0.118 C 
BRANCH  57  58
ATOM     58  N   UNL A   1      30.982  27.036  26.934  1.00  0.00    -0.351 N 
ATOM     59  C   UNL A   1      31.110  25.810  26.363  1.00  0.00     0.281 C 
ATOM     60  H   UNL A   1      30.358  27.024  27.696  1.00  0.00     0.163 HD
ATOM     61  O   UNL A   1      30.318  24.965  26.807  1.00  0.00    -0.268 OA
BRANCH  59  62
ATOM     62  C   UNL A   1      32.157  25.420  25.283  1.00  0.00     0.181 C 
ATOM     63  C   UNL A   1      33.577  25.079  25.744  1.00  0.00     0.085 C 
ATOM     64  C   UNL A   1      31.693  24.005  24.797  1.00  0.00     0.144 C 
ATOM     65  C   UNL A   1      34.139  24.105  24.723  1.00  0.00     0.072 C 
ATOM     66  C   UNL A   1      32.940  23.259  24.282  1.00  0.00     0.191 C 
BRANCH  62  67
ATOM     67  N   UNL A   1      32.079  26.262  24.066  1.00  0.00    -0.331 N 
ATOM     68  H   UNL A   1      31.182  26.744  24.135  1.00  0.00     0.347 HD
ATOM     69  H   UNL A   1      32.282  25.555  23.360  1.00  0.00     0.347 HD
BRANCH  67  70
ATOM     70  C   UNL A   1      33.028  27.288  23.658  1.00  0.00     0.183 C 
ATOM     71  C   UNL A   1      33.718  27.343  22.333  1.00  0.00     0.071 C 
ATOM     72  C   UNL A   1      32.711  28.397  22.711  1.00  0.00     0.071 C 
ENDBRANCH  67  70
ENDBRANCH  62  67
BRANCH  66  73
ATOM     73  N   UNL A   1      33.055  21.852  24.682  1.00  0.00    -0.323 N 
ATOM     74  C   UNL A   1      34.365  21.533  25.285  1.00  0.00     0.324 C 
ATOM     75  C   UNL A   1      32.632  20.843  23.701  1.00  0.00     0.328 C 
ATOM     76  H   UNL A   1      32.343  21.775  25.409  1.00  0.00     0.348 HD
ATOM     77  C   UNL A   1      34.975  20.164  24.901  1.00  0.00     0.324 C 
ATOM     78  C   UNL A   1      32.727  19.410  24.278  1.00  0.00     0.240 C 
ATOM     79  N   UNL A   1      34.014  19.057  24.917  1.00  0.00    -0.323 N 
ATOM     80  C   UNL A   1      32.484  18.339  23.215  1.00  0.00     0.077 C 
ATOM     81  C   UNL A   1      34.539  17.850  24.274  1.00  0.00     0.263 C 
ATOM     82  H   UNL A   1      33.851  18.866  25.906  1.00  0.00     0.348 HD
ATOM     83  C   UNL A   1      33.310  17.166  23.705  1.00  0.00     0.068 C 
ENDBRANCH  66  73
ENDBRANCH  59  62
ENDBRANCH  57  58
ENDBRANCH   1  57
TORSDOF 13
ENDMDL
MODEL 2
REMARK VINA RESULT:     -11.5      2.261      7.866
REMARK SMILES O=C(NCCCNC(=O)[C@@]1([NH2+]C2CC2)CC[C@@H]([N@@H+]2CC[N@@H+]3CCC[C@@H]3C2)C1)c1ccc(-c2c3nc(c(-c4ccccc4)c4ccc([nH]4)c(-c4ccccc4)c4nc(c(-c5ccccc5)c5ccc2[nH]5)C=C4)C=C3)cc1
REMARK SMILES IDX 5 1 4 2 3 3 1 4 2 5 28 7 29 8 75 9 30 10 74 11 31 12 32 13
REMARK SMILES IDX 33 14 68 15 34 16 73 17 67 18 69 19 35 20 72 21 66 22 65 23
REMARK SMILES IDX 36 25 58 26 43 27 57 28 44 29 47 30 56 31 70 32 45 33 46 34
REMARK SMILES IDX 55 36 71 37 48 38 37 39 38 40 42 41 39 42 41 43 40 44 59 45
REMARK SMILES IDX 60 46 64 47 61 48 63 49 62 50 49 51 50 52 54 53 51 54 53 55
REMARK SMILES IDX 52 56 6 57 7 58 8 59 9 61 10 62 15 63 27 64 16 65 17 66
REMARK SMILES IDX 11 67 12 70 13 71 14 72 18 73 19 74 26 75 20 77 25 78 21 79
REMARK SMILES IDX 24 80 22 81 23 83
REMARK H PARENT 3 6 69 24 47 35 7 60 11 68 11 69 18 76 21 82
REMARK Flexibility Score: inf
ROOT
ATOM      1  C   UNL A   1      37.751  20.309  24.870  1.00  0.00     0.042 C 
ENDROOT
BRANCH   1   2
ATOM      2  C   UNL A   1      38.932  20.678  25.757  1.00  0.00     0.118 C 
BRANCH   2   3
ATOM      3  N   UNL A   1      39.865  19.574  25.880  1.00  0.00    -0.352 N 
ATOM      4  O   UNL A   1      41.895  18.607  25.870  1.00  0.00    -0.269 OA
ATOM      5  C   UNL A   1      41.221  19.613  26.082  1.00  0.00     0.251 C 
ATOM      6  H   UNL A   1      39.472  18.675  25.809  1.00  0.00     0.163 HD
BRANCH   5   7
ATOM      7  C   UNL A   1      41.883  20.849  26.565  1.00  0.00     0.039 A 
ATOM      8  C   UNL A   1      42.325  21.828  25.669  1.00  0.00     0.014 A 
ATOM      9  C   UNL A   1      41.949  21.087  27.942  1.00  0.00     0.014 A 
ATOM     10  C   UNL A   1      42.884  23.012  26.145  1.00  0.00     0.010 A 
ATOM     11  C   UNL A   1      42.441  22.305  28.420  1.00  0.00     0.010 A 
ATOM     12  C   UNL A   1      42.896  23.283  27.523  1.00  0.00    -0.014 A 
BRANCH  12  13
ATOM     13  C   UNL A   1      43.198  24.658  27.989  1.00  0.00     0.031 A 
ATOM     14  C   UNL A   1      42.117  25.659  28.266  1.00  0.00     0.074 A 
ATOM     15  C   UNL A   1      44.494  25.002  28.133  1.00  0.00     0.049 A 
ATOM     16  N   UNL A   1      42.236  26.901  28.664  1.00  0.00    -0.248 NA
ATOM     17  C   UNL A   1      40.728  25.221  28.066  1.00  0.00     0.031 C 
ATOM     18  C   UNL A   1      45.635  24.121  27.861  1.00  0.00     0.029 A 
ATOM     19  N   UNL A   1      45.074  26.175  28.542  1.00  0.00    -0.354 N 
ATOM     20  C   UNL A   1      40.943  27.400  28.746  1.00  0.00     0.074 A 
ATOM     21  C   UNL A   1      40.053  26.330  28.346  1.00  0.00     0.031 C 
ATOM     22  C   UNL A   1      46.772  24.772  28.139  1.00  0.00     0.029 A 
ATOM     23  C   UNL A   1      46.447  26.131  28.555  1.00  0.00     0.049 A 
ATOM     24  H   UNL A   1      44.557  26.971  28.801  1.00  0.00     0.167 HD
ATOM     25  C   UNL A   1      40.542  28.638  29.120  1.00  0.00     0.031 A 
ATOM     26  C   UNL A   1      47.351  27.083  28.842  1.00  0.00     0.031 A 
ATOM     27  C   UNL A   1      41.431  29.697  29.524  1.00  0.00     0.049 A 
ATOM     28  C   UNL A   1      46.873  28.450  29.226  1.00  0.00     0.074 A 
ATOM     29  C   UNL A   1      41.109  30.961  29.989  1.00  0.00     0.029 A 
ATOM     30  N   UNL A   1      42.814  29.623  29.494  1.00  0.00    -0.354 N 
ATOM     31  N   UNL A   1      45.644  28.881  29.366  1.00  0.00    -0.248 NA
ATOM     32  C   UNL A   1      47.906  29.463  29.482  1.00  0.00     0.031 C 
ATOM     33  C   UNL A   1      42.298  31.668  30.195  1.00  0.00     0.029 A 
ATOM     34  C   UNL A   1      43.360  30.832  29.895  1.00  0.00     0.049 A 
ATOM     35  H   UNL A   1      43.333  28.829  29.229  1.00  0.00     0.167 HD
ATOM     36  C   UNL A   1      45.754  30.216  29.725  1.00  0.00     0.074 A 
ATOM     37  C   UNL A   1      47.170  30.515  29.811  1.00  0.00     0.031 C 
ATOM     38  C   UNL A   1      44.769  31.117  29.955  1.00  0.00     0.031 A 
BRANCH  25  39
ATOM     39  C   UNL A   1      39.071  28.937  29.095  1.00  0.00    -0.014 A 
ATOM     40  C   UNL A   1      38.294  28.852  30.259  1.00  0.00     0.009 A 
ATOM     41  C   UNL A   1      38.476  29.396  27.910  1.00  0.00     0.009 A 
ATOM     42  C   UNL A   1      36.942  29.206  30.232  1.00  0.00     0.001 A 
ATOM     43  C   UNL A   1      37.130  29.766  27.889  1.00  0.00     0.001 A 
ATOM     44  C   UNL A   1      36.364  29.668  29.050  1.00  0.00     0.000 A 
ENDBRANCH  25  39
BRANCH  26  45
ATOM     45  C   UNL A   1      48.801  26.783  28.736  1.00  0.00    -0.014 A 
ATOM     46  C   UNL A   1      49.510  26.279  29.835  1.00  0.00     0.009 A 
ATOM     47  C   UNL A   1      49.480  26.993  27.524  1.00  0.00     0.009 A 
ATOM     48  C   UNL A   1      50.876  26.011  29.728  1.00  0.00     0.001 A 
ATOM     49  C   UNL A   1      50.839  26.697  27.413  1.00  0.00     0.001 A 
ATOM     50  C   UNL A   1      51.538  26.215  28.519  1.00  0.00     0.000 A 
ENDBRANCH  26  45
BRANCH  38  51
ATOM     51  C   UNL A   1      45.198  32.507  30.314  1.00  0.00    -0.014 A 
ATOM     52  C   UNL A   1      45.425  32.863  31.652  1.00  0.00     0.009 A 
ATOM     53  C   UNL A   1      45.393  33.463  29.307  1.00  0.00     0.009 A 
ATOM     54  C   UNL A   1      45.814  34.164  31.978  1.00  0.00     0.001 A 
ATOM     55  C   UNL A   1      45.805  34.757  29.635  1.00  0.00     0.001 A 
ATOM     56  C   UNL A   1      46.006  35.107  30.969  1.00  0.00     0.000 A 
ENDBRANCH  38  51
ENDBRANCH  12  13
ENDBRANCH   5   7
ENDBRANCH   2   3
ENDBRANCH   1   2
BRANCH   1  57
ATOM     57  C   UNL A   1      36.455  21.022  25.237  1.00  0.00     0.118 C 
BRANCH  57  58
ATOM     58  N   UNL A   1      36.083  22.045  24.268  1.00  0.00    -0.351 N 
ATOM     59  C   UNL A   1      34.926  22.620  23.847  1.00  0.00     0.281 C 
ATOM     60  H   UNL A   1      36.868  22.410  23.800  1.00  0.00     0.163 HD
ATOM     61  O   UNL A   1      35.067  23.370  22.868  1.00  0.00    -0.268 OA
BRANCH  59  62
ATOM     62  C   UNL A   1      33.532  22.437  24.507  1.00  0.00     0.181 C 
ATOM     63  C   UNL A   1      33.443  22.498  26.035  1.00  0.00     0.085 C 
ATOM     64  C   UNL A   1      32.765  23.756  24.147  1.00  0.00     0.144 C 
ATOM     65  C   UNL A   1      32.048  23.002  26.365  1.00  0.00     0.072 C 
ATOM     66  C   UNL A   1      31.710  23.994  25.247  1.00  0.00     0.191 C 
BRANCH  62  67
ATOM     67  N   UNL A   1      32.725  21.367  23.875  1.00  0.00    -0.331 N 
ATOM     68  H   UNL A   1      33.130  21.243  22.947  1.00  0.00     0.347 HD
ATOM     69  H   UNL A   1      31.791  21.747  24.032  1.00  0.00     0.347 HD
BRANCH  67  70
ATOM     70  C   UNL A   1      32.522  20.018  24.382  1.00  0.00     0.183 C 
ATOM     71  C   UNL A   1      32.501  18.779  23.545  1.00  0.00     0.071 C 
ATOM     72  C   UNL A   1      33.609  19.007  24.540  1.00  0.00     0.071 C 
ENDBRANCH  67  70
ENDBRANCH  62  67
BRANCH  66  73
ATOM     73  N   UNL A   1      31.587  25.374  25.726  1.00  0.00    -0.323 N 
ATOM     74  C   UNL A   1      30.668  26.186  24.901  1.00  0.00     0.324 C 
ATOM     75  C   UNL A   1      32.834  26.087  26.037  1.00  0.00     0.328 C 
ATOM     76  H   UNL A   1      31.162  25.249  26.644  1.00  0.00     0.348 HD
ATOM     77  C   UNL A   1      31.101  27.649  24.640  1.00  0.00     0.324 C 
ATOM     78  C   UNL A   1      32.558  27.499  26.606  1.00  0.00     0.240 C 
ATOM     79  N   UNL A   1      31.621  28.337  25.826  1.00  0.00    -0.323 N 
ATOM     80  C   UNL A   1      33.835  28.327  26.748  1.00  0.00     0.077 C 
ATOM     81  C   UNL A   1      32.288  29.599  25.494  1.00  0.00     0.263 C 
ATOM     82  H   UNL A   1      30.798  28.533  26.396  1.00  0.00     0.348 HD
ATOM     83  C   UNL A   1      33.351  29.752  26.566  1.00  0.00     0.068 C 
ENDBRANCH  66  73
ENDBRANCH  59  62
ENDBRANCH  57  58
ENDBRANCH   1  57
TORSDOF 13
ENDMDL
MODEL 3
REMARK VINA RESULT:     -11.4      2.773      7.129
REMARK SMILES O=C(NCCCNC(=O)[C@@]1([NH2+]C2CC2)CC[C@@H]([N@@H+]2CC[N@@H+]3CCC[C@@H]3C2)C1)c1ccc(-c2c3nc(c(-c4ccccc4)c4ccc([nH]4)c(-c4ccccc4)c4nc(c(-c5ccccc5)c5ccc2[nH]5)C=C4)C=C3)cc1
REMARK SMILES IDX 5 1 4 2 3 3 1 4 2 5 28 7 29 8 75 9 30 10 74 11 31 12 32 13
REMARK SMILES IDX 33 14 68 15 34 16 73 17 67 18 69 19 35 20 72 21 66 22 65 23
REMARK SMILES IDX 36 25 58 26 43 27 57 28 44 29 47 30 56 31 70 32 45 33 46 34
REMARK SMILES IDX 55 36 71 37 48 38 37 39 38 40 42 41 39 42 41 43 40 44 59 45
REMARK SMILES IDX 60 46 64 47 61 48 63 49 62 50 49 51 50 52 54 53 51 54 53 55
REMARK SMILES IDX 52 56 6 57 7 58 8 59 9 61 10 62 15 63 27 64 16 65 17 66
REMARK SMILES IDX 11 67 12 70 13 71 14 72 18 73 19 74 26 75 20 77 25 78 21 79
REMARK SMILES IDX 24 80 22 81 23 83
REMARK H PARENT 3 6 69 24 47 35 7 60 11 68 11 69 18 76 21 82
REMARK Flexibility Score: inf
ROOT
ATOM      1  C   UNL A   1      31.716  31.257  26.608  1.00  0.00     0.042 C 
ENDROOT
BRANCH   1   2
ATOM      2  C   UNL A   1      32.910  31.967  27.232  1.00  0.00     0.118 C 
BRANCH   2   3
ATOM      3  N   UNL A   1      32.613  33.361  27.500  1.00  0.00    -0.352 N 
ATOM      4  O   UNL A   1      32.615  35.251  28.720  1.00  0.00    -0.269 OA
ATOM      5  C   UNL A   1      33.179  34.198  28.429  1.00  0.00     0.251 C 
ATOM      6  H   UNL A   1      31.911  33.763  26.940  1.00  0.00     0.163 HD
BRANCH   5   7
ATOM      7  C   UNL A   1      34.468  33.855  29.076  1.00  0.00     0.039 A 
ATOM      8  C   UNL A   1      34.509  33.064  30.229  1.00  0.00     0.014 A 
ATOM      9  C   UNL A   1      35.661  34.228  28.447  1.00  0.00     0.014 A 
ATOM     10  C   UNL A   1      35.733  32.697  30.784  1.00  0.00     0.010 A 
ATOM     11  C   UNL A   1      36.888  33.798  28.961  1.00  0.00     0.010 A 
ATOM     12  C   UNL A   1      36.931  33.015  30.124  1.00  0.00    -0.014 A 
BRANCH  12  13
ATOM     13  C   UNL A   1      38.190  32.357  30.550  1.00  0.00     0.031 A 
ATOM     14  C   UNL A   1      38.665  31.076  29.934  1.00  0.00     0.074 A 
ATOM     15  C   UNL A   1      38.895  32.934  31.543  1.00  0.00     0.049 A 
ATOM     16  N   UNL A   1      39.739  30.382  30.217  1.00  0.00    -0.248 NA
ATOM     17  C   UNL A   1      37.833  30.491  28.871  1.00  0.00     0.031 C 
ATOM     18  C   UNL A   1      38.513  34.166  32.242  1.00  0.00     0.029 A 
ATOM     19  N   UNL A   1      40.075  32.570  32.138  1.00  0.00    -0.354 N 
ATOM     20  C   UNL A   1      39.705  29.271  29.385  1.00  0.00     0.074 A 
ATOM     21  C   UNL A   1      38.498  29.377  28.590  1.00  0.00     0.031 C 
ATOM     22  C   UNL A   1      39.455  34.471  33.146  1.00  0.00     0.029 A 
ATOM     23  C   UNL A   1      40.475  33.431  33.131  1.00  0.00     0.049 A 
ATOM     24  H   UNL A   1      40.587  31.771  31.879  1.00  0.00     0.167 HD
ATOM     25  C   UNL A   1      40.600  28.259  29.296  1.00  0.00     0.031 A 
ATOM     26  C   UNL A   1      41.532  33.381  33.961  1.00  0.00     0.031 A 
ATOM     27  C   UNL A   1      41.802  28.162  30.084  1.00  0.00     0.049 A 
ATOM     28  C   UNL A   1      42.489  32.233  33.854  1.00  0.00     0.074 A 
ATOM     29  C   UNL A   1      42.805  27.209  30.011  1.00  0.00     0.029 A 
ATOM     30  N   UNL A   1      42.156  29.036  31.099  1.00  0.00    -0.354 N 
ATOM     31  N   UNL A   1      42.477  31.230  33.012  1.00  0.00    -0.248 NA
ATOM     32  C   UNL A   1      43.597  32.205  34.817  1.00  0.00     0.031 C 
ATOM     33  C   UNL A   1      43.741  27.480  31.014  1.00  0.00     0.029 A 
ATOM     34  C   UNL A   1      43.342  28.623  31.685  1.00  0.00     0.049 A 
ATOM     35  H   UNL A   1      41.643  29.833  31.364  1.00  0.00     0.167 HD
ATOM     36  C   UNL A   1      43.574  30.449  33.343  1.00  0.00     0.074 A 
ATOM     37  C   UNL A   1      44.246  31.112  34.444  1.00  0.00     0.031 C 
ATOM     38  C   UNL A   1      43.984  29.283  32.791  1.00  0.00     0.031 A 
BRANCH  25  39
ATOM     39  C   UNL A   1      40.313  27.151  28.325  1.00  0.00    -0.014 A 
ATOM     40  C   UNL A   1      40.879  27.146  27.042  1.00  0.00     0.009 A 
ATOM     41  C   UNL A   1      39.540  26.053  28.733  1.00  0.00     0.009 A 
ATOM     42  C   UNL A   1      40.661  26.069  26.179  1.00  0.00     0.001 A 
ATOM     43  C   UNL A   1      39.338  24.970  27.876  1.00  0.00     0.001 A 
ATOM     44  C   UNL A   1      39.897  24.980  26.599  1.00  0.00     0.000 A 
ENDBRANCH  25  39
BRANCH  26  45
ATOM     45  C   UNL A   1      41.714  34.434  34.992  1.00  0.00    -0.014 A 
ATOM     46  C   UNL A   1      41.176  34.276  36.277  1.00  0.00     0.009 A 
ATOM     47  C   UNL A   1      42.437  35.600  34.692  1.00  0.00     0.009 A 
ATOM     48  C   UNL A   1      41.343  35.278  37.236  1.00  0.00     0.001 A 
ATOM     49  C   UNL A   1      42.625  36.585  35.661  1.00  0.00     0.001 A 
ATOM     50  C   UNL A   1      42.070  36.427  36.931  1.00  0.00     0.000 A 
ENDBRANCH  26  45
BRANCH  38  51
ATOM     51  C   UNL A   1      45.211  28.654  33.378  1.00  0.00    -0.014 A 
ATOM     52  C   UNL A   1      46.487  28.986  32.895  1.00  0.00     0.009 A 
ATOM     53  C   UNL A   1      45.094  27.736  34.431  1.00  0.00     0.009 A 
ATOM     54  C   UNL A   1      47.623  28.387  33.441  1.00  0.00     0.001 A 
ATOM     55  C   UNL A   1      46.235  27.157  34.990  1.00  0.00     0.001 A 
ATOM     56  C   UNL A   1      47.496  27.476  34.489  1.00  0.00     0.000 A 
ENDBRANCH  38  51
ENDBRANCH  12  13
ENDBRANCH   5   7
ENDBRANCH   2   3
ENDBRANCH   1   2
BRANCH   1  57
ATOM     57  C   UNL A   1      32.095  30.090  25.704  1.00  0.00     0.118 C 
BRANCH  57  58
ATOM     58  N   UNL A   1      31.784  28.796  26.298  1.00  0.00    -0.351 N 
ATOM     59  C   UNL A   1      31.428  27.568  25.840  1.00  0.00     0.281 C 
ATOM     60  H   UNL A   1      31.849  28.818  27.280  1.00  0.00     0.163 HD
ATOM     61  O   UNL A   1      31.112  26.770  26.736  1.00  0.00    -0.268 OA
BRANCH  59  62
ATOM     62  C   UNL A   1      31.434  27.121  24.351  1.00  0.00     0.181 C 
ATOM     63  C   UNL A   1      32.608  27.560  23.471  1.00  0.00     0.085 C 
ATOM     64  C   UNL A   1      31.719  25.581  24.418  1.00  0.00     0.144 C 
ATOM     65  C   UNL A   1      32.765  26.494  22.400  1.00  0.00     0.072 C 
ATOM     66  C   UNL A   1      32.401  25.178  23.095  1.00  0.00     0.191 C 
BRANCH  62  67
ATOM     67  N   UNL A   1      30.102  27.214  23.710  1.00  0.00    -0.331 N 
ATOM     68  H   UNL A   1      29.435  27.202  24.482  1.00  0.00     0.347 HD
ATOM     69  H   UNL A   1      30.188  26.455  23.033  1.00  0.00     0.347 HD
BRANCH  67  70
ATOM     70  C   UNL A   1      29.636  28.272  22.825  1.00  0.00     0.183 C 
ATOM     71  C   UNL A   1      28.275  28.888  22.864  1.00  0.00     0.071 C 
ATOM     72  C   UNL A   1      29.490  29.701  23.228  1.00  0.00     0.071 C 
ENDBRANCH  67  70
ENDBRANCH  62  67
BRANCH  66  73
ATOM     73  N   UNL A   1      33.539  24.261  23.217  1.00  0.00    -0.323 N 
ATOM     74  C   UNL A   1      33.133  22.841  23.220  1.00  0.00     0.324 C 
ATOM     75  C   UNL A   1      34.528  24.560  24.263  1.00  0.00     0.328 C 
ATOM     76  H   UNL A   1      34.057  24.442  22.357  1.00  0.00     0.348 HD
ATOM     77  C   UNL A   1      33.901  21.915  24.194  1.00  0.00     0.324 C 
ATOM     78  C   UNL A   1      35.713  23.566  24.229  1.00  0.00     0.240 C 
ATOM     79  N   UNL A   1      35.351  22.131  24.203  1.00  0.00    -0.323 N 
ATOM     80  C   UNL A   1      36.647  23.736  25.427  1.00  0.00     0.077 C 
ATOM     81  C   UNL A   1      36.010  21.462  25.328  1.00  0.00     0.263 C 
ATOM     82  H   UNL A   1      35.682  21.722  23.329  1.00  0.00     0.348 HD
ATOM     83  C   UNL A   1      37.207  22.342  25.635  1.00  0.00     0.068 C 
ENDBRANCH  66  73
ENDBRANCH  59  62
ENDBRANCH  57  58
ENDBRANCH   1  57
TORSDOF 13
ENDMDL
