MODEL 1
REMARK VINA RESULT:     -10.6      0.000      0.000
REMARK SMILES COC[C@H](C)Oc1cnc2ccccc2c1C(=O)NCCCNC(=O)c1ccc(-c2c3nc(c(-c4ccccc4)c4ccc([nH]4)c(-c4ccccc4)c4nc(c(-c5ccccc5)c5ccc2[nH]5)C=C4)C=C3)cc1
REMARK SMILES IDX 20 1 19 2 17 3 18 4 16 6 7 7 8 8 9 9 15 10 10 11 14 12 11 13
REMARK SMILES IDX 13 14 12 15 6 16 4 17 5 18 3 19 2 20 1 21 21 22 22 23 23 24
REMARK SMILES IDX 24 25 25 27 26 28 27 29 73 30 28 31 72 32 29 33 30 34 31 35
REMARK SMILES IDX 66 36 32 37 71 38 65 39 67 40 33 41 70 42 64 43 63 44 34 46
REMARK SMILES IDX 56 47 41 48 55 49 42 50 45 51 54 52 68 53 43 54 44 55 53 57
REMARK SMILES IDX 69 58 46 59 35 60 36 61 40 62 37 63 39 64 38 65 57 66 58 67
REMARK SMILES IDX 62 68 59 69 61 70 60 71 47 72 48 73 52 74 49 75 51 76 50 77
REMARK H PARENT 19 5 23 26 67 45 45 56
REMARK Flexibility Score: inf
ROOT
ATOM      1  C   UNL A   1      34.038  26.535  25.780  1.00  0.00     0.118 C 
ENDROOT
BRANCH   1   2
ATOM      2  N   UNL A   1      33.852  26.174  24.383  1.00  0.00    -0.352 N 
ATOM      3  C   UNL A   1      33.887  25.034  23.615  1.00  0.00     0.255 C 
ATOM      4  O   UNL A   1      33.956  25.292  22.407  1.00  0.00    -0.269 OA
ATOM      5  H   UNL A   1      33.646  26.966  23.836  1.00  0.00     0.163 HD
BRANCH   3   6
ATOM      6  C   UNL A   1      33.799  23.589  24.054  1.00  0.00     0.092 A 
ATOM      7  C   UNL A   1      32.488  23.105  24.279  1.00  0.00     0.151 A 
ATOM      8  C   UNL A   1      32.322  21.761  24.562  1.00  0.00     0.159 A 
ATOM      9  N   UNL A   1      33.322  20.910  24.835  1.00  0.00    -0.252 NA
ATOM     10  C   UNL A   1      34.879  22.656  24.213  1.00  0.00     0.017 A 
ATOM     11  C   UNL A   1      34.566  21.361  24.699  1.00  0.00     0.071 A 
ATOM     12  C   UNL A   1      36.237  22.848  23.884  1.00  0.00     0.011 A 
ATOM     13  C   UNL A   1      35.570  20.457  25.018  1.00  0.00     0.029 A 
ATOM     14  C   UNL A   1      37.249  21.943  24.215  1.00  0.00     0.001 A 
ATOM     15  C   UNL A   1      36.914  20.750  24.820  1.00  0.00     0.002 A 
BRANCH   7  16
ATOM     16  O   UNL A   1      31.387  23.902  24.143  1.00  0.00    -0.486 OA
BRANCH  16  17
ATOM     17  C   UNL A   1      30.765  24.441  25.326  1.00  0.00     0.196 C 
ATOM     18  C   UNL A   1      31.449  23.991  26.616  1.00  0.00     0.055 C 
BRANCH  17  19
ATOM     19  C   UNL A   1      30.346  25.931  25.279  1.00  0.00     0.204 C 
BRANCH  19  20
ATOM     20  O   UNL A   1      30.866  26.711  24.205  1.00  0.00    -0.381 OA
ATOM     21  C   UNL A   1      29.898  27.261  23.327  1.00  0.00     0.195 C 
ENDBRANCH  19  20
ENDBRANCH  17  19
ENDBRANCH  16  17
ENDBRANCH   7  16
ENDBRANCH   3   6
ENDBRANCH   1   2
BRANCH   1  22
ATOM     22  C   UNL A   1      33.829  28.051  25.953  1.00  0.00     0.042 C 
BRANCH  22  23
ATOM     23  C   UNL A   1      33.406  28.490  27.349  1.00  0.00     0.118 C 
BRANCH  23  24
ATOM     24  N   UNL A   1      33.463  29.935  27.502  1.00  0.00    -0.352 N 
ATOM     25  C   UNL A   1      34.424  30.739  28.063  1.00  0.00     0.251 C 
ATOM     26  H   UNL A   1      32.682  30.417  27.146  1.00  0.00     0.163 HD
ATOM     27  O   UNL A   1      34.138  31.912  28.318  1.00  0.00    -0.269 OA
BRANCH  25  28
ATOM     28  C   UNL A   1      35.789  30.247  28.378  1.00  0.00     0.039 A 
ATOM     29  C   UNL A   1      36.759  30.264  27.367  1.00  0.00     0.014 A 
ATOM     30  C   UNL A   1      36.112  29.688  29.618  1.00  0.00     0.014 A 
ATOM     31  C   UNL A   1      38.047  29.772  27.610  1.00  0.00     0.010 A 
ATOM     32  C   UNL A   1      37.418  29.272  29.885  1.00  0.00     0.010 A 
ATOM     33  C   UNL A   1      38.397  29.295  28.882  1.00  0.00    -0.014 A 
BRANCH  33  34
ATOM     34  C   UNL A   1      39.770  28.801  29.178  1.00  0.00     0.031 A 
ATOM     35  C   UNL A   1      40.773  29.700  29.852  1.00  0.00     0.074 A 
ATOM     36  C   UNL A   1      40.139  27.566  28.786  1.00  0.00     0.049 A 
ATOM     37  N   UNL A   1      42.040  29.482  30.107  1.00  0.00    -0.248 NA
ATOM     38  C   UNL A   1      40.297  31.028  30.273  1.00  0.00     0.031 C 
ATOM     39  C   UNL A   1      39.278  26.601  28.098  1.00  0.00     0.029 A 
ATOM     40  N   UNL A   1      41.343  26.915  28.898  1.00  0.00    -0.354 N 
ATOM     41  C   UNL A   1      42.516  30.652  30.689  1.00  0.00     0.074 A 
ATOM     42  C   UNL A   1      41.414  31.588  30.715  1.00  0.00     0.031 C 
ATOM     43  C   UNL A   1      39.975  25.476  27.869  1.00  0.00     0.029 A 
ATOM     44  C   UNL A   1      41.340  25.654  28.352  1.00  0.00     0.049 A 
ATOM     45  H   UNL A   1      42.134  27.314  29.328  1.00  0.00     0.167 HD
ATOM     46  C   UNL A   1      43.754  30.920  31.172  1.00  0.00     0.031 A 
ATOM     47  C   UNL A   1      42.328  24.744  28.242  1.00  0.00     0.031 A 
ATOM     48  C   UNL A   1      44.848  29.985  31.168  1.00  0.00     0.049 A 
ATOM     49  C   UNL A   1      43.693  25.067  28.780  1.00  0.00     0.074 A 
ATOM     50  C   UNL A   1      46.120  30.145  31.687  1.00  0.00     0.029 A 
ATOM     51  N   UNL A   1      44.796  28.715  30.617  1.00  0.00    -0.354 N 
ATOM     52  N   UNL A   1      44.109  26.159  29.373  1.00  0.00    -0.248 NA
ATOM     53  C   UNL A   1      44.722  24.027  28.638  1.00  0.00     0.031 C 
ATOM     54  C   UNL A   1      46.854  28.985  31.412  1.00  0.00     0.029 A 
ATOM     55  C   UNL A   1      46.021  28.087  30.764  1.00  0.00     0.049 A 
ATOM     56  H   UNL A   1      44.006  28.318  30.184  1.00  0.00     0.167 HD
ATOM     57  C   UNL A   1      45.441  25.928  29.697  1.00  0.00     0.074 A 
ATOM     58  C   UNL A   1      45.757  24.588  29.247  1.00  0.00     0.031 C 
ATOM     59  C   UNL A   1      46.322  26.754  30.311  1.00  0.00     0.031 A 
BRANCH  46  60
ATOM     60  C   UNL A   1      43.992  32.292  31.742  1.00  0.00    -0.014 A 
ATOM     61  C   UNL A   1      44.434  33.351  30.934  1.00  0.00     0.009 A 
ATOM     62  C   UNL A   1      43.736  32.536  33.100  1.00  0.00     0.009 A 
ATOM     63  C   UNL A   1      44.653  34.616  31.482  1.00  0.00     0.001 A 
ATOM     64  C   UNL A   1      43.929  33.810  33.640  1.00  0.00     0.001 A 
ATOM     65  C   UNL A   1      44.397  34.845  32.833  1.00  0.00     0.000 A 
ENDBRANCH  46  60
BRANCH  47  66
ATOM     66  C   UNL A   1      42.058  23.431  27.602  1.00  0.00    -0.014 A 
ATOM     67  C   UNL A   1      41.463  22.393  28.335  1.00  0.00     0.009 A 
ATOM     68  C   UNL A   1      42.392  23.208  26.257  1.00  0.00     0.009 A 
ATOM     69  C   UNL A   1      41.229  21.150  27.741  1.00  0.00     0.001 A 
ATOM     70  C   UNL A   1      42.133  21.973  25.658  1.00  0.00     0.001 A 
ATOM     71  C   UNL A   1      41.559  20.944  26.402  1.00  0.00     0.000 A 
ENDBRANCH  47  66
BRANCH  59  72
ATOM     72  C   UNL A   1      47.703  26.219  30.560  1.00  0.00    -0.014 A 
ATOM     73  C   UNL A   1      48.678  26.224  29.551  1.00  0.00     0.009 A 
ATOM     74  C   UNL A   1      48.041  25.736  31.834  1.00  0.00     0.009 A 
ATOM     75  C   UNL A   1      49.957  25.726  29.805  1.00  0.00     0.001 A 
ATOM     76  C   UNL A   1      49.329  25.264  32.092  1.00  0.00     0.001 A 
ATOM     77  C   UNL A   1      50.283  25.251  31.075  1.00  0.00     0.000 A 
ENDBRANCH  59  72
ENDBRANCH  33  34
ENDBRANCH  25  28
ENDBRANCH  23  24
ENDBRANCH  22  23
ENDBRANCH   1  22
TORSDOF 14
ENDMDL
MODEL 2
REMARK VINA RESULT:     -10.5      1.648      2.715
REMARK SMILES COC[C@H](C)Oc1cnc2ccccc2c1C(=O)NCCCNC(=O)c1ccc(-c2c3nc(c(-c4ccccc4)c4ccc([nH]4)c(-c4ccccc4)c4nc(c(-c5ccccc5)c5ccc2[nH]5)C=C4)C=C3)cc1
REMARK SMILES IDX 20 1 19 2 17 3 18 4 16 6 7 7 8 8 9 9 15 10 10 11 14 12 11 13
REMARK SMILES IDX 13 14 12 15 6 16 4 17 5 18 3 19 2 20 1 21 21 22 22 23 23 24
REMARK SMILES IDX 24 25 25 27 26 28 27 29 73 30 28 31 72 32 29 33 30 34 31 35
REMARK SMILES IDX 66 36 32 37 71 38 65 39 67 40 33 41 70 42 64 43 63 44 34 46
REMARK SMILES IDX 56 47 41 48 55 49 42 50 45 51 54 52 68 53 43 54 44 55 53 57
REMARK SMILES IDX 69 58 46 59 35 60 36 61 40 62 37 63 39 64 38 65 57 66 58 67
REMARK SMILES IDX 62 68 59 69 61 70 60 71 47 72 48 73 52 74 49 75 51 76 50 77
REMARK H PARENT 19 5 23 26 67 45 45 56
REMARK Flexibility Score: inf
ROOT
ATOM      1  C   UNL A   1      31.841  28.246  26.979  1.00  0.00     0.118 C 
ENDROOT
BRANCH   1   2
ATOM      2  N   UNL A   1      30.990  27.069  26.925  1.00  0.00    -0.352 N 
ATOM      3  C   UNL A   1      30.614  26.128  25.997  1.00  0.00     0.255 C 
ATOM      4  O   UNL A   1      29.622  25.486  26.362  1.00  0.00    -0.269 OA
ATOM      5  H   UNL A   1      30.562  26.900  27.796  1.00  0.00     0.163 HD
BRANCH   3   6
ATOM      6  C   UNL A   1      31.275  25.772  24.682  1.00  0.00     0.092 A 
ATOM      7  C   UNL A   1      31.150  26.744  23.661  1.00  0.00     0.151 A 
ATOM      8  C   UNL A   1      31.832  26.543  22.475  1.00  0.00     0.159 A 
ATOM      9  N   UNL A   1      32.450  25.402  22.133  1.00  0.00    -0.252 NA
ATOM     10  C   UNL A   1      32.046  24.598  24.380  1.00  0.00     0.017 A 
ATOM     11  C   UNL A   1      32.519  24.444  23.053  1.00  0.00     0.071 A 
ATOM     12  C   UNL A   1      32.452  23.583  25.272  1.00  0.00     0.011 A 
ATOM     13  C   UNL A   1      33.142  23.271  22.650  1.00  0.00     0.029 A 
ATOM     14  C   UNL A   1      33.069  22.397  24.865  1.00  0.00     0.001 A 
ATOM     15  C   UNL A   1      33.386  22.226  23.533  1.00  0.00     0.002 A 
BRANCH   7  16
ATOM     16  O   UNL A   1      30.452  27.904  23.845  1.00  0.00    -0.486 OA
BRANCH  16  17
ATOM     17  C   UNL A   1      29.560  28.352  22.805  1.00  0.00     0.196 C 
ATOM     18  C   UNL A   1      28.086  28.163  23.162  1.00  0.00     0.055 C 
BRANCH  17  19
ATOM     19  C   UNL A   1      29.912  29.692  22.112  1.00  0.00     0.204 C 
BRANCH  19  20
ATOM     20  O   UNL A   1      28.949  30.214  21.199  1.00  0.00    -0.381 OA
ATOM     21  C   UNL A   1      28.530  31.545  21.451  1.00  0.00     0.195 C 
ENDBRANCH  19  20
ENDBRANCH  17  19
ENDBRANCH  16  17
ENDBRANCH   7  16
ENDBRANCH   3   6
ENDBRANCH   1   2
BRANCH   1  22
ATOM     22  C   UNL A   1      33.271  27.870  26.547  1.00  0.00     0.042 C 
BRANCH  22  23
ATOM     23  C   UNL A   1      34.040  28.971  25.827  1.00  0.00     0.118 C 
BRANCH  23  24
ATOM     24  N   UNL A   1      33.886  30.258  26.485  1.00  0.00    -0.352 N 
ATOM     25  C   UNL A   1      34.582  30.820  27.527  1.00  0.00     0.251 C 
ATOM     26  H   UNL A   1      33.162  30.819  26.126  1.00  0.00     0.163 HD
ATOM     27  O   UNL A   1      34.105  31.809  28.090  1.00  0.00    -0.269 OA
BRANCH  25  28
ATOM     28  C   UNL A   1      35.880  30.277  28.003  1.00  0.00     0.039 A 
ATOM     29  C   UNL A   1      35.936  29.693  29.275  1.00  0.00     0.014 A 
ATOM     30  C   UNL A   1      37.059  30.411  27.265  1.00  0.00     0.014 A 
ATOM     31  C   UNL A   1      37.148  29.206  29.779  1.00  0.00     0.010 A 
ATOM     32  C   UNL A   1      38.251  29.854  27.733  1.00  0.00     0.010 A 
ATOM     33  C   UNL A   1      38.314  29.257  29.001  1.00  0.00    -0.014 A 
BRANCH  33  34
ATOM     34  C   UNL A   1      39.607  28.713  29.498  1.00  0.00     0.031 A 
ATOM     35  C   UNL A   1      40.447  29.507  30.463  1.00  0.00     0.074 A 
ATOM     36  C   UNL A   1      40.062  27.532  29.034  1.00  0.00     0.049 A 
ATOM     37  N   UNL A   1      41.641  29.244  30.933  1.00  0.00    -0.248 NA
ATOM     38  C   UNL A   1      39.881  30.778  30.945  1.00  0.00     0.031 C 
ATOM     39  C   UNL A   1      39.365  26.671  28.075  1.00  0.00     0.029 A 
ATOM     40  N   UNL A   1      41.228  26.857  29.299  1.00  0.00    -0.354 N 
ATOM     41  C   UNL A   1      41.979  30.325  31.740  1.00  0.00     0.074 A 
ATOM     42  C   UNL A   1      40.881  31.265  31.665  1.00  0.00     0.031 C 
ATOM     43  C   UNL A   1      40.108  25.575  27.849  1.00  0.00     0.029 A 
ATOM     44  C   UNL A   1      41.349  25.674  28.610  1.00  0.00     0.049 A 
ATOM     45  H   UNL A   1      41.914  27.189  29.923  1.00  0.00     0.167 HD
ATOM     46  C   UNL A   1      43.094  30.515  32.487  1.00  0.00     0.031 A 
ATOM     47  C   UNL A   1      42.350  24.773  28.583  1.00  0.00     0.031 A 
ATOM     48  C   UNL A   1      44.178  29.575  32.581  1.00  0.00     0.049 A 
ATOM     49  C   UNL A   1      43.578  25.010  29.415  1.00  0.00     0.074 A 
ATOM     50  C   UNL A   1      45.322  29.652  33.357  1.00  0.00     0.029 A 
ATOM     51  N   UNL A   1      44.252  28.384  31.876  1.00  0.00    -0.354 N 
ATOM     52  N   UNL A   1      43.856  26.013  30.211  1.00  0.00    -0.248 NA
ATOM     53  C   UNL A   1      44.627  23.982  29.349  1.00  0.00     0.031 C 
ATOM     54  C   UNL A   1      46.110  28.527  33.088  1.00  0.00     0.029 A 
ATOM     55  C   UNL A   1      45.432  27.728  32.182  1.00  0.00     0.049 A 
ATOM     56  H   UNL A   1      43.568  28.055  31.249  1.00  0.00     0.167 HD
ATOM     57  C   UNL A   1      45.100  25.727  30.759  1.00  0.00     0.074 A 
ATOM     58  C   UNL A   1      45.515  24.450  30.216  1.00  0.00     0.031 C 
ATOM     59  C   UNL A   1      45.833  26.458  31.633  1.00  0.00     0.031 A 
BRANCH  46  60
ATOM     60  C   UNL A   1      43.198  31.801  33.259  1.00  0.00    -0.014 A 
ATOM     61  C   UNL A   1      42.710  31.905  34.572  1.00  0.00     0.009 A 
ATOM     62  C   UNL A   1      43.823  32.916  32.678  1.00  0.00     0.009 A 
ATOM     63  C   UNL A   1      42.812  33.109  35.272  1.00  0.00     0.001 A 
ATOM     64  C   UNL A   1      43.948  34.111  33.391  1.00  0.00     0.001 A 
ATOM     65  C   UNL A   1      43.434  34.209  34.683  1.00  0.00     0.000 A 
ENDBRANCH  46  60
BRANCH  47  66
ATOM     66  C   UNL A   1      42.228  23.554  27.743  1.00  0.00    -0.014 A 
ATOM     67  C   UNL A   1      41.701  22.370  28.282  1.00  0.00     0.009 A 
ATOM     68  C   UNL A   1      42.635  23.567  26.399  1.00  0.00     0.009 A 
ATOM     69  C   UNL A   1      41.607  21.217  27.500  1.00  0.00     0.001 A 
ATOM     70  C   UNL A   1      42.514  22.420  25.613  1.00  0.00     0.001 A 
ATOM     71  C   UNL A   1      42.008  21.244  26.164  1.00  0.00     0.000 A 
ENDBRANCH  47  66
BRANCH  59  72
ATOM     72  C   UNL A   1      47.145  25.879  32.081  1.00  0.00    -0.014 A 
ATOM     73  C   UNL A   1      48.320  26.084  31.342  1.00  0.00     0.009 A 
ATOM     74  C   UNL A   1      47.208  25.147  33.276  1.00  0.00     0.009 A 
ATOM     75  C   UNL A   1      49.529  25.540  31.778  1.00  0.00     0.001 A 
ATOM     76  C   UNL A   1      48.425  24.628  33.723  1.00  0.00     0.001 A 
ATOM     77  C   UNL A   1      49.582  24.817  32.969  1.00  0.00     0.000 A 
ENDBRANCH  59  72
ENDBRANCH  33  34
ENDBRANCH  25  28
ENDBRANCH  23  24
ENDBRANCH  22  23
ENDBRANCH   1  22
TORSDOF 14
ENDMDL
MODEL 3
REMARK VINA RESULT:     -10.5      2.263      7.156
REMARK SMILES COC[C@H](C)Oc1cnc2ccccc2c1C(=O)NCCCNC(=O)c1ccc(-c2c3nc(c(-c4ccccc4)c4ccc([nH]4)c(-c4ccccc4)c4nc(c(-c5ccccc5)c5ccc2[nH]5)C=C4)C=C3)cc1
REMARK SMILES IDX 20 1 19 2 17 3 18 4 16 6 7 7 8 8 9 9 15 10 10 11 14 12 11 13
REMARK SMILES IDX 13 14 12 15 6 16 4 17 5 18 3 19 2 20 1 21 21 22 22 23 23 24
REMARK SMILES IDX 24 25 25 27 26 28 27 29 73 30 28 31 72 32 29 33 30 34 31 35
REMARK SMILES IDX 66 36 32 37 71 38 65 39 67 40 33 41 70 42 64 43 63 44 34 46
REMARK SMILES IDX 56 47 41 48 55 49 42 50 45 51 54 52 68 53 43 54 44 55 53 57
REMARK SMILES IDX 69 58 46 59 35 60 36 61 40 62 37 63 39 64 38 65 57 66 58 67
REMARK SMILES IDX 62 68 59 69 61 70 60 71 47 72 48 73 52 74 49 75 51 76 50 77
REMARK H PARENT 19 5 23 26 67 45 45 56
REMARK Flexibility Score: inf
ROOT
ATOM      1  C   UNL A   1      37.330  21.576  24.854  1.00  0.00     0.118 C 
ENDROOT
BRANCH   1   2
ATOM      2  N   UNL A   1      36.355  21.446  25.926  1.00  0.00    -0.352 N 
ATOM      3  C   UNL A   1      35.001  21.250  26.049  1.00  0.00     0.255 C 
ATOM      4  O   UNL A   1      34.596  21.512  27.188  1.00  0.00    -0.269 OA
ATOM      5  H   UNL A   1      36.787  21.521  26.808  1.00  0.00     0.163 HD
BRANCH   3   6
ATOM      6  C   UNL A   1      34.018  20.727  25.024  1.00  0.00     0.092 A 
ATOM      7  C   UNL A   1      33.087  21.676  24.540  1.00  0.00     0.151 A 
ATOM      8  C   UNL A   1      32.240  21.302  23.513  1.00  0.00     0.159 A 
ATOM      9  N   UNL A   1      32.091  20.047  23.065  1.00  0.00    -0.252 NA
ATOM     10  C   UNL A   1      33.962  19.407  24.460  1.00  0.00     0.017 A 
ATOM     11  C   UNL A   1      32.909  19.120  23.557  1.00  0.00     0.071 A 
ATOM     12  C   UNL A   1      34.879  18.351  24.650  1.00  0.00     0.011 A 
ATOM     13  C   UNL A   1      32.704  17.830  23.087  1.00  0.00     0.029 A 
ATOM     14  C   UNL A   1      34.666  17.050  24.187  1.00  0.00     0.001 A 
ATOM     15  C   UNL A   1      33.548  16.780  23.426  1.00  0.00     0.002 A 
BRANCH   7  16
ATOM     16  O   UNL A   1      33.060  22.964  24.996  1.00  0.00    -0.486 OA
BRANCH  16  17
ATOM     17  C   UNL A   1      33.819  23.968  24.294  1.00  0.00     0.196 C 
ATOM     18  C   UNL A   1      34.774  24.739  25.204  1.00  0.00     0.055 C 
BRANCH  17  19
ATOM     19  C   UNL A   1      34.391  23.572  22.910  1.00  0.00     0.204 C 
BRANCH  19  20
ATOM     20  O   UNL A   1      33.720  24.094  21.766  1.00  0.00    -0.381 OA
ATOM     21  C   UNL A   1      32.714  25.056  22.035  1.00  0.00     0.195 C 
ENDBRANCH  19  20
ENDBRANCH  17  19
ENDBRANCH  16  17
ENDBRANCH   7  16
ENDBRANCH   3   6
ENDBRANCH   1   2
BRANCH   1  22
ATOM     22  C   UNL A   1      38.215  20.316  24.806  1.00  0.00     0.042 C 
BRANCH  22  23
ATOM     23  C   UNL A   1      38.880  19.942  26.125  1.00  0.00     0.118 C 
BRANCH  23  24
ATOM     24  N   UNL A   1      40.132  19.232  25.917  1.00  0.00    -0.352 N 
ATOM     25  C   UNL A   1      41.429  19.679  25.940  1.00  0.00     0.251 C 
ATOM     26  H   UNL A   1      40.032  18.271  25.729  1.00  0.00     0.163 HD
ATOM     27  O   UNL A   1      42.312  18.952  25.475  1.00  0.00    -0.269 OA
BRANCH  25  28
ATOM     28  C   UNL A   1      41.807  21.004  26.494  1.00  0.00     0.039 A 
ATOM     29  C   UNL A   1      41.794  21.178  27.884  1.00  0.00     0.014 A 
ATOM     30  C   UNL A   1      42.085  22.102  25.675  1.00  0.00     0.014 A 
ATOM     31  C   UNL A   1      42.103  22.423  28.446  1.00  0.00     0.010 A 
ATOM     32  C   UNL A   1      42.471  23.321  26.237  1.00  0.00     0.010 A 
ATOM     33  C   UNL A   1      42.471  23.501  27.628  1.00  0.00    -0.014 A 
BRANCH  33  34
ATOM     34  C   UNL A   1      42.841  24.823  28.201  1.00  0.00     0.031 A 
ATOM     35  C   UNL A   1      41.789  25.878  28.424  1.00  0.00     0.074 A 
ATOM     36  C   UNL A   1      44.132  25.105  28.465  1.00  0.00     0.049 A 
ATOM     37  N   UNL A   1      41.930  27.117  28.823  1.00  0.00    -0.248 NA
ATOM     38  C   UNL A   1      40.397  25.497  28.135  1.00  0.00     0.031 C 
ATOM     39  C   UNL A   1      45.258  24.188  28.270  1.00  0.00     0.029 A 
ATOM     40  N   UNL A   1      44.718  26.252  28.942  1.00  0.00    -0.354 N 
ATOM     41  C   UNL A   1      40.654  27.670  28.806  1.00  0.00     0.074 A 
ATOM     42  C   UNL A   1      39.758  26.643  28.321  1.00  0.00     0.031 C 
ATOM     43  C   UNL A   1      46.393  24.801  28.644  1.00  0.00     0.029 A 
ATOM     44  C   UNL A   1      46.084  26.164  29.061  1.00  0.00     0.049 A 
ATOM     45  H   UNL A   1      44.208  27.061  29.175  1.00  0.00     0.167 HD
ATOM     46  C   UNL A   1      40.259  28.913  29.173  1.00  0.00     0.031 A 
ATOM     47  C   UNL A   1      46.991  27.080  29.453  1.00  0.00     0.031 A 
ATOM     48  C   UNL A   1      41.143  29.931  29.676  1.00  0.00     0.049 A 
ATOM     49  C   UNL A   1      46.529  28.453  29.849  1.00  0.00     0.074 A 
ATOM     50  C   UNL A   1      40.827  31.200  30.129  1.00  0.00     0.029 A 
ATOM     51  N   UNL A   1      42.516  29.794  29.793  1.00  0.00    -0.354 N 
ATOM     52  N   UNL A   1      45.313  28.940  29.876  1.00  0.00    -0.248 NA
ATOM     53  C   UNL A   1      47.568  29.401  30.278  1.00  0.00     0.031 C 
ATOM     54  C   UNL A   1      42.017  31.848  30.480  1.00  0.00     0.029 A 
ATOM     55  C   UNL A   1      43.066  30.963  30.291  1.00  0.00     0.049 A 
ATOM     56  H   UNL A   1      43.026  28.985  29.556  1.00  0.00     0.167 HD
ATOM     57  C   UNL A   1      45.436  30.241  30.346  1.00  0.00     0.074 A 
ATOM     58  C   UNL A   1      46.843  30.463  30.605  1.00  0.00     0.031 C 
ATOM     59  C   UNL A   1      44.469  31.170  30.543  1.00  0.00     0.031 A 
BRANCH  46  60
ATOM     60  C   UNL A   1      38.798  29.243  29.036  1.00  0.00    -0.014 A 
ATOM     61  C   UNL A   1      38.265  29.704  27.822  1.00  0.00     0.009 A 
ATOM     62  C   UNL A   1      37.935  29.058  30.128  1.00  0.00     0.009 A 
ATOM     63  C   UNL A   1      36.907  30.009  27.714  1.00  0.00     0.001 A 
ATOM     64  C   UNL A   1      36.572  29.338  30.010  1.00  0.00     0.001 A 
ATOM     65  C   UNL A   1      36.061  29.823  28.807  1.00  0.00     0.000 A 
ENDBRANCH  46  60
BRANCH  47  66
ATOM     66  C   UNL A   1      48.433  26.724  29.499  1.00  0.00    -0.014 A 
ATOM     67  C   UNL A   1      48.968  26.074  30.622  1.00  0.00     0.009 A 
ATOM     68  C   UNL A   1      49.281  27.030  28.423  1.00  0.00     0.009 A 
ATOM     69  C   UNL A   1      50.327  25.759  30.676  1.00  0.00     0.001 A 
ATOM     70  C   UNL A   1      50.634  26.689  28.469  1.00  0.00     0.001 A 
ATOM     71  C   UNL A   1      51.158  26.062  29.598  1.00  0.00     0.000 A 
ENDBRANCH  47  66
BRANCH  59  72
ATOM     72  C   UNL A   1      44.898  32.499  31.095  1.00  0.00    -0.014 A 
ATOM     73  C   UNL A   1      44.974  32.721  32.478  1.00  0.00     0.009 A 
ATOM     74  C   UNL A   1      45.264  33.530  30.217  1.00  0.00     0.009 A 
ATOM     75  C   UNL A   1      45.379  33.963  32.971  1.00  0.00     0.001 A 
ATOM     76  C   UNL A   1      45.694  34.762  30.713  1.00  0.00     0.001 A 
ATOM     77  C   UNL A   1      45.743  34.980  32.089  1.00  0.00     0.000 A 
ENDBRANCH  59  72
ENDBRANCH  33  34
ENDBRANCH  25  28
ENDBRANCH  23  24
ENDBRANCH  22  23
ENDBRANCH   1  22
TORSDOF 14
ENDMDL
