MODEL 1
REMARK VINA RESULT:     -11.5      0.000      0.000
REMARK SMILES O=C(NCCCNC(=O)c1cc(-c2ccn(C(F)F)c(=O)c2)ccc1O)c1ccc(-c2c3nc(c(-c4ccccc4)c4ccc([nH]4)c(-c4ccccc4)c4nc(c(-c5ccccc5)c5ccc2[nH]5)C=C4)C=C3)cc1
REMARK SMILES IDX 5 1 4 2 3 3 1 4 2 5 27 7 28 8 74 9 29 10 73 11 30 12 31 13
REMARK SMILES IDX 32 14 67 15 33 16 72 17 66 18 68 19 34 20 71 21 65 22 64 23
REMARK SMILES IDX 35 25 57 26 42 27 56 28 43 29 46 30 55 31 69 32 44 33 45 34
REMARK SMILES IDX 54 36 70 37 47 38 36 39 37 40 41 41 38 42 40 43 39 44 58 45
REMARK SMILES IDX 59 46 63 47 60 48 62 49 61 50 48 51 49 52 53 53 50 54 52 55
REMARK SMILES IDX 51 56 6 57 7 58 8 59 9 61 10 62 11 63 25 64 12 65 24 66
REMARK SMILES IDX 23 67 26 68 13 70 14 71 22 72 15 73 20 74 16 75 21 76 17 77
REMARK SMILES IDX 18 78 19 79
REMARK H PARENT 3 6 68 24 46 35 7 60 26 69
REMARK Flexibility Score: inf
ROOT
ATOM      1  C   UNL A   1      34.025  28.365  25.802  1.00  0.00     0.042 C 
ENDROOT
BRANCH   1   2
ATOM      2  C   UNL A   1      33.588  28.575  27.241  1.00  0.00     0.118 C 
BRANCH   2   3
ATOM      3  N   UNL A   1      33.577  29.980  27.619  1.00  0.00    -0.352 N 
ATOM      4  O   UNL A   1      34.224  31.844  28.698  1.00  0.00    -0.269 OA
ATOM      5  C   UNL A   1      34.519  30.727  28.278  1.00  0.00     0.251 C 
ATOM      6  H   UNL A   1      32.765  30.473  27.360  1.00  0.00     0.163 HD
BRANCH   5   7
ATOM      7  C   UNL A   1      35.886  30.204  28.488  1.00  0.00     0.039 A 
ATOM      8  C   UNL A   1      36.227  29.690  29.744  1.00  0.00     0.014 A 
ATOM      9  C   UNL A   1      36.850  30.276  27.480  1.00  0.00     0.014 A 
ATOM     10  C   UNL A   1      37.523  29.226  29.977  1.00  0.00     0.010 A 
ATOM     11  C   UNL A   1      38.112  29.731  27.683  1.00  0.00     0.010 A 
ATOM     12  C   UNL A   1      38.471  29.231  28.942  1.00  0.00    -0.014 A 
BRANCH  12  13
ATOM     13  C   UNL A   1      39.865  28.777  29.160  1.00  0.00     0.031 A 
ATOM     14  C   UNL A   1      40.879  29.735  29.721  1.00  0.00     0.074 A 
ATOM     15  C   UNL A   1      40.234  27.536  28.795  1.00  0.00     0.049 A 
ATOM     16  N   UNL A   1      42.164  29.567  29.894  1.00  0.00    -0.248 NA
ATOM     17  C   UNL A   1      40.390  31.067  30.115  1.00  0.00     0.031 C 
ATOM     18  C   UNL A   1      39.343  26.522  28.234  1.00  0.00     0.029 A 
ATOM     19  N   UNL A   1      41.461  26.922  28.834  1.00  0.00    -0.354 N 
ATOM     20  C   UNL A   1      42.638  30.777  30.384  1.00  0.00     0.074 A 
ATOM     21  C   UNL A   1      41.515  31.684  30.440  1.00  0.00     0.031 C 
ATOM     22  C   UNL A   1      40.046  25.403  28.004  1.00  0.00     0.029 A 
ATOM     23  C   UNL A   1      41.447  25.637  28.348  1.00  0.00     0.049 A 
ATOM     24  H   UNL A   1      42.273  27.359  29.178  1.00  0.00     0.167 HD
ATOM     25  C   UNL A   1      43.896  31.093  30.769  1.00  0.00     0.031 A 
ATOM     26  C   UNL A   1      42.447  24.750  28.181  1.00  0.00     0.031 A 
ATOM     27  C   UNL A   1      44.998  30.171  30.739  1.00  0.00     0.049 A 
ATOM     28  C   UNL A   1      43.843  25.131  28.581  1.00  0.00     0.074 A 
ATOM     29  C   UNL A   1      46.288  30.367  31.197  1.00  0.00     0.029 A 
ATOM     30  N   UNL A   1      44.946  28.888  30.215  1.00  0.00    -0.354 N 
ATOM     31  N   UNL A   1      44.267  26.254  29.113  1.00  0.00    -0.248 NA
ATOM     32  C   UNL A   1      44.901  24.134  28.364  1.00  0.00     0.031 C 
ATOM     33  C   UNL A   1      47.039  29.238  30.868  1.00  0.00     0.029 A 
ATOM     34  C   UNL A   1      46.197  28.303  30.285  1.00  0.00     0.049 A 
ATOM     35  H   UNL A   1      44.139  28.458  29.849  1.00  0.00     0.167 HD
ATOM     36  C   UNL A   1      45.633  26.095  29.304  1.00  0.00     0.074 A 
ATOM     37  C   UNL A   1      45.967  24.761  28.847  1.00  0.00     0.031 C 
ATOM     38  C   UNL A   1      46.526  26.979  29.813  1.00  0.00     0.031 A 
BRANCH  25  39
ATOM     39  C   UNL A   1      44.162  32.495  31.248  1.00  0.00    -0.014 A 
ATOM     40  C   UNL A   1      44.052  32.790  32.618  1.00  0.00     0.009 A 
ATOM     41  C   UNL A   1      44.434  33.541  30.353  1.00  0.00     0.009 A 
ATOM     42  C   UNL A   1      44.197  34.099  33.078  1.00  0.00     0.001 A 
ATOM     43  C   UNL A   1      44.615  34.845  30.820  1.00  0.00     0.001 A 
ATOM     44  C   UNL A   1      44.485  35.124  32.181  1.00  0.00     0.000 A 
ENDBRANCH  25  39
BRANCH  26  45
ATOM     45  C   UNL A   1      42.122  23.408  27.631  1.00  0.00    -0.014 A 
ATOM     46  C   UNL A   1      42.206  23.160  26.250  1.00  0.00     0.009 A 
ATOM     47  C   UNL A   1      41.608  22.406  28.467  1.00  0.00     0.009 A 
ATOM     48  C   UNL A   1      41.734  21.961  25.712  1.00  0.00     0.001 A 
ATOM     49  C   UNL A   1      41.164  21.195  27.930  1.00  0.00     0.001 A 
ATOM     50  C   UNL A   1      41.211  20.980  26.553  1.00  0.00     0.000 A 
ENDBRANCH  26  45
BRANCH  38  51
ATOM     51  C   UNL A   1      47.970  26.569  29.903  1.00  0.00    -0.014 A 
ATOM     52  C   UNL A   1      48.825  26.775  28.807  1.00  0.00     0.009 A 
ATOM     53  C   UNL A   1      48.441  25.836  31.003  1.00  0.00     0.009 A 
ATOM     54  C   UNL A   1      50.104  26.220  28.791  1.00  0.00     0.001 A 
ATOM     55  C   UNL A   1      49.735  25.311  30.999  1.00  0.00     0.001 A 
ATOM     56  C   UNL A   1      50.558  25.489  29.887  1.00  0.00     0.000 A 
ENDBRANCH  38  51
ENDBRANCH  12  13
ENDBRANCH   5   7
ENDBRANCH   2   3
ENDBRANCH   1   2
BRANCH   1  57
ATOM     57  C   UNL A   1      33.010  28.836  24.774  1.00  0.00     0.118 C 
BRANCH  57  58
ATOM     58  N   UNL A   1      31.680  28.300  25.013  1.00  0.00    -0.352 N 
ATOM     59  C   UNL A   1      31.112  27.165  24.486  1.00  0.00     0.255 C 
ATOM     60  H   UNL A   1      31.114  28.815  25.631  1.00  0.00     0.163 HD
ATOM     61  O   UNL A   1      29.938  26.889  24.723  1.00  0.00    -0.269 OA
BRANCH  59  62
ATOM     62  C   UNL A   1      31.891  26.322  23.558  1.00  0.00     0.082 A 
ATOM     63  C   UNL A   1      32.701  25.328  24.122  1.00  0.00     0.026 A 
ATOM     64  C   UNL A   1      31.819  26.471  22.168  1.00  0.00     0.128 A 
ATOM     65  C   UNL A   1      33.386  24.436  23.291  1.00  0.00    -0.017 A 
ATOM     66  C   UNL A   1      32.479  25.573  21.335  1.00  0.00     0.047 A 
ATOM     67  C   UNL A   1      33.249  24.554  21.898  1.00  0.00     0.012 A 
BRANCH  64  68
ATOM     68  O   UNL A   1      31.078  27.479  21.615  1.00  0.00    -0.507 OA
ATOM     69  H   UNL A   1      31.450  28.333  21.516  1.00  0.00     0.293 HD
ENDBRANCH  64  68
BRANCH  65  70
ATOM     70  C   UNL A   1      34.265  23.383  23.833  1.00  0.00    -0.011 A 
ATOM     71  C   UNL A   1      35.677  23.325  23.509  1.00  0.00     0.027 A 
ATOM     72  C   UNL A   1      33.733  22.414  24.599  1.00  0.00     0.080 A 
ATOM     73  C   UNL A   1      36.429  22.296  23.911  1.00  0.00     0.095 A 
ATOM     74  C   UNL A   1      34.563  21.269  25.071  1.00  0.00     0.255 A 
ATOM     75  N   UNL A   1      35.888  21.274  24.665  1.00  0.00    -0.258 N 
ATOM     76  O   UNL A   1      34.028  20.401  25.754  1.00  0.00    -0.269 OA
BRANCH  75  77
ATOM     77  C   UNL A   1      36.694  20.140  25.039  1.00  0.00     0.451 C 
ATOM     78  F   UNL A   1      36.138  18.978  24.621  1.00  0.00    -0.185 F 
ATOM     79  F   UNL A   1      37.934  20.232  24.500  1.00  0.00    -0.185 F 
ENDBRANCH  75  77
ENDBRANCH  65  70
ENDBRANCH  59  62
ENDBRANCH  57  58
ENDBRANCH   1  57
TORSDOF 13
ENDMDL
MODEL 2
REMARK VINA RESULT:     -11.4      2.585      7.821
REMARK SMILES O=C(NCCCNC(=O)c1cc(-c2ccn(C(F)F)c(=O)c2)ccc1O)c1ccc(-c2c3nc(c(-c4ccccc4)c4ccc([nH]4)c(-c4ccccc4)c4nc(c(-c5ccccc5)c5ccc2[nH]5)C=C4)C=C3)cc1
REMARK SMILES IDX 5 1 4 2 3 3 1 4 2 5 27 7 28 8 74 9 29 10 73 11 30 12 31 13
REMARK SMILES IDX 32 14 67 15 33 16 72 17 66 18 68 19 34 20 71 21 65 22 64 23
REMARK SMILES IDX 35 25 57 26 42 27 56 28 43 29 46 30 55 31 69 32 44 33 45 34
REMARK SMILES IDX 54 36 70 37 47 38 36 39 37 40 41 41 38 42 40 43 39 44 58 45
REMARK SMILES IDX 59 46 63 47 60 48 62 49 61 50 48 51 49 52 53 53 50 54 52 55
REMARK SMILES IDX 51 56 6 57 7 58 8 59 9 61 10 62 11 63 25 64 12 65 24 66
REMARK SMILES IDX 23 67 26 68 13 70 14 71 22 72 15 73 20 74 16 75 21 76 17 77
REMARK SMILES IDX 18 78 19 79
REMARK H PARENT 3 6 68 24 46 35 7 60 26 69
REMARK Flexibility Score: inf
ROOT
ATOM      1  C   UNL A   1      37.892  19.667  24.935  1.00  0.00     0.042 C 
ENDROOT
BRANCH   1   2
ATOM      2  C   UNL A   1      39.014  20.143  25.842  1.00  0.00     0.118 C 
BRANCH   2   3
ATOM      3  N   UNL A   1      40.148  19.232  25.847  1.00  0.00    -0.352 N 
ATOM      4  O   UNL A   1      42.307  18.605  25.772  1.00  0.00    -0.269 OA
ATOM      5  C   UNL A   1      41.484  19.483  26.027  1.00  0.00     0.251 C 
ATOM      6  H   UNL A   1      39.921  18.286  25.697  1.00  0.00     0.163 HD
BRANCH   5   7
ATOM      7  C   UNL A   1      41.945  20.796  26.525  1.00  0.00     0.039 A 
ATOM      8  C   UNL A   1      42.004  21.011  27.906  1.00  0.00     0.014 A 
ATOM      9  C   UNL A   1      42.256  21.834  25.644  1.00  0.00     0.014 A 
ATOM     10  C   UNL A   1      42.400  22.256  28.399  1.00  0.00     0.010 A 
ATOM     11  C   UNL A   1      42.737  23.042  26.135  1.00  0.00     0.010 A 
ATOM     12  C   UNL A   1      42.783  23.276  27.516  1.00  0.00    -0.014 A 
BRANCH  12  13
ATOM     13  C   UNL A   1      43.177  24.620  28.001  1.00  0.00     0.031 A 
ATOM     14  C   UNL A   1      42.118  25.649  28.282  1.00  0.00     0.074 A 
ATOM     15  C   UNL A   1      44.479  24.936  28.124  1.00  0.00     0.049 A 
ATOM     16  N   UNL A   1      42.258  26.905  28.616  1.00  0.00    -0.248 NA
ATOM     17  C   UNL A   1      40.717  25.217  28.144  1.00  0.00     0.031 C 
ATOM     18  C   UNL A   1      45.595  24.026  27.873  1.00  0.00     0.029 A 
ATOM     19  N   UNL A   1      45.081  26.116  28.483  1.00  0.00    -0.354 N 
ATOM     20  C   UNL A   1      40.969  27.418  28.695  1.00  0.00     0.074 A 
ATOM     21  C   UNL A   1      40.063  26.352  28.333  1.00  0.00     0.031 C 
ATOM     22  C   UNL A   1      46.746  24.673  28.109  1.00  0.00     0.029 A 
ATOM     23  C   UNL A   1      46.453  26.057  28.474  1.00  0.00     0.049 A 
ATOM     24  H   UNL A   1      44.578  26.928  28.724  1.00  0.00     0.167 HD
ATOM     25  C   UNL A   1      40.580  28.662  29.057  1.00  0.00     0.031 A 
ATOM     26  C   UNL A   1      47.375  27.009  28.715  1.00  0.00     0.031 A 
ATOM     27  C   UNL A   1      41.489  29.703  29.447  1.00  0.00     0.049 A 
ATOM     28  C   UNL A   1      46.924  28.395  29.080  1.00  0.00     0.074 A 
ATOM     29  C   UNL A   1      41.188  30.967  29.921  1.00  0.00     0.029 A 
ATOM     30  N   UNL A   1      42.873  29.609  29.399  1.00  0.00    -0.354 N 
ATOM     31  N   UNL A   1      45.701  28.848  29.225  1.00  0.00    -0.248 NA
ATOM     32  C   UNL A   1      47.970  29.400  29.318  1.00  0.00     0.031 C 
ATOM     33  C   UNL A   1      42.385  31.668  30.073  1.00  0.00     0.029 A 
ATOM     34  C   UNL A   1      43.437  30.814  29.779  1.00  0.00     0.049 A 
ATOM     35  H   UNL A   1      43.376  28.806  29.135  1.00  0.00     0.167 HD
ATOM     36  C   UNL A   1      45.829  30.185  29.579  1.00  0.00     0.074 A 
ATOM     37  C   UNL A   1      47.248  30.466  29.645  1.00  0.00     0.031 C 
ATOM     38  C   UNL A   1      44.852  31.092  29.827  1.00  0.00     0.031 A 
BRANCH  25  39
ATOM     39  C   UNL A   1      39.108  28.980  29.041  1.00  0.00    -0.014 A 
ATOM     40  C   UNL A   1      38.524  29.490  27.869  1.00  0.00     0.009 A 
ATOM     41  C   UNL A   1      38.315  28.861  30.193  1.00  0.00     0.009 A 
ATOM     42  C   UNL A   1      37.186  29.885  27.854  1.00  0.00     0.001 A 
ATOM     43  C   UNL A   1      36.967  29.222  30.166  1.00  0.00     0.001 A 
ATOM     44  C   UNL A   1      36.406  29.745  29.000  1.00  0.00     0.000 A 
ENDBRANCH  25  39
BRANCH  26  45
ATOM     45  C   UNL A   1      48.814  26.642  28.639  1.00  0.00    -0.014 A 
ATOM     46  C   UNL A   1      49.507  26.224  29.788  1.00  0.00     0.009 A 
ATOM     47  C   UNL A   1      49.529  26.826  27.447  1.00  0.00     0.009 A 
ATOM     48  C   UNL A   1      50.893  26.051  29.759  1.00  0.00     0.001 A 
ATOM     49  C   UNL A   1      50.911  26.623  27.413  1.00  0.00     0.001 A 
ATOM     50  C   UNL A   1      51.594  26.253  28.571  1.00  0.00     0.000 A 
ENDBRANCH  26  45
BRANCH  38  51
ATOM     51  C   UNL A   1      45.253  32.498  30.182  1.00  0.00    -0.014 A 
ATOM     52  C   UNL A   1      45.456  32.848  31.528  1.00  0.00     0.009 A 
ATOM     53  C   UNL A   1      45.269  33.507  29.208  1.00  0.00     0.009 A 
ATOM     54  C   UNL A   1      45.624  34.182  31.896  1.00  0.00     0.001 A 
ATOM     55  C   UNL A   1      45.472  34.839  29.576  1.00  0.00     0.001 A 
ATOM     56  C   UNL A   1      45.633  35.177  30.920  1.00  0.00     0.000 A 
ENDBRANCH  38  51
ENDBRANCH  12  13
ENDBRANCH   5   7
ENDBRANCH   2   3
ENDBRANCH   1   2
BRANCH   1  57
ATOM     57  C   UNL A   1      36.627  20.504  25.027  1.00  0.00     0.118 C 
BRANCH  57  58
ATOM     58  N   UNL A   1      35.432  19.754  24.676  1.00  0.00    -0.352 N 
ATOM     59  C   UNL A   1      34.119  20.092  24.899  1.00  0.00     0.255 C 
ATOM     60  H   UNL A   1      35.582  18.894  24.221  1.00  0.00     0.163 HD
ATOM     61  O   UNL A   1      33.218  19.306  24.616  1.00  0.00    -0.269 OA
BRANCH  59  62
ATOM     62  C   UNL A   1      33.796  21.370  25.564  1.00  0.00     0.082 A 
ATOM     63  C   UNL A   1      33.885  22.535  24.792  1.00  0.00     0.026 A 
ATOM     64  C   UNL A   1      33.389  21.437  26.902  1.00  0.00     0.128 A 
ATOM     65  C   UNL A   1      33.497  23.762  25.339  1.00  0.00    -0.017 A 
ATOM     66  C   UNL A   1      32.981  22.651  27.446  1.00  0.00     0.047 A 
ATOM     67  C   UNL A   1      33.026  23.804  26.661  1.00  0.00     0.012 A 
BRANCH  64  68
ATOM     68  O   UNL A   1      33.361  20.311  27.678  1.00  0.00    -0.507 OA
ATOM     69  H   UNL A   1      32.662  20.181  28.288  1.00  0.00     0.293 HD
ENDBRANCH  64  68
BRANCH  65  70
ATOM     70  C   UNL A   1      33.587  25.020  24.574  1.00  0.00    -0.011 A 
ATOM     71  C   UNL A   1      33.633  26.312  25.233  1.00  0.00     0.027 A 
ATOM     72  C   UNL A   1      33.564  24.974  23.230  1.00  0.00     0.080 A 
ATOM     73  C   UNL A   1      33.590  27.443  24.521  1.00  0.00     0.095 A 
ATOM     74  C   UNL A   1      33.535  26.227  22.422  1.00  0.00     0.255 A 
ATOM     75  N   UNL A   1      33.528  27.412  23.142  1.00  0.00    -0.258 N 
ATOM     76  O   UNL A   1      33.498  26.133  21.200  1.00  0.00    -0.269 OA
BRANCH  75  77
ATOM     77  C   UNL A   1      33.420  28.636  22.391  1.00  0.00     0.451 C 
ATOM     78  F   UNL A   1      32.132  29.043  22.289  1.00  0.00    -0.185 F 
ATOM     79  F   UNL A   1      34.130  29.627  22.982  1.00  0.00    -0.185 F 
ENDBRANCH  75  77
ENDBRANCH  65  70
ENDBRANCH  59  62
ENDBRANCH  57  58
ENDBRANCH   1  57
TORSDOF 13
ENDMDL
MODEL 3
REMARK VINA RESULT:     -11.4      4.177      7.000
REMARK SMILES O=C(NCCCNC(=O)c1cc(-c2ccn(C(F)F)c(=O)c2)ccc1O)c1ccc(-c2c3nc(c(-c4ccccc4)c4ccc([nH]4)c(-c4ccccc4)c4nc(c(-c5ccccc5)c5ccc2[nH]5)C=C4)C=C3)cc1
REMARK SMILES IDX 5 1 4 2 3 3 1 4 2 5 27 7 28 8 74 9 29 10 73 11 30 12 31 13
REMARK SMILES IDX 32 14 67 15 33 16 72 17 66 18 68 19 34 20 71 21 65 22 64 23
REMARK SMILES IDX 35 25 57 26 42 27 56 28 43 29 46 30 55 31 69 32 44 33 45 34
REMARK SMILES IDX 54 36 70 37 47 38 36 39 37 40 41 41 38 42 40 43 39 44 58 45
REMARK SMILES IDX 59 46 63 47 60 48 62 49 61 50 48 51 49 52 53 53 50 54 52 55
REMARK SMILES IDX 51 56 6 57 7 58 8 59 9 61 10 62 11 63 25 64 12 65 24 66
REMARK SMILES IDX 23 67 26 68 13 70 14 71 22 72 15 73 20 74 16 75 21 76 17 77
REMARK SMILES IDX 18 78 19 79
REMARK H PARENT 3 6 68 24 46 35 7 60 26 69
REMARK Flexibility Score: inf
ROOT
ATOM      1  C   UNL A   1      34.440  33.456  29.399  1.00  0.00     0.042 C 
ENDROOT
BRANCH   1   2
ATOM      2  C   UNL A   1      34.668  32.896  28.006  1.00  0.00     0.118 C 
BRANCH   2   3
ATOM      3  N   UNL A   1      33.915  31.674  27.768  1.00  0.00    -0.352 N 
ATOM      4  O   UNL A   1      33.574  29.519  27.222  1.00  0.00    -0.269 OA
ATOM      5  C   UNL A   1      34.347  30.378  27.644  1.00  0.00     0.251 C 
ATOM      6  H   UNL A   1      32.942  31.796  27.683  1.00  0.00     0.163 HD
BRANCH   5   7
ATOM      7  C   UNL A   1      35.728  30.004  28.013  1.00  0.00     0.039 A 
ATOM      8  C   UNL A   1      36.729  30.071  27.039  1.00  0.00     0.014 A 
ATOM      9  C   UNL A   1      36.029  29.526  29.291  1.00  0.00     0.014 A 
ATOM     10  C   UNL A   1      38.033  29.685  27.355  1.00  0.00     0.010 A 
ATOM     11  C   UNL A   1      37.344  29.230  29.631  1.00  0.00     0.010 A 
ATOM     12  C   UNL A   1      38.352  29.275  28.658  1.00  0.00    -0.014 A 
BRANCH  12  13
ATOM     13  C   UNL A   1      39.717  28.827  29.022  1.00  0.00     0.031 A 
ATOM     14  C   UNL A   1      40.649  29.777  29.721  1.00  0.00     0.074 A 
ATOM     15  C   UNL A   1      40.141  27.600  28.667  1.00  0.00     0.049 A 
ATOM     16  N   UNL A   1      41.909  29.615  30.034  1.00  0.00    -0.248 NA
ATOM     17  C   UNL A   1      40.103  31.093  30.093  1.00  0.00     0.031 C 
ATOM     18  C   UNL A   1      39.331  26.595  27.980  1.00  0.00     0.029 A 
ATOM     19  N   UNL A   1      41.362  26.995  28.829  1.00  0.00    -0.354 N 
ATOM     20  C   UNL A   1      42.309  30.815  30.608  1.00  0.00     0.074 A 
ATOM     21  C   UNL A   1      41.177  31.710  30.561  1.00  0.00     0.031 C 
ATOM     22  C   UNL A   1      40.069  25.489  27.802  1.00  0.00     0.029 A 
ATOM     23  C   UNL A   1      41.419  25.726  28.310  1.00  0.00     0.049 A 
ATOM     24  H   UNL A   1      42.125  27.430  29.275  1.00  0.00     0.167 HD
ATOM     25  C   UNL A   1      43.511  31.130  31.144  1.00  0.00     0.031 A 
ATOM     26  C   UNL A   1      42.442  24.852  28.234  1.00  0.00     0.031 A 
ATOM     27  C   UNL A   1      44.620  30.220  31.214  1.00  0.00     0.049 A 
ATOM     28  C   UNL A   1      43.779  25.234  28.802  1.00  0.00     0.074 A 
ATOM     29  C   UNL A   1      45.847  30.414  31.822  1.00  0.00     0.029 A 
ATOM     30  N   UNL A   1      44.643  28.951  30.653  1.00  0.00    -0.354 N 
ATOM     31  N   UNL A   1      44.126  26.344  29.409  1.00  0.00    -0.248 NA
ATOM     32  C   UNL A   1      44.866  24.252  28.679  1.00  0.00     0.031 C 
ATOM     33  C   UNL A   1      46.645  29.301  31.550  1.00  0.00     0.029 A 
ATOM     34  C   UNL A   1      45.886  28.376  30.850  1.00  0.00     0.049 A 
ATOM     35  H   UNL A   1      43.889  28.526  30.186  1.00  0.00     0.167 HD
ATOM     36  C   UNL A   1      45.464  26.192  29.750  1.00  0.00     0.074 A 
ATOM     37  C   UNL A   1      45.862  24.875  29.297  1.00  0.00     0.031 C 
ATOM     38  C   UNL A   1      46.282  27.069  30.382  1.00  0.00     0.031 A 
BRANCH  25  39
ATOM     39  C   UNL A   1      43.704  32.521  31.688  1.00  0.00    -0.014 A 
ATOM     40  C   UNL A   1      44.191  33.532  30.843  1.00  0.00     0.009 A 
ATOM     41  C   UNL A   1      43.491  32.818  33.044  1.00  0.00     0.009 A 
ATOM     42  C   UNL A   1      44.472  34.804  31.344  1.00  0.00     0.001 A 
ATOM     43  C   UNL A   1      43.738  34.102  33.535  1.00  0.00     0.001 A 
ATOM     44  C   UNL A   1      44.239  35.090  32.687  1.00  0.00     0.000 A 
ENDBRANCH  25  39
BRANCH  26  45
ATOM     45  C   UNL A   1      42.198  23.523  27.614  1.00  0.00    -0.014 A 
ATOM     46  C   UNL A   1      41.826  22.422  28.405  1.00  0.00     0.009 A 
ATOM     47  C   UNL A   1      42.457  23.320  26.251  1.00  0.00     0.009 A 
ATOM     48  C   UNL A   1      41.770  21.138  27.856  1.00  0.00     0.001 A 
ATOM     49  C   UNL A   1      42.371  22.039  25.698  1.00  0.00     0.001 A 
ATOM     50  C   UNL A   1      42.045  20.949  26.503  1.00  0.00     0.000 A 
ENDBRANCH  26  45
BRANCH  38  51
ATOM     51  C   UNL A   1      47.711  26.668  30.626  1.00  0.00    -0.014 A 
ATOM     52  C   UNL A   1      48.663  26.824  29.604  1.00  0.00     0.009 A 
ATOM     53  C   UNL A   1      48.077  25.992  31.799  1.00  0.00     0.009 A 
ATOM     54  C   UNL A   1      49.938  26.274  29.734  1.00  0.00     0.001 A 
ATOM     55  C   UNL A   1      49.365  25.472  31.940  1.00  0.00     0.001 A 
ATOM     56  C   UNL A   1      50.288  25.599  30.902  1.00  0.00     0.000 A 
ENDBRANCH  38  51
ENDBRANCH  12  13
ENDBRANCH   5   7
ENDBRANCH   2   3
ENDBRANCH   1   2
BRANCH   1  57
ATOM     57  C   UNL A   1      34.929  32.549  30.516  1.00  0.00     0.118 C 
BRANCH  57  58
ATOM     58  N   UNL A   1      34.229  32.777  31.770  1.00  0.00    -0.352 N 
ATOM     59  C   UNL A   1      34.761  33.094  32.996  1.00  0.00     0.255 C 
ATOM     60  H   UNL A   1      33.249  32.693  31.737  1.00  0.00     0.163 HD
ATOM     61  O   UNL A   1      34.038  33.173  33.987  1.00  0.00    -0.269 OA
BRANCH  59  62
ATOM     62  C   UNL A   1      36.222  33.254  33.140  1.00  0.00     0.082 A 
ATOM     63  C   UNL A   1      36.983  32.087  33.287  1.00  0.00     0.026 A 
ATOM     64  C   UNL A   1      36.846  34.506  33.105  1.00  0.00     0.128 A 
ATOM     65  C   UNL A   1      38.378  32.168  33.329  1.00  0.00    -0.017 A 
ATOM     66  C   UNL A   1      38.235  34.593  33.124  1.00  0.00     0.047 A 
ATOM     67  C   UNL A   1      38.994  33.426  33.224  1.00  0.00     0.012 A 
BRANCH  64  68
ATOM     68  O   UNL A   1      36.103  35.651  33.024  1.00  0.00    -0.507 OA
ATOM     69  H   UNL A   1      35.169  35.600  32.968  1.00  0.00     0.293 HD
ENDBRANCH  64  68
BRANCH  65  70
ATOM     70  C   UNL A   1      39.225  30.973  33.500  1.00  0.00    -0.011 A 
ATOM     71  C   UNL A   1      40.559  31.057  34.062  1.00  0.00     0.027 A 
ATOM     72  C   UNL A   1      38.774  29.782  33.067  1.00  0.00     0.080 A 
ATOM     73  C   UNL A   1      41.355  29.983  34.095  1.00  0.00     0.095 A 
ATOM     74  C   UNL A   1      39.642  28.572  33.115  1.00  0.00     0.255 A 
ATOM     75  N   UNL A   1      40.920  28.762  33.619  1.00  0.00    -0.258 N 
ATOM     76  O   UNL A   1      39.191  27.511  32.694  1.00  0.00    -0.269 OA
BRANCH  75  77
ATOM     77  C   UNL A   1      41.808  27.628  33.604  1.00  0.00     0.451 C 
ATOM     78  F   UNL A   1      43.104  28.014  33.660  1.00  0.00    -0.185 F 
ATOM     79  F   UNL A   1      41.565  26.812  34.658  1.00  0.00    -0.185 F 
ENDBRANCH  75  77
ENDBRANCH  65  70
ENDBRANCH  59  62
ENDBRANCH  57  58
ENDBRANCH   1  57
TORSDOF 13
ENDMDL
