MODEL 1
REMARK VINA RESULT:     -11.0      0.000      0.000
REMARK SMILES CCc1cc(OC(F)(F)F)cc2c1O[C@@H](C(F)(F)F)C(C(=O)NCCCNC(=O)c1ccc(-c3c4nc(c(-c5ccccc5)c5ccc([nH]5)c(-c5ccccc5)c5nc(c(-c6ccccc6)c6ccc3[nH]6)C=C5)C=C4)cc1)=C2
REMARK SMILES IDX 25 1 24 2 23 3 21 4 22 5 20 7 3 8 4 9 13 10 5 11 12 12 14 13
REMARK SMILES IDX 11 14 78 15 15 16 2 17 1 18 6 19 7 20 8 21 9 22 10 23 16 24
REMARK SMILES IDX 17 25 18 26 19 27 26 28 27 29 28 30 29 32 30 33 31 34 77 35
REMARK SMILES IDX 32 36 76 37 33 38 34 39 35 40 70 41 36 42 75 43 69 44 71 45
REMARK SMILES IDX 37 46 74 47 68 48 67 49 38 51 60 52 45 53 59 54 46 55 49 56
REMARK SMILES IDX 58 57 72 58 47 59 48 60 57 62 73 63 50 64 39 65 40 66 44 67
REMARK SMILES IDX 41 68 43 69 42 70 61 71 62 72 66 73 63 74 65 75 64 76 51 77
REMARK SMILES IDX 52 78 56 79 53 80 55 81 54 82
REMARK H PARENT 23 6 27 31 71 50 49 61
REMARK Flexibility Score: inf
ROOT
ATOM      1  C   UNL A   1      32.991  28.086  27.377  1.00  0.00     0.042 C 
ENDROOT
BRANCH   1   2
ATOM      2  C   UNL A   1      31.701  28.084  26.550  1.00  0.00     0.118 C 
BRANCH   2   3
ATOM      3  N   UNL A   1      31.985  28.420  25.165  1.00  0.00    -0.352 N 
ATOM      4  C   UNL A   1      32.582  27.734  24.154  1.00  0.00     0.251 C 
ATOM      5  O   UNL A   1      32.833  28.338  23.115  1.00  0.00    -0.270 OA
ATOM      6  H   UNL A   1      31.686  29.322  24.907  1.00  0.00     0.163 HD
BRANCH   4   7
ATOM      7  C   UNL A   1      32.871  26.282  24.235  1.00  0.00     0.067 C 
ATOM      8  C   UNL A   1      33.318  22.104  24.565  1.00  0.00    -0.002 A 
ATOM      9  C   UNL A   1      34.510  21.610  25.148  1.00  0.00     0.054 A 
ATOM     10  C   UNL A   1      33.163  23.494  24.445  1.00  0.00     0.131 A 
ATOM     11  C   UNL A   1      35.518  22.467  25.590  1.00  0.00     0.130 A 
ATOM     12  C   UNL A   1      34.181  24.357  24.866  1.00  0.00     0.021 A 
ATOM     13  O   UNL A   1      31.972  23.985  24.001  1.00  0.00    -0.475 OA
ATOM     14  C   UNL A   1      35.351  23.841  25.432  1.00  0.00     0.058 A 
ATOM     15  C   UNL A   1      33.986  25.799  24.800  1.00  0.00     0.025 C 
ATOM     16  C   UNL A   1      31.921  25.349  23.499  1.00  0.00     0.314 C 
BRANCH   8  17
ATOM     17  C   UNL A   1      32.300  21.056  24.149  1.00  0.00     0.036 C 
ATOM     18  C   UNL A   1      32.631  19.577  24.296  1.00  0.00     0.009 C 
ENDBRANCH   8  17
BRANCH  11  19
ATOM     19  O   UNL A   1      36.687  22.110  26.196  1.00  0.00    -0.406 OA
BRANCH  19  20
ATOM     20  C   UNL A   1      37.857  22.045  25.397  1.00  0.00     0.573 C 
ATOM     21  F   UNL A   1      38.779  22.942  25.805  1.00  0.00    -0.132 F 
ATOM     22  F   UNL A   1      38.389  20.806  25.422  1.00  0.00    -0.132 F 
ATOM     23  F   UNL A   1      37.524  22.337  24.120  1.00  0.00    -0.132 F 
ENDBRANCH  19  20
ENDBRANCH  11  19
BRANCH  16  24
ATOM     24  C   UNL A   1      30.431  25.757  23.472  1.00  0.00     0.429 C 
ATOM     25  F   UNL A   1      30.184  26.798  22.645  1.00  0.00    -0.167 F 
ATOM     26  F   UNL A   1      29.658  24.737  23.009  1.00  0.00    -0.167 F 
ATOM     27  F   UNL A   1      29.962  26.074  24.702  1.00  0.00    -0.167 F 
ENDBRANCH  16  24
ENDBRANCH   4   7
ENDBRANCH   2   3
ENDBRANCH   1   2
BRANCH   1  28
ATOM     28  C   UNL A   1      34.023  29.097  26.885  1.00  0.00     0.118 C 
BRANCH  28  29
ATOM     29  N   UNL A   1      33.907  30.370  27.579  1.00  0.00    -0.352 N 
ATOM     30  C   UNL A   1      34.752  30.954  28.489  1.00  0.00     0.251 C 
ATOM     31  H   UNL A   1      33.100  30.890  27.364  1.00  0.00     0.163 HD
ATOM     32  O   UNL A   1      34.367  31.923  29.135  1.00  0.00    -0.269 OA
BRANCH  30  33
ATOM     33  C   UNL A   1      36.117  30.424  28.704  1.00  0.00     0.039 A 
ATOM     34  C   UNL A   1      37.045  30.523  27.664  1.00  0.00     0.014 A 
ATOM     35  C   UNL A   1      36.467  29.779  29.894  1.00  0.00     0.014 A 
ATOM     36  C   UNL A   1      38.335  30.014  27.830  1.00  0.00     0.010 A 
ATOM     37  C   UNL A   1      37.772  29.330  30.083  1.00  0.00     0.010 A 
ATOM     38  C   UNL A   1      38.715  29.433  29.050  1.00  0.00    -0.014 A 
BRANCH  38  39
ATOM     39  C   UNL A   1      40.092  28.922  29.260  1.00  0.00     0.031 A 
ATOM     40  C   UNL A   1      41.156  29.814  29.837  1.00  0.00     0.074 A 
ATOM     41  C   UNL A   1      40.405  27.673  28.864  1.00  0.00     0.049 A 
ATOM     42  N   UNL A   1      42.425  29.564  30.037  1.00  0.00    -0.248 NA
ATOM     43  C   UNL A   1      40.744  31.176  30.211  1.00  0.00     0.031 C 
ATOM     44  C   UNL A   1      39.477  26.723  28.248  1.00  0.00     0.029 A 
ATOM     45  N   UNL A   1      41.596  26.994  28.910  1.00  0.00    -0.354 N 
ATOM     46  C   UNL A   1      42.967  30.742  30.535  1.00  0.00     0.074 A 
ATOM     47  C   UNL A   1      41.899  31.717  30.568  1.00  0.00     0.031 C 
ATOM     48  C   UNL A   1      40.129  25.580  27.988  1.00  0.00     0.029 A 
ATOM     49  C   UNL A   1      41.525  25.727  28.387  1.00  0.00     0.049 A 
ATOM     50  H   UNL A   1      42.422  27.379  29.282  1.00  0.00     0.167 HD
ATOM     51  C   UNL A   1      44.236  30.987  30.943  1.00  0.00     0.031 A 
ATOM     52  C   UNL A   1      42.478  24.789  28.237  1.00  0.00     0.031 A 
ATOM     53  C   UNL A   1      45.295  30.013  30.921  1.00  0.00     0.049 A 
ATOM     54  C   UNL A   1      43.875  25.075  28.706  1.00  0.00     0.074 A 
ATOM     55  C   UNL A   1      46.594  30.140  31.381  1.00  0.00     0.029 A 
ATOM     56  N   UNL A   1      45.177  28.732  30.405  1.00  0.00    -0.354 N 
ATOM     57  N   UNL A   1      44.354  26.168  29.248  1.00  0.00    -0.248 NA
ATOM     58  C   UNL A   1      44.858  23.993  28.555  1.00  0.00     0.031 C 
ATOM     59  C   UNL A   1      47.277  28.951  31.098  1.00  0.00     0.029 A 
ATOM     60  C   UNL A   1      46.387  28.066  30.510  1.00  0.00     0.049 A 
ATOM     61  H   UNL A   1      44.354  28.351  30.022  1.00  0.00     0.167 HD
ATOM     62  C   UNL A   1      45.689  25.901  29.520  1.00  0.00     0.074 A 
ATOM     63  C   UNL A   1      45.939  24.538  29.099  1.00  0.00     0.031 C 
ATOM     64  C   UNL A   1      46.624  26.713  30.074  1.00  0.00     0.031 A 
BRANCH  51  65
ATOM     65  C   UNL A   1      44.545  32.377  31.427  1.00  0.00    -0.014 A 
ATOM     66  C   UNL A   1      44.999  33.374  30.547  1.00  0.00     0.009 A 
ATOM     67  C   UNL A   1      44.377  32.697  32.783  1.00  0.00     0.009 A 
ATOM     68  C   UNL A   1      45.323  34.645  31.023  1.00  0.00     0.001 A 
ATOM     69  C   UNL A   1      44.673  33.978  33.251  1.00  0.00     0.001 A 
ATOM     70  C   UNL A   1      45.159  34.947  32.374  1.00  0.00     0.000 A 
ENDBRANCH  51  65
BRANCH  52  71
ATOM     71  C   UNL A   1      42.125  23.480  27.631  1.00  0.00    -0.014 A 
ATOM     72  C   UNL A   1      41.489  22.491  28.395  1.00  0.00     0.009 A 
ATOM     73  C   UNL A   1      42.388  23.230  26.275  1.00  0.00     0.009 A 
ATOM     74  C   UNL A   1      41.132  21.271  27.816  1.00  0.00     0.001 A 
ATOM     75  C   UNL A   1      42.008  22.019  25.693  1.00  0.00     0.001 A 
ATOM     76  C   UNL A   1      41.385  21.039  26.465  1.00  0.00     0.000 A 
ENDBRANCH  52  71
BRANCH  64  77
ATOM     77  C   UNL A   1      47.998  26.141  30.272  1.00  0.00    -0.014 A 
ATOM     78  C   UNL A   1      48.924  26.092  29.219  1.00  0.00     0.009 A 
ATOM     79  C   UNL A   1      48.384  25.681  31.541  1.00  0.00     0.009 A 
ATOM     80  C   UNL A   1      50.201  25.567  29.426  1.00  0.00     0.001 A 
ATOM     81  C   UNL A   1      49.669  25.180  31.751  1.00  0.00     0.001 A 
ATOM     82  C   UNL A   1      50.573  25.116  30.693  1.00  0.00     0.000 A 
ENDBRANCH  64  77
ENDBRANCH  38  39
ENDBRANCH  30  33
ENDBRANCH  28  29
ENDBRANCH   1  28
TORSDOF 14
ENDMDL
MODEL 2
REMARK VINA RESULT:     -10.9      2.290      7.353
REMARK SMILES CCc1cc(OC(F)(F)F)cc2c1O[C@@H](C(F)(F)F)C(C(=O)NCCCNC(=O)c1ccc(-c3c4nc(c(-c5ccccc5)c5ccc([nH]5)c(-c5ccccc5)c5nc(c(-c6ccccc6)c6ccc3[nH]6)C=C5)C=C4)cc1)=C2
REMARK SMILES IDX 25 1 24 2 23 3 21 4 22 5 20 7 3 8 4 9 13 10 5 11 12 12 14 13
REMARK SMILES IDX 11 14 78 15 15 16 2 17 1 18 6 19 7 20 8 21 9 22 10 23 16 24
REMARK SMILES IDX 17 25 18 26 19 27 26 28 27 29 28 30 29 32 30 33 31 34 77 35
REMARK SMILES IDX 32 36 76 37 33 38 34 39 35 40 70 41 36 42 75 43 69 44 71 45
REMARK SMILES IDX 37 46 74 47 68 48 67 49 38 51 60 52 45 53 59 54 46 55 49 56
REMARK SMILES IDX 58 57 72 58 47 59 48 60 57 62 73 63 50 64 39 65 40 66 44 67
REMARK SMILES IDX 41 68 43 69 42 70 61 71 62 72 66 73 63 74 65 75 64 76 51 77
REMARK SMILES IDX 52 78 56 79 53 80 55 81 54 82
REMARK H PARENT 23 6 27 31 71 50 49 61
REMARK Flexibility Score: inf
ROOT
ATOM      1  C   UNL A   1      36.963  20.060  25.355  1.00  0.00     0.042 C 
ENDROOT
BRANCH   1   2
ATOM      2  C   UNL A   1      35.921  21.171  25.194  1.00  0.00     0.118 C 
BRANCH   2   3
ATOM      3  N   UNL A   1      36.198  21.959  24.004  1.00  0.00    -0.352 N 
ATOM      4  C   UNL A   1      35.577  23.031  23.444  1.00  0.00     0.251 C 
ATOM      5  O   UNL A   1      35.947  23.398  22.332  1.00  0.00    -0.270 OA
ATOM      6  H   UNL A   1      36.993  21.658  23.507  1.00  0.00     0.163 HD
BRANCH   4   7
ATOM      7  C   UNL A   1      34.529  23.807  24.150  1.00  0.00     0.067 C 
ATOM      8  C   UNL A   1      31.316  25.942  25.848  1.00  0.00    -0.002 A 
ATOM      9  C   UNL A   1      31.610  27.146  26.533  1.00  0.00     0.054 A 
ATOM     10  C   UNL A   1      32.380  25.221  25.285  1.00  0.00     0.131 A 
ATOM     11  C   UNL A   1      32.918  27.615  26.659  1.00  0.00     0.130 A 
ATOM     12  C   UNL A   1      33.696  25.674  25.430  1.00  0.00     0.021 A 
ATOM     13  O   UNL A   1      32.100  24.128  24.520  1.00  0.00    -0.475 OA
ATOM     14  C   UNL A   1      33.958  26.864  26.116  1.00  0.00     0.058 A 
ATOM     15  C   UNL A   1      34.788  24.958  24.787  1.00  0.00     0.025 C 
ATOM     16  C   UNL A   1      33.157  23.161  24.267  1.00  0.00     0.314 C 
BRANCH   8  17
ATOM     17  C   UNL A   1      29.847  25.565  25.771  1.00  0.00     0.036 C 
ATOM     18  C   UNL A   1      29.002  26.044  24.597  1.00  0.00     0.009 C 
ENDBRANCH   8  17
BRANCH  11  19
ATOM     19  O   UNL A   1      33.316  28.772  27.263  1.00  0.00    -0.406 OA
BRANCH  19  20
ATOM     20  C   UNL A   1      32.886  29.999  26.698  1.00  0.00     0.573 C 
ATOM     21  F   UNL A   1      33.738  31.002  26.999  1.00  0.00    -0.132 F 
ATOM     22  F   UNL A   1      32.763  29.896  25.359  1.00  0.00    -0.132 F 
ATOM     23  F   UNL A   1      31.675  30.309  27.212  1.00  0.00    -0.132 F 
ENDBRANCH  19  20
ENDBRANCH  11  19
BRANCH  16  24
ATOM     24  C   UNL A   1      32.692  22.298  23.073  1.00  0.00     0.429 C 
ATOM     25  F   UNL A   1      33.096  21.011  23.164  1.00  0.00    -0.167 F 
ATOM     26  F   UNL A   1      31.334  22.247  23.012  1.00  0.00    -0.167 F 
ATOM     27  F   UNL A   1      33.117  22.791  21.886  1.00  0.00    -0.167 F 
ENDBRANCH  16  24
ENDBRANCH   4   7
ENDBRANCH   2   3
ENDBRANCH   1   2
BRANCH   1  28
ATOM     28  C   UNL A   1      38.398  20.543  25.150  1.00  0.00     0.118 C 
BRANCH  28  29
ATOM     29  N   UNL A   1      39.368  19.512  25.483  1.00  0.00    -0.352 N 
ATOM     30  C   UNL A   1      40.633  19.630  26.000  1.00  0.00     0.251 C 
ATOM     31  H   UNL A   1      39.071  18.589  25.312  1.00  0.00     0.163 HD
ATOM     32  O   UNL A   1      41.381  18.658  25.995  1.00  0.00    -0.269 OA
BRANCH  30  33
ATOM     33  C   UNL A   1      41.107  20.918  26.555  1.00  0.00     0.039 A 
ATOM     34  C   UNL A   1      41.654  21.862  25.682  1.00  0.00     0.014 A 
ATOM     35  C   UNL A   1      41.071  21.175  27.929  1.00  0.00     0.014 A 
ATOM     36  C   UNL A   1      42.128  23.079  26.178  1.00  0.00     0.010 A 
ATOM     37  C   UNL A   1      41.483  22.414  28.415  1.00  0.00     0.010 A 
ATOM     38  C   UNL A   1      42.026  23.373  27.547  1.00  0.00    -0.014 A 
BRANCH  38  39
ATOM     39  C   UNL A   1      42.487  24.675  28.088  1.00  0.00     0.031 A 
ATOM     40  C   UNL A   1      41.502  25.776  28.363  1.00  0.00     0.074 A 
ATOM     41  C   UNL A   1      43.805  24.891  28.266  1.00  0.00     0.049 A 
ATOM     42  N   UNL A   1      41.724  26.998  28.779  1.00  0.00    -0.248 NA
ATOM     43  C   UNL A   1      40.085  25.474  28.110  1.00  0.00     0.031 C 
ATOM     44  C   UNL A   1      44.866  23.920  27.993  1.00  0.00     0.029 A 
ATOM     45  N   UNL A   1      44.475  26.004  28.707  1.00  0.00    -0.354 N 
ATOM     46  C   UNL A   1      40.480  27.616  28.813  1.00  0.00     0.074 A 
ATOM     47  C   UNL A   1      39.515  26.649  28.337  1.00  0.00     0.031 C 
ATOM     48  C   UNL A   1      46.052  24.475  28.287  1.00  0.00     0.029 A 
ATOM     49  C   UNL A   1      45.838  25.847  28.736  1.00  0.00     0.049 A 
ATOM     50  H   UNL A   1      44.021  26.835  28.976  1.00  0.00     0.167 HD
ATOM     51  C   UNL A   1      40.166  28.870  29.217  1.00  0.00     0.031 A 
ATOM     52  C   UNL A   1      46.810  26.712  29.078  1.00  0.00     0.031 A 
ATOM     53  C   UNL A   1      41.124  29.829  29.701  1.00  0.00     0.049 A 
ATOM     54  C   UNL A   1      46.441  28.094  29.535  1.00  0.00     0.074 A 
ATOM     55  C   UNL A   1      40.898  31.098  30.204  1.00  0.00     0.029 A 
ATOM     56  N   UNL A   1      42.495  29.622  29.738  1.00  0.00    -0.354 N 
ATOM     57  N   UNL A   1      45.253  28.637  29.636  1.00  0.00    -0.248 NA
ATOM     58  C   UNL A   1      47.546  28.974  29.938  1.00  0.00     0.031 C 
ATOM     59  C   UNL A   1      42.137  31.679  30.499  1.00  0.00     0.029 A 
ATOM     60  C   UNL A   1      43.130  30.751  30.229  1.00  0.00     0.049 A 
ATOM     61  H   UNL A   1      42.949  28.796  29.457  1.00  0.00     0.167 HD
ATOM     62  C   UNL A   1      45.464  29.917  30.131  1.00  0.00     0.074 A 
ATOM     63  C   UNL A   1      46.892  30.062  30.325  1.00  0.00     0.031 C 
ATOM     64  C   UNL A   1      44.554  30.885  30.404  1.00  0.00     0.031 A 
BRANCH  51  65
ATOM     65  C   UNL A   1      38.722  29.279  29.127  1.00  0.00    -0.014 A 
ATOM     66  C   UNL A   1      38.186  29.820  27.947  1.00  0.00     0.009 A 
ATOM     67  C   UNL A   1      37.881  29.117  30.239  1.00  0.00     0.009 A 
ATOM     68  C   UNL A   1      36.854  30.235  27.897  1.00  0.00     0.001 A 
ATOM     69  C   UNL A   1      36.541  29.505  30.178  1.00  0.00     0.001 A 
ATOM     70  C   UNL A   1      36.032  30.076  29.012  1.00  0.00     0.000 A 
ENDBRANCH  51  65
BRANCH  52  71
ATOM     71  C   UNL A   1      48.228  26.277  29.019  1.00  0.00    -0.014 A 
ATOM     72  C   UNL A   1      48.985  26.476  27.856  1.00  0.00     0.009 A 
ATOM     73  C   UNL A   1      48.842  25.695  30.139  1.00  0.00     0.009 A 
ATOM     74  C   UNL A   1      50.327  26.092  27.811  1.00  0.00     0.001 A 
ATOM     75  C   UNL A   1      50.191  25.334  30.099  1.00  0.00     0.001 A 
ATOM     76  C   UNL A   1      50.931  25.529  28.934  1.00  0.00     0.000 A 
ENDBRANCH  52  71
BRANCH  64  77
ATOM     77  C   UNL A   1      45.076  32.179  30.959  1.00  0.00    -0.014 A 
ATOM     78  C   UNL A   1      45.421  33.246  30.115  1.00  0.00     0.009 A 
ATOM     79  C   UNL A   1      45.186  32.346  32.349  1.00  0.00     0.009 A 
ATOM     80  C   UNL A   1      45.893  34.445  30.651  1.00  0.00     0.001 A 
ATOM     81  C   UNL A   1      45.634  33.555  32.883  1.00  0.00     0.001 A 
ATOM     82  C   UNL A   1      45.994  34.600  32.034  1.00  0.00     0.000 A 
ENDBRANCH  64  77
ENDBRANCH  38  39
ENDBRANCH  30  33
ENDBRANCH  28  29
ENDBRANCH   1  28
TORSDOF 14
ENDMDL
MODEL 3
REMARK VINA RESULT:     -10.9      2.638      6.775
REMARK SMILES CCc1cc(OC(F)(F)F)cc2c1O[C@@H](C(F)(F)F)C(C(=O)NCCCNC(=O)c1ccc(-c3c4nc(c(-c5ccccc5)c5ccc([nH]5)c(-c5ccccc5)c5nc(c(-c6ccccc6)c6ccc3[nH]6)C=C5)C=C4)cc1)=C2
REMARK SMILES IDX 25 1 24 2 23 3 21 4 22 5 20 7 3 8 4 9 13 10 5 11 12 12 14 13
REMARK SMILES IDX 11 14 78 15 15 16 2 17 1 18 6 19 7 20 8 21 9 22 10 23 16 24
REMARK SMILES IDX 17 25 18 26 19 27 26 28 27 29 28 30 29 32 30 33 31 34 77 35
REMARK SMILES IDX 32 36 76 37 33 38 34 39 35 40 70 41 36 42 75 43 69 44 71 45
REMARK SMILES IDX 37 46 74 47 68 48 67 49 38 51 60 52 45 53 59 54 46 55 49 56
REMARK SMILES IDX 58 57 72 58 47 59 48 60 57 62 73 63 50 64 39 65 40 66 44 67
REMARK SMILES IDX 41 68 43 69 42 70 61 71 62 72 66 73 63 74 65 75 64 76 51 77
REMARK SMILES IDX 52 78 56 79 53 80 55 81 54 82
REMARK H PARENT 23 6 27 31 71 50 49 61
REMARK Flexibility Score: inf
ROOT
ATOM      1  C   UNL A   1      31.586  31.119  25.691  1.00  0.00     0.042 C 
ENDROOT
BRANCH   1   2
ATOM      2  C   UNL A   1      31.806  29.639  25.365  1.00  0.00     0.118 C 
BRANCH   2   3
ATOM      3  N   UNL A   1      31.463  28.810  26.509  1.00  0.00    -0.352 N 
ATOM      4  C   UNL A   1      31.518  27.470  26.725  1.00  0.00     0.251 C 
ATOM      5  O   UNL A   1      31.004  27.027  27.749  1.00  0.00    -0.270 OA
ATOM      6  H   UNL A   1      31.125  29.321  27.280  1.00  0.00     0.163 HD
BRANCH   4   7
ATOM      7  C   UNL A   1      32.229  26.541  25.814  1.00  0.00     0.067 C 
ATOM      8  C   UNL A   1      33.912  23.705  23.188  1.00  0.00    -0.002 A 
ATOM      9  C   UNL A   1      35.227  23.254  23.457  1.00  0.00     0.054 A 
ATOM     10  C   UNL A   1      33.346  24.655  24.053  1.00  0.00     0.131 A 
ATOM     11  C   UNL A   1      35.958  23.734  24.545  1.00  0.00     0.130 A 
ATOM     12  C   UNL A   1      34.083  25.156  25.131  1.00  0.00     0.021 A 
ATOM     13  O   UNL A   1      32.041  25.005  23.879  1.00  0.00    -0.475 OA
ATOM     14  C   UNL A   1      35.382  24.697  25.370  1.00  0.00     0.058 A 
ATOM     15  C   UNL A   1      33.467  26.091  26.063  1.00  0.00     0.025 C 
ATOM     16  C   UNL A   1      31.560  26.238  24.481  1.00  0.00     0.314 C 
BRANCH   8  17
ATOM     17  C   UNL A   1      33.230  23.081  21.984  1.00  0.00     0.036 C 
ATOM     18  C   UNL A   1      32.263  21.921  22.177  1.00  0.00     0.009 C 
ENDBRANCH   8  17
BRANCH  11  19
ATOM     19  O   UNL A   1      37.211  23.349  24.920  1.00  0.00    -0.406 OA
BRANCH  19  20
ATOM     20  C   UNL A   1      37.413  21.991  25.275  1.00  0.00     0.573 C 
ATOM     21  F   UNL A   1      37.482  21.204  24.181  1.00  0.00    -0.132 F 
ATOM     22  F   UNL A   1      38.535  21.847  26.010  1.00  0.00    -0.132 F 
ATOM     23  F   UNL A   1      36.363  21.581  26.021  1.00  0.00    -0.132 F 
ENDBRANCH  19  20
ENDBRANCH  11  19
BRANCH  16  24
ATOM     24  C   UNL A   1      30.017  26.160  24.482  1.00  0.00     0.429 C 
ATOM     25  F   UNL A   1      29.531  25.332  23.530  1.00  0.00    -0.167 F 
ATOM     26  F   UNL A   1      29.558  25.663  25.662  1.00  0.00    -0.167 F 
ATOM     27  F   UNL A   1      29.441  27.375  24.320  1.00  0.00    -0.167 F 
ENDBRANCH  16  24
ENDBRANCH   4   7
ENDBRANCH   2   3
ENDBRANCH   1   2
BRANCH   1  28
ATOM     28  C   UNL A   1      32.159  31.533  27.044  1.00  0.00     0.118 C 
BRANCH  28  29
ATOM     29  N   UNL A   1      32.110  32.973  27.235  1.00  0.00    -0.352 N 
ATOM     30  C   UNL A   1      32.926  33.790  27.976  1.00  0.00     0.251 C 
ATOM     31  H   UNL A   1      31.379  33.433  26.761  1.00  0.00     0.163 HD
ATOM     32  O   UNL A   1      32.584  34.947  28.197  1.00  0.00    -0.269 OA
BRANCH  30  33
ATOM     33  C   UNL A   1      34.208  33.287  28.519  1.00  0.00     0.039 A 
ATOM     34  C   UNL A   1      35.392  33.614  27.850  1.00  0.00     0.014 A 
ATOM     35  C   UNL A   1      34.246  32.452  29.639  1.00  0.00     0.014 A 
ATOM     36  C   UNL A   1      36.616  33.138  28.326  1.00  0.00     0.010 A 
ATOM     37  C   UNL A   1      35.472  32.031  30.152  1.00  0.00     0.010 A 
ATOM     38  C   UNL A   1      36.667  32.361  29.495  1.00  0.00    -0.014 A 
BRANCH  38  39
ATOM     39  C   UNL A   1      37.960  31.879  30.039  1.00  0.00     0.031 A 
ATOM     40  C   UNL A   1      38.580  30.612  29.518  1.00  0.00     0.074 A 
ATOM     41  C   UNL A   1      38.542  32.544  31.055  1.00  0.00     0.049 A 
ATOM     42  N   UNL A   1      39.671  30.005  29.911  1.00  0.00    -0.248 NA
ATOM     43  C   UNL A   1      37.865  29.924  28.433  1.00  0.00     0.031 C 
ATOM     44  C   UNL A   1      38.019  33.760  31.681  1.00  0.00     0.029 A 
ATOM     45  N   UNL A   1      39.697  32.282  31.747  1.00  0.00    -0.354 N 
ATOM     46  C   UNL A   1      39.759  28.852  29.141  1.00  0.00     0.074 A 
ATOM     47  C   UNL A   1      38.591  28.825  28.287  1.00  0.00     0.031 C 
ATOM     48  C   UNL A   1      38.858  34.146  32.654  1.00  0.00     0.029 A 
ATOM     49  C   UNL A   1      39.957  33.191  32.743  1.00  0.00     0.049 A 
ATOM     50  H   UNL A   1      40.283  31.516  31.549  1.00  0.00     0.167 HD
ATOM     51  C   UNL A   1      40.730  27.908  29.132  1.00  0.00     0.031 A 
ATOM     52  C   UNL A   1      40.964  33.247  33.634  1.00  0.00     0.031 A 
ATOM     53  C   UNL A   1      41.898  27.941  29.973  1.00  0.00     0.049 A 
ATOM     54  C   UNL A   1      42.038  32.198  33.600  1.00  0.00     0.074 A 
ATOM     55  C   UNL A   1      42.976  27.073  29.988  1.00  0.00     0.029 A 
ATOM     56  N   UNL A   1      42.137  28.892  30.952  1.00  0.00    -0.354 N 
ATOM     57  N   UNL A   1      42.147  31.156  32.812  1.00  0.00    -0.248 NA
ATOM     58  C   UNL A   1      43.133  32.341  34.570  1.00  0.00     0.031 C 
ATOM     59  C   UNL A   1      43.844  27.471  31.011  1.00  0.00     0.029 A 
ATOM     60  C   UNL A   1      43.332  28.617  31.597  1.00  0.00     0.049 A 
ATOM     61  H   UNL A   1      41.545  29.651  31.159  1.00  0.00     0.167 HD
ATOM     62  C   UNL A   1      43.331  30.529  33.177  1.00  0.00     0.074 A 
ATOM     63  C   UNL A   1      43.911  31.317  34.246  1.00  0.00     0.031 C 
ATOM     64  C   UNL A   1      43.889  29.403  32.668  1.00  0.00     0.031 A 
BRANCH  51  65
ATOM     65  C   UNL A   1      40.552  26.747  28.193  1.00  0.00    -0.014 A 
ATOM     66  C   UNL A   1      39.786  25.625  28.554  1.00  0.00     0.009 A 
ATOM     67  C   UNL A   1      41.154  26.775  26.926  1.00  0.00     0.009 A 
ATOM     68  C   UNL A   1      39.669  24.538  27.686  1.00  0.00     0.001 A 
ATOM     69  C   UNL A   1      41.010  25.700  26.048  1.00  0.00     0.001 A 
ATOM     70  C   UNL A   1      40.279  24.577  26.433  1.00  0.00     0.000 A 
ENDBRANCH  51  65
BRANCH  52  71
ATOM     71  C   UNL A   1      41.006  34.357  34.619  1.00  0.00    -0.014 A 
ATOM     72  C   UNL A   1      41.673  35.552  34.315  1.00  0.00     0.009 A 
ATOM     73  C   UNL A   1      40.346  34.240  35.852  1.00  0.00     0.009 A 
ATOM     74  C   UNL A   1      41.688  36.606  35.231  1.00  0.00     0.001 A 
ATOM     75  C   UNL A   1      40.342  35.304  36.756  1.00  0.00     0.001 A 
ATOM     76  C   UNL A   1      41.016  36.484  36.447  1.00  0.00     0.000 A 
ENDBRANCH  52  71
BRANCH  64  77
ATOM     77  C   UNL A   1      45.202  28.967  33.251  1.00  0.00    -0.014 A 
ATOM     78  C   UNL A   1      46.420  29.426  32.725  1.00  0.00     0.009 A 
ATOM     79  C   UNL A   1      45.220  28.115  34.367  1.00  0.00     0.009 A 
ATOM     80  C   UNL A   1      47.631  29.017  33.288  1.00  0.00     0.001 A 
ATOM     81  C   UNL A   1      46.431  27.729  34.944  1.00  0.00     0.001 A 
ATOM     82  C   UNL A   1      47.635  28.174  34.399  1.00  0.00     0.000 A 
ENDBRANCH  64  77
ENDBRANCH  38  39
ENDBRANCH  30  33
ENDBRANCH  28  29
ENDBRANCH   1  28
TORSDOF 14
ENDMDL
