MODEL 1
REMARK VINA RESULT:     -11.5      0.000      0.000
REMARK SMILES C=Cc1cncc(-c2ccc([C@@H](C)C(=O)NCCCNC(=O)c3ccc(-c4c5nc(c(-c6ccccc6)c6ccc([nH]6)c(-c6ccccc6)c6nc(c(-c7ccccc7)c7ccc4[nH]7)C=C6)C=C5)cc3)cc2)c1
REMARK SMILES IDX 17 1 16 2 14 3 15 4 12 6 13 7 11 8 8 9 9 10 72 11 10 12
REMARK SMILES IDX 71 13 7 14 3 15 4 16 73 17 5 18 6 19 2 20 1 21 18 22 19 23
REMARK SMILES IDX 20 24 21 25 22 27 23 28 24 29 70 30 25 31 69 32 26 33 27 34
REMARK SMILES IDX 28 35 63 36 29 37 68 38 62 39 64 40 30 41 67 42 61 43 60 44
REMARK SMILES IDX 31 46 53 47 38 48 52 49 39 50 42 51 51 52 65 53 40 54 41 55
REMARK SMILES IDX 50 57 66 58 43 59 32 60 33 61 37 62 34 63 36 64 35 65 54 66
REMARK SMILES IDX 55 67 59 68 56 69 58 70 57 71 44 72 45 73 49 74 46 75 48 76
REMARK SMILES IDX 47 77
REMARK H PARENT 16 5 20 26 64 45 42 56
REMARK Flexibility Score: inf
ROOT
ATOM      1  C   UNL A   1      33.281  29.117  24.907  1.00  0.00     0.117 C 
ENDROOT
BRANCH   1   2
ATOM      2  N   UNL A   1      33.925  28.943  23.619  1.00  0.00    -0.356 N 
ATOM      3  C   UNL A   1      33.565  28.240  22.510  1.00  0.00     0.227 C 
ATOM      4  O   UNL A   1      34.387  28.227  21.585  1.00  0.00    -0.274 OA
ATOM      5  H   UNL A   1      34.781  29.420  23.531  1.00  0.00     0.163 HD
BRANCH   3   6
ATOM      6  C   UNL A   1      32.234  27.488  22.362  1.00  0.00     0.105 C 
ATOM      7  C   UNL A   1      31.013  28.250  22.878  1.00  0.00     0.023 C 
BRANCH   6   8
ATOM      8  C   UNL A   1      32.325  26.023  22.758  1.00  0.00    -0.036 A 
ATOM      9  C   UNL A   1      32.595  23.323  23.665  1.00  0.00    -0.017 A 
ATOM     10  C   UNL A   1      31.338  23.924  23.499  1.00  0.00     0.009 A 
ATOM     11  C   UNL A   1      33.717  24.098  23.330  1.00  0.00     0.009 A 
ATOM     12  C   UNL A   1      31.203  25.237  23.028  1.00  0.00     0.005 A 
ATOM     13  C   UNL A   1      33.587  25.426  22.902  1.00  0.00     0.005 A 
BRANCH   9  14
ATOM     14  C   UNL A   1      32.725  21.943  24.181  1.00  0.00     0.001 A 
ATOM     15  C   UNL A   1      32.702  19.516  23.873  1.00  0.00    -0.007 A 
ATOM     16  C   UNL A   1      33.021  19.398  25.222  1.00  0.00     0.119 A 
ATOM     17  C   UNL A   1      32.551  20.813  23.363  1.00  0.00     0.020 A 
ATOM     18  N   UNL A   1      33.202  20.445  26.057  1.00  0.00    -0.263 NA
ATOM     19  C   UNL A   1      33.044  21.678  25.516  1.00  0.00     0.119 A 
BRANCH  15  20
ATOM     20  C   UNL A   1      32.479  18.310  23.069  1.00  0.00     0.002 C 
ATOM     21  C   UNL A   1      33.167  17.170  23.215  1.00  0.00     0.009 C 
ENDBRANCH  15  20
ENDBRANCH   9  14
ENDBRANCH   6   8
ENDBRANCH   3   6
ENDBRANCH   1   2
BRANCH   1  22
ATOM     22  C   UNL A   1      33.772  28.111  25.943  1.00  0.00     0.042 C 
BRANCH  22  23
ATOM     23  C   UNL A   1      33.377  28.452  27.375  1.00  0.00     0.118 C 
BRANCH  23  24
ATOM     24  N   UNL A   1      33.425  29.883  27.636  1.00  0.00    -0.352 N 
ATOM     25  C   UNL A   1      34.423  30.670  28.156  1.00  0.00     0.251 C 
ATOM     26  H   UNL A   1      32.603  30.369  27.400  1.00  0.00     0.163 HD
ATOM     27  O   UNL A   1      34.159  31.827  28.477  1.00  0.00    -0.269 OA
BRANCH  25  28
ATOM     28  C   UNL A   1      35.802  30.159  28.347  1.00  0.00     0.039 A 
ATOM     29  C   UNL A   1      36.169  29.683  29.612  1.00  0.00     0.014 A 
ATOM     30  C   UNL A   1      36.761  30.217  27.333  1.00  0.00     0.014 A 
ATOM     31  C   UNL A   1      37.472  29.233  29.846  1.00  0.00     0.010 A 
ATOM     32  C   UNL A   1      38.038  29.697  27.543  1.00  0.00     0.010 A 
ATOM     33  C   UNL A   1      38.413  29.216  28.806  1.00  0.00    -0.014 A 
BRANCH  33  34
ATOM     34  C   UNL A   1      39.804  28.740  29.030  1.00  0.00     0.031 A 
ATOM     35  C   UNL A   1      40.834  29.663  29.627  1.00  0.00     0.074 A 
ATOM     36  C   UNL A   1      40.159  27.497  28.649  1.00  0.00     0.049 A 
ATOM     37  N   UNL A   1      42.110  29.455  29.836  1.00  0.00    -0.248 NA
ATOM     38  C   UNL A   1      40.376  31.007  30.018  1.00  0.00     0.031 C 
ATOM     39  C   UNL A   1      39.272  26.511  28.028  1.00  0.00     0.029 A 
ATOM     40  N   UNL A   1      41.370  26.853  28.723  1.00  0.00    -0.354 N 
ATOM     41  C   UNL A   1      42.610  30.647  30.346  1.00  0.00     0.074 A 
ATOM     42  C   UNL A   1      41.510  31.585  30.387  1.00  0.00     0.031 C 
ATOM     43  C   UNL A   1      39.961  25.381  27.800  1.00  0.00     0.029 A 
ATOM     44  C   UNL A   1      41.344  25.573  28.224  1.00  0.00     0.049 A 
ATOM     45  H   UNL A   1      42.180  27.269  29.097  1.00  0.00     0.167 HD
ATOM     46  C   UNL A   1      43.868  30.934  30.757  1.00  0.00     0.031 A 
ATOM     47  C   UNL A   1      42.326  24.657  28.117  1.00  0.00     0.031 A 
ATOM     48  C   UNL A   1      44.955  29.993  30.760  1.00  0.00     0.049 A 
ATOM     49  C   UNL A   1      43.707  24.995  28.604  1.00  0.00     0.074 A 
ATOM     50  C   UNL A   1      46.246  30.169  31.230  1.00  0.00     0.029 A 
ATOM     51  N   UNL A   1      44.877  28.698  30.276  1.00  0.00    -0.354 N 
ATOM     52  N   UNL A   1      44.144  26.105  29.148  1.00  0.00    -0.248 NA
ATOM     53  C   UNL A   1      44.729  23.945  28.473  1.00  0.00     0.031 C 
ATOM     54  C   UNL A   1      46.960  28.989  30.996  1.00  0.00     0.029 A 
ATOM     55  C   UNL A   1      46.101  28.068  30.420  1.00  0.00     0.049 A 
ATOM     56  H   UNL A   1      44.072  28.287  29.886  1.00  0.00     0.167 HD
ATOM     57  C   UNL A   1      45.479  25.875  29.456  1.00  0.00     0.074 A 
ATOM     58  C   UNL A   1      45.777  24.518  29.048  1.00  0.00     0.031 C 
ATOM     59  C   UNL A   1      46.377  26.713  30.026  1.00  0.00     0.031 A 
BRANCH  46  60
ATOM     60  C   UNL A   1      44.143  32.330  31.241  1.00  0.00    -0.014 A 
ATOM     61  C   UNL A   1      44.144  32.640  32.609  1.00  0.00     0.009 A 
ATOM     62  C   UNL A   1      44.460  33.336  30.315  1.00  0.00     0.009 A 
ATOM     63  C   UNL A   1      44.428  33.938  33.040  1.00  0.00     0.001 A 
ATOM     64  C   UNL A   1      44.769  34.626  30.750  1.00  0.00     0.001 A 
ATOM     65  C   UNL A   1      44.747  34.927  32.110  1.00  0.00     0.000 A 
ENDBRANCH  46  60
BRANCH  47  66
ATOM     66  C   UNL A   1      42.042  23.316  27.544  1.00  0.00    -0.014 A 
ATOM     67  C   UNL A   1      41.439  22.322  28.331  1.00  0.00     0.009 A 
ATOM     68  C   UNL A   1      42.397  23.011  26.222  1.00  0.00     0.009 A 
ATOM     69  C   UNL A   1      41.229  21.041  27.816  1.00  0.00     0.001 A 
ATOM     70  C   UNL A   1      42.162  21.737  25.701  1.00  0.00     0.001 A 
ATOM     71  C   UNL A   1      41.589  20.750  26.502  1.00  0.00     0.000 A 
ENDBRANCH  47  66
BRANCH  59  72
ATOM     72  C   UNL A   1      47.750  26.168  30.293  1.00  0.00    -0.014 A 
ATOM     73  C   UNL A   1      48.710  26.079  29.275  1.00  0.00     0.009 A 
ATOM     74  C   UNL A   1      48.095  25.770  31.594  1.00  0.00     0.009 A 
ATOM     75  C   UNL A   1      49.982  25.571  29.549  1.00  0.00     0.001 A 
ATOM     76  C   UNL A   1      49.374  25.286  31.870  1.00  0.00     0.001 A 
ATOM     77  C   UNL A   1      50.314  25.179  30.845  1.00  0.00     0.000 A 
ENDBRANCH  59  72
ENDBRANCH  33  34
ENDBRANCH  25  28
ENDBRANCH  23  24
ENDBRANCH  22  23
ENDBRANCH   1  22
TORSDOF 13
ENDMDL
MODEL 2
REMARK VINA RESULT:     -11.5      4.494     10.769
REMARK SMILES C=Cc1cncc(-c2ccc([C@@H](C)C(=O)NCCCNC(=O)c3ccc(-c4c5nc(c(-c6ccccc6)c6ccc([nH]6)c(-c6ccccc6)c6nc(c(-c7ccccc7)c7ccc4[nH]7)C=C6)C=C5)cc3)cc2)c1
REMARK SMILES IDX 17 1 16 2 14 3 15 4 12 6 13 7 11 8 8 9 9 10 72 11 10 12
REMARK SMILES IDX 71 13 7 14 3 15 4 16 73 17 5 18 6 19 2 20 1 21 18 22 19 23
REMARK SMILES IDX 20 24 21 25 22 27 23 28 24 29 70 30 25 31 69 32 26 33 27 34
REMARK SMILES IDX 28 35 63 36 29 37 68 38 62 39 64 40 30 41 67 42 61 43 60 44
REMARK SMILES IDX 31 46 53 47 38 48 52 49 39 50 42 51 51 52 65 53 40 54 41 55
REMARK SMILES IDX 50 57 66 58 43 59 32 60 33 61 37 62 34 63 36 64 35 65 54 66
REMARK SMILES IDX 55 67 59 68 56 69 58 70 57 71 44 72 45 73 49 74 46 75 48 76
REMARK SMILES IDX 47 77
REMARK H PARENT 16 5 20 26 64 45 42 56
REMARK Flexibility Score: inf
ROOT
ATOM      1  C   UNL A   1      43.072  21.388  25.863  1.00  0.00     0.117 C 
ENDROOT
BRANCH   1   2
ATOM      2  N   UNL A   1      43.668  22.054  27.005  1.00  0.00    -0.356 N 
ATOM      3  C   UNL A   1      44.549  23.088  27.097  1.00  0.00     0.227 C 
ATOM      4  O   UNL A   1      44.933  23.374  28.238  1.00  0.00    -0.274 OA
ATOM      5  H   UNL A   1      43.384  21.691  27.875  1.00  0.00     0.163 HD
BRANCH   3   6
ATOM      6  C   UNL A   1      45.071  23.883  25.891  1.00  0.00     0.105 C 
ATOM      7  C   UNL A   1      46.292  23.270  25.206  1.00  0.00     0.023 C 
BRANCH   6   8
ATOM      8  C   UNL A   1      45.125  25.382  26.139  1.00  0.00    -0.036 A 
ATOM      9  C   UNL A   1      45.390  28.209  26.494  1.00  0.00    -0.017 A 
ATOM     10  C   UNL A   1      44.273  27.646  25.858  1.00  0.00     0.009 A 
ATOM     11  C   UNL A   1      46.357  27.316  26.982  1.00  0.00     0.009 A 
ATOM     12  C   UNL A   1      44.128  26.260  25.707  1.00  0.00     0.005 A 
ATOM     13  C   UNL A   1      46.237  25.932  26.793  1.00  0.00     0.005 A 
BRANCH   9  14
ATOM     14  C   UNL A   1      45.540  29.674  26.629  1.00  0.00     0.001 A 
ATOM     15  C   UNL A   1      44.764  31.856  27.416  1.00  0.00    -0.007 A 
ATOM     16  C   UNL A   1      45.920  32.403  26.867  1.00  0.00     0.119 A 
ATOM     17  C   UNL A   1      44.585  30.473  27.283  1.00  0.00     0.020 A 
ATOM     18  N   UNL A   1      46.872  31.687  26.229  1.00  0.00    -0.263 NA
ATOM     19  C   UNL A   1      46.653  30.354  26.125  1.00  0.00     0.119 A 
BRANCH  15  20
ATOM     20  C   UNL A   1      43.771  32.734  28.044  1.00  0.00     0.002 C 
ATOM     21  C   UNL A   1      44.011  33.997  28.418  1.00  0.00     0.009 C 
ENDBRANCH  15  20
ENDBRANCH   9  14
ENDBRANCH   6   8
ENDBRANCH   3   6
ENDBRANCH   1   2
BRANCH   1  22
ATOM     22  C   UNL A   1      41.822  20.598  26.239  1.00  0.00     0.042 C 
BRANCH  22  23
ATOM     23  C   UNL A   1      40.787  21.404  27.013  1.00  0.00     0.118 C 
BRANCH  23  24
ATOM     24  N   UNL A   1      39.624  21.734  26.202  1.00  0.00    -0.352 N 
ATOM     25  C   UNL A   1      38.876  22.883  26.125  1.00  0.00     0.251 C 
ATOM     26  H   UNL A   1      39.322  21.010  25.608  1.00  0.00     0.163 HD
ATOM     27  O   UNL A   1      37.810  22.857  25.515  1.00  0.00    -0.269 OA
BRANCH  25  28
ATOM     28  C   UNL A   1      39.318  24.147  26.763  1.00  0.00     0.039 A 
ATOM     29  C   UNL A   1      38.912  24.409  28.077  1.00  0.00     0.014 A 
ATOM     30  C   UNL A   1      40.050  25.112  26.068  1.00  0.00     0.014 A 
ATOM     31  C   UNL A   1      39.270  25.608  28.701  1.00  0.00     0.010 A 
ATOM     32  C   UNL A   1      40.473  26.273  26.713  1.00  0.00     0.010 A 
ATOM     33  C   UNL A   1      40.073  26.543  28.031  1.00  0.00    -0.014 A 
BRANCH  33  34
ATOM     34  C   UNL A   1      40.468  27.824  28.674  1.00  0.00     0.031 A 
ATOM     35  C   UNL A   1      41.863  27.998  29.218  1.00  0.00     0.074 A 
ATOM     36  C   UNL A   1      39.564  28.811  28.820  1.00  0.00     0.049 A 
ATOM     37  N   UNL A   1      42.375  29.012  29.871  1.00  0.00    -0.248 NA
ATOM     38  C   UNL A   1      42.798  26.877  29.026  1.00  0.00     0.031 C 
ATOM     39  C   UNL A   1      38.171  28.763  28.370  1.00  0.00     0.029 A 
ATOM     40  N   UNL A   1      39.682  30.052  29.398  1.00  0.00    -0.354 N 
ATOM     41  C   UNL A   1      43.673  28.635  30.196  1.00  0.00     0.074 A 
ATOM     42  C   UNL A   1      43.862  27.291  29.697  1.00  0.00     0.031 C 
ATOM     43  C   UNL A   1      37.572  29.928  28.667  1.00  0.00     0.029 A 
ATOM     44  C   UNL A   1      38.524  30.791  29.357  1.00  0.00     0.049 A 
ATOM     45  H   UNL A   1      40.517  30.381  29.802  1.00  0.00     0.167 HD
ATOM     46  C   UNL A   1      44.628  29.349  30.839  1.00  0.00     0.031 A 
ATOM     47  C   UNL A   1      38.259  32.025  29.828  1.00  0.00     0.031 A 
ATOM     48  C   UNL A   1      44.460  30.701  31.298  1.00  0.00     0.049 A 
ATOM     49  C   UNL A   1      39.345  32.802  30.517  1.00  0.00     0.074 A 
ATOM     50  C   UNL A   1      45.396  31.531  31.892  1.00  0.00     0.029 A 
ATOM     51  N   UNL A   1      43.282  31.422  31.209  1.00  0.00    -0.354 N 
ATOM     52  N   UNL A   1      40.588  32.455  30.753  1.00  0.00    -0.248 NA
ATOM     53  C   UNL A   1      38.994  34.148  30.993  1.00  0.00     0.031 C 
ATOM     54  C   UNL A   1      44.771  32.746  32.195  1.00  0.00     0.029 A 
ATOM     55  C   UNL A   1      43.461  32.683  31.752  1.00  0.00     0.049 A 
ATOM     56  H   UNL A   1      42.442  31.088  30.819  1.00  0.00     0.167 HD
ATOM     57  C   UNL A   1      41.174  33.552  31.371  1.00  0.00     0.074 A 
ATOM     58  C   UNL A   1      40.156  34.578  31.464  1.00  0.00     0.031 C 
ATOM     59  C   UNL A   1      42.444  33.698  31.821  1.00  0.00     0.031 A 
BRANCH  46  60
ATOM     60  C   UNL A   1      45.950  28.678  31.089  1.00  0.00    -0.014 A 
ATOM     61  C   UNL A   1      46.163  27.889  32.230  1.00  0.00     0.009 A 
ATOM     62  C   UNL A   1      46.978  28.794  30.140  1.00  0.00     0.009 A 
ATOM     63  C   UNL A   1      47.390  27.253  32.430  1.00  0.00     0.001 A 
ATOM     64  C   UNL A   1      48.194  28.136  30.330  1.00  0.00     0.001 A 
ATOM     65  C   UNL A   1      48.402  27.372  31.477  1.00  0.00     0.000 A 
ENDBRANCH  46  60
BRANCH  47  66
ATOM     66  C   UNL A   1      36.910  32.622  29.649  1.00  0.00    -0.014 A 
ATOM     67  C   UNL A   1      35.932  32.476  30.646  1.00  0.00     0.009 A 
ATOM     68  C   UNL A   1      36.582  33.312  28.473  1.00  0.00     0.009 A 
ATOM     69  C   UNL A   1      34.645  32.978  30.454  1.00  0.00     0.001 A 
ATOM     70  C   UNL A   1      35.300  33.837  28.295  1.00  0.00     0.001 A 
ATOM     71  C   UNL A   1      34.330  33.660  29.280  1.00  0.00     0.000 A 
ENDBRANCH  47  66
BRANCH  59  72
ATOM     72  C   UNL A   1      42.817  35.030  32.404  1.00  0.00    -0.014 A 
ATOM     73  C   UNL A   1      42.625  35.311  33.764  1.00  0.00     0.009 A 
ATOM     74  C   UNL A   1      43.403  36.005  31.581  1.00  0.00     0.009 A 
ATOM     75  C   UNL A   1      42.983  36.557  34.283  1.00  0.00     0.001 A 
ATOM     76  C   UNL A   1      43.783  37.239  32.107  1.00  0.00     0.001 A 
ATOM     77  C   UNL A   1      43.564  37.517  33.456  1.00  0.00     0.000 A 
ENDBRANCH  59  72
ENDBRANCH  33  34
ENDBRANCH  25  28
ENDBRANCH  23  24
ENDBRANCH  22  23
ENDBRANCH   1  22
TORSDOF 13
ENDMDL
MODEL 3
REMARK VINA RESULT:     -11.5      1.315      2.176
REMARK SMILES C=Cc1cncc(-c2ccc([C@@H](C)C(=O)NCCCNC(=O)c3ccc(-c4c5nc(c(-c6ccccc6)c6ccc([nH]6)c(-c6ccccc6)c6nc(c(-c7ccccc7)c7ccc4[nH]7)C=C6)C=C5)cc3)cc2)c1
REMARK SMILES IDX 17 1 16 2 14 3 15 4 12 6 13 7 11 8 8 9 9 10 72 11 10 12
REMARK SMILES IDX 71 13 7 14 3 15 4 16 73 17 5 18 6 19 2 20 1 21 18 22 19 23
REMARK SMILES IDX 20 24 21 25 22 27 23 28 24 29 70 30 25 31 69 32 26 33 27 34
REMARK SMILES IDX 28 35 63 36 29 37 68 38 62 39 64 40 30 41 67 42 61 43 60 44
REMARK SMILES IDX 31 46 53 47 38 48 52 49 39 50 42 51 51 52 65 53 40 54 41 55
REMARK SMILES IDX 50 57 66 58 43 59 32 60 33 61 37 62 34 63 36 64 35 65 54 66
REMARK SMILES IDX 55 67 59 68 56 69 58 70 57 71 44 72 45 73 49 74 46 75 48 76
REMARK SMILES IDX 47 77
REMARK H PARENT 16 5 20 26 64 45 42 56
REMARK Flexibility Score: inf
ROOT
ATOM      1  C   UNL A   1      31.717  28.979  25.184  1.00  0.00     0.117 C 
ENDROOT
BRANCH   1   2
ATOM      2  N   UNL A   1      31.295  29.537  23.914  1.00  0.00    -0.356 N 
ATOM      3  C   UNL A   1      30.597  29.006  22.874  1.00  0.00     0.227 C 
ATOM      4  O   UNL A   1      30.468  29.732  21.879  1.00  0.00    -0.274 OA
ATOM      5  H   UNL A   1      31.566  30.475  23.778  1.00  0.00     0.163 HD
BRANCH   3   6
ATOM      6  C   UNL A   1      29.985  27.597  22.878  1.00  0.00     0.105 C 
ATOM      7  C   UNL A   1      28.602  27.507  23.522  1.00  0.00     0.023 C 
BRANCH   6   8
ATOM      8  C   UNL A   1      30.977  26.514  23.267  1.00  0.00    -0.036 A 
ATOM      9  C   UNL A   1      32.980  24.616  24.027  1.00  0.00    -0.017 A 
ATOM     10  C   UNL A   1      31.797  24.778  24.766  1.00  0.00     0.009 A 
ATOM     11  C   UNL A   1      33.119  25.405  22.874  1.00  0.00     0.009 A 
ATOM     12  C   UNL A   1      30.803  25.687  24.380  1.00  0.00     0.005 A 
ATOM     13  C   UNL A   1      32.147  26.347  22.511  1.00  0.00     0.005 A 
BRANCH   9  14
ATOM     14  C   UNL A   1      34.030  23.667  24.457  1.00  0.00     0.001 A 
ATOM     15  C   UNL A   1      36.176  23.162  25.516  1.00  0.00    -0.007 A 
ATOM     16  C   UNL A   1      35.924  21.819  25.258  1.00  0.00     0.119 A 
ATOM     17  C   UNL A   1      35.209  24.086  25.099  1.00  0.00     0.020 A 
ATOM     18  N   UNL A   1      34.812  21.356  24.646  1.00  0.00    -0.263 NA
ATOM     19  C   UNL A   1      33.907  22.288  24.262  1.00  0.00     0.119 A 
BRANCH  15  20
ATOM     20  C   UNL A   1      37.442  23.558  26.142  1.00  0.00     0.002 C 
ATOM     21  C   UNL A   1      38.592  22.886  26.008  1.00  0.00     0.009 C 
ENDBRANCH  15  20
ENDBRANCH   9  14
ENDBRANCH   6   8
ENDBRANCH   3   6
ENDBRANCH   1   2
BRANCH   1  22
ATOM     22  C   UNL A   1      33.232  28.826  25.278  1.00  0.00     0.042 C 
BRANCH  22  23
ATOM     23  C   UNL A   1      33.764  28.777  26.705  1.00  0.00     0.118 C 
BRANCH  23  24
ATOM     24  N   UNL A   1      33.698  30.072  27.365  1.00  0.00    -0.352 N 
ATOM     25  C   UNL A   1      34.585  30.703  28.202  1.00  0.00     0.251 C 
ATOM     26  H   UNL A   1      32.878  30.585  27.179  1.00  0.00     0.163 HD
ATOM     27  O   UNL A   1      34.220  31.711  28.802  1.00  0.00    -0.269 OA
BRANCH  25  28
ATOM     28  C   UNL A   1      35.964  30.196  28.404  1.00  0.00     0.039 A 
ATOM     29  C   UNL A   1      36.297  29.643  29.646  1.00  0.00     0.014 A 
ATOM     30  C   UNL A   1      36.954  30.330  27.427  1.00  0.00     0.014 A 
ATOM     31  C   UNL A   1      37.598  29.193  29.893  1.00  0.00     0.010 A 
ATOM     32  C   UNL A   1      38.230  29.812  27.645  1.00  0.00     0.010 A 
ATOM     33  C   UNL A   1      38.572  29.254  28.886  1.00  0.00    -0.014 A 
BRANCH  33  34
ATOM     34  C   UNL A   1      39.960  28.779  29.124  1.00  0.00     0.031 A 
ATOM     35  C   UNL A   1      40.978  29.698  29.750  1.00  0.00     0.074 A 
ATOM     36  C   UNL A   1      40.326  27.544  28.730  1.00  0.00     0.049 A 
ATOM     37  N   UNL A   1      42.252  29.491  29.975  1.00  0.00    -0.248 NA
ATOM     38  C   UNL A   1      40.509  31.035  30.154  1.00  0.00     0.031 C 
ATOM     39  C   UNL A   1      39.452  26.564  28.081  1.00  0.00     0.029 A 
ATOM     40  N   UNL A   1      41.538  26.903  28.813  1.00  0.00    -0.354 N 
ATOM     41  C   UNL A   1      42.739  30.678  30.510  1.00  0.00     0.074 A 
ATOM     42  C   UNL A   1      41.635  31.611  30.548  1.00  0.00     0.031 C 
ATOM     43  C   UNL A   1      40.149  25.440  27.848  1.00  0.00     0.029 A 
ATOM     44  C   UNL A   1      41.525  25.630  28.295  1.00  0.00     0.049 A 
ATOM     45  H   UNL A   1      42.341  27.316  29.205  1.00  0.00     0.167 HD
ATOM     46  C   UNL A   1      43.990  30.963  30.944  1.00  0.00     0.031 A 
ATOM     47  C   UNL A   1      42.512  24.719  28.190  1.00  0.00     0.031 A 
ATOM     48  C   UNL A   1      45.080  30.026  30.950  1.00  0.00     0.049 A 
ATOM     49  C   UNL A   1      43.884  25.055  28.702  1.00  0.00     0.074 A 
ATOM     50  C   UNL A   1      46.363  30.200  31.441  1.00  0.00     0.029 A 
ATOM     51  N   UNL A   1      45.015  28.738  30.446  1.00  0.00    -0.354 N 
ATOM     52  N   UNL A   1      44.308  26.159  29.268  1.00  0.00    -0.248 NA
ATOM     53  C   UNL A   1      44.911  24.011  28.571  1.00  0.00     0.031 C 
ATOM     54  C   UNL A   1      47.086  29.026  31.201  1.00  0.00     0.029 A 
ATOM     55  C   UNL A   1      46.239  28.110  30.598  1.00  0.00     0.049 A 
ATOM     56  H   UNL A   1      44.217  28.329  30.038  1.00  0.00     0.167 HD
ATOM     57  C   UNL A   1      45.639  25.929  29.593  1.00  0.00     0.074 A 
ATOM     58  C   UNL A   1      45.949  24.579  29.171  1.00  0.00     0.031 C 
ATOM     59  C   UNL A   1      46.526  26.762  30.190  1.00  0.00     0.031 A 
BRANCH  46  60
ATOM     60  C   UNL A   1      44.253  32.352  31.452  1.00  0.00    -0.014 A 
ATOM     61  C   UNL A   1      44.662  33.379  30.589  1.00  0.00     0.009 A 
ATOM     62  C   UNL A   1      44.033  32.649  32.807  1.00  0.00     0.009 A 
ATOM     63  C   UNL A   1      44.875  34.670  31.077  1.00  0.00     0.001 A 
ATOM     64  C   UNL A   1      44.221  33.947  33.286  1.00  0.00     0.001 A 
ATOM     65  C   UNL A   1      44.648  34.954  32.423  1.00  0.00     0.000 A 
ENDBRANCH  46  60
BRANCH  47  66
ATOM     66  C   UNL A   1      42.241  23.386  27.593  1.00  0.00    -0.014 A 
ATOM     67  C   UNL A   1      42.525  23.145  26.239  1.00  0.00     0.009 A 
ATOM     68  C   UNL A   1      41.671  22.359  28.360  1.00  0.00     0.009 A 
ATOM     69  C   UNL A   1      42.212  21.915  25.658  1.00  0.00     0.001 A 
ATOM     70  C   UNL A   1      41.384  21.121  27.782  1.00  0.00     0.001 A 
ATOM     71  C   UNL A   1      41.643  20.903  26.430  1.00  0.00     0.000 A 
ENDBRANCH  47  66
BRANCH  59  72
ATOM     72  C   UNL A   1      47.897  26.218  30.469  1.00  0.00    -0.014 A 
ATOM     73  C   UNL A   1      48.257  25.768  31.747  1.00  0.00     0.009 A 
ATOM     74  C   UNL A   1      48.829  26.124  29.424  1.00  0.00     0.009 A 
ATOM     75  C   UNL A   1      49.538  25.263  31.981  1.00  0.00     0.001 A 
ATOM     76  C   UNL A   1      50.100  25.597  29.655  1.00  0.00     0.001 A 
ATOM     77  C   UNL A   1      50.455  25.175  30.935  1.00  0.00     0.000 A 
ENDBRANCH  59  72
ENDBRANCH  33  34
ENDBRANCH  25  28
ENDBRANCH  23  24
ENDBRANCH  22  23
ENDBRANCH   1  22
TORSDOF 13
ENDMDL
