MODEL 1
REMARK VINA RESULT:     -12.5      0.000      0.000
REMARK SMILES Cc1ccc(C(C)(C)C)c(OCC(=O)c2nc(C)c(C(=O)NCCCNC(=O)c3ccc(-c4c5nc(c(-c6ccccc6)c6ccc([nH]6)c(-c6ccccc6)c6nc(c(-c7ccccc7)c7ccc4[nH]7)C=C6)C=C5)cc3)s2)c1
REMARK SMILES IDX 20 1 21 2 22 3 19 5 15 6 16 7 77 8 17 9 18 10 13 11 14 12
REMARK SMILES IDX 12 13 11 14 10 15 1 16 2 17 3 18 78 19 4 20 5 21 6 22 7 23
REMARK SMILES IDX 8 24 9 25 23 26 24 27 25 28 26 29 27 30 28 32 29 33 30 34
REMARK SMILES IDX 76 35 31 36 75 37 32 38 33 39 34 40 69 41 35 42 74 43 68 44
REMARK SMILES IDX 70 45 36 46 73 47 67 48 66 49 37 51 59 52 44 53 58 54 45 55
REMARK SMILES IDX 48 56 57 57 71 58 46 59 47 60 56 62 72 63 49 64 38 65 39 66
REMARK SMILES IDX 43 67 40 68 42 69 41 70 60 71 61 72 65 73 62 74 64 75 63 76
REMARK SMILES IDX 50 77 51 78 55 79 52 80 54 81 53 82
REMARK H PARENT 22 4 26 31 70 50 48 61
REMARK Flexibility Score: inf
ROOT
ATOM      1  C   UNL A   1      33.106  28.412  24.509  1.00  0.00     0.263 C 
ATOM      2  O   UNL A   1      34.180  28.295  23.902  1.00  0.00    -0.268 OA
ATOM      3  N   UNL A   1      32.912  29.696  24.950  1.00  0.00    -0.351 N 
ATOM      4  H   UNL A   1      33.659  30.293  24.715  1.00  0.00     0.163 HD
ENDROOT
BRANCH   1   5
ATOM      5  C   UNL A   1      32.192  27.280  24.691  1.00  0.00     0.115 A 
ATOM      6  C   UNL A   1      31.454  25.065  25.522  1.00  0.00     0.164 A 
ATOM      7  N   UNL A   1      30.514  25.637  24.813  1.00  0.00    -0.237 NA
ATOM      8  S   UNL A   1      32.869  25.979  25.662  1.00  0.00    -0.105 S 
ATOM      9  C   UNL A   1      30.890  26.897  24.366  1.00  0.00     0.062 A 
ATOM     10  C   UNL A   1      29.770  27.576  23.679  1.00  0.00     0.068 C 
BRANCH   6  11
ATOM     11  C   UNL A   1      31.240  23.747  26.102  1.00  0.00     0.228 C 
ATOM     12  O   UNL A   1      30.764  23.589  27.234  1.00  0.00    -0.288 OA
BRANCH  11  13
ATOM     13  C   UNL A   1      31.723  22.503  25.348  1.00  0.00     0.313 C 
BRANCH  13  14
ATOM     14  O   UNL A   1      32.562  21.549  25.957  1.00  0.00    -0.485 OA
BRANCH  14  15
ATOM     15  C   UNL A   1      33.897  21.520  25.675  1.00  0.00     0.123 A 
ATOM     16  C   UNL A   1      37.031  23.676  26.074  1.00  0.00     0.044 C 
ATOM     17  C   UNL A   1      36.130  22.524  25.740  1.00  0.00    -0.047 A 
ATOM     18  C   UNL A   1      36.654  21.355  25.203  1.00  0.00     0.004 A 
ATOM     19  C   UNL A   1      34.749  22.608  25.939  1.00  0.00     0.050 A 
ATOM     20  C   UNL A   1      35.810  20.289  24.887  1.00  0.00     0.008 A 
ATOM     21  C   UNL A   1      34.414  20.330  25.116  1.00  0.00    -0.000 A 
BRANCH  21  22
ATOM     22  C   UNL A   1      33.582  19.083  24.715  1.00  0.00    -0.010 C 
ATOM     23  C   UNL A   1      34.554  17.979  24.235  1.00  0.00     0.016 C 
ATOM     24  C   UNL A   1      32.792  18.566  25.942  1.00  0.00     0.016 C 
ATOM     25  C   UNL A   1      32.542  19.253  23.584  1.00  0.00     0.016 C 
ENDBRANCH  21  22
ENDBRANCH  14  15
ENDBRANCH  13  14
ENDBRANCH  11  13
ENDBRANCH   6  11
ENDBRANCH   1   5
BRANCH   3  26
ATOM     26  C   UNL A   1      31.866  30.376  25.679  1.00  0.00     0.118 C 
BRANCH  26  27
ATOM     27  C   UNL A   1      32.351  30.819  27.055  1.00  0.00     0.042 C 
BRANCH  27  28
ATOM     28  C   UNL A   1      33.774  30.417  27.390  1.00  0.00     0.118 C 
BRANCH  28  29
ATOM     29  N   UNL A   1      34.431  31.375  28.281  1.00  0.00    -0.352 N 
ATOM     30  C   UNL A   1      35.613  31.241  28.994  1.00  0.00     0.251 C 
ATOM     31  H   UNL A   1      33.968  32.236  28.390  1.00  0.00     0.163 HD
ATOM     32  O   UNL A   1      36.040  32.146  29.679  1.00  0.00    -0.269 OA
BRANCH  30  33
ATOM     33  C   UNL A   1      36.410  30.016  28.768  1.00  0.00     0.039 A 
ATOM     34  C   UNL A   1      36.710  29.248  29.895  1.00  0.00     0.014 A 
ATOM     35  C   UNL A   1      37.113  29.858  27.578  1.00  0.00     0.014 A 
ATOM     36  C   UNL A   1      37.896  28.527  29.913  1.00  0.00     0.010 A 
ATOM     37  C   UNL A   1      38.343  29.238  27.634  1.00  0.00     0.010 A 
ATOM     38  C   UNL A   1      38.766  28.641  28.828  1.00  0.00    -0.014 A 
BRANCH  38  39
ATOM     39  C   UNL A   1      40.179  28.296  28.921  1.00  0.00     0.031 A 
ATOM     40  C   UNL A   1      40.666  27.015  28.378  1.00  0.00     0.074 A 
ATOM     41  C   UNL A   1      41.049  29.147  29.509  1.00  0.00     0.049 A 
ATOM     42  N   UNL A   1      41.722  26.404  28.801  1.00  0.00    -0.248 NA
ATOM     43  C   UNL A   1      39.948  26.276  27.347  1.00  0.00     0.031 C 
ATOM     44  C   UNL A   1      42.508  29.084  29.490  1.00  0.00     0.029 A 
ATOM     45  N   UNL A   1      40.773  30.139  30.439  1.00  0.00    -0.354 N 
ATOM     46  C   UNL A   1      41.976  25.368  27.935  1.00  0.00     0.074 A 
ATOM     47  C   UNL A   1      40.804  25.283  27.094  1.00  0.00     0.031 C 
ATOM     48  C   UNL A   1      42.990  29.812  30.510  1.00  0.00     0.029 A 
ATOM     49  C   UNL A   1      41.860  30.254  31.311  1.00  0.00     0.049 A 
ATOM     50  H   UNL A   1      39.948  30.674  30.479  1.00  0.00     0.167 HD
ATOM     51  C   UNL A   1      43.204  24.780  27.931  1.00  0.00     0.031 A 
ATOM     52  C   UNL A   1      41.721  30.026  32.651  1.00  0.00     0.031 A 
ATOM     53  C   UNL A   1      44.067  25.310  28.982  1.00  0.00     0.049 A 
ATOM     54  C   UNL A   1      42.518  28.839  33.156  1.00  0.00     0.074 A 
ATOM     55  C   UNL A   1      45.071  26.265  28.988  1.00  0.00     0.029 A 
ATOM     56  N   UNL A   1      43.741  25.072  30.310  1.00  0.00    -0.354 N 
ATOM     57  N   UNL A   1      43.069  27.947  32.380  1.00  0.00    -0.248 NA
ATOM     58  C   UNL A   1      42.709  28.530  34.573  1.00  0.00     0.031 C 
ATOM     59  C   UNL A   1      45.289  26.662  30.334  1.00  0.00     0.029 A 
ATOM     60  C   UNL A   1      44.443  25.924  31.141  1.00  0.00     0.049 A 
ATOM     61  H   UNL A   1      43.099  24.392  30.617  1.00  0.00     0.167 HD
ATOM     62  C   UNL A   1      43.639  26.963  33.141  1.00  0.00     0.074 A 
ATOM     63  C   UNL A   1      43.408  27.382  34.510  1.00  0.00     0.031 C 
ATOM     64  C   UNL A   1      44.232  25.869  32.580  1.00  0.00     0.031 A 
BRANCH  51  65
ATOM     65  C   UNL A   1      43.702  23.936  26.784  1.00  0.00    -0.014 A 
ATOM     66  C   UNL A   1      44.446  24.539  25.753  1.00  0.00     0.009 A 
ATOM     67  C   UNL A   1      43.424  22.568  26.626  1.00  0.00     0.009 A 
ATOM     68  C   UNL A   1      44.796  23.845  24.588  1.00  0.00     0.001 A 
ATOM     69  C   UNL A   1      43.731  21.879  25.444  1.00  0.00     0.001 A 
ATOM     70  C   UNL A   1      44.407  22.523  24.418  1.00  0.00     0.000 A 
ENDBRANCH  51  65
BRANCH  52  71
ATOM     71  C   UNL A   1      40.399  30.446  33.194  1.00  0.00    -0.014 A 
ATOM     72  C   UNL A   1      40.124  31.827  33.281  1.00  0.00     0.009 A 
ATOM     73  C   UNL A   1      39.329  29.544  33.274  1.00  0.00     0.009 A 
ATOM     74  C   UNL A   1      38.808  32.293  33.327  1.00  0.00     0.001 A 
ATOM     75  C   UNL A   1      38.012  30.017  33.329  1.00  0.00     0.001 A 
ATOM     76  C   UNL A   1      37.751  31.387  33.321  1.00  0.00     0.000 A 
ENDBRANCH  52  71
BRANCH  64  77
ATOM     77  C   UNL A   1      44.708  24.647  33.318  1.00  0.00    -0.014 A 
ATOM     78  C   UNL A   1      46.011  24.484  33.807  1.00  0.00     0.009 A 
ATOM     79  C   UNL A   1      43.761  23.663  33.681  1.00  0.00     0.009 A 
ATOM     80  C   UNL A   1      46.356  23.375  34.592  1.00  0.00     0.001 A 
ATOM     81  C   UNL A   1      44.090  22.580  34.498  1.00  0.00     0.001 A 
ATOM     82  C   UNL A   1      45.394  22.431  34.947  1.00  0.00     0.000 A 
ENDBRANCH  64  77
ENDBRANCH  38  39
ENDBRANCH  30  33
ENDBRANCH  28  29
ENDBRANCH  27  28
ENDBRANCH  26  27
ENDBRANCH   3  26
TORSDOF 15
ENDMDL
MODEL 2
REMARK VINA RESULT:     -12.4      3.017      8.685
REMARK SMILES Cc1ccc(C(C)(C)C)c(OCC(=O)c2nc(C)c(C(=O)NCCCNC(=O)c3ccc(-c4c5nc(c(-c6ccccc6)c6ccc([nH]6)c(-c6ccccc6)c6nc(c(-c7ccccc7)c7ccc4[nH]7)C=C6)C=C5)cc3)s2)c1
REMARK SMILES IDX 20 1 21 2 22 3 19 5 15 6 16 7 77 8 17 9 18 10 13 11 14 12
REMARK SMILES IDX 12 13 11 14 10 15 1 16 2 17 3 18 78 19 4 20 5 21 6 22 7 23
REMARK SMILES IDX 8 24 9 25 23 26 24 27 25 28 26 29 27 30 28 32 29 33 30 34
REMARK SMILES IDX 76 35 31 36 75 37 32 38 33 39 34 40 69 41 35 42 74 43 68 44
REMARK SMILES IDX 70 45 36 46 73 47 67 48 66 49 37 51 59 52 44 53 58 54 45 55
REMARK SMILES IDX 48 56 57 57 71 58 46 59 47 60 56 62 72 63 49 64 38 65 39 66
REMARK SMILES IDX 43 67 40 68 42 69 41 70 60 71 61 72 65 73 62 74 64 75 63 76
REMARK SMILES IDX 50 77 51 78 55 79 52 80 54 81 53 82
REMARK H PARENT 22 4 26 31 70 50 48 61
REMARK Flexibility Score: inf
ROOT
ATOM      1  C   UNL A   1      36.181  23.030  23.685  1.00  0.00     0.263 C 
ATOM      2  O   UNL A   1      36.267  22.965  22.450  1.00  0.00    -0.268 OA
ATOM      3  N   UNL A   1      37.417  23.122  24.272  1.00  0.00    -0.351 N 
ATOM      4  H   UNL A   1      38.149  23.111  23.615  1.00  0.00     0.163 HD
ENDROOT
BRANCH   1   5
ATOM      5  C   UNL A   1      34.886  23.018  24.373  1.00  0.00     0.115 A 
ATOM      6  C   UNL A   1      32.880  23.985  25.459  1.00  0.00     0.164 A 
ATOM      7  N   UNL A   1      32.823  22.678  25.449  1.00  0.00    -0.237 NA
ATOM      8  S   UNL A   1      34.274  24.624  24.747  1.00  0.00    -0.105 S 
ATOM      9  C   UNL A   1      33.921  22.112  24.812  1.00  0.00     0.062 A 
ATOM     10  C   UNL A   1      33.773  20.645  24.698  1.00  0.00     0.068 C 
BRANCH   6  11
ATOM     11  C   UNL A   1      31.806  24.764  26.059  1.00  0.00     0.228 C 
ATOM     12  O   UNL A   1      31.385  24.543  27.202  1.00  0.00    -0.288 OA
BRANCH  11  13
ATOM     13  C   UNL A   1      31.082  25.823  25.221  1.00  0.00     0.313 C 
BRANCH  13  14
ATOM     14  O   UNL A   1      31.782  26.862  24.576  1.00  0.00    -0.485 OA
BRANCH  14  15
ATOM     15  C   UNL A   1      31.174  28.059  24.332  1.00  0.00     0.123 A 
ATOM     16  C   UNL A   1      28.516  29.591  22.049  1.00  0.00     0.044 C 
ATOM     17  C   UNL A   1      29.548  29.438  23.126  1.00  0.00    -0.047 A 
ATOM     18  C   UNL A   1      29.853  30.504  23.964  1.00  0.00     0.004 A 
ATOM     19  C   UNL A   1      30.237  28.234  23.296  1.00  0.00     0.050 A 
ATOM     20  C   UNL A   1      30.820  30.357  24.960  1.00  0.00     0.008 A 
ATOM     21  C   UNL A   1      31.504  29.138  25.182  1.00  0.00    -0.000 A 
BRANCH  21  22
ATOM     22  C   UNL A   1      32.563  29.103  26.317  1.00  0.00    -0.010 C 
ATOM     23  C   UNL A   1      33.878  28.522  25.744  1.00  0.00     0.016 C 
ATOM     24  C   UNL A   1      32.824  30.540  26.831  1.00  0.00     0.016 C 
ATOM     25  C   UNL A   1      32.237  28.258  27.570  1.00  0.00     0.016 C 
ENDBRANCH  21  22
ENDBRANCH  14  15
ENDBRANCH  13  14
ENDBRANCH  11  13
ENDBRANCH   6  11
ENDBRANCH   1   5
BRANCH   3  26
ATOM     26  C   UNL A   1      37.893  23.230  25.633  1.00  0.00     0.118 C 
BRANCH  26  27
ATOM     27  C   UNL A   1      38.510  21.920  26.107  1.00  0.00     0.042 C 
BRANCH  27  28
ATOM     28  C   UNL A   1      39.966  22.015  26.521  1.00  0.00     0.118 C 
BRANCH  28  29
ATOM     29  N   UNL A   1      40.784  20.949  25.937  1.00  0.00    -0.352 N 
ATOM     30  C   UNL A   1      42.159  20.776  25.981  1.00  0.00     0.251 C 
ATOM     31  H   UNL A   1      40.288  20.258  25.444  1.00  0.00     0.163 HD
ATOM     32  O   UNL A   1      42.689  19.816  25.461  1.00  0.00    -0.269 OA
BRANCH  30  33
ATOM     33  C   UNL A   1      42.939  21.717  26.814  1.00  0.00     0.039 A 
ATOM     34  C   UNL A   1      42.735  21.648  28.194  1.00  0.00     0.014 A 
ATOM     35  C   UNL A   1      43.539  22.826  26.227  1.00  0.00     0.014 A 
ATOM     36  C   UNL A   1      42.873  22.807  28.946  1.00  0.00     0.010 A 
ATOM     37  C   UNL A   1      43.566  24.001  26.948  1.00  0.00     0.010 A 
ATOM     38  C   UNL A   1      43.157  24.003  28.287  1.00  0.00    -0.014 A 
BRANCH  38  39
ATOM     39  C   UNL A   1      42.902  25.305  28.889  1.00  0.00     0.031 A 
ATOM     40  C   UNL A   1      41.718  26.088  28.491  1.00  0.00     0.074 A 
ATOM     41  C   UNL A   1      43.754  25.806  29.812  1.00  0.00     0.049 A 
ATOM     42  N   UNL A   1      41.641  27.374  28.568  1.00  0.00    -0.248 NA
ATOM     43  C   UNL A   1      40.535  25.474  27.899  1.00  0.00     0.031 C 
ATOM     44  C   UNL A   1      43.550  26.962  30.680  1.00  0.00     0.029 A 
ATOM     45  N   UNL A   1      45.090  25.483  30.001  1.00  0.00    -0.354 N 
ATOM     46  C   UNL A   1      40.337  27.726  28.312  1.00  0.00     0.074 A 
ATOM     47  C   UNL A   1      39.708  26.520  27.827  1.00  0.00     0.031 C 
ATOM     48  C   UNL A   1      44.742  27.393  31.123  1.00  0.00     0.029 A 
ATOM     49  C   UNL A   1      45.771  26.622  30.443  1.00  0.00     0.049 A 
ATOM     50  H   UNL A   1      45.494  24.598  29.848  1.00  0.00     0.167 HD
ATOM     51  C   UNL A   1      39.893  28.965  28.665  1.00  0.00     0.031 A 
ATOM     52  C   UNL A   1      46.795  27.162  29.718  1.00  0.00     0.031 A 
ATOM     53  C   UNL A   1      40.967  29.800  29.194  1.00  0.00     0.049 A 
ATOM     54  C   UNL A   1      46.511  28.559  29.203  1.00  0.00     0.074 A 
ATOM     55  C   UNL A   1      41.368  30.120  30.482  1.00  0.00     0.029 A 
ATOM     56  N   UNL A   1      41.996  30.194  28.350  1.00  0.00    -0.354 N 
ATOM     57  N   UNL A   1      45.328  29.108  29.200  1.00  0.00    -0.248 NA
ATOM     58  C   UNL A   1      47.523  29.426  28.599  1.00  0.00     0.031 C 
ATOM     59  C   UNL A   1      42.689  30.636  30.412  1.00  0.00     0.029 A 
ATOM     60  C   UNL A   1      43.071  30.660  29.083  1.00  0.00     0.049 A 
ATOM     61  H   UNL A   1      41.965  30.148  27.368  1.00  0.00     0.167 HD
ATOM     62  C   UNL A   1      45.390  30.334  28.594  1.00  0.00     0.074 A 
ATOM     63  C   UNL A   1      46.791  30.500  28.253  1.00  0.00     0.031 C 
ATOM     64  C   UNL A   1      44.278  31.100  28.399  1.00  0.00     0.031 A 
BRANCH  51  65
ATOM     65  C   UNL A   1      38.428  29.301  28.795  1.00  0.00    -0.014 A 
ATOM     66  C   UNL A   1      37.766  29.933  27.727  1.00  0.00     0.009 A 
ATOM     67  C   UNL A   1      37.664  29.083  29.952  1.00  0.00     0.009 A 
ATOM     68  C   UNL A   1      36.455  30.413  27.846  1.00  0.00     0.001 A 
ATOM     69  C   UNL A   1      36.370  29.600  30.097  1.00  0.00     0.001 A 
ATOM     70  C   UNL A   1      35.768  30.278  29.046  1.00  0.00     0.000 A 
ENDBRANCH  51  65
BRANCH  52  71
ATOM     71  C   UNL A   1      47.616  26.148  28.998  1.00  0.00    -0.014 A 
ATOM     72  C   UNL A   1      47.374  25.953  27.622  1.00  0.00     0.009 A 
ATOM     73  C   UNL A   1      48.815  25.669  29.542  1.00  0.00     0.009 A 
ATOM     74  C   UNL A   1      48.355  25.400  26.795  1.00  0.00     0.001 A 
ATOM     75  C   UNL A   1      49.792  25.108  28.709  1.00  0.00     0.001 A 
ATOM     76  C   UNL A   1      49.576  25.005  27.335  1.00  0.00     0.000 A 
ENDBRANCH  52  71
BRANCH  64  77
ATOM     77  C   UNL A   1      44.206  32.359  27.577  1.00  0.00    -0.014 A 
ATOM     78  C   UNL A   1      44.349  32.396  26.184  1.00  0.00     0.009 A 
ATOM     79  C   UNL A   1      43.818  33.560  28.212  1.00  0.00     0.009 A 
ATOM     80  C   UNL A   1      44.148  33.584  25.467  1.00  0.00     0.001 A 
ATOM     81  C   UNL A   1      43.575  34.734  27.497  1.00  0.00     0.001 A 
ATOM     82  C   UNL A   1      43.750  34.748  26.121  1.00  0.00     0.000 A 
ENDBRANCH  64  77
ENDBRANCH  38  39
ENDBRANCH  30  33
ENDBRANCH  28  29
ENDBRANCH  27  28
ENDBRANCH  26  27
ENDBRANCH   3  26
TORSDOF 15
ENDMDL
MODEL 3
REMARK VINA RESULT:     -12.2      3.223      8.995
REMARK SMILES Cc1ccc(C(C)(C)C)c(OCC(=O)c2nc(C)c(C(=O)NCCCNC(=O)c3ccc(-c4c5nc(c(-c6ccccc6)c6ccc([nH]6)c(-c6ccccc6)c6nc(c(-c7ccccc7)c7ccc4[nH]7)C=C6)C=C5)cc3)s2)c1
REMARK SMILES IDX 20 1 21 2 22 3 19 5 15 6 16 7 77 8 17 9 18 10 13 11 14 12
REMARK SMILES IDX 12 13 11 14 10 15 1 16 2 17 3 18 78 19 4 20 5 21 6 22 7 23
REMARK SMILES IDX 8 24 9 25 23 26 24 27 25 28 26 29 27 30 28 32 29 33 30 34
REMARK SMILES IDX 76 35 31 36 75 37 32 38 33 39 34 40 69 41 35 42 74 43 68 44
REMARK SMILES IDX 70 45 36 46 73 47 67 48 66 49 37 51 59 52 44 53 58 54 45 55
REMARK SMILES IDX 48 56 57 57 71 58 46 59 47 60 56 62 72 63 49 64 38 65 39 66
REMARK SMILES IDX 43 67 40 68 42 69 41 70 60 71 61 72 65 73 62 74 64 75 63 76
REMARK SMILES IDX 50 77 51 78 55 79 52 80 54 81 53 82
REMARK H PARENT 22 4 26 31 70 50 48 61
REMARK Flexibility Score: inf
ROOT
ATOM      1  C   UNL A   1      34.853  22.453  26.118  1.00  0.00     0.263 C 
ATOM      2  O   UNL A   1      34.598  22.853  27.263  1.00  0.00    -0.268 OA
ATOM      3  N   UNL A   1      35.926  21.598  26.109  1.00  0.00    -0.351 N 
ATOM      4  H   UNL A   1      36.307  21.461  27.006  1.00  0.00     0.163 HD
ENDROOT
BRANCH   1   5
ATOM      5  C   UNL A   1      34.061  22.871  24.957  1.00  0.00     0.115 A 
ATOM      6  C   UNL A   1      33.237  24.417  23.205  1.00  0.00     0.164 A 
ATOM      7  N   UNL A   1      32.680  23.237  23.089  1.00  0.00    -0.237 NA
ATOM      8  S   UNL A   1      34.330  24.544  24.487  1.00  0.00    -0.105 S 
ATOM      9  C   UNL A   1      33.154  22.341  24.039  1.00  0.00     0.062 A 
ATOM     10  C   UNL A   1      32.610  20.985  23.809  1.00  0.00     0.068 C 
BRANCH   6  11
ATOM     11  C   UNL A   1      32.890  25.488  22.282  1.00  0.00     0.228 C 
ATOM     12  O   UNL A   1      33.640  25.841  21.363  1.00  0.00    -0.288 OA
BRANCH  11  13
ATOM     13  C   UNL A   1      31.608  26.297  22.512  1.00  0.00     0.313 C 
BRANCH  13  14
ATOM     14  O   UNL A   1      31.616  27.706  22.530  1.00  0.00    -0.485 OA
BRANCH  14  15
ATOM     15  C   UNL A   1      31.793  28.383  23.701  1.00  0.00     0.123 A 
ATOM     16  C   UNL A   1      34.240  28.590  26.633  1.00  0.00     0.044 C 
ATOM     17  C   UNL A   1      33.077  28.872  25.728  1.00  0.00    -0.047 A 
ATOM     18  C   UNL A   1      32.188  29.898  26.025  1.00  0.00     0.004 A 
ATOM     19  C   UNL A   1      32.851  28.101  24.585  1.00  0.00     0.050 A 
ATOM     20  C   UNL A   1      31.104  30.151  25.183  1.00  0.00     0.008 A 
ATOM     21  C   UNL A   1      30.873  29.413  23.997  1.00  0.00    -0.000 A 
BRANCH  21  22
ATOM     22  C   UNL A   1      29.628  29.786  23.149  1.00  0.00    -0.010 C 
ATOM     23  C   UNL A   1      28.634  28.600  23.189  1.00  0.00     0.016 C 
ATOM     24  C   UNL A   1      28.947  31.041  23.746  1.00  0.00     0.016 C 
ATOM     25  C   UNL A   1      29.854  30.099  21.651  1.00  0.00     0.016 C 
ENDBRANCH  21  22
ENDBRANCH  14  15
ENDBRANCH  13  14
ENDBRANCH  11  13
ENDBRANCH   6  11
ENDBRANCH   1   5
BRANCH   3  26
ATOM     26  C   UNL A   1      36.627  20.854  25.088  1.00  0.00     0.118 C 
BRANCH  26  27
ATOM     27  C   UNL A   1      38.126  21.128  25.135  1.00  0.00     0.042 C 
BRANCH  27  28
ATOM     28  C   UNL A   1      38.525  22.352  25.937  1.00  0.00     0.118 C 
BRANCH  28  29
ATOM     29  N   UNL A   1      39.967  22.416  26.181  1.00  0.00    -0.352 N 
ATOM     30  C   UNL A   1      40.740  23.490  26.593  1.00  0.00     0.251 C 
ATOM     31  H   UNL A   1      40.458  21.576  26.031  1.00  0.00     0.163 HD
ATOM     32  O   UNL A   1      41.934  23.374  26.774  1.00  0.00    -0.269 OA
BRANCH  30  33
ATOM     33  C   UNL A   1      40.035  24.740  26.952  1.00  0.00     0.039 A 
ATOM     34  C   UNL A   1      40.460  25.905  26.310  1.00  0.00     0.014 A 
ATOM     35  C   UNL A   1      39.267  24.792  28.110  1.00  0.00     0.014 A 
ATOM     36  C   UNL A   1      40.357  27.112  26.987  1.00  0.00     0.010 A 
ATOM     37  C   UNL A   1      39.267  25.968  28.831  1.00  0.00     0.010 A 
ATOM     38  C   UNL A   1      39.883  27.107  28.299  1.00  0.00    -0.014 A 
BRANCH  38  39
ATOM     39  C   UNL A   1      40.132  28.206  29.223  1.00  0.00     0.031 A 
ATOM     40  C   UNL A   1      39.099  29.233  29.451  1.00  0.00     0.074 A 
ATOM     41  C   UNL A   1      41.315  28.292  29.874  1.00  0.00     0.049 A 
ATOM     42  N   UNL A   1      39.350  30.440  29.832  1.00  0.00    -0.248 NA
ATOM     43  C   UNL A   1      37.684  28.992  29.193  1.00  0.00     0.031 C 
ATOM     44  C   UNL A   1      41.656  29.169  30.990  1.00  0.00     0.029 A 
ATOM     45  N   UNL A   1      42.532  27.739  29.503  1.00  0.00    -0.354 N 
ATOM     46  C   UNL A   1      38.149  31.036  30.136  1.00  0.00     0.074 A 
ATOM     47  C   UNL A   1      37.141  30.123  29.650  1.00  0.00     0.031 C 
ATOM     48  C   UNL A   1      42.993  29.278  31.068  1.00  0.00     0.029 A 
ATOM     49  C   UNL A   1      43.559  28.593  29.917  1.00  0.00     0.049 A 
ATOM     50  H   UNL A   1      42.653  26.886  29.027  1.00  0.00     0.167 HD
ATOM     51  C   UNL A   1      38.133  32.172  30.886  1.00  0.00     0.031 A 
ATOM     52  C   UNL A   1      44.413  29.163  29.016  1.00  0.00     0.031 A 
ATOM     53  C   UNL A   1      39.480  32.656  31.174  1.00  0.00     0.049 A 
ATOM     54  C   UNL A   1      44.320  30.675  28.956  1.00  0.00     0.074 A 
ATOM     55  C   UNL A   1      40.313  32.533  32.274  1.00  0.00     0.029 A 
ATOM     56  N   UNL A   1      40.268  33.122  30.131  1.00  0.00    -0.354 N 
ATOM     57  N   UNL A   1      43.353  31.367  29.491  1.00  0.00    -0.248 NA
ATOM     58  C   UNL A   1      45.275  31.522  28.242  1.00  0.00     0.031 C 
ATOM     59  C   UNL A   1      41.634  32.851  31.860  1.00  0.00     0.029 A 
ATOM     60  C   UNL A   1      41.592  33.198  30.522  1.00  0.00     0.049 A 
ATOM     61  H   UNL A   1      39.933  33.364  29.238  1.00  0.00     0.167 HD
ATOM     62  C   UNL A   1      43.513  32.693  29.188  1.00  0.00     0.074 A 
ATOM     63  C   UNL A   1      44.743  32.745  28.422  1.00  0.00     0.031 C 
ATOM     64  C   UNL A   1      42.604  33.635  29.572  1.00  0.00     0.031 A 
BRANCH  51  65
ATOM     65  C   UNL A   1      36.896  32.666  31.595  1.00  0.00    -0.014 A 
ATOM     66  C   UNL A   1      35.986  33.489  30.906  1.00  0.00     0.009 A 
ATOM     67  C   UNL A   1      36.600  32.413  32.944  1.00  0.00     0.009 A 
ATOM     68  C   UNL A   1      34.908  34.107  31.554  1.00  0.00     0.001 A 
ATOM     69  C   UNL A   1      35.552  33.063  33.610  1.00  0.00     0.001 A 
ATOM     70  C   UNL A   1      34.712  33.922  32.916  1.00  0.00     0.000 A 
ENDBRANCH  51  65
BRANCH  52  71
ATOM     71  C   UNL A   1      44.719  28.290  27.848  1.00  0.00    -0.014 A 
ATOM     72  C   UNL A   1      45.571  27.184  28.049  1.00  0.00     0.009 A 
ATOM     73  C   UNL A   1      43.926  28.323  26.693  1.00  0.00     0.009 A 
ATOM     74  C   UNL A   1      45.543  26.091  27.179  1.00  0.00     0.001 A 
ATOM     75  C   UNL A   1      43.907  27.228  25.819  1.00  0.00     0.001 A 
ATOM     76  C   UNL A   1      44.688  26.101  26.081  1.00  0.00     0.000 A 
ENDBRANCH  52  71
BRANCH  64  77
ATOM     77  C   UNL A   1      42.582  35.073  29.128  1.00  0.00    -0.014 A 
ATOM     78  C   UNL A   1      43.302  36.099  29.753  1.00  0.00     0.009 A 
ATOM     79  C   UNL A   1      41.923  35.399  27.921  1.00  0.00     0.009 A 
ATOM     80  C   UNL A   1      43.335  37.393  29.215  1.00  0.00     0.001 A 
ATOM     81  C   UNL A   1      41.988  36.675  27.359  1.00  0.00     0.001 A 
ATOM     82  C   UNL A   1      42.689  37.678  28.014  1.00  0.00     0.000 A 
ENDBRANCH  64  77
ENDBRANCH  38  39
ENDBRANCH  30  33
ENDBRANCH  28  29
ENDBRANCH  27  28
ENDBRANCH  26  27
ENDBRANCH   3  26
TORSDOF 15
ENDMDL
