MODEL 1
REMARK VINA RESULT:     -10.8      0.000      0.000
REMARK SMILES COc1cccc([C@@]([NH3+])(C(=O)NCCCNC(=O)c2ccc(-c3c4nc(c(-c5ccccc5)c5ccc([nH]5)c(-c5ccccc5)c5nc(c(-c6ccccc6)c6ccc3[nH]6)C=C5)C=C4)cc2)C(F)(F)F)c1
REMARK SMILES IDX 14 1 13 2 12 3 10 4 11 5 8 7 7 8 3 9 4 10 71 11 5 12 6 13
REMARK SMILES IDX 2 14 1 15 9 16 67 20 68 21 69 22 70 23 15 24 16 25 17 26
REMARK SMILES IDX 18 28 19 29 20 30 66 31 21 32 65 33 22 34 23 35 24 36 59 37
REMARK SMILES IDX 25 38 64 39 58 40 60 41 26 42 63 43 57 44 56 45 27 47 49 48
REMARK SMILES IDX 34 49 48 50 35 51 38 52 47 53 61 54 36 55 37 56 46 58 62 59
REMARK SMILES IDX 39 60 28 61 29 62 33 63 30 64 32 65 31 66 50 67 51 68 55 69
REMARK SMILES IDX 52 70 54 71 53 72 40 73 41 74 45 75 42 76 44 77 43 78
REMARK H PARENT 12 6 9 17 9 18 9 19 16 27 60 46 38 57
REMARK Flexibility Score: inf
ROOT
ATOM      1  C   UNL A   1      37.215  19.751  25.026  1.00  0.00     0.042 C 
ENDROOT
BRANCH   1   2
ATOM      2  C   UNL A   1      36.063  20.726  24.789  1.00  0.00     0.118 C 
BRANCH   2   3
ATOM      3  N   UNL A   1      35.466  21.153  26.043  1.00  0.00    -0.350 N 
ATOM      4  C   UNL A   1      34.189  21.488  26.402  1.00  0.00     0.296 C 
ATOM      5  O   UNL A   1      34.098  21.966  27.539  1.00  0.00    -0.267 OA
ATOM      6  H   UNL A   1      36.110  21.213  26.785  1.00  0.00     0.163 HD
BRANCH   4   7
ATOM      7  C   UNL A   1      32.938  21.321  25.481  1.00  0.00     0.295 C 
BRANCH   7   8
ATOM      8  C   UNL A   1      32.846  19.885  24.907  1.00  0.00     0.035 A 
ATOM      9  C   UNL A   1      33.001  17.444  25.141  1.00  0.00     0.119 A 
ATOM     10  C   UNL A   1      32.636  17.283  23.807  1.00  0.00     0.046 A 
ATOM     11  C   UNL A   1      33.073  18.733  25.690  1.00  0.00     0.057 A 
ATOM     12  C   UNL A   1      32.401  18.395  23.010  1.00  0.00     0.004 A 
ATOM     13  C   UNL A   1      32.533  19.676  23.549  1.00  0.00     0.011 A 
BRANCH   9  14
ATOM     14  O   UNL A   1      33.257  16.274  25.801  1.00  0.00    -0.497 OA
ATOM     15  C   UNL A   1      32.456  15.148  25.460  1.00  0.00     0.278 C 
ENDBRANCH   9  14
ENDBRANCH   7   8
BRANCH   7  16
ATOM     16  N   UNL A   1      31.671  21.634  26.262  1.00  0.00    -0.333 N 
ATOM     17  H   UNL A   1      31.729  21.209  27.188  1.00  0.00     0.345 HD
ATOM     18  H   UNL A   1      30.864  21.259  25.764  1.00  0.00     0.345 HD
ATOM     19  H   UNL A   1      31.571  22.645  26.358  1.00  0.00     0.345 HD
ENDBRANCH   7  16
BRANCH   7  20
ATOM     20  C   UNL A   1      33.128  22.430  24.380  1.00  0.00     0.458 C 
ATOM     21  F   UNL A   1      33.902  22.094  23.330  1.00  0.00    -0.164 F 
ATOM     22  F   UNL A   1      31.913  22.788  23.873  1.00  0.00    -0.164 F 
ATOM     23  F   UNL A   1      33.639  23.566  24.927  1.00  0.00    -0.164 F 
ENDBRANCH   7  20
ENDBRANCH   4   7
ENDBRANCH   2   3
ENDBRANCH   1   2
BRANCH   1  24
ATOM     24  C   UNL A   1      38.511  20.429  25.451  1.00  0.00     0.118 C 
BRANCH  24  25
ATOM     25  N   UNL A   1      39.594  19.476  25.642  1.00  0.00    -0.352 N 
ATOM     26  C   UNL A   1      40.888  19.673  26.059  1.00  0.00     0.251 C 
ATOM     27  H   UNL A   1      39.362  18.541  25.441  1.00  0.00     0.163 HD
ATOM     28  O   UNL A   1      41.701  18.759  25.948  1.00  0.00    -0.269 OA
BRANCH  26  29
ATOM     29  C   UNL A   1      41.321  20.971  26.626  1.00  0.00     0.039 A 
ATOM     30  C   UNL A   1      41.841  21.940  25.762  1.00  0.00     0.014 A 
ATOM     31  C   UNL A   1      41.276  21.222  28.000  1.00  0.00     0.014 A 
ATOM     32  C   UNL A   1      42.268  23.172  26.267  1.00  0.00     0.010 A 
ATOM     33  C   UNL A   1      41.627  22.477  28.493  1.00  0.00     0.010 A 
ATOM     34  C   UNL A   1      42.140  23.460  27.635  1.00  0.00    -0.014 A 
BRANCH  34  35
ATOM     35  C   UNL A   1      42.560  24.772  28.189  1.00  0.00     0.031 A 
ATOM     36  C   UNL A   1      41.546  25.861  28.406  1.00  0.00     0.074 A 
ATOM     37  C   UNL A   1      43.861  25.005  28.447  1.00  0.00     0.049 A 
ATOM     38  N   UNL A   1      41.726  27.089  28.828  1.00  0.00    -0.248 NA
ATOM     39  C   UNL A   1      40.146  25.537  28.086  1.00  0.00     0.031 C 
ATOM     40  C   UNL A   1      44.950  24.045  28.257  1.00  0.00     0.029 A 
ATOM     41  N   UNL A   1      44.488  26.129  28.925  1.00  0.00    -0.354 N 
ATOM     42  C   UNL A   1      40.472  27.685  28.802  1.00  0.00     0.074 A 
ATOM     43  C   UNL A   1      39.547  26.702  28.281  1.00  0.00     0.031 C 
ATOM     44  C   UNL A   1      46.105  24.609  28.647  1.00  0.00     0.029 A 
ATOM     45  C   UNL A   1      45.846  25.981  29.074  1.00  0.00     0.049 A 
ATOM     46  H   UNL A   1      44.009  26.962  29.142  1.00  0.00     0.167 HD
ATOM     47  C   UNL A   1      40.115  28.932  29.193  1.00  0.00     0.031 A 
ATOM     48  C   UNL A   1      46.778  26.852  29.503  1.00  0.00     0.031 A 
ATOM     49  C   UNL A   1      41.028  29.908  29.725  1.00  0.00     0.049 A 
ATOM     50  C   UNL A   1      46.361  28.237  29.909  1.00  0.00     0.074 A 
ATOM     51  C   UNL A   1      40.754  31.177  30.201  1.00  0.00     0.029 A 
ATOM     52  N   UNL A   1      42.396  29.720  29.848  1.00  0.00    -0.354 N 
ATOM     53  N   UNL A   1      45.161  28.766  29.933  1.00  0.00    -0.248 NA
ATOM     54  C   UNL A   1      47.430  29.143  30.354  1.00  0.00     0.031 C 
ATOM     55  C   UNL A   1      41.964  31.776  30.571  1.00  0.00     0.029 A 
ATOM     56  C   UNL A   1      42.983  30.860  30.370  1.00  0.00     0.049 A 
ATOM     57  H   UNL A   1      42.879  28.898  29.600  1.00  0.00     0.167 HD
ATOM     58  C   UNL A   1      45.327  30.055  30.421  1.00  0.00     0.074 A 
ATOM     59  C   UNL A   1      46.741  30.224  30.691  1.00  0.00     0.031 C 
ATOM     60  C   UNL A   1      44.391  31.013  30.631  1.00  0.00     0.031 A 
BRANCH  47  61
ATOM     61  C   UNL A   1      38.667  29.310  29.046  1.00  0.00    -0.014 A 
ATOM     62  C   UNL A   1      38.163  29.806  27.832  1.00  0.00     0.009 A 
ATOM     63  C   UNL A   1      37.791  29.157  30.132  1.00  0.00     0.009 A 
ATOM     64  C   UNL A   1      36.823  30.184  27.724  1.00  0.00     0.001 A 
ATOM     65  C   UNL A   1      36.444  29.508  30.011  1.00  0.00     0.001 A 
ATOM     66  C   UNL A   1      35.965  30.032  28.811  1.00  0.00     0.000 A 
ENDBRANCH  47  61
BRANCH  48  67
ATOM     67  C   UNL A   1      48.198  26.430  29.600  1.00  0.00    -0.014 A 
ATOM     68  C   UNL A   1      48.679  25.839  30.779  1.00  0.00     0.009 A 
ATOM     69  C   UNL A   1      49.078  26.615  28.523  1.00  0.00     0.009 A 
ATOM     70  C   UNL A   1      50.019  25.459  30.884  1.00  0.00     0.001 A 
ATOM     71  C   UNL A   1      50.412  26.210  28.623  1.00  0.00     0.001 A 
ATOM     72  C   UNL A   1      50.882  25.640  29.806  1.00  0.00     0.000 A 
ENDBRANCH  48  67
BRANCH  60  73
ATOM     73  C   UNL A   1      44.863  32.315  31.213  1.00  0.00    -0.014 A 
ATOM     74  C   UNL A   1      44.937  32.507  32.600  1.00  0.00     0.009 A 
ATOM     75  C   UNL A   1      45.269  33.350  30.358  1.00  0.00     0.009 A 
ATOM     76  C   UNL A   1      45.381  33.725  33.120  1.00  0.00     0.001 A 
ATOM     77  C   UNL A   1      45.736  34.558  30.880  1.00  0.00     0.001 A 
ATOM     78  C   UNL A   1      45.784  34.747  32.260  1.00  0.00     0.000 A 
ENDBRANCH  60  73
ENDBRANCH  34  35
ENDBRANCH  26  29
ENDBRANCH  24  25
ENDBRANCH   1  24
TORSDOF 14
ENDMDL
MODEL 2
REMARK VINA RESULT:     -10.8      5.120      9.644
REMARK SMILES COc1cccc([C@@]([NH3+])(C(=O)NCCCNC(=O)c2ccc(-c3c4nc(c(-c5ccccc5)c5ccc([nH]5)c(-c5ccccc5)c5nc(c(-c6ccccc6)c6ccc3[nH]6)C=C5)C=C4)cc2)C(F)(F)F)c1
REMARK SMILES IDX 14 1 13 2 12 3 10 4 11 5 8 7 7 8 3 9 4 10 71 11 5 12 6 13
REMARK SMILES IDX 2 14 1 15 9 16 67 20 68 21 69 22 70 23 15 24 16 25 17 26
REMARK SMILES IDX 18 28 19 29 20 30 66 31 21 32 65 33 22 34 23 35 24 36 59 37
REMARK SMILES IDX 25 38 64 39 58 40 60 41 26 42 63 43 57 44 56 45 27 47 49 48
REMARK SMILES IDX 34 49 48 50 35 51 38 52 47 53 61 54 36 55 37 56 46 58 62 59
REMARK SMILES IDX 39 60 28 61 29 62 33 63 30 64 32 65 31 66 50 67 51 68 55 69
REMARK SMILES IDX 52 70 54 71 53 72 40 73 41 74 45 75 42 76 44 77 43 78
REMARK H PARENT 12 6 9 17 9 18 9 19 16 27 60 46 38 57
REMARK Flexibility Score: inf
ROOT
ATOM      1  C   UNL A   1      31.298  31.295  25.885  1.00  0.00     0.042 C 
ENDROOT
BRANCH   1   2
ATOM      2  C   UNL A   1      31.423  29.836  25.454  1.00  0.00     0.118 C 
BRANCH   2   3
ATOM      3  N   UNL A   1      32.471  29.666  24.460  1.00  0.00    -0.350 N 
ATOM      4  C   UNL A   1      32.631  28.803  23.412  1.00  0.00     0.296 C 
ATOM      5  O   UNL A   1      33.748  28.857  22.885  1.00  0.00    -0.267 OA
ATOM      6  H   UNL A   1      33.215  30.302  24.562  1.00  0.00     0.163 HD
BRANCH   4   7
ATOM      7  C   UNL A   1      31.537  27.805  22.912  1.00  0.00     0.295 C 
BRANCH   7   8
ATOM      8  C   UNL A   1      30.179  28.518  22.692  1.00  0.00     0.035 A 
ATOM      9  C   UNL A   1      28.818  30.357  21.795  1.00  0.00     0.119 A 
ATOM     10  C   UNL A   1      27.665  29.762  22.300  1.00  0.00     0.046 A 
ATOM     11  C   UNL A   1      30.058  29.722  21.965  1.00  0.00     0.057 A 
ATOM     12  C   UNL A   1      27.749  28.576  23.016  1.00  0.00     0.004 A 
ATOM     13  C   UNL A   1      28.993  27.981  23.231  1.00  0.00     0.011 A 
BRANCH   9  14
ATOM     14  O   UNL A   1      28.606  31.548  21.158  1.00  0.00    -0.497 OA
ATOM     15  C   UNL A   1      28.440  32.701  21.976  1.00  0.00     0.278 C 
ENDBRANCH   9  14
ENDBRANCH   7   8
BRANCH   7  16
ATOM     16  N   UNL A   1      31.981  27.154  21.611  1.00  0.00    -0.333 N 
ATOM     17  H   UNL A   1      33.000  27.098  21.590  1.00  0.00     0.345 HD
ATOM     18  H   UNL A   1      31.654  27.713  20.823  1.00  0.00     0.345 HD
ATOM     19  H   UNL A   1      31.589  26.215  21.548  1.00  0.00     0.345 HD
ENDBRANCH   7  16
BRANCH   7  20
ATOM     20  C   UNL A   1      31.494  26.697  24.030  1.00  0.00     0.458 C 
ATOM     21  F   UNL A   1      30.724  26.969  25.101  1.00  0.00    -0.164 F 
ATOM     22  F   UNL A   1      31.034  25.527  23.502  1.00  0.00    -0.164 F 
ATOM     23  F   UNL A   1      32.748  26.422  24.480  1.00  0.00    -0.164 F 
ENDBRANCH   7  20
ENDBRANCH   4   7
ENDBRANCH   2   3
ENDBRANCH   1   2
BRANCH   1  24
ATOM     24  C   UNL A   1      32.320  31.713  26.935  1.00  0.00     0.118 C 
BRANCH  24  25
ATOM     25  N   UNL A   1      32.198  33.117  27.295  1.00  0.00    -0.352 N 
ATOM     26  C   UNL A   1      32.988  33.899  28.102  1.00  0.00     0.251 C 
ATOM     27  H   UNL A   1      31.426  33.581  26.898  1.00  0.00     0.163 HD
ATOM     28  O   UNL A   1      32.586  35.008  28.443  1.00  0.00    -0.269 OA
BRANCH  26  29
ATOM     29  C   UNL A   1      34.308  33.423  28.577  1.00  0.00     0.039 A 
ATOM     30  C   UNL A   1      34.371  32.715  29.782  1.00  0.00     0.014 A 
ATOM     31  C   UNL A   1      35.485  33.713  27.883  1.00  0.00     0.014 A 
ATOM     32  C   UNL A   1      35.602  32.260  30.263  1.00  0.00     0.010 A 
ATOM     33  C   UNL A   1      36.701  33.192  28.321  1.00  0.00     0.010 A 
ATOM     34  C   UNL A   1      36.775  32.473  29.522  1.00  0.00    -0.014 A 
BRANCH  34  35
ATOM     35  C   UNL A   1      38.090  31.974  29.999  1.00  0.00     0.031 A 
ATOM     36  C   UNL A   1      38.633  30.666  29.489  1.00  0.00     0.074 A 
ATOM     37  C   UNL A   1      38.773  32.667  30.930  1.00  0.00     0.049 A 
ATOM     38  N   UNL A   1      39.733  30.039  29.827  1.00  0.00    -0.248 NA
ATOM     39  C   UNL A   1      37.823  29.959  28.485  1.00  0.00     0.031 C 
ATOM     40  C   UNL A   1      38.347  33.934  31.526  1.00  0.00     0.029 A 
ATOM     41  N   UNL A   1      39.973  32.398  31.539  1.00  0.00    -0.354 N 
ATOM     42  C   UNL A   1      39.733  28.859  29.095  1.00  0.00     0.074 A 
ATOM     43  C   UNL A   1      38.505  28.834  28.331  1.00  0.00     0.031 C 
ATOM     44  C   UNL A   1      39.288  34.350  32.390  1.00  0.00     0.029 A 
ATOM     45  C   UNL A   1      40.360  33.361  32.440  1.00  0.00     0.049 A 
ATOM     46  H   UNL A   1      40.506  31.592  31.349  1.00  0.00     0.167 HD
ATOM     47  C   UNL A   1      40.678  27.889  29.046  1.00  0.00     0.031 A 
ATOM     48  C   UNL A   1      41.454  33.437  33.220  1.00  0.00     0.031 A 
ATOM     49  C   UNL A   1      41.907  27.915  29.793  1.00  0.00     0.049 A 
ATOM     50  C   UNL A   1      42.476  32.337  33.168  1.00  0.00     0.074 A 
ATOM     51  C   UNL A   1      42.952  27.009  29.768  1.00  0.00     0.029 A 
ATOM     52  N   UNL A   1      42.254  28.903  30.701  1.00  0.00    -0.354 N 
ATOM     53  N   UNL A   1      42.489  31.256  32.426  1.00  0.00    -0.248 NA
ATOM     54  C   UNL A   1      43.639  32.475  34.055  1.00  0.00     0.031 C 
ATOM     55  C   UNL A   1      43.912  27.425  30.698  1.00  0.00     0.029 A 
ATOM     56  C   UNL A   1      43.486  28.615  31.263  1.00  0.00     0.049 A 
ATOM     57  H   UNL A   1      41.705  29.692  30.916  1.00  0.00     0.167 HD
ATOM     58  C   UNL A   1      43.672  30.599  32.737  1.00  0.00     0.074 A 
ATOM     59  C   UNL A   1      44.356  31.410  33.726  1.00  0.00     0.031 C 
ATOM     60  C   UNL A   1      44.152  29.431  32.246  1.00  0.00     0.031 A 
BRANCH  47  61
ATOM     61  C   UNL A   1      40.404  26.708  28.156  1.00  0.00    -0.014 A 
ATOM     62  C   UNL A   1      40.897  26.655  26.842  1.00  0.00     0.009 A 
ATOM     63  C   UNL A   1      39.652  25.627  28.642  1.00  0.00     0.009 A 
ATOM     64  C   UNL A   1      40.604  25.565  26.019  1.00  0.00     0.001 A 
ATOM     65  C   UNL A   1      39.387  24.524  27.826  1.00  0.00     0.001 A 
ATOM     66  C   UNL A   1      39.852  24.501  26.513  1.00  0.00     0.000 A 
ENDBRANCH  47  61
BRANCH  48  67
ATOM     67  C   UNL A   1      41.656  34.616  34.102  1.00  0.00    -0.014 A 
ATOM     68  C   UNL A   1      42.341  35.744  33.623  1.00  0.00     0.009 A 
ATOM     69  C   UNL A   1      41.170  34.622  35.417  1.00  0.00     0.009 A 
ATOM     70  C   UNL A   1      42.553  36.847  34.453  1.00  0.00     0.001 A 
ATOM     71  C   UNL A   1      41.360  35.737  36.237  1.00  0.00     0.001 A 
ATOM     72  C   UNL A   1      42.058  36.845  35.756  1.00  0.00     0.000 A 
ENDBRANCH  48  67
BRANCH  60  73
ATOM     73  C   UNL A   1      45.496  28.979  32.743  1.00  0.00    -0.014 A 
ATOM     74  C   UNL A   1      46.679  29.382  32.108  1.00  0.00     0.009 A 
ATOM     75  C   UNL A   1      45.576  28.166  33.883  1.00  0.00     0.009 A 
ATOM     76  C   UNL A   1      47.918  28.952  32.589  1.00  0.00     0.001 A 
ATOM     77  C   UNL A   1      46.816  27.759  34.377  1.00  0.00     0.001 A 
ATOM     78  C   UNL A   1      47.986  28.145  33.724  1.00  0.00     0.000 A 
ENDBRANCH  60  73
ENDBRANCH  34  35
ENDBRANCH  26  29
ENDBRANCH  24  25
ENDBRANCH   1  24
TORSDOF 14
ENDMDL
MODEL 3
REMARK VINA RESULT:     -10.7      0.287      6.039
REMARK SMILES COc1cccc([C@@]([NH3+])(C(=O)NCCCNC(=O)c2ccc(-c3c4nc(c(-c5ccccc5)c5ccc([nH]5)c(-c5ccccc5)c5nc(c(-c6ccccc6)c6ccc3[nH]6)C=C5)C=C4)cc2)C(F)(F)F)c1
REMARK SMILES IDX 14 1 13 2 12 3 10 4 11 5 8 7 7 8 3 9 4 10 71 11 5 12 6 13
REMARK SMILES IDX 2 14 1 15 9 16 67 20 68 21 69 22 70 23 15 24 16 25 17 26
REMARK SMILES IDX 18 28 19 29 20 30 66 31 21 32 65 33 22 34 23 35 24 36 59 37
REMARK SMILES IDX 25 38 64 39 58 40 60 41 26 42 63 43 57 44 56 45 27 47 49 48
REMARK SMILES IDX 34 49 48 50 35 51 38 52 47 53 61 54 36 55 37 56 46 58 62 59
REMARK SMILES IDX 39 60 28 61 29 62 33 63 30 64 32 65 31 66 50 67 51 68 55 69
REMARK SMILES IDX 52 70 54 71 53 72 40 73 41 74 45 75 42 76 44 77 43 78
REMARK H PARENT 12 6 9 17 9 18 9 19 16 27 60 46 38 57
REMARK Flexibility Score: inf
ROOT
ATOM      1  C   UNL A   1      37.243  19.552  25.019  1.00  0.00     0.042 C 
ENDROOT
BRANCH   1   2
ATOM      2  C   UNL A   1      36.049  20.474  24.785  1.00  0.00     0.118 C 
BRANCH   2   3
ATOM      3  N   UNL A   1      35.560  21.034  26.034  1.00  0.00    -0.350 N 
ATOM      4  C   UNL A   1      34.338  21.502  26.432  1.00  0.00     0.296 C 
ATOM      5  O   UNL A   1      34.350  22.061  27.536  1.00  0.00    -0.267 OA
ATOM      6  H   UNL A   1      36.247  21.086  26.737  1.00  0.00     0.163 HD
BRANCH   4   7
ATOM      7  C   UNL A   1      33.028  21.385  25.587  1.00  0.00     0.295 C 
BRANCH   7   8
ATOM      8  C   UNL A   1      32.837  19.950  25.036  1.00  0.00     0.035 A 
ATOM      9  C   UNL A   1      32.698  17.515  25.334  1.00  0.00     0.119 A 
ATOM     10  C   UNL A   1      32.455  17.353  23.972  1.00  0.00     0.046 A 
ATOM     11  C   UNL A   1      32.856  18.805  25.861  1.00  0.00     0.057 A 
ATOM     12  C   UNL A   1      32.425  18.458  23.134  1.00  0.00     0.004 A 
ATOM     13  C   UNL A   1      32.641  19.734  23.657  1.00  0.00     0.011 A 
BRANCH   9  14
ATOM     14  O   UNL A   1      32.756  16.345  26.040  1.00  0.00    -0.497 OA
ATOM     15  C   UNL A   1      32.749  15.135  25.291  1.00  0.00     0.278 C 
ENDBRANCH   9  14
ENDBRANCH   7   8
BRANCH   7  16
ATOM     16  N   UNL A   1      31.824  21.763  26.439  1.00  0.00    -0.333 N 
ATOM     17  H   UNL A   1      30.993  21.294  26.078  1.00  0.00     0.345 HD
ATOM     18  H   UNL A   1      31.688  22.773  26.405  1.00  0.00     0.345 HD
ATOM     19  H   UNL A   1      31.986  21.474  27.403  1.00  0.00     0.345 HD
ENDBRANCH   7  16
BRANCH   7  20
ATOM     20  C   UNL A   1      33.201  22.475  24.465  1.00  0.00     0.458 C 
ATOM     21  F   UNL A   1      34.012  22.145  23.442  1.00  0.00    -0.164 F 
ATOM     22  F   UNL A   1      31.987  22.775  23.922  1.00  0.00    -0.164 F 
ATOM     23  F   UNL A   1      33.657  23.642  24.997  1.00  0.00    -0.164 F 
ENDBRANCH   7  20
ENDBRANCH   4   7
ENDBRANCH   2   3
ENDBRANCH   1   2
BRANCH   1  24
ATOM     24  C   UNL A   1      38.523  20.291  25.387  1.00  0.00     0.118 C 
BRANCH  24  25
ATOM     25  N   UNL A   1      39.632  19.382  25.636  1.00  0.00    -0.352 N 
ATOM     26  C   UNL A   1      40.907  19.637  26.079  1.00  0.00     0.251 C 
ATOM     27  H   UNL A   1      39.437  18.434  25.459  1.00  0.00     0.163 HD
ATOM     28  O   UNL A   1      41.752  18.749  26.019  1.00  0.00    -0.269 OA
BRANCH  26  29
ATOM     29  C   UNL A   1      41.281  20.966  26.617  1.00  0.00     0.039 A 
ATOM     30  C   UNL A   1      41.806  21.920  25.739  1.00  0.00     0.014 A 
ATOM     31  C   UNL A   1      41.175  21.262  27.978  1.00  0.00     0.014 A 
ATOM     32  C   UNL A   1      42.177  23.180  26.216  1.00  0.00     0.010 A 
ATOM     33  C   UNL A   1      41.471  22.543  28.439  1.00  0.00     0.010 A 
ATOM     34  C   UNL A   1      41.989  23.511  27.567  1.00  0.00    -0.014 A 
BRANCH  34  35
ATOM     35  C   UNL A   1      42.350  24.853  28.090  1.00  0.00     0.031 A 
ATOM     36  C   UNL A   1      43.774  25.163  28.460  1.00  0.00     0.074 A 
ATOM     37  C   UNL A   1      41.389  25.777  28.284  1.00  0.00     0.049 A 
ATOM     38  N   UNL A   1      44.275  26.256  28.983  1.00  0.00    -0.248 NA
ATOM     39  C   UNL A   1      44.765  24.098  28.235  1.00  0.00     0.031 C 
ATOM     40  C   UNL A   1      39.966  25.597  27.992  1.00  0.00     0.029 A 
ATOM     41  N   UNL A   1      41.469  27.055  28.777  1.00  0.00    -0.354 N 
ATOM     42  C   UNL A   1      45.628  25.999  29.168  1.00  0.00     0.074 A 
ATOM     43  C   UNL A   1      45.862  24.636  28.745  1.00  0.00     0.031 C 
ATOM     44  C   UNL A   1      39.312  26.735  28.279  1.00  0.00     0.029 A 
ATOM     45  C   UNL A   1      40.260  27.707  28.814  1.00  0.00     0.049 A 
ATOM     46  H   UNL A   1      42.313  27.467  29.077  1.00  0.00     0.167 HD
ATOM     47  C   UNL A   1      46.594  26.828  29.630  1.00  0.00     0.031 A 
ATOM     48  C   UNL A   1      39.949  28.948  29.232  1.00  0.00     0.031 A 
ATOM     49  C   UNL A   1      46.369  28.189  30.039  1.00  0.00     0.049 A 
ATOM     50  C   UNL A   1      41.034  29.841  29.764  1.00  0.00     0.074 A 
ATOM     51  C   UNL A   1      47.293  29.126  30.468  1.00  0.00     0.029 A 
ATOM     52  N   UNL A   1      45.128  28.806  30.070  1.00  0.00    -0.354 N 
ATOM     53  N   UNL A   1      42.319  29.603  29.878  1.00  0.00    -0.248 NA
ATOM     54  C   UNL A   1      40.625  31.177  30.218  1.00  0.00     0.031 C 
ATOM     55  C   UNL A   1      46.603  30.297  30.803  1.00  0.00     0.029 A 
ATOM     56  C   UNL A   1      45.258  30.103  30.534  1.00  0.00     0.049 A 
ATOM     57  H   UNL A   1      44.280  28.383  29.802  1.00  0.00     0.167 HD
ATOM     58  C   UNL A   1      42.874  30.768  30.389  1.00  0.00     0.074 A 
ATOM     59  C   UNL A   1      41.789  31.715  30.553  1.00  0.00     0.031 C 
ATOM     60  C   UNL A   1      44.169  31.032  30.693  1.00  0.00     0.031 A 
BRANCH  47  61
ATOM     61  C   UNL A   1      47.988  26.271  29.727  1.00  0.00    -0.014 A 
ATOM     62  C   UNL A   1      48.843  26.248  28.613  1.00  0.00     0.009 A 
ATOM     63  C   UNL A   1      48.457  25.772  30.952  1.00  0.00     0.009 A 
ATOM     64  C   UNL A   1      50.122  25.696  28.713  1.00  0.00     0.001 A 
ATOM     65  C   UNL A   1      49.748  25.248  31.057  1.00  0.00     0.001 A 
ATOM     66  C   UNL A   1      50.573  25.200  29.935  1.00  0.00     0.000 A 
ENDBRANCH  47  61
BRANCH  48  67
ATOM     67  C   UNL A   1      38.548  29.433  29.139  1.00  0.00    -0.014 A 
ATOM     68  C   UNL A   1      37.681  29.295  30.234  1.00  0.00     0.009 A 
ATOM     69  C   UNL A   1      38.072  30.034  27.964  1.00  0.00     0.009 A 
ATOM     70  C   UNL A   1      36.356  29.730  30.146  1.00  0.00     0.001 A 
ATOM     71  C   UNL A   1      36.754  30.491  27.888  1.00  0.00     0.001 A 
ATOM     72  C   UNL A   1      35.896  30.332  28.976  1.00  0.00     0.000 A 
ENDBRANCH  48  67
BRANCH  60  73
ATOM     73  C   UNL A   1      44.486  32.411  31.199  1.00  0.00    -0.014 A 
ATOM     74  C   UNL A   1      44.469  32.703  32.571  1.00  0.00     0.009 A 
ATOM     75  C   UNL A   1      44.838  33.419  30.290  1.00  0.00     0.009 A 
ATOM     76  C   UNL A   1      44.770  33.991  33.019  1.00  0.00     0.001 A 
ATOM     77  C   UNL A   1      45.163  34.699  30.743  1.00  0.00     0.001 A 
ATOM     78  C   UNL A   1      45.120  34.986  32.106  1.00  0.00     0.000 A 
ENDBRANCH  60  73
ENDBRANCH  34  35
ENDBRANCH  26  29
ENDBRANCH  24  25
ENDBRANCH   1  24
TORSDOF 14
ENDMDL
