MODEL 1
REMARK VINA RESULT:     -10.5      0.000      0.000
REMARK SMILES CC(C)CN(C)S(=O)(=O)c1ccc(C(=O)NCCCNC(=O)c2ccc(-c3c4nc(c(-c5ccccc5)c5ccc([nH]5)c(-c5ccccc5)c5nc(c(-c6ccccc6)c6ccc3[nH]6)C=C5)C=C4)cc2)cc1
REMARK SMILES IDX 17 1 16 2 14 3 15 4 13 6 10 7 11 8 72 9 12 10 71 11 7 12
REMARK SMILES IDX 8 13 9 14 5 15 6 16 4 17 2 18 1 19 3 20 18 21 19 22 20 23
REMARK SMILES IDX 21 24 22 26 23 27 24 28 70 29 25 30 69 31 26 32 27 33 28 34
REMARK SMILES IDX 63 35 29 36 68 37 62 38 64 39 30 40 67 41 61 42 60 43 31 45
REMARK SMILES IDX 53 46 38 47 52 48 39 49 42 50 51 51 65 52 40 53 41 54 50 56
REMARK SMILES IDX 66 57 43 58 32 59 33 60 37 61 34 62 36 63 35 64 54 65 55 66
REMARK SMILES IDX 59 67 56 68 58 69 57 70 44 71 45 72 49 73 46 74 48 75 47 76
REMARK H PARENT 16 5 20 25 64 44 42 55
REMARK Flexibility Score: inf
ROOT
ATOM      1  C   UNL A   1      37.222  21.106  24.500  1.00  0.00     0.118 C 
ENDROOT
BRANCH   1   2
ATOM      2  N   UNL A   1      37.769  22.285  25.141  1.00  0.00    -0.352 N 
ATOM      3  C   UNL A   1      37.196  23.428  25.633  1.00  0.00     0.251 C 
ATOM      4  O   UNL A   1      37.953  24.259  26.135  1.00  0.00    -0.269 OA
ATOM      5  H   UNL A   1      38.747  22.258  25.244  1.00  0.00     0.163 HD
BRANCH   3   6
ATOM      6  C   UNL A   1      35.729  23.695  25.633  1.00  0.00     0.039 A 
ATOM      7  C   UNL A   1      32.951  24.087  25.829  1.00  0.00     0.082 A 
ATOM      8  C   UNL A   1      33.628  23.378  26.824  1.00  0.00     0.022 A 
ATOM      9  C   UNL A   1      33.648  24.598  24.736  1.00  0.00     0.022 A 
ATOM     10  C   UNL A   1      35.004  23.175  26.718  1.00  0.00     0.015 A 
ATOM     11  C   UNL A   1      35.038  24.439  24.668  1.00  0.00     0.015 A 
BRANCH   7  12
ATOM     12  S   UNL A   1      31.197  24.285  26.031  1.00  0.00     0.242 S 
ATOM     13  O   UNL A   1      30.843  23.654  27.286  1.00  0.00    -0.207 OA
ATOM     14  O   UNL A   1      30.625  23.841  24.783  1.00  0.00    -0.207 OA
BRANCH  12  15
ATOM     15  N   UNL A   1      30.889  25.979  26.228  1.00  0.00    -0.201 NA
ATOM     16  C   UNL A   1      30.603  26.666  24.924  1.00  0.00     0.124 C 
BRANCH  15  17
ATOM     17  C   UNL A   1      32.038  26.706  26.898  1.00  0.00     0.105 C 
BRANCH  17  18
ATOM     18  C   UNL A   1      32.384  28.076  26.286  1.00  0.00    -0.002 C 
ATOM     19  C   UNL A   1      32.045  29.258  27.197  1.00  0.00     0.009 C 
ATOM     20  C   UNL A   1      33.893  28.117  25.997  1.00  0.00     0.009 C 
ENDBRANCH  17  18
ENDBRANCH  15  17
ENDBRANCH  12  15
ENDBRANCH   7  12
ENDBRANCH   3   6
ENDBRANCH   1   2
BRANCH   1  21
ATOM     21  C   UNL A   1      38.063  19.871  24.825  1.00  0.00     0.042 C 
BRANCH  21  22
ATOM     22  C   UNL A   1      39.015  20.083  25.999  1.00  0.00     0.118 C 
BRANCH  22  23
ATOM     23  N   UNL A   1      40.223  19.282  25.866  1.00  0.00    -0.352 N 
ATOM     24  C   UNL A   1      41.538  19.650  25.989  1.00  0.00     0.251 C 
ATOM     25  H   UNL A   1      40.073  18.331  25.659  1.00  0.00     0.163 HD
ATOM     26  O   UNL A   1      42.418  18.876  25.622  1.00  0.00    -0.269 OA
BRANCH  24  27
ATOM     27  C   UNL A   1      41.906  20.969  26.546  1.00  0.00     0.039 A 
ATOM     28  C   UNL A   1      42.271  21.991  25.664  1.00  0.00     0.014 A 
ATOM     29  C   UNL A   1      41.955  21.188  27.926  1.00  0.00     0.014 A 
ATOM     30  C   UNL A   1      42.645  23.240  26.161  1.00  0.00     0.010 A 
ATOM     31  C   UNL A   1      42.271  22.452  28.419  1.00  0.00     0.010 A 
ATOM     32  C   UNL A   1      42.628  23.487  27.542  1.00  0.00    -0.014 A 
BRANCH  32  33
ATOM     33  C   UNL A   1      42.998  24.816  28.087  1.00  0.00     0.031 A 
ATOM     34  C   UNL A   1      41.940  25.859  28.322  1.00  0.00     0.074 A 
ATOM     35  C   UNL A   1      44.293  25.103  28.320  1.00  0.00     0.049 A 
ATOM     36  N   UNL A   1      42.077  27.097  28.726  1.00  0.00    -0.248 NA
ATOM     37  C   UNL A   1      40.548  25.466  28.048  1.00  0.00     0.031 C 
ATOM     38  C   UNL A   1      45.417  24.188  28.106  1.00  0.00     0.029 A 
ATOM     39  N   UNL A   1      44.884  26.253  28.782  1.00  0.00    -0.354 N 
ATOM     40  C   UNL A   1      40.795  27.633  28.737  1.00  0.00     0.074 A 
ATOM     41  C   UNL A   1      39.899  26.601  28.263  1.00  0.00     0.031 C 
ATOM     42  C   UNL A   1      46.557  24.806  28.455  1.00  0.00     0.029 A 
ATOM     43  C   UNL A   1      46.250  26.168  28.879  1.00  0.00     0.049 A 
ATOM     44  H   UNL A   1      44.375  27.061  29.021  1.00  0.00     0.167 HD
ATOM     45  C   UNL A   1      40.396  28.868  29.123  1.00  0.00     0.031 A 
ATOM     46  C   UNL A   1      47.156  27.088  29.261  1.00  0.00     0.031 A 
ATOM     47  C   UNL A   1      41.283  29.891  29.611  1.00  0.00     0.049 A 
ATOM     48  C   UNL A   1      46.688  28.453  29.677  1.00  0.00     0.074 A 
ATOM     49  C   UNL A   1      40.969  31.159  30.067  1.00  0.00     0.029 A 
ATOM     50  N   UNL A   1      42.659  29.759  29.707  1.00  0.00    -0.354 N 
ATOM     51  N   UNL A   1      45.467  28.927  29.729  1.00  0.00    -0.248 NA
ATOM     52  C   UNL A   1      47.725  29.407  30.097  1.00  0.00     0.031 C 
ATOM     53  C   UNL A   1      42.160  31.810  30.405  1.00  0.00     0.029 A 
ATOM     54  C   UNL A   1      43.211  30.929  30.202  1.00  0.00     0.049 A 
ATOM     55  H   UNL A   1      43.168  28.955  29.460  1.00  0.00     0.167 HD
ATOM     56  C   UNL A   1      45.586  30.223  30.213  1.00  0.00     0.074 A 
ATOM     57  C   UNL A   1      46.995  30.455  30.453  1.00  0.00     0.031 C 
ATOM     58  C   UNL A   1      44.614  31.140  30.439  1.00  0.00     0.031 A 
BRANCH  45  59
ATOM     59  C   UNL A   1      38.930  29.184  29.032  1.00  0.00    -0.014 A 
ATOM     60  C   UNL A   1      38.354  29.607  27.824  1.00  0.00     0.009 A 
ATOM     61  C   UNL A   1      38.107  29.016  30.155  1.00  0.00     0.009 A 
ATOM     62  C   UNL A   1      36.988  29.884  27.751  1.00  0.00     0.001 A 
ATOM     63  C   UNL A   1      36.736  29.270  30.073  1.00  0.00     0.001 A 
ATOM     64  C   UNL A   1      36.180  29.711  28.874  1.00  0.00     0.000 A 
ENDBRANCH  45  59
BRANCH  46  65
ATOM     65  C   UNL A   1      48.603  26.747  29.279  1.00  0.00    -0.014 A 
ATOM     66  C   UNL A   1      49.173  26.134  30.406  1.00  0.00     0.009 A 
ATOM     67  C   UNL A   1      49.421  27.047  28.181  1.00  0.00     0.009 A 
ATOM     68  C   UNL A   1      50.542  25.855  30.441  1.00  0.00     0.001 A 
ATOM     69  C   UNL A   1      50.783  26.742  28.208  1.00  0.00     0.001 A 
ATOM     70  C   UNL A   1      51.344  26.156  29.342  1.00  0.00     0.000 A 
ENDBRANCH  46  65
BRANCH  58  71
ATOM     71  C   UNL A   1      45.040  32.462  31.007  1.00  0.00    -0.014 A 
ATOM     72  C   UNL A   1      45.361  33.543  30.172  1.00  0.00     0.009 A 
ATOM     73  C   UNL A   1      45.083  32.637  32.399  1.00  0.00     0.009 A 
ATOM     74  C   UNL A   1      45.749  34.766  30.722  1.00  0.00     0.001 A 
ATOM     75  C   UNL A   1      45.447  33.868  32.945  1.00  0.00     0.001 A 
ATOM     76  C   UNL A   1      45.788  34.929  32.107  1.00  0.00     0.000 A 
ENDBRANCH  58  71
ENDBRANCH  32  33
ENDBRANCH  24  27
ENDBRANCH  22  23
ENDBRANCH  21  22
ENDBRANCH   1  21
TORSDOF 14
ENDMDL
MODEL 2
REMARK VINA RESULT:     -10.2      1.384      2.009
REMARK SMILES CC(C)CN(C)S(=O)(=O)c1ccc(C(=O)NCCCNC(=O)c2ccc(-c3c4nc(c(-c5ccccc5)c5ccc([nH]5)c(-c5ccccc5)c5nc(c(-c6ccccc6)c6ccc3[nH]6)C=C5)C=C4)cc2)cc1
REMARK SMILES IDX 17 1 16 2 14 3 15 4 13 6 10 7 11 8 72 9 12 10 71 11 7 12
REMARK SMILES IDX 8 13 9 14 5 15 6 16 4 17 2 18 1 19 3 20 18 21 19 22 20 23
REMARK SMILES IDX 21 24 22 26 23 27 24 28 70 29 25 30 69 31 26 32 27 33 28 34
REMARK SMILES IDX 63 35 29 36 68 37 62 38 64 39 30 40 67 41 61 42 60 43 31 45
REMARK SMILES IDX 53 46 38 47 52 48 39 49 42 50 51 51 65 52 40 53 41 54 50 56
REMARK SMILES IDX 66 57 43 58 32 59 33 60 37 61 34 62 36 63 35 64 54 65 55 66
REMARK SMILES IDX 59 67 56 68 58 69 57 70 44 71 45 72 49 73 46 74 48 75 47 76
REMARK H PARENT 16 5 20 25 64 44 42 55
REMARK Flexibility Score: inf
ROOT
ATOM      1  C   UNL A   1      36.168  20.351  24.998  1.00  0.00     0.118 C 
ENDROOT
BRANCH   1   2
ATOM      2  N   UNL A   1      35.106  19.367  24.941  1.00  0.00    -0.352 N 
ATOM      3  C   UNL A   1      33.741  19.471  24.914  1.00  0.00     0.251 C 
ATOM      4  O   UNL A   1      33.103  18.419  24.859  1.00  0.00    -0.269 OA
ATOM      5  H   UNL A   1      35.432  18.439  24.917  1.00  0.00     0.163 HD
BRANCH   3   6
ATOM      6  C   UNL A   1      33.000  20.765  24.903  1.00  0.00     0.039 A 
ATOM      7  C   UNL A   1      31.632  23.213  25.104  1.00  0.00     0.082 A 
ATOM      8  C   UNL A   1      32.139  22.601  26.253  1.00  0.00     0.022 A 
ATOM      9  C   UNL A   1      31.798  22.613  23.858  1.00  0.00     0.022 A 
ATOM     10  C   UNL A   1      32.808  21.380  26.150  1.00  0.00     0.015 A 
ATOM     11  C   UNL A   1      32.521  21.417  23.759  1.00  0.00     0.015 A 
BRANCH   7  12
ATOM     12  S   UNL A   1      30.779  24.756  25.324  1.00  0.00     0.242 S 
ATOM     13  O   UNL A   1      29.988  24.633  26.532  1.00  0.00    -0.207 OA
ATOM     14  O   UNL A   1      30.159  25.026  24.049  1.00  0.00    -0.207 OA
BRANCH  12  15
ATOM     15  N   UNL A   1      31.977  25.967  25.642  1.00  0.00    -0.201 NA
ATOM     16  C   UNL A   1      31.530  26.959  26.675  1.00  0.00     0.124 C 
BRANCH  15  17
ATOM     17  C   UNL A   1      32.373  26.735  24.395  1.00  0.00     0.105 C 
BRANCH  17  18
ATOM     18  C   UNL A   1      33.691  26.279  23.744  1.00  0.00    -0.002 C 
ATOM     19  C   UNL A   1      34.442  25.221  24.556  1.00  0.00     0.009 C 
ATOM     20  C   UNL A   1      33.375  25.681  22.364  1.00  0.00     0.009 C 
ENDBRANCH  17  18
ENDBRANCH  15  17
ENDBRANCH  12  15
ENDBRANCH   7  12
ENDBRANCH   3   6
ENDBRANCH   1   2
BRANCH   1  21
ATOM     21  C   UNL A   1      37.527  19.701  24.741  1.00  0.00     0.042 C 
BRANCH  21  22
ATOM     22  C   UNL A   1      38.652  20.308  25.576  1.00  0.00     0.118 C 
BRANCH  22  23
ATOM     23  N   UNL A   1      39.761  19.380  25.745  1.00  0.00    -0.352 N 
ATOM     24  C   UNL A   1      41.065  19.624  26.090  1.00  0.00     0.251 C 
ATOM     25  H   UNL A   1      39.540  18.433  25.589  1.00  0.00     0.163 HD
ATOM     26  O   UNL A   1      41.900  18.732  25.964  1.00  0.00    -0.269 OA
BRANCH  24  27
ATOM     27  C   UNL A   1      41.477  20.948  26.601  1.00  0.00     0.039 A 
ATOM     28  C   UNL A   1      41.352  21.206  27.970  1.00  0.00     0.014 A 
ATOM     29  C   UNL A   1      41.926  21.954  25.740  1.00  0.00     0.014 A 
ATOM     30  C   UNL A   1      41.713  22.454  28.480  1.00  0.00     0.010 A 
ATOM     31  C   UNL A   1      42.342  23.179  26.257  1.00  0.00     0.010 A 
ATOM     32  C   UNL A   1      42.230  23.444  27.631  1.00  0.00    -0.014 A 
BRANCH  32  33
ATOM     33  C   UNL A   1      42.642  24.768  28.159  1.00  0.00     0.031 A 
ATOM     34  C   UNL A   1      41.616  25.847  28.377  1.00  0.00     0.074 A 
ATOM     35  C   UNL A   1      43.944  25.016  28.391  1.00  0.00     0.049 A 
ATOM     36  N   UNL A   1      41.792  27.085  28.765  1.00  0.00    -0.248 NA
ATOM     37  C   UNL A   1      40.214  25.495  28.105  1.00  0.00     0.031 C 
ATOM     38  C   UNL A   1      45.039  24.063  28.192  1.00  0.00     0.029 A 
ATOM     39  N   UNL A   1      44.571  26.152  28.839  1.00  0.00    -0.354 N 
ATOM     40  C   UNL A   1      40.528  27.662  28.766  1.00  0.00     0.074 A 
ATOM     41  C   UNL A   1      39.601  26.653  28.303  1.00  0.00     0.031 C 
ATOM     42  C   UNL A   1      46.198  24.649  28.536  1.00  0.00     0.029 A 
ATOM     43  C   UNL A   1      45.934  26.025  28.941  1.00  0.00     0.049 A 
ATOM     44  H   UNL A   1      44.087  26.979  29.065  1.00  0.00     0.167 HD
ATOM     45  C   UNL A   1      40.169  28.915  29.134  1.00  0.00     0.031 A 
ATOM     46  C   UNL A   1      46.868  26.921  29.312  1.00  0.00     0.031 A 
ATOM     47  C   UNL A   1      41.087  29.915  29.610  1.00  0.00     0.049 A 
ATOM     48  C   UNL A   1      46.443  28.306  29.709  1.00  0.00     0.074 A 
ATOM     49  C   UNL A   1      40.812  31.199  30.048  1.00  0.00     0.029 A 
ATOM     50  N   UNL A   1      42.458  29.740  29.711  1.00  0.00    -0.354 N 
ATOM     51  N   UNL A   1      45.238  28.819  29.752  1.00  0.00    -0.248 NA
ATOM     52  C   UNL A   1      47.509  29.231  30.118  1.00  0.00     0.031 C 
ATOM     53  C   UNL A   1      42.024  31.815  30.380  1.00  0.00     0.029 A 
ATOM     54  C   UNL A   1      43.046  30.899  30.192  1.00  0.00     0.049 A 
ATOM     55  H   UNL A   1      42.942  28.917  29.476  1.00  0.00     0.167 HD
ATOM     56  C   UNL A   1      45.397  30.117  30.218  1.00  0.00     0.074 A 
ATOM     57  C   UNL A   1      46.812  30.308  30.458  1.00  0.00     0.031 C 
ATOM     58  C   UNL A   1      44.455  31.068  30.429  1.00  0.00     0.031 A 
BRANCH  45  59
ATOM     59  C   UNL A   1      38.714  29.276  29.035  1.00  0.00    -0.014 A 
ATOM     60  C   UNL A   1      38.168  29.761  27.836  1.00  0.00     0.009 A 
ATOM     61  C   UNL A   1      37.870  29.089  30.139  1.00  0.00     0.009 A 
ATOM     62  C   UNL A   1      36.811  30.081  27.755  1.00  0.00     0.001 A 
ATOM     63  C   UNL A   1      36.508  29.385  30.048  1.00  0.00     0.001 A 
ATOM     64  C   UNL A   1      35.982  29.888  28.859  1.00  0.00     0.000 A 
ENDBRANCH  45  59
BRANCH  46  65
ATOM     65  C   UNL A   1      48.303  26.534  29.339  1.00  0.00    -0.014 A 
ATOM     66  C   UNL A   1      48.874  26.006  30.507  1.00  0.00     0.009 A 
ATOM     67  C   UNL A   1      49.110  26.705  28.204  1.00  0.00     0.009 A 
ATOM     68  C   UNL A   1      50.233  25.685  30.546  1.00  0.00     0.001 A 
ATOM     69  C   UNL A   1      50.461  26.358  28.238  1.00  0.00     0.001 A 
ATOM     70  C   UNL A   1      51.024  25.858  29.411  1.00  0.00     0.000 A 
ENDBRANCH  46  65
BRANCH  58  71
ATOM     71  C   UNL A   1      44.921  32.383  30.980  1.00  0.00    -0.014 A 
ATOM     72  C   UNL A   1      45.009  32.603  32.363  1.00  0.00     0.009 A 
ATOM     73  C   UNL A   1      45.313  33.404  30.099  1.00  0.00     0.009 A 
ATOM     74  C   UNL A   1      45.451  33.833  32.853  1.00  0.00     0.001 A 
ATOM     75  C   UNL A   1      45.779  34.623  30.593  1.00  0.00     0.001 A 
ATOM     76  C   UNL A   1      45.839  34.839  31.969  1.00  0.00     0.000 A 
ENDBRANCH  58  71
ENDBRANCH  32  33
ENDBRANCH  24  27
ENDBRANCH  22  23
ENDBRANCH  21  22
ENDBRANCH   1  21
TORSDOF 14
ENDMDL
MODEL 3
REMARK VINA RESULT:     -10.2      3.736      8.957
REMARK SMILES CC(C)CN(C)S(=O)(=O)c1ccc(C(=O)NCCCNC(=O)c2ccc(-c3c4nc(c(-c5ccccc5)c5ccc([nH]5)c(-c5ccccc5)c5nc(c(-c6ccccc6)c6ccc3[nH]6)C=C5)C=C4)cc2)cc1
REMARK SMILES IDX 17 1 16 2 14 3 15 4 13 6 10 7 11 8 72 9 12 10 71 11 7 12
REMARK SMILES IDX 8 13 9 14 5 15 6 16 4 17 2 18 1 19 3 20 18 21 19 22 20 23
REMARK SMILES IDX 21 24 22 26 23 27 24 28 70 29 25 30 69 31 26 32 27 33 28 34
REMARK SMILES IDX 63 35 29 36 68 37 62 38 64 39 30 40 67 41 61 42 60 43 31 45
REMARK SMILES IDX 53 46 38 47 52 48 39 49 42 50 51 51 65 52 40 53 41 54 50 56
REMARK SMILES IDX 66 57 43 58 32 59 33 60 37 61 34 62 36 63 35 64 54 65 55 66
REMARK SMILES IDX 59 67 56 68 58 69 57 70 44 71 45 72 49 73 46 74 48 75 47 76
REMARK H PARENT 16 5 20 25 64 44 42 55
REMARK Flexibility Score: inf
ROOT
ATOM      1  C   UNL A   1      31.716  30.513  26.632  1.00  0.00     0.118 C 
ENDROOT
BRANCH   1   2
ATOM      2  N   UNL A   1      33.010  30.131  27.159  1.00  0.00    -0.352 N 
ATOM      3  C   UNL A   1      33.855  29.088  26.888  1.00  0.00     0.251 C 
ATOM      4  O   UNL A   1      34.911  29.048  27.521  1.00  0.00    -0.269 OA
ATOM      5  H   UNL A   1      33.349  30.745  27.850  1.00  0.00     0.163 HD
BRANCH   3   6
ATOM      6  C   UNL A   1      33.591  28.044  25.857  1.00  0.00     0.039 A 
ATOM      7  C   UNL A   1      33.178  26.216  23.761  1.00  0.00     0.082 A 
ATOM      8  C   UNL A   1      33.734  27.470  23.494  1.00  0.00     0.022 A 
ATOM      9  C   UNL A   1      32.823  25.869  25.062  1.00  0.00     0.022 A 
ATOM     10  C   UNL A   1      33.927  28.378  24.535  1.00  0.00     0.015 A 
ATOM     11  C   UNL A   1      33.075  26.766  26.108  1.00  0.00     0.015 A 
BRANCH   7  12
ATOM     12  S   UNL A   1      32.949  25.126  22.376  1.00  0.00     0.242 S 
ATOM     13  O   UNL A   1      33.459  25.814  21.208  1.00  0.00    -0.207 OA
ATOM     14  O   UNL A   1      31.571  24.706  22.455  1.00  0.00    -0.207 OA
BRANCH  12  15
ATOM     15  N   UNL A   1      33.977  23.753  22.626  1.00  0.00    -0.201 NA
ATOM     16  C   UNL A   1      33.254  22.602  23.262  1.00  0.00     0.124 C 
BRANCH  15  17
ATOM     17  C   UNL A   1      35.185  24.078  23.483  1.00  0.00     0.105 C 
BRANCH  17  18
ATOM     18  C   UNL A   1      35.603  22.968  24.464  1.00  0.00    -0.002 C 
ATOM     19  C   UNL A   1      36.949  22.324  24.125  1.00  0.00     0.009 C 
ATOM     20  C   UNL A   1      35.708  23.572  25.873  1.00  0.00     0.009 C 
ENDBRANCH  17  18
ENDBRANCH  15  17
ENDBRANCH  12  15
ENDBRANCH   7  12
ENDBRANCH   3   6
ENDBRANCH   1   2
BRANCH   1  21
ATOM     21  C   UNL A   1      31.467  32.008  26.830  1.00  0.00     0.042 C 
BRANCH  21  22
ATOM     22  C   UNL A   1      32.752  32.818  26.978  1.00  0.00     0.118 C 
BRANCH  22  23
ATOM     23  N   UNL A   1      32.527  34.062  27.697  1.00  0.00    -0.352 N 
ATOM     24  C   UNL A   1      33.182  34.579  28.785  1.00  0.00     0.251 C 
ATOM     25  H   UNL A   1      31.794  34.620  27.347  1.00  0.00     0.163 HD
ATOM     26  O   UNL A   1      32.699  35.537  29.381  1.00  0.00    -0.269 OA
BRANCH  24  27
ATOM     27  C   UNL A   1      34.454  33.988  29.253  1.00  0.00     0.039 A 
ATOM     28  C   UNL A   1      35.634  34.320  28.580  1.00  0.00     0.014 A 
ATOM     29  C   UNL A   1      34.486  33.068  30.305  1.00  0.00     0.014 A 
ATOM     30  C   UNL A   1      36.847  33.762  28.984  1.00  0.00     0.010 A 
ATOM     31  C   UNL A   1      35.704  32.557  30.747  1.00  0.00     0.010 A 
ATOM     32  C   UNL A   1      36.895  32.892  30.084  1.00  0.00    -0.014 A 
BRANCH  32  33
ATOM     33  C   UNL A   1      38.180  32.308  30.544  1.00  0.00     0.031 A 
ATOM     34  C   UNL A   1      38.677  31.016  29.955  1.00  0.00     0.074 A 
ATOM     35  C   UNL A   1      38.871  32.913  31.528  1.00  0.00     0.049 A 
ATOM     36  N   UNL A   1      39.737  30.317  30.276  1.00  0.00    -0.248 NA
ATOM     37  C   UNL A   1      37.866  30.420  28.881  1.00  0.00     0.031 C 
ATOM     38  C   UNL A   1      38.482  34.155  32.199  1.00  0.00     0.029 A 
ATOM     39  N   UNL A   1      40.047  32.559  32.140  1.00  0.00    -0.354 N 
ATOM     40  C   UNL A   1      39.710  29.195  29.457  1.00  0.00     0.074 A 
ATOM     41  C   UNL A   1      38.510  29.285  28.654  1.00  0.00     0.031 C 
ATOM     42  C   UNL A   1      39.412  34.468  33.116  1.00  0.00     0.029 A 
ATOM     43  C   UNL A   1      40.440  33.433  33.124  1.00  0.00     0.049 A 
ATOM     44  H   UNL A   1      40.560  31.754  31.897  1.00  0.00     0.167 HD
ATOM     45  C   UNL A   1      40.611  28.188  29.370  1.00  0.00     0.031 A 
ATOM     46  C   UNL A   1      41.507  33.399  33.945  1.00  0.00     0.031 A 
ATOM     47  C   UNL A   1      41.813  28.105  30.157  1.00  0.00     0.049 A 
ATOM     48  C   UNL A   1      42.487  32.267  33.832  1.00  0.00     0.074 A 
ATOM     49  C   UNL A   1      42.811  27.146  30.109  1.00  0.00     0.029 A 
ATOM     50  N   UNL A   1      42.180  29.019  31.131  1.00  0.00    -0.354 N 
ATOM     51  N   UNL A   1      42.472  31.240  33.018  1.00  0.00    -0.248 NA
ATOM     52  C   UNL A   1      43.637  32.296  34.747  1.00  0.00     0.031 C 
ATOM     53  C   UNL A   1      43.765  27.460  31.082  1.00  0.00     0.029 A 
ATOM     54  C   UNL A   1      43.383  28.639  31.703  1.00  0.00     0.049 A 
ATOM     55  H   UNL A   1      41.664  29.818  31.381  1.00  0.00     0.167 HD
ATOM     56  C   UNL A   1      43.622  30.516  33.303  1.00  0.00     0.074 A 
ATOM     57  C   UNL A   1      44.319  31.229  34.353  1.00  0.00     0.031 C 
ATOM     58  C   UNL A   1      44.064  29.364  32.744  1.00  0.00     0.031 A 
BRANCH  45  59
ATOM     59  C   UNL A   1      40.329  27.089  28.386  1.00  0.00    -0.014 A 
ATOM     60  C   UNL A   1      40.850  27.132  27.083  1.00  0.00     0.009 A 
ATOM     61  C   UNL A   1      39.571  25.976  28.778  1.00  0.00     0.009 A 
ATOM     62  C   UNL A   1      40.591  26.097  26.183  1.00  0.00     0.001 A 
ATOM     63  C   UNL A   1      39.334  24.929  27.883  1.00  0.00     0.001 A 
ATOM     64  C   UNL A   1      39.838  24.995  26.585  1.00  0.00     0.000 A 
ENDBRANCH  45  59
BRANCH  46  65
ATOM     65  C   UNL A   1      41.712  34.481  34.943  1.00  0.00    -0.014 A 
ATOM     66  C   UNL A   1      42.617  35.522  34.686  1.00  0.00     0.009 A 
ATOM     67  C   UNL A   1      41.020  34.468  36.163  1.00  0.00     0.009 A 
ATOM     68  C   UNL A   1      42.845  36.514  35.643  1.00  0.00     0.001 A 
ATOM     69  C   UNL A   1      41.229  35.475  37.106  1.00  0.00     0.001 A 
ATOM     70  C   UNL A   1      42.149  36.491  36.850  1.00  0.00     0.000 A 
ENDBRANCH  46  65
BRANCH  58  71
ATOM     71  C   UNL A   1      45.376  28.825  33.232  1.00  0.00    -0.014 A 
ATOM     72  C   UNL A   1      46.587  29.200  32.629  1.00  0.00     0.009 A 
ATOM     73  C   UNL A   1      45.402  27.957  34.335  1.00  0.00     0.009 A 
ATOM     74  C   UNL A   1      47.796  28.691  33.104  1.00  0.00     0.001 A 
ATOM     75  C   UNL A   1      46.615  27.470  34.822  1.00  0.00     0.001 A 
ATOM     76  C   UNL A   1      47.810  27.830  34.201  1.00  0.00     0.000 A 
ENDBRANCH  58  71
ENDBRANCH  32  33
ENDBRANCH  24  27
ENDBRANCH  22  23
ENDBRANCH  21  22
ENDBRANCH   1  21
TORSDOF 14
ENDMDL
