MODEL 1
REMARK VINA RESULT:     -10.9      0.000      0.000
REMARK SMILES COc1cccc(-c2ccc(C#N)c(SCC(=O)NCCCNC(=O)c3ccc(-c4c5nc(c(-c6ccccc6)c6ccc([nH]6)c(-c6ccccc6)c6nc(c(-c7ccccc7)c7ccc4[nH]7)C=C6)C=C5)cc3)n2)c1
REMARK SMILES IDX 20 1 19 2 17 3 18 4 16 6 15 7 14 8 8 9 9 10 74 11 10 12
REMARK SMILES IDX 11 13 7 14 3 15 4 16 75 17 5 18 6 19 2 20 1 21 12 22 13 23
REMARK SMILES IDX 21 24 22 25 23 26 24 27 25 29 26 30 27 31 73 32 28 33 72 34
REMARK SMILES IDX 29 35 30 36 31 37 66 38 32 39 71 40 65 41 67 42 33 43 70 44
REMARK SMILES IDX 64 45 63 46 34 48 56 49 41 50 55 51 42 52 45 53 54 54 68 55
REMARK SMILES IDX 43 56 44 57 53 59 69 60 46 61 35 62 36 63 40 64 37 65 39 66
REMARK SMILES IDX 38 67 57 68 58 69 62 70 59 71 61 72 60 73 47 74 48 75 52 76
REMARK SMILES IDX 49 77 51 78 50 79
REMARK H PARENT 19 5 23 28 67 47 45 58
REMARK Flexibility Score: inf
ROOT
ATOM      1  C   UNL A   1      36.326  21.062  25.197  1.00  0.00     0.117 C 
ENDROOT
BRANCH   1   2
ATOM      2  N   UNL A   1      36.064  21.901  24.046  1.00  0.00    -0.355 N 
ATOM      3  C   UNL A   1      35.580  23.168  23.983  1.00  0.00     0.230 C 
ATOM      4  O   UNL A   1      35.309  23.602  22.862  1.00  0.00    -0.274 OA
ATOM      5  H   UNL A   1      36.269  21.490  23.175  1.00  0.00     0.163 HD
BRANCH   3   6
ATOM      6  C   UNL A   1      35.451  24.022  25.227  1.00  0.00     0.176 C 
BRANCH   6   7
ATOM      7  S   UNL A   1      33.917  23.772  26.172  1.00  0.00    -0.095 SA
BRANCH   7   8
ATOM      8  C   UNL A   1      32.525  23.919  25.065  1.00  0.00     0.115 A 
ATOM      9  C   UNL A   1      31.084  25.579  24.203  1.00  0.00     0.072 A 
ATOM     10  C   UNL A   1      30.411  24.642  23.434  1.00  0.00     0.030 A 
ATOM     11  N   UNL A   1      32.103  25.223  25.023  1.00  0.00    -0.240 NA
ATOM     12  C   UNL A   1      30.837  23.322  23.464  1.00  0.00     0.024 A 
ATOM     13  C   UNL A   1      31.936  22.952  24.251  1.00  0.00     0.084 A 
BRANCH   9  14
ATOM     14  C   UNL A   1      30.760  27.011  24.076  1.00  0.00     0.004 A 
ATOM     15  C   UNL A   1      29.882  28.847  22.717  1.00  0.00     0.119 A 
ATOM     16  C   UNL A   1      30.464  29.766  23.590  1.00  0.00     0.046 A 
ATOM     17  C   UNL A   1      30.027  27.481  22.967  1.00  0.00     0.056 A 
ATOM     18  C   UNL A   1      31.148  29.327  24.723  1.00  0.00     0.005 A 
ATOM     19  C   UNL A   1      31.290  27.958  24.967  1.00  0.00     0.010 A 
BRANCH  15  20
ATOM     20  O   UNL A   1      29.268  29.394  21.624  1.00  0.00    -0.497 OA
ATOM     21  C   UNL A   1      28.086  30.147  21.868  1.00  0.00     0.278 C 
ENDBRANCH  15  20
ENDBRANCH   9  14
BRANCH  13  22
ATOM     22  C   UNL A   1      32.437  21.632  24.046  1.00  0.00     0.102 C 
ATOM     23  N   UNL A   1      32.932  20.588  23.909  1.00  0.00    -0.192 NA
ENDBRANCH  13  22
ENDBRANCH   7   8
ENDBRANCH   6   7
ENDBRANCH   3   6
ENDBRANCH   1   2
BRANCH   1  24
ATOM     24  C   UNL A   1      37.543  20.175  24.964  1.00  0.00     0.042 C 
BRANCH  24  25
ATOM     25  C   UNL A   1      38.792  20.623  25.721  1.00  0.00     0.118 C 
BRANCH  25  26
ATOM     26  N   UNL A   1      39.822  19.595  25.775  1.00  0.00    -0.352 N 
ATOM     27  C   UNL A   1      41.158  19.701  26.069  1.00  0.00     0.251 C 
ATOM     28  H   UNL A   1      39.511  18.683  25.570  1.00  0.00     0.163 HD
ATOM     29  O   UNL A   1      41.908  18.749  25.870  1.00  0.00    -0.269 OA
BRANCH  27  30
ATOM     30  C   UNL A   1      41.699  20.966  26.605  1.00  0.00     0.039 A 
ATOM     31  C   UNL A   1      42.162  21.936  25.714  1.00  0.00     0.014 A 
ATOM     32  C   UNL A   1      41.751  21.194  27.982  1.00  0.00     0.014 A 
ATOM     33  C   UNL A   1      42.608  23.166  26.203  1.00  0.00     0.010 A 
ATOM     34  C   UNL A   1      42.108  22.450  28.461  1.00  0.00     0.010 A 
ATOM     35  C   UNL A   1      42.542  23.450  27.578  1.00  0.00    -0.014 A 
BRANCH  35  36
ATOM     36  C   UNL A   1      42.917  24.785  28.109  1.00  0.00     0.031 A 
ATOM     37  C   UNL A   1      41.862  25.841  28.315  1.00  0.00     0.074 A 
ATOM     38  C   UNL A   1      44.211  25.067  28.357  1.00  0.00     0.049 A 
ATOM     39  N   UNL A   1      42.005  27.082  28.703  1.00  0.00    -0.248 NA
ATOM     40  C   UNL A   1      40.470  25.458  28.029  1.00  0.00     0.031 C 
ATOM     41  C   UNL A   1      45.332  24.140  28.178  1.00  0.00     0.029 A 
ATOM     42  N   UNL A   1      44.805  26.217  28.813  1.00  0.00    -0.354 N 
ATOM     43  C   UNL A   1      40.726  27.625  28.706  1.00  0.00     0.074 A 
ATOM     44  C   UNL A   1      39.830  26.602  28.218  1.00  0.00     0.031 C 
ATOM     45  C   UNL A   1      46.470  24.748  28.553  1.00  0.00     0.029 A 
ATOM     46  C   UNL A   1      46.170  26.120  28.944  1.00  0.00     0.049 A 
ATOM     47  H   UNL A   1      44.301  27.036  29.026  1.00  0.00     0.167 HD
ATOM     48  C   UNL A   1      40.328  28.856  29.107  1.00  0.00     0.031 A 
ATOM     49  C   UNL A   1      47.081  27.038  29.322  1.00  0.00     0.031 A 
ATOM     50  C   UNL A   1      41.219  29.878  29.587  1.00  0.00     0.049 A 
ATOM     51  C   UNL A   1      46.614  28.423  29.685  1.00  0.00     0.074 A 
ATOM     52  C   UNL A   1      40.907  31.150  30.035  1.00  0.00     0.029 A 
ATOM     53  N   UNL A   1      42.595  29.746  29.681  1.00  0.00    -0.354 N 
ATOM     54  N   UNL A   1      45.395  28.901  29.735  1.00  0.00    -0.248 NA
ATOM     55  C   UNL A   1      47.655  29.394  30.055  1.00  0.00     0.031 C 
ATOM     56  C   UNL A   1      42.101  31.811  30.338  1.00  0.00     0.029 A 
ATOM     57  C   UNL A   1      43.149  30.923  30.155  1.00  0.00     0.049 A 
ATOM     58  H   UNL A   1      43.103  28.936  29.445  1.00  0.00     0.167 HD
ATOM     59  C   UNL A   1      45.520  30.210  30.184  1.00  0.00     0.074 A 
ATOM     60  C   UNL A   1      46.929  30.444  30.409  1.00  0.00     0.031 C 
ATOM     61  C   UNL A   1      44.552  31.137  30.392  1.00  0.00     0.031 A 
BRANCH  48  62
ATOM     62  C   UNL A   1      38.857  29.168  29.046  1.00  0.00    -0.014 A 
ATOM     63  C   UNL A   1      38.035  29.006  30.173  1.00  0.00     0.009 A 
ATOM     64  C   UNL A   1      38.297  29.689  27.869  1.00  0.00     0.009 A 
ATOM     65  C   UNL A   1      36.679  29.332  30.113  1.00  0.00     0.001 A 
ATOM     66  C   UNL A   1      36.948  30.046  27.822  1.00  0.00     0.001 A 
ATOM     67  C   UNL A   1      36.139  29.859  28.941  1.00  0.00     0.000 A 
ENDBRANCH  48  62
BRANCH  49  68
ATOM     68  C   UNL A   1      48.530  26.699  29.372  1.00  0.00    -0.014 A 
ATOM     69  C   UNL A   1      49.113  26.227  30.559  1.00  0.00     0.009 A 
ATOM     70  C   UNL A   1      49.353  26.906  28.253  1.00  0.00     0.009 A 
ATOM     71  C   UNL A   1      50.493  26.024  30.642  1.00  0.00     0.001 A 
ATOM     72  C   UNL A   1      50.727  26.661  28.326  1.00  0.00     0.001 A 
ATOM     73  C   UNL A   1      51.298  26.239  29.525  1.00  0.00     0.000 A 
ENDBRANCH  49  68
BRANCH  61  74
ATOM     74  C   UNL A   1      44.975  32.470  30.950  1.00  0.00    -0.014 A 
ATOM     75  C   UNL A   1      45.276  33.558  30.116  1.00  0.00     0.009 A 
ATOM     76  C   UNL A   1      45.028  32.647  32.341  1.00  0.00     0.009 A 
ATOM     77  C   UNL A   1      45.660  34.782  30.665  1.00  0.00     0.001 A 
ATOM     78  C   UNL A   1      45.373  33.884  32.888  1.00  0.00     0.001 A 
ATOM     79  C   UNL A   1      45.699  34.947  32.050  1.00  0.00     0.000 A 
ENDBRANCH  61  74
ENDBRANCH  35  36
ENDBRANCH  27  30
ENDBRANCH  25  26
ENDBRANCH  24  25
ENDBRANCH   1  24
TORSDOF 15
ENDMDL
MODEL 2
REMARK VINA RESULT:     -10.8      0.419      5.942
REMARK SMILES COc1cccc(-c2ccc(C#N)c(SCC(=O)NCCCNC(=O)c3ccc(-c4c5nc(c(-c6ccccc6)c6ccc([nH]6)c(-c6ccccc6)c6nc(c(-c7ccccc7)c7ccc4[nH]7)C=C6)C=C5)cc3)n2)c1
REMARK SMILES IDX 20 1 19 2 17 3 18 4 16 6 15 7 14 8 8 9 9 10 74 11 10 12
REMARK SMILES IDX 11 13 7 14 3 15 4 16 75 17 5 18 6 19 2 20 1 21 12 22 13 23
REMARK SMILES IDX 21 24 22 25 23 26 24 27 25 29 26 30 27 31 73 32 28 33 72 34
REMARK SMILES IDX 29 35 30 36 31 37 66 38 32 39 71 40 65 41 67 42 33 43 70 44
REMARK SMILES IDX 64 45 63 46 34 48 56 49 41 50 55 51 42 52 45 53 54 54 68 55
REMARK SMILES IDX 43 56 44 57 53 59 69 60 46 61 35 62 36 63 40 64 37 65 39 66
REMARK SMILES IDX 38 67 57 68 58 69 62 70 59 71 61 72 60 73 47 74 48 75 52 76
REMARK SMILES IDX 49 77 51 78 50 79
REMARK H PARENT 19 5 23 28 67 47 45 58
REMARK Flexibility Score: inf
ROOT
ATOM      1  C   UNL A   1      36.324  20.711  25.126  1.00  0.00     0.117 C 
ENDROOT
BRANCH   1   2
ATOM      2  N   UNL A   1      36.168  21.702  24.081  1.00  0.00    -0.355 N 
ATOM      3  C   UNL A   1      35.731  22.985  24.156  1.00  0.00     0.230 C 
ATOM      4  O   UNL A   1      35.551  23.572  23.087  1.00  0.00    -0.274 OA
ATOM      5  H   UNL A   1      36.418  21.399  23.178  1.00  0.00     0.163 HD
BRANCH   3   6
ATOM      6  C   UNL A   1      35.544  23.675  25.491  1.00  0.00     0.176 C 
BRANCH   6   7
ATOM      7  S   UNL A   1      33.954  23.346  26.309  1.00  0.00    -0.095 SA
BRANCH   7   8
ATOM      8  C   UNL A   1      32.640  23.542  25.118  1.00  0.00     0.115 A 
ATOM      9  C   UNL A   1      31.267  25.242  24.221  1.00  0.00     0.072 A 
ATOM     10  C   UNL A   1      30.643  24.337  23.376  1.00  0.00     0.030 A 
ATOM     11  N   UNL A   1      32.228  24.850  25.094  1.00  0.00    -0.240 NA
ATOM     12  C   UNL A   1      31.060  23.014  23.387  1.00  0.00     0.024 A 
ATOM     13  C   UNL A   1      32.102  22.608  24.232  1.00  0.00     0.084 A 
BRANCH   9  14
ATOM     14  C   UNL A   1      30.958  26.679  24.124  1.00  0.00     0.004 A 
ATOM     15  C   UNL A   1      30.204  28.573  22.771  1.00  0.00     0.119 A 
ATOM     16  C   UNL A   1      30.712  29.453  23.726  1.00  0.00     0.046 A 
ATOM     17  C   UNL A   1      30.324  27.197  22.977  1.00  0.00     0.056 A 
ATOM     18  C   UNL A   1      31.296  28.966  24.894  1.00  0.00     0.005 A 
ATOM     19  C   UNL A   1      31.413  27.588  25.095  1.00  0.00     0.010 A 
BRANCH  15  20
ATOM     20  O   UNL A   1      29.686  29.166  21.652  1.00  0.00    -0.497 OA
ATOM     21  C   UNL A   1      29.229  30.506  21.795  1.00  0.00     0.278 C 
ENDBRANCH  15  20
ENDBRANCH   9  14
BRANCH  13  22
ATOM     22  C   UNL A   1      32.610  21.294  24.013  1.00  0.00     0.102 C 
ATOM     23  N   UNL A   1      32.996  20.200  23.924  1.00  0.00    -0.192 NA
ENDBRANCH  13  22
ENDBRANCH   7   8
ENDBRANCH   6   7
ENDBRANCH   3   6
ENDBRANCH   1   2
BRANCH   1  24
ATOM     24  C   UNL A   1      37.591  19.889  24.917  1.00  0.00     0.042 C 
BRANCH  24  25
ATOM     25  C   UNL A   1      38.797  20.401  25.701  1.00  0.00     0.118 C 
BRANCH  25  26
ATOM     26  N   UNL A   1      39.886  19.434  25.763  1.00  0.00    -0.352 N 
ATOM     27  C   UNL A   1      41.212  19.618  26.060  1.00  0.00     0.251 C 
ATOM     28  H   UNL A   1      39.628  18.505  25.560  1.00  0.00     0.163 HD
ATOM     29  O   UNL A   1      42.016  18.710  25.868  1.00  0.00    -0.269 OA
BRANCH  27  30
ATOM     30  C   UNL A   1      41.678  20.914  26.594  1.00  0.00     0.039 A 
ATOM     31  C   UNL A   1      42.182  21.869  25.708  1.00  0.00     0.014 A 
ATOM     32  C   UNL A   1      41.618  21.188  27.962  1.00  0.00     0.014 A 
ATOM     33  C   UNL A   1      42.557  23.126  26.188  1.00  0.00     0.010 A 
ATOM     34  C   UNL A   1      41.904  22.467  28.424  1.00  0.00     0.010 A 
ATOM     35  C   UNL A   1      42.378  23.451  27.543  1.00  0.00    -0.014 A 
BRANCH  35  36
ATOM     36  C   UNL A   1      42.677  24.812  28.056  1.00  0.00     0.031 A 
ATOM     37  C   UNL A   1      44.084  25.182  28.446  1.00  0.00     0.074 A 
ATOM     38  C   UNL A   1      41.675  25.700  28.221  1.00  0.00     0.049 A 
ATOM     39  N   UNL A   1      44.526  26.294  28.976  1.00  0.00    -0.248 NA
ATOM     40  C   UNL A   1      45.125  24.164  28.231  1.00  0.00     0.031 C 
ATOM     41  C   UNL A   1      40.266  25.458  27.903  1.00  0.00     0.029 A 
ATOM     42  N   UNL A   1      41.689  26.986  28.700  1.00  0.00    -0.354 N 
ATOM     43  C   UNL A   1      45.891  26.107  29.158  1.00  0.00     0.074 A 
ATOM     44  C   UNL A   1      46.193  24.755  28.745  1.00  0.00     0.031 C 
ATOM     45  C   UNL A   1      39.559  26.571  28.162  1.00  0.00     0.029 A 
ATOM     46  C   UNL A   1      40.451  27.583  28.717  1.00  0.00     0.049 A 
ATOM     47  H   UNL A   1      42.509  27.439  29.003  1.00  0.00     0.167 HD
ATOM     48  C   UNL A   1      46.817  26.991  29.601  1.00  0.00     0.031 A 
ATOM     49  C   UNL A   1      40.073  28.803  29.145  1.00  0.00     0.031 A 
ATOM     50  C   UNL A   1      46.517  28.335  30.017  1.00  0.00     0.049 A 
ATOM     51  C   UNL A   1      41.115  29.734  29.707  1.00  0.00     0.074 A 
ATOM     52  C   UNL A   1      47.390  29.312  30.462  1.00  0.00     0.029 A 
ATOM     53  N   UNL A   1      45.248  28.890  30.041  1.00  0.00    -0.354 N 
ATOM     54  N   UNL A   1      42.410  29.560  29.820  1.00  0.00    -0.248 NA
ATOM     55  C   UNL A   1      40.641  31.039  30.194  1.00  0.00     0.031 C 
ATOM     56  C   UNL A   1      46.642  30.437  30.818  1.00  0.00     0.029 A 
ATOM     57  C   UNL A   1      45.312  30.188  30.518  1.00  0.00     0.049 A 
ATOM     58  H   UNL A   1      44.424  28.431  29.761  1.00  0.00     0.167 HD
ATOM     59  C   UNL A   1      42.906  30.747  30.345  1.00  0.00     0.074 A 
ATOM     60  C   UNL A   1      41.778  31.638  30.511  1.00  0.00     0.031 C 
ATOM     61  C   UNL A   1      44.184  31.071  30.662  1.00  0.00     0.031 A 
BRANCH  48  62
ATOM     62  C   UNL A   1      48.248  26.533  29.656  1.00  0.00    -0.014 A 
ATOM     63  C   UNL A   1      49.128  26.773  28.588  1.00  0.00     0.009 A 
ATOM     64  C   UNL A   1      48.743  25.910  30.813  1.00  0.00     0.009 A 
ATOM     65  C   UNL A   1      50.463  26.374  28.666  1.00  0.00     0.001 A 
ATOM     66  C   UNL A   1      50.087  25.543  30.902  1.00  0.00     0.001 A 
ATOM     67  C   UNL A   1      50.943  25.767  29.825  1.00  0.00     0.000 A 
ENDBRANCH  48  62
BRANCH  49  68
ATOM     68  C   UNL A   1      38.648  29.227  29.078  1.00  0.00    -0.014 A 
ATOM     69  C   UNL A   1      38.142  29.855  27.928  1.00  0.00     0.009 A 
ATOM     70  C   UNL A   1      37.800  29.067  30.185  1.00  0.00     0.009 A 
ATOM     71  C   UNL A   1      36.840  30.362  27.908  1.00  0.00     0.001 A 
ATOM     72  C   UNL A   1      36.484  29.536  30.148  1.00  0.00     0.001 A 
ATOM     73  C   UNL A   1      36.012  30.200  29.017  1.00  0.00     0.000 A 
ENDBRANCH  49  68
BRANCH  61  74
ATOM     74  C   UNL A   1      44.443  32.468  31.160  1.00  0.00    -0.014 A 
ATOM     75  C   UNL A   1      44.705  33.528  30.278  1.00  0.00     0.009 A 
ATOM     76  C   UNL A   1      44.378  32.731  32.537  1.00  0.00     0.009 A 
ATOM     77  C   UNL A   1      44.935  34.814  30.771  1.00  0.00     0.001 A 
ATOM     78  C   UNL A   1      44.568  34.024  33.023  1.00  0.00     0.001 A 
ATOM     79  C   UNL A   1      44.858  35.062  32.142  1.00  0.00     0.000 A 
ENDBRANCH  61  74
ENDBRANCH  35  36
ENDBRANCH  27  30
ENDBRANCH  25  26
ENDBRANCH  24  25
ENDBRANCH   1  24
TORSDOF 15
ENDMDL
MODEL 3
REMARK VINA RESULT:     -10.7      2.171      4.295
REMARK SMILES COc1cccc(-c2ccc(C#N)c(SCC(=O)NCCCNC(=O)c3ccc(-c4c5nc(c(-c6ccccc6)c6ccc([nH]6)c(-c6ccccc6)c6nc(c(-c7ccccc7)c7ccc4[nH]7)C=C6)C=C5)cc3)n2)c1
REMARK SMILES IDX 20 1 19 2 17 3 18 4 16 6 15 7 14 8 8 9 9 10 74 11 10 12
REMARK SMILES IDX 11 13 7 14 3 15 4 16 75 17 5 18 6 19 2 20 1 21 12 22 13 23
REMARK SMILES IDX 21 24 22 25 23 26 24 27 25 29 26 30 27 31 73 32 28 33 72 34
REMARK SMILES IDX 29 35 30 36 31 37 66 38 32 39 71 40 65 41 67 42 33 43 70 44
REMARK SMILES IDX 64 45 63 46 34 48 56 49 41 50 55 51 42 52 45 53 54 54 68 55
REMARK SMILES IDX 43 56 44 57 53 59 69 60 46 61 35 62 36 63 40 64 37 65 39 66
REMARK SMILES IDX 38 67 57 68 58 69 62 70 59 71 61 72 60 73 47 74 48 75 52 76
REMARK SMILES IDX 49 77 51 78 50 79
REMARK H PARENT 19 5 23 28 67 47 45 58
REMARK Flexibility Score: inf
ROOT
ATOM      1  C   UNL A   1      36.910  20.653  25.087  1.00  0.00     0.117 C 
ENDROOT
BRANCH   1   2
ATOM      2  N   UNL A   1      36.867  21.574  23.970  1.00  0.00    -0.355 N 
ATOM      3  C   UNL A   1      36.641  22.913  23.952  1.00  0.00     0.230 C 
ATOM      4  O   UNL A   1      36.509  23.438  22.846  1.00  0.00    -0.274 OA
ATOM      5  H   UNL A   1      37.026  21.167  23.087  1.00  0.00     0.163 HD
BRANCH   3   6
ATOM      6  C   UNL A   1      36.625  23.723  25.232  1.00  0.00     0.176 C 
BRANCH   6   7
ATOM      7  S   UNL A   1      35.004  23.835  26.049  1.00  0.00    -0.095 SA
BRANCH   7   8
ATOM      8  C   UNL A   1      33.732  23.414  24.870  1.00  0.00     0.115 A 
ATOM      9  C   UNL A   1      32.861  21.513  23.771  1.00  0.00     0.072 A 
ATOM     10  C   UNL A   1      31.905  22.283  23.128  1.00  0.00     0.030 A 
ATOM     11  N   UNL A   1      33.774  22.068  24.605  1.00  0.00    -0.240 NA
ATOM     12  C   UNL A   1      31.849  23.643  23.397  1.00  0.00     0.024 A 
ATOM     13  C   UNL A   1      32.739  24.219  24.313  1.00  0.00     0.084 A 
BRANCH   9  14
ATOM     14  C   UNL A   1      32.849  20.047  23.629  1.00  0.00     0.004 A 
ATOM     15  C   UNL A   1      33.819  17.877  24.213  1.00  0.00     0.119 A 
ATOM     16  C   UNL A   1      33.159  17.295  23.132  1.00  0.00     0.046 A 
ATOM     17  C   UNL A   1      33.657  19.243  24.459  1.00  0.00     0.056 A 
ATOM     18  C   UNL A   1      32.312  18.057  22.329  1.00  0.00     0.005 A 
ATOM     19  C   UNL A   1      32.154  19.423  22.579  1.00  0.00     0.010 A 
BRANCH  15  20
ATOM     20  O   UNL A   1      34.648  17.039  24.908  1.00  0.00    -0.497 OA
ATOM     21  C   UNL A   1      34.077  15.823  25.376  1.00  0.00     0.278 C 
ENDBRANCH  15  20
ENDBRANCH   9  14
BRANCH  13  22
ATOM     22  C   UNL A   1      32.463  25.566  24.693  1.00  0.00     0.102 C 
ATOM     23  N   UNL A   1      32.156  26.632  25.043  1.00  0.00    -0.192 NA
ENDBRANCH  13  22
ENDBRANCH   7   8
ENDBRANCH   6   7
ENDBRANCH   3   6
ENDBRANCH   1   2
BRANCH   1  24
ATOM     24  C   UNL A   1      38.096  19.702  24.968  1.00  0.00     0.042 C 
BRANCH  24  25
ATOM     25  C   UNL A   1      39.287  20.084  25.843  1.00  0.00     0.118 C 
BRANCH  25  26
ATOM     26  N   UNL A   1      40.315  19.052  25.884  1.00  0.00    -0.352 N 
ATOM     27  C   UNL A   1      41.675  19.167  26.025  1.00  0.00     0.251 C 
ATOM     28  H   UNL A   1      39.981  18.129  25.797  1.00  0.00     0.163 HD
ATOM     29  O   UNL A   1      42.396  18.192  25.838  1.00  0.00    -0.269 OA
BRANCH  27  30
ATOM     30  C   UNL A   1      42.273  20.469  26.384  1.00  0.00     0.039 A 
ATOM     31  C   UNL A   1      42.826  21.261  25.375  1.00  0.00     0.014 A 
ATOM     32  C   UNL A   1      42.290  20.907  27.710  1.00  0.00     0.014 A 
ATOM     33  C   UNL A   1      43.329  22.526  25.688  1.00  0.00     0.010 A 
ATOM     34  C   UNL A   1      42.706  22.201  28.005  1.00  0.00     0.010 A 
ATOM     35  C   UNL A   1      43.231  23.025  26.998  1.00  0.00    -0.014 A 
BRANCH  35  36
ATOM     36  C   UNL A   1      43.668  24.404  27.333  1.00  0.00     0.031 A 
ATOM     37  C   UNL A   1      42.651  25.449  27.710  1.00  0.00     0.074 A 
ATOM     38  C   UNL A   1      44.973  24.731  27.248  1.00  0.00     0.049 A 
ATOM     39  N   UNL A   1      42.833  26.719  27.968  1.00  0.00    -0.248 NA
ATOM     40  C   UNL A   1      41.247  25.015  27.788  1.00  0.00     0.031 C 
ATOM     41  C   UNL A   1      46.055  23.818  26.872  1.00  0.00     0.029 A 
ATOM     42  N   UNL A   1      45.612  25.925  27.471  1.00  0.00    -0.354 N 
ATOM     43  C   UNL A   1      41.570  27.233  28.236  1.00  0.00     0.074 A 
ATOM     44  C   UNL A   1      40.625  26.157  28.045  1.00  0.00     0.031 C 
ATOM     45  C   UNL A   1      47.225  24.476  26.926  1.00  0.00     0.029 A 
ATOM     46  C   UNL A   1      46.973  25.868  27.282  1.00  0.00     0.049 A 
ATOM     47  H   UNL A   1      45.141  26.747  27.741  1.00  0.00     0.167 HD
ATOM     48  C   UNL A   1      41.229  28.482  28.634  1.00  0.00     0.031 A 
ATOM     49  C   UNL A   1      47.910  26.831  27.370  1.00  0.00     0.031 A 
ATOM     50  C   UNL A   1      42.168  29.556  28.819  1.00  0.00     0.049 A 
ATOM     51  C   UNL A   1      47.488  28.229  27.738  1.00  0.00     0.074 A 
ATOM     52  C   UNL A   1      41.921  30.851  29.241  1.00  0.00     0.029 A 
ATOM     53  N   UNL A   1      43.532  29.461  28.594  1.00  0.00    -0.354 N 
ATOM     54  N   UNL A   1      46.297  28.683  28.042  1.00  0.00    -0.248 NA
ATOM     55  C   UNL A   1      48.548  29.248  27.784  1.00  0.00     0.031 C 
ATOM     56  C   UNL A   1      43.126  31.558  29.207  1.00  0.00     0.029 A 
ATOM     57  C   UNL A   1      44.135  30.682  28.842  1.00  0.00     0.049 A 
ATOM     58  H   UNL A   1      44.002  28.647  28.301  1.00  0.00     0.167 HD
ATOM     59  C   UNL A   1      46.473  30.025  28.358  1.00  0.00     0.074 A 
ATOM     60  C   UNL A   1      47.886  30.305  28.227  1.00  0.00     0.031 C 
ATOM     61  C   UNL A   1      45.546  30.944  28.725  1.00  0.00     0.031 A 
BRANCH  48  62
ATOM     62  C   UNL A   1      39.774  28.756  28.902  1.00  0.00    -0.014 A 
ATOM     63  C   UNL A   1      39.235  28.612  30.190  1.00  0.00     0.009 A 
ATOM     64  C   UNL A   1      38.947  29.225  27.869  1.00  0.00     0.009 A 
ATOM     65  C   UNL A   1      37.891  28.903  30.432  1.00  0.00     0.001 A 
ATOM     66  C   UNL A   1      37.612  29.548  28.122  1.00  0.00     0.001 A 
ATOM     67  C   UNL A   1      37.084  29.379  29.400  1.00  0.00     0.000 A 
ENDBRANCH  48  62
BRANCH  49  68
ATOM     68  C   UNL A   1      49.343  26.528  27.099  1.00  0.00    -0.014 A 
ATOM     69  C   UNL A   1      49.803  26.368  25.782  1.00  0.00     0.009 A 
ATOM     70  C   UNL A   1      50.246  26.335  28.156  1.00  0.00     0.009 A 
ATOM     71  C   UNL A   1      51.117  25.965  25.532  1.00  0.00     0.001 A 
ATOM     72  C   UNL A   1      51.572  25.975  27.902  1.00  0.00     0.001 A 
ATOM     73  C   UNL A   1      52.001  25.772  26.592  1.00  0.00     0.000 A 
ENDBRANCH  49  68
BRANCH  61  74
ATOM     74  C   UNL A   1      46.036  32.323  29.075  1.00  0.00    -0.014 A 
ATOM     75  C   UNL A   1      46.101  33.348  28.119  1.00  0.00     0.009 A 
ATOM     76  C   UNL A   1      46.396  32.610  30.401  1.00  0.00     0.009 A 
ATOM     77  C   UNL A   1      46.555  34.619  28.477  1.00  0.00     0.001 A 
ATOM     78  C   UNL A   1      46.810  33.891  30.765  1.00  0.00     0.001 A 
ATOM     79  C   UNL A   1      46.900  34.891  29.800  1.00  0.00     0.000 A 
ENDBRANCH  61  74
ENDBRANCH  35  36
ENDBRANCH  27  30
ENDBRANCH  25  26
ENDBRANCH  24  25
ENDBRANCH   1  24
TORSDOF 15
ENDMDL
