MODEL 1
REMARK VINA RESULT:     -11.3      0.000      0.000
REMARK SMILES C[C@@H](Sc1nc2ccccc2c(=O)n1N)C(=O)NCCCNC(=O)c1ccc(-c2c3nc(c(-c4ccccc4)c4ccc([nH]4)c(-c4ccccc4)c4nc(c(-c5ccccc5)c5ccc2[nH]5)C=C4)C=C3)cc1
REMARK SMILES IDX 19 1 18 2 16 3 17 4 2 6 1 7 3 8 4 9 5 10 14 11 6 12 12 13
REMARK SMILES IDX 7 14 11 15 13 16 8 17 10 18 9 19 15 20 20 23 21 24 22 25
REMARK SMILES IDX 23 26 24 28 25 29 26 30 72 31 27 32 71 33 28 34 29 35 30 36
REMARK SMILES IDX 65 37 31 38 70 39 64 40 66 41 32 42 69 43 63 44 62 45 33 47
REMARK SMILES IDX 55 48 40 49 54 50 41 51 44 52 53 53 67 54 42 55 43 56 52 58
REMARK SMILES IDX 68 59 45 60 34 61 35 62 39 63 36 64 38 65 37 66 56 67 57 68
REMARK SMILES IDX 61 69 58 70 60 71 59 72 46 73 47 74 51 75 48 76 50 77 49 78
REMARK H PARENT 18 5 15 21 15 22 22 27 66 46 44 57
REMARK Flexibility Score: inf
ROOT
ATOM      1  C   UNL A   1      36.540  20.481  25.022  1.00  0.00     0.117 C 
ENDROOT
BRANCH   1   2
ATOM      2  N   UNL A   1      35.386  19.597  25.001  1.00  0.00    -0.355 N 
ATOM      3  C   UNL A   1      34.051  19.876  24.984  1.00  0.00     0.233 C 
ATOM      4  O   UNL A   1      33.278  18.913  24.964  1.00  0.00    -0.274 OA
ATOM      5  H   UNL A   1      35.605  18.637  24.999  1.00  0.00     0.163 HD
BRANCH   3   6
ATOM      6  C   UNL A   1      33.517  21.309  24.996  1.00  0.00     0.141 C 
ATOM      7  C   UNL A   1      32.338  21.489  24.045  1.00  0.00     0.030 C 
BRANCH   6   8
ATOM      8  S   UNL A   1      33.255  21.806  26.737  1.00  0.00    -0.073 SA
BRANCH   8   9
ATOM      9  C   UNL A   1      32.689  23.445  26.560  1.00  0.00     0.191 A 
ATOM     10  N   UNL A   1      33.562  24.339  26.225  1.00  0.00    -0.222 NA
ATOM     11  N   UNL A   1      31.330  23.697  26.703  1.00  0.00    -0.202 N 
ATOM     12  C   UNL A   1      33.105  25.637  25.956  1.00  0.00     0.079 A 
ATOM     13  C   UNL A   1      30.790  24.954  26.437  1.00  0.00     0.280 A 
ATOM     14  C   UNL A   1      34.028  26.604  25.550  1.00  0.00     0.029 A 
ATOM     15  C   UNL A   1      31.755  25.991  26.029  1.00  0.00     0.068 A 
ATOM     16  O   UNL A   1      29.587  25.204  26.501  1.00  0.00    -0.267 OA
ATOM     17  C   UNL A   1      33.607  27.896  25.218  1.00  0.00     0.002 A 
ATOM     18  C   UNL A   1      31.325  27.282  25.702  1.00  0.00     0.016 A 
ATOM     19  C   UNL A   1      32.256  28.234  25.292  1.00  0.00     0.001 A 
BRANCH  11  20
ATOM     20  N   UNL A   1      30.412  22.674  27.111  1.00  0.00    -0.334 N 
ATOM     21  H   UNL A   1      29.891  22.783  27.940  1.00  0.00     0.178 HD
ATOM     22  H   UNL A   1      30.301  21.864  26.563  1.00  0.00     0.178 HD
ENDBRANCH  11  20
ENDBRANCH   8   9
ENDBRANCH   6   8
ENDBRANCH   3   6
ENDBRANCH   1   2
BRANCH   1  23
ATOM     23  C   UNL A   1      37.840  19.705  24.870  1.00  0.00     0.042 C 
BRANCH  23  24
ATOM     24  C   UNL A   1      38.965  20.232  25.752  1.00  0.00     0.118 C 
BRANCH  24  25
ATOM     25  N   UNL A   1      40.081  19.299  25.850  1.00  0.00    -0.352 N 
ATOM     26  C   UNL A   1      41.403  19.535  26.128  1.00  0.00     0.251 C 
ATOM     27  H   UNL A   1      39.850  18.355  25.692  1.00  0.00     0.163 HD
ATOM     28  O   UNL A   1      42.233  18.641  25.969  1.00  0.00    -0.269 OA
BRANCH  26  29
ATOM     29  C   UNL A   1      41.837  20.865  26.599  1.00  0.00     0.039 A 
ATOM     30  C   UNL A   1      42.297  21.797  25.665  1.00  0.00     0.014 A 
ATOM     31  C   UNL A   1      41.799  21.191  27.957  1.00  0.00     0.014 A 
ATOM     32  C   UNL A   1      42.648  23.082  26.086  1.00  0.00     0.010 A 
ATOM     33  C   UNL A   1      42.064  22.494  28.362  1.00  0.00     0.010 A 
ATOM     34  C   UNL A   1      42.494  23.452  27.431  1.00  0.00    -0.014 A 
BRANCH  34  35
ATOM     35  C   UNL A   1      42.776  24.834  27.894  1.00  0.00     0.031 A 
ATOM     36  C   UNL A   1      44.176  25.231  28.275  1.00  0.00     0.074 A 
ATOM     37  C   UNL A   1      41.760  25.707  28.045  1.00  0.00     0.049 A 
ATOM     38  N   UNL A   1      44.604  26.357  28.786  1.00  0.00    -0.248 NA
ATOM     39  C   UNL A   1      45.228  24.220  28.080  1.00  0.00     0.031 C 
ATOM     40  C   UNL A   1      40.354  25.434  27.743  1.00  0.00     0.029 A 
ATOM     41  N   UNL A   1      41.757  27.001  28.503  1.00  0.00    -0.354 N 
ATOM     42  C   UNL A   1      45.967  26.182  28.993  1.00  0.00     0.074 A 
ATOM     43  C   UNL A   1      46.284  24.827  28.600  1.00  0.00     0.031 C 
ATOM     44  C   UNL A   1      39.629  26.535  28.000  1.00  0.00     0.029 A 
ATOM     45  C   UNL A   1      40.508  27.572  28.530  1.00  0.00     0.049 A 
ATOM     46  H   UNL A   1      42.573  27.475  28.785  1.00  0.00     0.167 HD
ATOM     47  C   UNL A   1      46.875  27.074  29.451  1.00  0.00     0.031 A 
ATOM     48  C   UNL A   1      40.111  28.789  28.947  1.00  0.00     0.031 A 
ATOM     49  C   UNL A   1      46.560  28.425  29.833  1.00  0.00     0.049 A 
ATOM     50  C   UNL A   1      41.136  29.752  29.479  1.00  0.00     0.074 A 
ATOM     51  C   UNL A   1      47.420  29.422  30.257  1.00  0.00     0.029 A 
ATOM     52  N   UNL A   1      45.283  28.964  29.841  1.00  0.00    -0.354 N 
ATOM     53  N   UNL A   1      42.430  29.594  29.606  1.00  0.00    -0.248 NA
ATOM     54  C   UNL A   1      40.643  31.066  29.918  1.00  0.00     0.031 C 
ATOM     55  C   UNL A   1      46.655  30.549  30.576  1.00  0.00     0.029 A 
ATOM     56  C   UNL A   1      45.327  30.273  30.290  1.00  0.00     0.049 A 
ATOM     57  H   UNL A   1      44.466  28.487  29.568  1.00  0.00     0.167 HD
ATOM     58  C   UNL A   1      42.912  30.795  30.109  1.00  0.00     0.074 A 
ATOM     59  C   UNL A   1      41.772  31.677  30.251  1.00  0.00     0.031 C 
ATOM     60  C   UNL A   1      44.185  31.138  30.423  1.00  0.00     0.031 A 
BRANCH  47  61
ATOM     61  C   UNL A   1      48.301  26.611  29.575  1.00  0.00    -0.014 A 
ATOM     62  C   UNL A   1      49.222  26.798  28.532  1.00  0.00     0.009 A 
ATOM     63  C   UNL A   1      48.740  26.012  30.766  1.00  0.00     0.009 A 
ATOM     64  C   UNL A   1      50.541  26.359  28.664  1.00  0.00     0.001 A 
ATOM     65  C   UNL A   1      50.067  25.602  30.908  1.00  0.00     0.001 A 
ATOM     66  C   UNL A   1      50.964  25.767  29.853  1.00  0.00     0.000 A 
ENDBRANCH  47  61
BRANCH  48  67
ATOM     67  C   UNL A   1      38.676  29.171  28.874  1.00  0.00    -0.014 A 
ATOM     68  C   UNL A   1      37.837  29.001  29.985  1.00  0.00     0.009 A 
ATOM     69  C   UNL A   1      38.136  29.703  27.692  1.00  0.00     0.009 A 
ATOM     70  C   UNL A   1      36.481  29.328  29.906  1.00  0.00     0.001 A 
ATOM     71  C   UNL A   1      36.787  30.058  27.626  1.00  0.00     0.001 A 
ATOM     72  C   UNL A   1      35.958  29.860  28.729  1.00  0.00     0.000 A 
ENDBRANCH  48  67
BRANCH  60  73
ATOM     73  C   UNL A   1      44.422  32.539  30.913  1.00  0.00    -0.014 A 
ATOM     74  C   UNL A   1      44.408  32.848  32.282  1.00  0.00     0.009 A 
ATOM     75  C   UNL A   1      44.720  33.554  29.989  1.00  0.00     0.009 A 
ATOM     76  C   UNL A   1      44.659  34.153  32.712  1.00  0.00     0.001 A 
ATOM     77  C   UNL A   1      45.001  34.848  30.424  1.00  0.00     0.001 A 
ATOM     78  C   UNL A   1      44.963  35.149  31.784  1.00  0.00     0.000 A 
ENDBRANCH  60  73
ENDBRANCH  34  35
ENDBRANCH  26  29
ENDBRANCH  24  25
ENDBRANCH  23  24
ENDBRANCH   1  23
TORSDOF 13
ENDMDL
MODEL 2
REMARK VINA RESULT:     -11.2      3.776      9.061
REMARK SMILES C[C@@H](Sc1nc2ccccc2c(=O)n1N)C(=O)NCCCNC(=O)c1ccc(-c2c3nc(c(-c4ccccc4)c4ccc([nH]4)c(-c4ccccc4)c4nc(c(-c5ccccc5)c5ccc2[nH]5)C=C4)C=C3)cc1
REMARK SMILES IDX 19 1 18 2 16 3 17 4 2 6 1 7 3 8 4 9 5 10 14 11 6 12 12 13
REMARK SMILES IDX 7 14 11 15 13 16 8 17 10 18 9 19 15 20 20 23 21 24 22 25
REMARK SMILES IDX 23 26 24 28 25 29 26 30 72 31 27 32 71 33 28 34 29 35 30 36
REMARK SMILES IDX 65 37 31 38 70 39 64 40 66 41 32 42 69 43 63 44 62 45 33 47
REMARK SMILES IDX 55 48 40 49 54 50 41 51 44 52 53 53 67 54 42 55 43 56 52 58
REMARK SMILES IDX 68 59 45 60 34 61 35 62 39 63 36 64 38 65 37 66 56 67 57 68
REMARK SMILES IDX 61 69 58 70 60 71 59 72 46 73 47 74 51 75 48 76 50 77 49 78
REMARK H PARENT 18 5 15 21 15 22 22 27 66 46 44 57
REMARK Flexibility Score: inf
ROOT
ATOM      1  C   UNL A   1      31.584  30.526  25.753  1.00  0.00     0.117 C 
ENDROOT
BRANCH   1   2
ATOM      2  N   UNL A   1      30.667  30.469  24.626  1.00  0.00    -0.355 N 
ATOM      3  C   UNL A   1      30.403  29.464  23.743  1.00  0.00     0.233 C 
ATOM      4  O   UNL A   1      29.559  29.692  22.871  1.00  0.00    -0.274 OA
ATOM      5  H   UNL A   1      30.149  31.293  24.477  1.00  0.00     0.163 HD
BRANCH   3   6
ATOM      6  C   UNL A   1      31.117  28.113  23.808  1.00  0.00     0.141 C 
ATOM      7  C   UNL A   1      30.156  26.947  23.601  1.00  0.00     0.030 C 
BRANCH   6   8
ATOM      8  S   UNL A   1      32.575  28.184  22.705  1.00  0.00    -0.073 SA
BRANCH   8   9
ATOM      9  C   UNL A   1      33.266  26.598  22.922  1.00  0.00     0.191 A 
ATOM     10  N   UNL A   1      33.825  26.348  24.061  1.00  0.00    -0.222 NA
ATOM     11  N   UNL A   1      33.110  25.662  21.906  1.00  0.00    -0.202 N 
ATOM     12  C   UNL A   1      34.274  25.041  24.301  1.00  0.00     0.079 A 
ATOM     13  C   UNL A   1      33.512  24.337  22.069  1.00  0.00     0.280 A 
ATOM     14  C   UNL A   1      34.841  24.742  25.542  1.00  0.00     0.029 A 
ATOM     15  C   UNL A   1      34.133  24.012  23.366  1.00  0.00     0.068 A 
ATOM     16  O   UNL A   1      33.345  23.467  21.215  1.00  0.00    -0.267 OA
ATOM     17  C   UNL A   1      35.251  23.440  25.844  1.00  0.00     0.002 A 
ATOM     18  C   UNL A   1      34.543  22.706  23.658  1.00  0.00     0.016 A 
ATOM     19  C   UNL A   1      35.101  22.422  24.902  1.00  0.00     0.001 A 
BRANCH  11  20
ATOM     20  N   UNL A   1      32.513  26.005  20.649  1.00  0.00    -0.334 N 
ATOM     21  H   UNL A   1      32.377  25.310  19.964  1.00  0.00     0.178 HD
ATOM     22  H   UNL A   1      32.238  26.932  20.471  1.00  0.00     0.178 HD
ENDBRANCH  11  20
ENDBRANCH   8   9
ENDBRANCH   6   8
ENDBRANCH   3   6
ENDBRANCH   1   2
BRANCH   1  23
ATOM     23  C   UNL A   1      31.369  31.782  26.584  1.00  0.00     0.042 C 
BRANCH  23  24
ATOM     24  C   UNL A   1      32.661  32.367  27.140  1.00  0.00     0.118 C 
BRANCH  24  25
ATOM     25  N   UNL A   1      32.502  33.745  27.589  1.00  0.00    -0.352 N 
ATOM     26  C   UNL A   1      33.230  34.462  28.504  1.00  0.00     0.251 C 
ATOM     27  H   UNL A   1      31.759  34.236  27.171  1.00  0.00     0.163 HD
ATOM     28  O   UNL A   1      32.819  35.552  28.897  1.00  0.00    -0.269 OA
BRANCH  26  29
ATOM     29  C   UNL A   1      34.497  33.920  29.034  1.00  0.00     0.039 A 
ATOM     30  C   UNL A   1      34.472  33.172  30.214  1.00  0.00     0.014 A 
ATOM     31  C   UNL A   1      35.706  34.153  28.376  1.00  0.00     0.014 A 
ATOM     32  C   UNL A   1      35.651  32.596  30.693  1.00  0.00     0.010 A 
ATOM     33  C   UNL A   1      36.861  33.508  28.804  1.00  0.00     0.010 A 
ATOM     34  C   UNL A   1      36.846  32.725  29.968  1.00  0.00    -0.014 A 
BRANCH  34  35
ATOM     35  C   UNL A   1      38.096  32.054  30.404  1.00  0.00     0.031 A 
ATOM     36  C   UNL A   1      39.002  32.721  31.402  1.00  0.00     0.074 A 
ATOM     37  C   UNL A   1      38.453  30.881  29.845  1.00  0.00     0.049 A 
ATOM     38  N   UNL A   1      40.176  32.339  31.836  1.00  0.00    -0.248 NA
ATOM     39  C   UNL A   1      38.540  34.000  31.966  1.00  0.00     0.031 C 
ATOM     40  C   UNL A   1      37.679  30.147  28.842  1.00  0.00     0.029 A 
ATOM     41  N   UNL A   1      39.569  30.105  30.036  1.00  0.00    -0.354 N 
ATOM     42  C   UNL A   1      40.600  33.337  32.704  1.00  0.00     0.074 A 
ATOM     43  C   UNL A   1      39.582  34.365  32.697  1.00  0.00     0.031 C 
ATOM     44  C   UNL A   1      38.330  29.017  28.525  1.00  0.00     0.029 A 
ATOM     45  C   UNL A   1      39.589  28.969  29.262  1.00  0.00     0.049 A 
ATOM     46  H   UNL A   1      40.287  30.339  30.667  1.00  0.00     0.167 HD
ATOM     47  C   UNL A   1      41.726  33.386  33.454  1.00  0.00     0.031 A 
ATOM     48  C   UNL A   1      40.520  28.005  29.148  1.00  0.00     0.031 A 
ATOM     49  C   UNL A   1      42.733  32.358  33.467  1.00  0.00     0.049 A 
ATOM     50  C   UNL A   1      41.776  28.097  29.970  1.00  0.00     0.074 A 
ATOM     51  C   UNL A   1      43.882  32.290  34.234  1.00  0.00     0.029 A 
ATOM     52  N   UNL A   1      42.712  31.224  32.671  1.00  0.00    -0.354 N 
ATOM     53  N   UNL A   1      42.131  29.014  30.836  1.00  0.00    -0.248 NA
ATOM     54  C   UNL A   1      42.755  27.013  29.804  1.00  0.00     0.031 C 
ATOM     55  C   UNL A   1      44.585  31.140  33.861  1.00  0.00     0.029 A 
ATOM     56  C   UNL A   1      43.842  30.462  32.909  1.00  0.00     0.049 A 
ATOM     57  H   UNL A   1      41.998  30.994  32.033  1.00  0.00     0.167 HD
ATOM     58  C   UNL A   1      43.358  28.605  31.341  1.00  0.00     0.074 A 
ATOM     59  C   UNL A   1      43.680  27.349  30.694  1.00  0.00     0.031 C 
ATOM     60  C   UNL A   1      44.147  29.214  32.259  1.00  0.00     0.031 A 
BRANCH  47  61
ATOM     61  C   UNL A   1      41.932  34.600  34.316  1.00  0.00    -0.014 A 
ATOM     62  C   UNL A   1      42.564  35.751  33.817  1.00  0.00     0.009 A 
ATOM     63  C   UNL A   1      41.456  34.609  35.636  1.00  0.00     0.009 A 
ATOM     64  C   UNL A   1      42.749  36.869  34.633  1.00  0.00     0.001 A 
ATOM     65  C   UNL A   1      41.613  35.739  36.441  1.00  0.00     0.001 A 
ATOM     66  C   UNL A   1      42.269  36.864  35.942  1.00  0.00     0.000 A 
ENDBRANCH  47  61
BRANCH  48  67
ATOM     67  C   UNL A   1      40.301  26.862  28.223  1.00  0.00    -0.014 A 
ATOM     68  C   UNL A   1      39.577  25.736  28.642  1.00  0.00     0.009 A 
ATOM     69  C   UNL A   1      40.818  26.888  26.918  1.00  0.00     0.009 A 
ATOM     70  C   UNL A   1      39.400  24.647  27.784  1.00  0.00     0.001 A 
ATOM     71  C   UNL A   1      40.614  25.811  26.052  1.00  0.00     0.001 A 
ATOM     72  C   UNL A   1      39.914  24.687  26.489  1.00  0.00     0.000 A 
ENDBRANCH  48  67
BRANCH  60  73
ATOM     73  C   UNL A   1      45.417  28.511  32.653  1.00  0.00    -0.014 A 
ATOM     74  C   UNL A   1      46.626  28.760  31.988  1.00  0.00     0.009 A 
ATOM     75  C   UNL A   1      45.408  27.629  33.745  1.00  0.00     0.009 A 
ATOM     76  C   UNL A   1      47.798  28.115  32.392  1.00  0.00     0.001 A 
ATOM     77  C   UNL A   1      46.586  27.012  34.166  1.00  0.00     0.001 A 
ATOM     78  C   UNL A   1      47.778  27.248  33.484  1.00  0.00     0.000 A 
ENDBRANCH  60  73
ENDBRANCH  34  35
ENDBRANCH  26  29
ENDBRANCH  24  25
ENDBRANCH  23  24
ENDBRANCH   1  23
TORSDOF 13
ENDMDL
MODEL 3
REMARK VINA RESULT:     -11.2      0.353      6.058
REMARK SMILES C[C@@H](Sc1nc2ccccc2c(=O)n1N)C(=O)NCCCNC(=O)c1ccc(-c2c3nc(c(-c4ccccc4)c4ccc([nH]4)c(-c4ccccc4)c4nc(c(-c5ccccc5)c5ccc2[nH]5)C=C4)C=C3)cc1
REMARK SMILES IDX 19 1 18 2 16 3 17 4 2 6 1 7 3 8 4 9 5 10 14 11 6 12 12 13
REMARK SMILES IDX 7 14 11 15 13 16 8 17 10 18 9 19 15 20 20 23 21 24 22 25
REMARK SMILES IDX 23 26 24 28 25 29 26 30 72 31 27 32 71 33 28 34 29 35 30 36
REMARK SMILES IDX 65 37 31 38 70 39 64 40 66 41 32 42 69 43 63 44 62 45 33 47
REMARK SMILES IDX 55 48 40 49 54 50 41 51 44 52 53 53 67 54 42 55 43 56 52 58
REMARK SMILES IDX 68 59 45 60 34 61 35 62 39 63 36 64 38 65 37 66 56 67 57 68
REMARK SMILES IDX 61 69 58 70 60 71 59 72 46 73 47 74 51 75 48 76 50 77 49 78
REMARK H PARENT 18 5 15 21 15 22 22 27 66 46 44 57
REMARK Flexibility Score: inf
ROOT
ATOM      1  C   UNL A   1      36.398  20.732  25.154  1.00  0.00     0.117 C 
ENDROOT
BRANCH   1   2
ATOM      2  N   UNL A   1      35.332  19.777  24.902  1.00  0.00    -0.355 N 
ATOM      3  C   UNL A   1      33.993  19.964  24.721  1.00  0.00     0.233 C 
ATOM      4  O   UNL A   1      33.309  18.957  24.517  1.00  0.00    -0.274 OA
ATOM      5  H   UNL A   1      35.626  18.838  24.852  1.00  0.00     0.163 HD
BRANCH   3   6
ATOM      6  C   UNL A   1      33.349  21.350  24.775  1.00  0.00     0.141 C 
ATOM      7  C   UNL A   1      32.353  21.563  23.641  1.00  0.00     0.030 C 
BRANCH   6   8
ATOM      8  S   UNL A   1      32.733  21.628  26.476  1.00  0.00    -0.073 SA
BRANCH   8   9
ATOM      9  C   UNL A   1      32.314  23.320  26.433  1.00  0.00     0.191 A 
ATOM     10  N   UNL A   1      33.274  24.162  26.233  1.00  0.00    -0.222 NA
ATOM     11  N   UNL A   1      30.973  23.673  26.530  1.00  0.00    -0.202 N 
ATOM     12  C   UNL A   1      32.941  25.514  26.070  1.00  0.00     0.079 A 
ATOM     13  C   UNL A   1      30.554  24.992  26.362  1.00  0.00     0.280 A 
ATOM     14  C   UNL A   1      33.962  26.431  25.809  1.00  0.00     0.029 A 
ATOM     15  C   UNL A   1      31.623  25.975  26.109  1.00  0.00     0.068 A 
ATOM     16  O   UNL A   1      29.373  25.338  26.389  1.00  0.00    -0.267 OA
ATOM     17  C   UNL A   1      33.669  27.780  25.585  1.00  0.00     0.002 A 
ATOM     18  C   UNL A   1      31.319  27.324  25.889  1.00  0.00     0.016 A 
ATOM     19  C   UNL A   1      32.347  28.226  25.623  1.00  0.00     0.001 A 
BRANCH  11  20
ATOM     20  N   UNL A   1      29.953  22.700  26.788  1.00  0.00    -0.334 N 
ATOM     21  H   UNL A   1      30.040  21.788  26.426  1.00  0.00     0.178 HD
ATOM     22  H   UNL A   1      29.165  22.943  27.326  1.00  0.00     0.178 HD
ENDBRANCH  11  20
ENDBRANCH   8   9
ENDBRANCH   6   8
ENDBRANCH   3   6
ENDBRANCH   1   2
BRANCH   1  23
ATOM     23  C   UNL A   1      37.758  20.163  24.776  1.00  0.00     0.042 C 
BRANCH  23  24
ATOM     24  C   UNL A   1      38.864  20.541  25.752  1.00  0.00     0.118 C 
BRANCH  24  25
ATOM     25  N   UNL A   1      39.918  19.535  25.819  1.00  0.00    -0.352 N 
ATOM     26  C   UNL A   1      41.248  19.674  26.121  1.00  0.00     0.251 C 
ATOM     27  H   UNL A   1      39.630  18.617  25.616  1.00  0.00     0.163 HD
ATOM     28  O   UNL A   1      42.022  18.737  25.930  1.00  0.00    -0.269 OA
BRANCH  26  29
ATOM     29  C   UNL A   1      41.760  20.951  26.657  1.00  0.00     0.039 A 
ATOM     30  C   UNL A   1      42.180  21.940  25.764  1.00  0.00     0.014 A 
ATOM     31  C   UNL A   1      41.831  21.172  28.034  1.00  0.00     0.014 A 
ATOM     32  C   UNL A   1      42.603  23.178  26.253  1.00  0.00     0.010 A 
ATOM     33  C   UNL A   1      42.168  22.432  28.516  1.00  0.00     0.010 A 
ATOM     34  C   UNL A   1      42.561  23.447  27.630  1.00  0.00    -0.014 A 
BRANCH  34  35
ATOM     35  C   UNL A   1      42.921  24.780  28.173  1.00  0.00     0.031 A 
ATOM     36  C   UNL A   1      41.856  25.821  28.386  1.00  0.00     0.074 A 
ATOM     37  C   UNL A   1      44.215  25.081  28.399  1.00  0.00     0.049 A 
ATOM     38  N   UNL A   1      41.983  27.067  28.762  1.00  0.00    -0.248 NA
ATOM     39  C   UNL A   1      40.467  25.413  28.116  1.00  0.00     0.031 C 
ATOM     40  C   UNL A   1      45.346  24.173  28.199  1.00  0.00     0.029 A 
ATOM     41  N   UNL A   1      44.797  26.245  28.838  1.00  0.00    -0.354 N 
ATOM     42  C   UNL A   1      40.698  27.597  28.753  1.00  0.00     0.074 A 
ATOM     43  C   UNL A   1      39.813  26.552  28.286  1.00  0.00     0.031 C 
ATOM     44  C   UNL A   1      46.481  24.804  28.538  1.00  0.00     0.029 A 
ATOM     45  C   UNL A   1      46.166  26.174  28.930  1.00  0.00     0.049 A 
ATOM     46  H   UNL A   1      44.282  27.053  29.064  1.00  0.00     0.167 HD
ATOM     47  C   UNL A   1      40.289  28.834  29.118  1.00  0.00     0.031 A 
ATOM     48  C   UNL A   1      47.068  27.110  29.279  1.00  0.00     0.031 A 
ATOM     49  C   UNL A   1      41.170  29.869  29.591  1.00  0.00     0.049 A 
ATOM     50  C   UNL A   1      46.591  28.487  29.652  1.00  0.00     0.074 A 
ATOM     51  C   UNL A   1      40.844  31.138  30.036  1.00  0.00     0.029 A 
ATOM     52  N   UNL A   1      42.548  29.755  29.673  1.00  0.00    -0.354 N 
ATOM     53  N   UNL A   1      45.367  28.951  29.701  1.00  0.00    -0.248 NA
ATOM     54  C   UNL A   1      47.622  29.465  30.024  1.00  0.00     0.031 C 
ATOM     55  C   UNL A   1      42.033  31.811  30.336  1.00  0.00     0.029 A 
ATOM     56  C   UNL A   1      43.092  30.940  30.136  1.00  0.00     0.049 A 
ATOM     57  H   UNL A   1      43.064  28.950  29.437  1.00  0.00     0.167 HD
ATOM     58  C   UNL A   1      45.476  30.263  30.139  1.00  0.00     0.074 A 
ATOM     59  C   UNL A   1      46.886  30.518  30.355  1.00  0.00     0.031 C 
ATOM     60  C   UNL A   1      44.496  31.176  30.348  1.00  0.00     0.031 A 
BRANCH  47  61
ATOM     61  C   UNL A   1      38.821  29.139  29.008  1.00  0.00    -0.014 A 
ATOM     62  C   UNL A   1      37.969  29.033  30.119  1.00  0.00     0.009 A 
ATOM     63  C   UNL A   1      38.287  29.575  27.785  1.00  0.00     0.009 A 
ATOM     64  C   UNL A   1      36.607  29.319  29.998  1.00  0.00     0.001 A 
ATOM     65  C   UNL A   1      36.932  29.890  27.673  1.00  0.00     0.001 A 
ATOM     66  C   UNL A   1      36.091  29.752  28.777  1.00  0.00     0.000 A 
ENDBRANCH  47  61
BRANCH  48  67
ATOM     67  C   UNL A   1      48.517  26.779  29.298  1.00  0.00    -0.014 A 
ATOM     68  C   UNL A   1      49.108  26.239  30.451  1.00  0.00     0.009 A 
ATOM     69  C   UNL A   1      49.319  27.004  28.168  1.00  0.00     0.009 A 
ATOM     70  C   UNL A   1      50.477  25.959  30.481  1.00  0.00     0.001 A 
ATOM     71  C   UNL A   1      50.681  26.695  28.191  1.00  0.00     0.001 A 
ATOM     72  C   UNL A   1      51.260  26.182  29.351  1.00  0.00     0.000 A 
ENDBRANCH  48  67
BRANCH  60  73
ATOM     73  C   UNL A   1      44.907  32.524  30.873  1.00  0.00    -0.014 A 
ATOM     74  C   UNL A   1      45.190  33.591  30.007  1.00  0.00     0.009 A 
ATOM     75  C   UNL A   1      44.958  32.740  32.259  1.00  0.00     0.009 A 
ATOM     76  C   UNL A   1      45.542  34.841  30.521  1.00  0.00     0.001 A 
ATOM     77  C   UNL A   1      45.279  33.997  32.769  1.00  0.00     0.001 A 
ATOM     78  C   UNL A   1      45.580  35.045  31.901  1.00  0.00     0.000 A 
ENDBRANCH  60  73
ENDBRANCH  34  35
ENDBRANCH  26  29
ENDBRANCH  24  25
ENDBRANCH  23  24
ENDBRANCH   1  23
TORSDOF 13
ENDMDL
