MODEL 1
REMARK VINA RESULT:     -11.6      0.000      0.000
REMARK SMILES O=C(NCCCNC(=O)[C@@H]1CCCC[C@H]1C(=O)Nc1ccc(NC(=O)c2ccco2)cc1)c1ccc(-c2c3nc(c(-c4ccccc4)c4ccc([nH]4)c(-c4ccccc4)c4nc(c(-c5ccccc5)c5ccc2[nH]5)C=C4)C=C3)cc1
REMARK SMILES IDX 6 1 5 2 4 3 3 4 1 5 2 6 33 8 34 9 80 10 35 11 79 12 36 13
REMARK SMILES IDX 37 14 38 15 73 16 39 17 78 18 72 19 74 20 40 21 77 22 71 23
REMARK SMILES IDX 70 24 41 26 63 27 48 28 62 29 49 30 52 31 61 32 75 33 50 34
REMARK SMILES IDX 51 35 60 37 76 38 53 39 42 40 43 41 47 42 44 43 46 44 45 45
REMARK SMILES IDX 64 46 65 47 69 48 66 49 68 50 67 51 54 52 55 53 59 54 56 55
REMARK SMILES IDX 58 56 57 57 7 58 8 59 9 61 10 62 11 63 15 64 12 65 14 66
REMARK SMILES IDX 13 67 16 68 17 69 18 70 19 72 20 73 32 74 21 75 31 76 22 77
REMARK SMILES IDX 23 78 24 79 25 81 26 82 27 83 30 84 28 85 29 86
REMARK H PARENT 3 7 74 25 52 36 7 60 18 71 23 80
REMARK Flexibility Score: inf
ROOT
ATOM      1  C   UNL A   1      33.328  28.145  25.115  1.00  0.00     0.117 C 
ENDROOT
BRANCH   1   2
ATOM      2  C   UNL A   1      33.201  29.343  26.047  1.00  0.00     0.042 C 
BRANCH   2   3
ATOM      3  C   UNL A   1      34.076  29.238  27.284  1.00  0.00     0.118 C 
BRANCH   3   4
ATOM      4  N   UNL A   1      34.053  30.449  28.087  1.00  0.00    -0.352 N 
ATOM      5  O   UNL A   1      34.770  31.894  29.662  1.00  0.00    -0.269 OA
ATOM      6  C   UNL A   1      35.030  30.961  28.907  1.00  0.00     0.251 C 
ATOM      7  H   UNL A   1      33.222  30.975  28.037  1.00  0.00     0.163 HD
BRANCH   6   8
ATOM      8  C   UNL A   1      36.390  30.374  28.896  1.00  0.00     0.039 A 
ATOM      9  C   UNL A   1      37.194  30.459  27.758  1.00  0.00     0.014 A 
ATOM     10  C   UNL A   1      36.878  29.746  30.048  1.00  0.00     0.014 A 
ATOM     11  C   UNL A   1      38.408  29.789  27.716  1.00  0.00     0.010 A 
ATOM     12  C   UNL A   1      38.151  29.167  30.040  1.00  0.00     0.010 A 
ATOM     13  C   UNL A   1      38.919  29.164  28.866  1.00  0.00    -0.014 A 
BRANCH  13  14
ATOM     14  C   UNL A   1      40.299  28.618  28.821  1.00  0.00     0.031 A 
ATOM     15  C   UNL A   1      40.575  27.190  28.446  1.00  0.00     0.074 A 
ATOM     16  C   UNL A   1      41.319  29.464  29.068  1.00  0.00     0.049 A 
ATOM     17  N   UNL A   1      41.732  26.596  28.285  1.00  0.00    -0.248 NA
ATOM     18  C   UNL A   1      39.415  26.312  28.229  1.00  0.00     0.031 C 
ATOM     19  C   UNL A   1      41.173  30.869  29.461  1.00  0.00     0.029 A 
ATOM     20  N   UNL A   1      42.675  29.284  28.989  1.00  0.00    -0.354 N 
ATOM     21  C   UNL A   1      41.443  25.277  27.961  1.00  0.00     0.074 A 
ATOM     22  C   UNL A   1      40.001  25.149  27.972  1.00  0.00     0.031 C 
ATOM     23  C   UNL A   1      42.384  31.441  29.515  1.00  0.00     0.029 A 
ATOM     24  C   UNL A   1      43.394  30.430  29.230  1.00  0.00     0.049 A 
ATOM     25  H   UNL A   1      43.095  28.419  28.779  1.00  0.00     0.167 HD
ATOM     26  C   UNL A   1      42.301  24.269  27.673  1.00  0.00     0.031 A 
ATOM     27  C   UNL A   1      44.720  30.650  29.232  1.00  0.00     0.031 A 
ATOM     28  C   UNL A   1      43.737  24.398  27.668  1.00  0.00     0.049 A 
ATOM     29  C   UNL A   1      45.642  29.510  28.921  1.00  0.00     0.074 A 
ATOM     30  C   UNL A   1      44.689  23.434  27.385  1.00  0.00     0.029 A 
ATOM     31  N   UNL A   1      44.426  25.565  27.958  1.00  0.00    -0.354 N 
ATOM     32  N   UNL A   1      45.347  28.276  28.597  1.00  0.00    -0.248 NA
ATOM     33  C   UNL A   1      47.082  29.796  28.978  1.00  0.00     0.031 C 
ATOM     34  C   UNL A   1      45.956  24.007  27.543  1.00  0.00     0.029 A 
ATOM     35  C   UNL A   1      45.791  25.341  27.876  1.00  0.00     0.049 A 
ATOM     36  H   UNL A   1      44.008  26.426  28.188  1.00  0.00     0.167 HD
ATOM     37  C   UNL A   1      46.563  27.636  28.408  1.00  0.00     0.074 A 
ATOM     38  C   UNL A   1      47.597  28.630  28.617  1.00  0.00     0.031 C 
ATOM     39  C   UNL A   1      46.804  26.338  28.103  1.00  0.00     0.031 A 
BRANCH  26  40
ATOM     40  C   UNL A   1      41.715  22.922  27.355  1.00  0.00    -0.014 A 
ATOM     41  C   UNL A   1      41.388  22.567  26.037  1.00  0.00     0.009 A 
ATOM     42  C   UNL A   1      41.550  21.971  28.375  1.00  0.00     0.009 A 
ATOM     43  C   UNL A   1      40.888  21.293  25.750  1.00  0.00     0.001 A 
ATOM     44  C   UNL A   1      41.072  20.691  28.082  1.00  0.00     0.001 A 
ATOM     45  C   UNL A   1      40.736  20.356  26.772  1.00  0.00     0.000 A 
ENDBRANCH  26  40
BRANCH  27  46
ATOM     46  C   UNL A   1      45.249  31.998  29.563  1.00  0.00    -0.014 A 
ATOM     47  C   UNL A   1      45.539  32.352  30.888  1.00  0.00     0.009 A 
ATOM     48  C   UNL A   1      45.468  32.940  28.544  1.00  0.00     0.009 A 
ATOM     49  C   UNL A   1      46.014  33.630  31.189  1.00  0.00     0.001 A 
ATOM     50  C   UNL A   1      45.974  34.204  28.844  1.00  0.00     0.001 A 
ATOM     51  C   UNL A   1      46.236  34.552  30.167  1.00  0.00     0.000 A 
ENDBRANCH  27  46
BRANCH  39  52
ATOM     52  C   UNL A   1      48.244  25.937  27.972  1.00  0.00    -0.014 A 
ATOM     53  C   UNL A   1      48.993  25.554  29.096  1.00  0.00     0.009 A 
ATOM     54  C   UNL A   1      48.858  25.945  26.711  1.00  0.00     0.009 A 
ATOM     55  C   UNL A   1      50.345  25.229  28.964  1.00  0.00     0.001 A 
ATOM     56  C   UNL A   1      50.203  25.593  26.579  1.00  0.00     0.001 A 
ATOM     57  C   UNL A   1      50.947  25.247  27.707  1.00  0.00     0.000 A 
ENDBRANCH  39  52
ENDBRANCH  13  14
ENDBRANCH   6   8
ENDBRANCH   3   4
ENDBRANCH   2   3
ENDBRANCH   1   2
BRANCH   1  58
ATOM     58  N   UNL A   1      34.127  27.096  25.721  1.00  0.00    -0.356 N 
ATOM     59  C   UNL A   1      34.022  25.742  25.623  1.00  0.00     0.223 C 
ATOM     60  H   UNL A   1      34.862  27.414  26.294  1.00  0.00     0.163 HD
ATOM     61  O   UNL A   1      34.643  25.064  26.441  1.00  0.00    -0.275 OA
BRANCH  59  62
ATOM     62  C   UNL A   1      33.177  25.125  24.518  1.00  0.00     0.091 C 
ATOM     63  C   UNL A   1      33.683  25.492  23.119  1.00  0.00     0.014 C 
ATOM     64  C   UNL A   1      31.698  25.512  24.683  1.00  0.00     0.091 C 
ATOM     65  C   UNL A   1      32.836  24.808  22.048  1.00  0.00     0.001 C 
ATOM     66  C   UNL A   1      30.825  24.900  23.575  1.00  0.00     0.014 C 
ATOM     67  C   UNL A   1      31.371  25.199  22.177  1.00  0.00     0.001 C 
BRANCH  64  68
ATOM     68  C   UNL A   1      31.058  25.323  26.074  1.00  0.00     0.228 C 
ATOM     69  O   UNL A   1      30.283  26.190  26.501  1.00  0.00    -0.274 OA
ATOM     70  N   UNL A   1      31.132  24.181  26.822  1.00  0.00    -0.326 N 
ATOM     71  H   UNL A   1      30.613  24.205  27.658  1.00  0.00     0.169 HD
BRANCH  70  72
ATOM     72  C   UNL A   1      31.820  22.990  26.601  1.00  0.00     0.041 A 
ATOM     73  C   UNL A   1      31.423  22.182  25.545  1.00  0.00     0.028 A 
ATOM     74  C   UNL A   1      32.849  22.554  27.421  1.00  0.00     0.028 A 
ATOM     75  C   UNL A   1      32.213  21.090  25.171  1.00  0.00     0.028 A 
ATOM     76  C   UNL A   1      33.666  21.493  27.024  1.00  0.00     0.028 A 
ATOM     77  C   UNL A   1      33.406  20.809  25.834  1.00  0.00     0.041 A 
BRANCH  77  78
ATOM     78  N   UNL A   1      34.397  19.914  25.396  1.00  0.00    -0.319 N 
ATOM     79  C   UNL A   1      35.710  20.078  24.997  1.00  0.00     0.291 C 
ATOM     80  H   UNL A   1      34.096  18.978  25.370  1.00  0.00     0.170 HD
ATOM     81  O   UNL A   1      36.343  19.055  24.728  1.00  0.00    -0.265 OA
BRANCH  79  82
ATOM     82  C   UNL A   1      36.299  21.390  24.939  1.00  0.00     0.191 A 
ATOM     83  C   UNL A   1      37.215  22.041  25.748  1.00  0.00     0.056 A 
ATOM     84  O   UNL A   1      35.908  22.223  23.928  1.00  0.00    -0.459 OA
ATOM     85  C   UNL A   1      37.350  23.352  25.225  1.00  0.00     0.043 A 
ATOM     86  C   UNL A   1      36.546  23.406  24.112  1.00  0.00     0.196 A 
ENDBRANCH  79  82
ENDBRANCH  77  78
ENDBRANCH  70  72
ENDBRANCH  64  68
ENDBRANCH  59  62
ENDBRANCH   1  58
TORSDOF 14
ENDMDL
MODEL 2
REMARK VINA RESULT:     -11.4      1.827      7.861
REMARK SMILES O=C(NCCCNC(=O)[C@@H]1CCCC[C@H]1C(=O)Nc1ccc(NC(=O)c2ccco2)cc1)c1ccc(-c2c3nc(c(-c4ccccc4)c4ccc([nH]4)c(-c4ccccc4)c4nc(c(-c5ccccc5)c5ccc2[nH]5)C=C4)C=C3)cc1
REMARK SMILES IDX 6 1 5 2 4 3 3 4 1 5 2 6 33 8 34 9 80 10 35 11 79 12 36 13
REMARK SMILES IDX 37 14 38 15 73 16 39 17 78 18 72 19 74 20 40 21 77 22 71 23
REMARK SMILES IDX 70 24 41 26 63 27 48 28 62 29 49 30 52 31 61 32 75 33 50 34
REMARK SMILES IDX 51 35 60 37 76 38 53 39 42 40 43 41 47 42 44 43 46 44 45 45
REMARK SMILES IDX 64 46 65 47 69 48 66 49 68 50 67 51 54 52 55 53 59 54 56 55
REMARK SMILES IDX 58 56 57 57 7 58 8 59 9 61 10 62 11 63 15 64 12 65 14 66
REMARK SMILES IDX 13 67 16 68 17 69 18 70 19 72 20 73 32 74 21 75 31 76 22 77
REMARK SMILES IDX 23 78 24 79 25 81 26 82 27 83 30 84 28 85 29 86
REMARK H PARENT 3 7 74 25 52 36 7 60 18 71 23 80
REMARK Flexibility Score: inf
ROOT
ATOM      1  C   UNL A   1      36.395  20.486  24.990  1.00  0.00     0.117 C 
ENDROOT
BRANCH   1   2
ATOM      2  C   UNL A   1      37.685  19.692  24.831  1.00  0.00     0.042 C 
BRANCH   2   3
ATOM      3  C   UNL A   1      38.824  20.215  25.690  1.00  0.00     0.118 C 
BRANCH   3   4
ATOM      4  N   UNL A   1      39.948  19.297  25.743  1.00  0.00    -0.352 N 
ATOM      5  O   UNL A   1      42.118  18.698  25.870  1.00  0.00    -0.269 OA
ATOM      6  C   UNL A   1      41.260  19.555  26.062  1.00  0.00     0.251 C 
ATOM      7  H   UNL A   1      39.742  18.361  25.519  1.00  0.00     0.163 HD
BRANCH   6   8
ATOM      8  C   UNL A   1      41.643  20.873  26.619  1.00  0.00     0.039 A 
ATOM      9  C   UNL A   1      41.978  21.933  25.774  1.00  0.00     0.014 A 
ATOM     10  C   UNL A   1      41.647  21.059  28.006  1.00  0.00     0.014 A 
ATOM     11  C   UNL A   1      42.465  23.118  26.310  1.00  0.00     0.010 A 
ATOM     12  C   UNL A   1      42.031  22.293  28.543  1.00  0.00     0.010 A 
ATOM     13  C   UNL A   1      42.465  23.326  27.699  1.00  0.00    -0.014 A 
BRANCH  13  14
ATOM     14  C   UNL A   1      42.824  24.672  28.212  1.00  0.00     0.031 A 
ATOM     15  C   UNL A   1      44.253  25.086  28.422  1.00  0.00     0.074 A 
ATOM     16  C   UNL A   1      41.825  25.551  28.430  1.00  0.00     0.049 A 
ATOM     17  N   UNL A   1      44.721  26.255  28.787  1.00  0.00    -0.248 NA
ATOM     18  C   UNL A   1      45.291  24.066  28.205  1.00  0.00     0.031 C 
ATOM     19  C   UNL A   1      40.396  25.257  28.279  1.00  0.00     0.029 A 
ATOM     20  N   UNL A   1      41.853  26.874  28.784  1.00  0.00    -0.354 N 
ATOM     21  C   UNL A   1      46.101  26.110  28.854  1.00  0.00     0.074 A 
ATOM     22  C   UNL A   1      46.395  24.733  28.518  1.00  0.00     0.031 C 
ATOM     23  C   UNL A   1      39.692  26.382  28.463  1.00  0.00     0.029 A 
ATOM     24  C   UNL A   1      40.609  27.458  28.815  1.00  0.00     0.049 A 
ATOM     25  H   UNL A   1      42.682  27.361  28.995  1.00  0.00     0.167 HD
ATOM     26  C   UNL A   1      47.035  27.042  29.161  1.00  0.00     0.031 A 
ATOM     27  C   UNL A   1      40.239  28.718  29.102  1.00  0.00     0.031 A 
ATOM     28  C   UNL A   1      46.739  28.411  29.500  1.00  0.00     0.049 A 
ATOM     29  C   UNL A   1      41.296  29.722  29.448  1.00  0.00     0.074 A 
ATOM     30  C   UNL A   1      47.618  29.431  29.822  1.00  0.00     0.029 A 
ATOM     31  N   UNL A   1      45.464  28.952  29.561  1.00  0.00    -0.354 N 
ATOM     32  N   UNL A   1      42.597  29.569  29.486  1.00  0.00    -0.248 NA
ATOM     33  C   UNL A   1      40.832  31.072  29.793  1.00  0.00     0.031 C 
ATOM     34  C   UNL A   1      46.874  30.578  30.117  1.00  0.00     0.029 A 
ATOM     35  C   UNL A   1      45.532  30.286  29.930  1.00  0.00     0.049 A 
ATOM     36  H   UNL A   1      44.632  28.461  29.370  1.00  0.00     0.167 HD
ATOM     37  C   UNL A   1      43.110  30.803  29.856  1.00  0.00     0.074 A 
ATOM     38  C   UNL A   1      41.981  31.702  29.993  1.00  0.00     0.031 C 
ATOM     39  C   UNL A   1      44.398  31.159  30.077  1.00  0.00     0.031 A 
BRANCH  26  40
ATOM     40  C   UNL A   1      48.476  26.613  29.163  1.00  0.00    -0.014 A 
ATOM     41  C   UNL A   1      49.297  26.827  28.045  1.00  0.00     0.009 A 
ATOM     42  C   UNL A   1      49.037  26.049  30.319  1.00  0.00     0.009 A 
ATOM     43  C   UNL A   1      50.647  26.465  28.079  1.00  0.00     0.001 A 
ATOM     44  C   UNL A   1      50.391  25.710  30.359  1.00  0.00     0.001 A 
ATOM     45  C   UNL A   1      51.193  25.913  29.237  1.00  0.00     0.000 A 
ENDBRANCH  26  40
BRANCH  27  46
ATOM     46  C   UNL A   1      38.800  29.089  29.095  1.00  0.00    -0.014 A 
ATOM     47  C   UNL A   1      38.027  28.992  30.261  1.00  0.00     0.009 A 
ATOM     48  C   UNL A   1      38.194  29.545  27.913  1.00  0.00     0.009 A 
ATOM     49  C   UNL A   1      36.671  29.323  30.236  1.00  0.00     0.001 A 
ATOM     50  C   UNL A   1      36.847  29.905  27.900  1.00  0.00     0.001 A 
ATOM     51  C   UNL A   1      36.084  29.783  29.059  1.00  0.00     0.000 A 
ENDBRANCH  27  46
BRANCH  39  52
ATOM     52  C   UNL A   1      44.640  32.584  30.480  1.00  0.00    -0.014 A 
ATOM     53  C   UNL A   1      44.850  33.583  29.517  1.00  0.00     0.009 A 
ATOM     54  C   UNL A   1      44.662  32.930  31.839  1.00  0.00     0.009 A 
ATOM     55  C   UNL A   1      45.121  34.895  29.909  1.00  0.00     0.001 A 
ATOM     56  C   UNL A   1      44.905  34.249  32.228  1.00  0.00     0.001 A 
ATOM     57  C   UNL A   1      45.146  35.227  31.263  1.00  0.00     0.000 A 
ENDBRANCH  39  52
ENDBRANCH  13  14
ENDBRANCH   6   8
ENDBRANCH   3   4
ENDBRANCH   2   3
ENDBRANCH   1   2
BRANCH   1  58
ATOM     58  N   UNL A   1      36.379  21.636  24.105  1.00  0.00    -0.356 N 
ATOM     59  C   UNL A   1      35.466  22.639  23.980  1.00  0.00     0.223 C 
ATOM     60  H   UNL A   1      37.152  21.703  23.498  1.00  0.00     0.163 HD
ATOM     61  O   UNL A   1      35.535  23.348  22.978  1.00  0.00    -0.275 OA
BRANCH  59  62
ATOM     62  C   UNL A   1      34.425  22.855  25.069  1.00  0.00     0.091 C 
ATOM     63  C   UNL A   1      35.037  22.852  26.474  1.00  0.00     0.014 C 
ATOM     64  C   UNL A   1      33.299  21.813  24.961  1.00  0.00     0.091 C 
ATOM     65  C   UNL A   1      33.964  23.124  27.526  1.00  0.00     0.001 C 
ATOM     66  C   UNL A   1      32.235  22.013  26.055  1.00  0.00     0.014 C 
ATOM     67  C   UNL A   1      32.851  22.088  27.453  1.00  0.00     0.001 C 
BRANCH  64  68
ATOM     68  C   UNL A   1      32.651  21.598  23.578  1.00  0.00     0.228 C 
ATOM     69  O   UNL A   1      32.609  20.452  23.107  1.00  0.00    -0.274 OA
ATOM     70  N   UNL A   1      31.950  22.545  22.885  1.00  0.00    -0.326 N 
ATOM     71  H   UNL A   1      31.547  22.224  22.046  1.00  0.00     0.169 HD
BRANCH  70  72
ATOM     72  C   UNL A   1      31.711  23.888  23.165  1.00  0.00     0.041 A 
ATOM     73  C   UNL A   1      32.482  24.846  22.521  1.00  0.00     0.028 A 
ATOM     74  C   UNL A   1      30.773  24.306  24.095  1.00  0.00     0.028 A 
ATOM     75  C   UNL A   1      32.137  26.198  22.622  1.00  0.00     0.028 A 
ATOM     76  C   UNL A   1      30.395  25.649  24.162  1.00  0.00     0.028 A 
ATOM     77  C   UNL A   1      31.017  26.598  23.347  1.00  0.00     0.041 A 
BRANCH  77  78
ATOM     78  N   UNL A   1      30.428  27.874  23.310  1.00  0.00    -0.319 N 
ATOM     79  C   UNL A   1      30.646  29.038  24.023  1.00  0.00     0.291 C 
ATOM     80  H   UNL A   1      29.714  27.957  22.638  1.00  0.00     0.170 HD
ATOM     81  O   UNL A   1      29.985  30.025  23.693  1.00  0.00    -0.265 OA
BRANCH  79  82
ATOM     82  C   UNL A   1      31.629  29.080  25.073  1.00  0.00     0.191 A 
ATOM     83  C   UNL A   1      32.881  29.661  25.160  1.00  0.00     0.056 A 
ATOM     84  O   UNL A   1      31.350  28.416  26.236  1.00  0.00    -0.459 OA
ATOM     85  C   UNL A   1      33.408  29.292  26.424  1.00  0.00     0.043 A 
ATOM     86  C   UNL A   1      32.433  28.548  27.043  1.00  0.00     0.196 A 
ENDBRANCH  79  82
ENDBRANCH  77  78
ENDBRANCH  70  72
ENDBRANCH  64  68
ENDBRANCH  59  62
ENDBRANCH   1  58
TORSDOF 14
ENDMDL
MODEL 3
REMARK VINA RESULT:     -11.4      3.203      7.175
REMARK SMILES O=C(NCCCNC(=O)[C@@H]1CCCC[C@H]1C(=O)Nc1ccc(NC(=O)c2ccco2)cc1)c1ccc(-c2c3nc(c(-c4ccccc4)c4ccc([nH]4)c(-c4ccccc4)c4nc(c(-c5ccccc5)c5ccc2[nH]5)C=C4)C=C3)cc1
REMARK SMILES IDX 6 1 5 2 4 3 3 4 1 5 2 6 33 8 34 9 80 10 35 11 79 12 36 13
REMARK SMILES IDX 37 14 38 15 73 16 39 17 78 18 72 19 74 20 40 21 77 22 71 23
REMARK SMILES IDX 70 24 41 26 63 27 48 28 62 29 49 30 52 31 61 32 75 33 50 34
REMARK SMILES IDX 51 35 60 37 76 38 53 39 42 40 43 41 47 42 44 43 46 44 45 45
REMARK SMILES IDX 64 46 65 47 69 48 66 49 68 50 67 51 54 52 55 53 59 54 56 55
REMARK SMILES IDX 58 56 57 57 7 58 8 59 9 61 10 62 11 63 15 64 12 65 14 66
REMARK SMILES IDX 13 67 16 68 17 69 18 70 19 72 20 73 32 74 21 75 31 76 22 77
REMARK SMILES IDX 23 78 24 79 25 81 26 82 27 83 30 84 28 85 29 86
REMARK H PARENT 3 7 74 25 52 36 7 60 18 71 23 80
REMARK Flexibility Score: inf
ROOT
ATOM      1  C   UNL A   1      31.477  30.061  25.424  1.00  0.00     0.117 C 
ENDROOT
BRANCH   1   2
ATOM      2  C   UNL A   1      31.202  31.397  26.100  1.00  0.00     0.042 C 
BRANCH   2   3
ATOM      3  C   UNL A   1      32.341  31.870  26.987  1.00  0.00     0.118 C 
BRANCH   3   4
ATOM      4  N   UNL A   1      32.211  33.266  27.365  1.00  0.00    -0.352 N 
ATOM      5  O   UNL A   1      32.658  35.135  28.546  1.00  0.00    -0.269 OA
ATOM      6  C   UNL A   1      33.023  34.021  28.178  1.00  0.00     0.251 C 
ATOM      7  H   UNL A   1      31.433  33.737  26.988  1.00  0.00     0.163 HD
BRANCH   6   8
ATOM      8  C   UNL A   1      34.327  33.484  28.628  1.00  0.00     0.039 A 
ATOM      9  C   UNL A   1      35.506  33.821  27.959  1.00  0.00     0.014 A 
ATOM     10  C   UNL A   1      34.377  32.645  29.747  1.00  0.00     0.014 A 
ATOM     11  C   UNL A   1      36.700  33.205  28.306  1.00  0.00     0.010 A 
ATOM     12  C   UNL A   1      35.602  32.112  30.165  1.00  0.00     0.010 A 
ATOM     13  C   UNL A   1      36.770  32.370  29.434  1.00  0.00    -0.014 A 
BRANCH  13  14
ATOM     14  C   UNL A   1      38.103  31.880  29.868  1.00  0.00     0.031 A 
ATOM     15  C   UNL A   1      38.912  32.601  30.909  1.00  0.00     0.074 A 
ATOM     16  C   UNL A   1      38.551  30.722  29.345  1.00  0.00     0.049 A 
ATOM     17  N   UNL A   1      40.054  32.248  31.446  1.00  0.00    -0.248 NA
ATOM     18  C   UNL A   1      38.385  33.880  31.409  1.00  0.00     0.031 C 
ATOM     19  C   UNL A   1      37.861  29.942  28.312  1.00  0.00     0.029 A 
ATOM     20  N   UNL A   1      39.664  29.976  29.631  1.00  0.00    -0.354 N 
ATOM     21  C   UNL A   1      40.388  33.262  32.335  1.00  0.00     0.074 A 
ATOM     22  C   UNL A   1      39.341  34.258  32.249  1.00  0.00     0.031 C 
ATOM     23  C   UNL A   1      38.525  28.796  28.107  1.00  0.00     0.029 A 
ATOM     24  C   UNL A   1      39.721  28.791  28.938  1.00  0.00     0.049 A 
ATOM     25  H   UNL A   1      40.356  30.261  30.270  1.00  0.00     0.167 HD
ATOM     26  C   UNL A   1      41.465  33.349  33.153  1.00  0.00     0.031 A 
ATOM     27  C   UNL A   1      40.637  27.807  28.959  1.00  0.00     0.031 A 
ATOM     28  C   UNL A   1      42.508  32.358  33.234  1.00  0.00     0.049 A 
ATOM     29  C   UNL A   1      41.822  27.939  29.866  1.00  0.00     0.074 A 
ATOM     30  C   UNL A   1      43.637  32.356  34.036  1.00  0.00     0.029 A 
ATOM     31  N   UNL A   1      42.550  31.192  32.486  1.00  0.00    -0.354 N 
ATOM     32  N   UNL A   1      42.107  28.896  30.714  1.00  0.00    -0.248 NA
ATOM     33  C   UNL A   1      42.811  26.855  29.818  1.00  0.00     0.031 C 
ATOM     34  C   UNL A   1      44.382  31.209  33.744  1.00  0.00     0.029 A 
ATOM     35  C   UNL A   1      43.692  30.471  32.796  1.00  0.00     0.049 A 
ATOM     36  H   UNL A   1      41.869  30.916  31.831  1.00  0.00     0.167 HD
ATOM     37  C   UNL A   1      43.308  28.531  31.303  1.00  0.00     0.074 A 
ATOM     38  C   UNL A   1      43.676  27.245  30.743  1.00  0.00     0.031 C 
ATOM     39  C   UNL A   1      44.049  29.204  32.217  1.00  0.00     0.031 A 
BRANCH  26  40
ATOM     40  C   UNL A   1      41.585  34.569  34.022  1.00  0.00    -0.014 A 
ATOM     41  C   UNL A   1      41.041  34.595  35.316  1.00  0.00     0.009 A 
ATOM     42  C   UNL A   1      42.308  35.684  33.568  1.00  0.00     0.009 A 
ATOM     43  C   UNL A   1      41.202  35.720  36.130  1.00  0.00     0.001 A 
ATOM     44  C   UNL A   1      42.487  36.798  34.391  1.00  0.00     0.001 A 
ATOM     45  C   UNL A   1      41.929  36.817  35.668  1.00  0.00     0.000 A 
ENDBRANCH  26  40
BRANCH  27  46
ATOM     46  C   UNL A   1      40.476  26.625  28.073  1.00  0.00    -0.014 A 
ATOM     47  C   UNL A   1      41.003  26.623  26.774  1.00  0.00     0.009 A 
ATOM     48  C   UNL A   1      39.791  25.487  28.530  1.00  0.00     0.009 A 
ATOM     49  C   UNL A   1      40.826  25.514  25.943  1.00  0.00     0.001 A 
ATOM     50  C   UNL A   1      39.644  24.369  27.710  1.00  0.00     0.001 A 
ATOM     51  C   UNL A   1      40.152  24.388  26.413  1.00  0.00     0.000 A 
ENDBRANCH  27  46
BRANCH  39  52
ATOM     52  C   UNL A   1      45.323  28.546  32.663  1.00  0.00    -0.014 A 
ATOM     53  C   UNL A   1      46.535  28.795  32.000  1.00  0.00     0.009 A 
ATOM     54  C   UNL A   1      45.307  27.666  33.755  1.00  0.00     0.009 A 
ATOM     55  C   UNL A   1      47.702  28.140  32.397  1.00  0.00     0.001 A 
ATOM     56  C   UNL A   1      46.482  27.033  34.167  1.00  0.00     0.001 A 
ATOM     57  C   UNL A   1      47.675  27.261  33.480  1.00  0.00     0.000 A 
ENDBRANCH  39  52
ENDBRANCH  13  14
ENDBRANCH   6   8
ENDBRANCH   3   4
ENDBRANCH   2   3
ENDBRANCH   1   2
BRANCH   1  58
ATOM     58  N   UNL A   1      31.709  29.018  26.407  1.00  0.00    -0.356 N 
ATOM     59  C   UNL A   1      31.481  27.677  26.338  1.00  0.00     0.223 C 
ATOM     60  H   UNL A   1      32.090  29.330  27.260  1.00  0.00     0.163 HD
ATOM     61  O   UNL A   1      31.505  27.043  27.392  1.00  0.00    -0.275 OA
BRANCH  59  62
ATOM     62  C   UNL A   1      31.233  27.019  24.989  1.00  0.00     0.091 C 
ATOM     63  C   UNL A   1      29.782  26.556  24.821  1.00  0.00     0.014 C 
ATOM     64  C   UNL A   1      32.209  25.852  24.764  1.00  0.00     0.091 C 
ATOM     65  C   UNL A   1      29.571  25.951  23.434  1.00  0.00     0.001 C 
ATOM     66  C   UNL A   1      31.975  25.171  23.404  1.00  0.00     0.014 C 
ATOM     67  C   UNL A   1      30.510  24.777  23.201  1.00  0.00     0.001 C 
BRANCH  64  68
ATOM     68  C   UNL A   1      33.709  26.113  25.012  1.00  0.00     0.228 C 
ATOM     69  O   UNL A   1      34.157  27.254  24.832  1.00  0.00    -0.274 OA
ATOM     70  N   UNL A   1      34.573  25.227  25.592  1.00  0.00    -0.326 N 
ATOM     71  H   UNL A   1      35.482  25.576  25.735  1.00  0.00     0.169 HD
BRANCH  70  72
ATOM     72  C   UNL A   1      34.384  23.912  26.011  1.00  0.00     0.041 A 
ATOM     73  C   UNL A   1      33.367  23.645  26.916  1.00  0.00     0.028 A 
ATOM     74  C   UNL A   1      35.201  22.869  25.603  1.00  0.00     0.028 A 
ATOM     75  C   UNL A   1      33.020  22.320  27.200  1.00  0.00     0.028 A 
ATOM     76  C   UNL A   1      34.829  21.545  25.847  1.00  0.00     0.028 A 
ATOM     77  C   UNL A   1      33.671  21.260  26.573  1.00  0.00     0.041 A 
BRANCH  77  78
ATOM     78  N   UNL A   1      33.249  19.919  26.578  1.00  0.00    -0.319 N 
ATOM     79  C   UNL A   1      32.735  19.085  25.603  1.00  0.00     0.291 C 
ATOM     80  H   UNL A   1      33.339  19.483  27.456  1.00  0.00     0.170 HD
ATOM     81  O   UNL A   1      32.521  17.915  25.926  1.00  0.00    -0.265 OA
BRANCH  79  82
ATOM     82  C   UNL A   1      32.501  19.575  24.270  1.00  0.00     0.191 A 
ATOM     83  C   UNL A   1      32.222  20.836  23.773  1.00  0.00     0.056 A 
ATOM     84  O   UNL A   1      32.518  18.671  23.244  1.00  0.00    -0.459 OA
ATOM     85  C   UNL A   1      32.014  20.680  22.379  1.00  0.00     0.043 A 
ATOM     86  C   UNL A   1      32.219  19.348  22.107  1.00  0.00     0.196 A 
ENDBRANCH  79  82
ENDBRANCH  77  78
ENDBRANCH  70  72
ENDBRANCH  64  68
ENDBRANCH  59  62
ENDBRANCH   1  58
TORSDOF 14
ENDMDL
