MODEL 1
REMARK VINA RESULT:     -11.5      0.000      0.000
REMARK SMILES C[C@]12CCC(=O)N1[C@@H](C(=O)N1C[C@H](O)C[C@@H]1C(=O)NCCCNC(=O)c1ccc(-c3c4nc(c(-c5ccccc5)c5ccc([nH]5)c(-c5ccccc5)c5nc(c(-c6ccccc6)c6ccc3[nH]6)C=C5)C=C4)cc1)CS2
REMARK SMILES IDX 21 1 20 2 19 3 17 4 18 5 16 7 11 8 12 9 13 10 15 11 9 12
REMARK SMILES IDX 10 13 8 14 1 15 2 16 3 17 7 18 75 19 4 20 5 21 74 22 6 23
REMARK SMILES IDX 14 24 22 26 23 27 24 28 25 30 26 31 27 32 73 33 28 34 72 35
REMARK SMILES IDX 29 36 30 37 31 38 66 39 32 40 71 41 65 42 67 43 33 44 70 45
REMARK SMILES IDX 64 46 63 47 34 49 56 50 41 51 55 52 42 53 45 54 54 55 68 56
REMARK SMILES IDX 43 57 44 58 53 60 69 61 46 62 35 63 36 64 40 65 37 66 39 67
REMARK SMILES IDX 38 68 57 69 58 70 62 71 59 72 61 73 60 74 47 75 48 76 52 77
REMARK SMILES IDX 49 78 51 79 50 80
REMARK H PARENT 19 6 14 25 23 29 67 48 45 59
REMARK Flexibility Score: inf
ROOT
ATOM      1  C   UNL A   1      38.207  21.600  25.951  1.00  0.00     0.042 C 
ENDROOT
BRANCH   1   2
ATOM      2  C   UNL A   1      36.976  22.483  25.703  1.00  0.00     0.117 C 
BRANCH   2   3
ATOM      3  N   UNL A   1      35.824  22.056  26.489  1.00  0.00    -0.354 N 
ATOM      4  C   UNL A   1      34.657  21.428  26.143  1.00  0.00     0.242 C 
ATOM      5  O   UNL A   1      33.782  21.397  27.009  1.00  0.00    -0.273 OA
ATOM      6  H   UNL A   1      35.900  22.258  27.450  1.00  0.00     0.163 HD
BRANCH   4   7
ATOM      7  C   UNL A   1      34.489  20.759  24.751  1.00  0.00     0.177 C 
ATOM      8  N   UNL A   1      33.122  20.865  24.209  1.00  0.00    -0.326 N 
ATOM      9  C   UNL A   1      32.437  19.579  24.262  1.00  0.00     0.152 C 
ATOM     10  C   UNL A   1      33.341  18.633  25.039  1.00  0.00     0.136 C 
ATOM     11  C   UNL A   1      34.734  19.245  24.891  1.00  0.00     0.069 C 
BRANCH   8  12
ATOM     12  C   UNL A   1      32.480  21.869  23.516  1.00  0.00     0.247 C 
ATOM     13  O   UNL A   1      32.514  21.896  22.278  1.00  0.00    -0.272 OA
BRANCH  12  14
ATOM     14  C   UNL A   1      31.752  23.023  24.227  1.00  0.00     0.186 C 
ATOM     15  C   UNL A   1      31.139  26.240  24.600  1.00  0.00     0.047 C 
ATOM     16  C   UNL A   1      31.925  25.184  25.397  1.00  0.00     0.087 C 
ATOM     17  C   UNL A   1      33.115  25.775  26.150  1.00  0.00     0.049 C 
ATOM     18  N   UNL A   1      32.546  24.205  24.550  1.00  0.00    -0.315 N 
ATOM     19  S   UNL A   1      30.759  24.210  26.411  1.00  0.00    -0.131 SA
ATOM     20  C   UNL A   1      34.321  25.526  25.235  1.00  0.00     0.103 C 
ATOM     21  C   UNL A   1      33.859  24.476  24.264  1.00  0.00     0.224 C 
ATOM     22  C   UNL A   1      31.052  22.634  25.517  1.00  0.00     0.107 C 
ATOM     23  O   UNL A   1      34.583  23.922  23.454  1.00  0.00    -0.275 OA
ENDBRANCH  12  14
ENDBRANCH   8  12
BRANCH  10  24
ATOM     24  O   UNL A   1      32.950  18.586  26.404  1.00  0.00    -0.391 OA
ATOM     25  H   UNL A   1      32.867  17.662  26.686  1.00  0.00     0.211 HD
ENDBRANCH  10  24
ENDBRANCH   4   7
ENDBRANCH   2   3
ENDBRANCH   1   2
BRANCH   1  26
ATOM     26  C   UNL A   1      38.401  20.448  24.962  1.00  0.00     0.118 C 
BRANCH  26  27
ATOM     27  N   UNL A   1      39.388  19.487  25.424  1.00  0.00    -0.352 N 
ATOM     28  C   UNL A   1      40.635  19.620  25.983  1.00  0.00     0.251 C 
ATOM     29  H   UNL A   1      39.105  18.551  25.314  1.00  0.00     0.163 HD
ATOM     30  O   UNL A   1      41.323  18.600  26.071  1.00  0.00    -0.269 OA
BRANCH  28  31
ATOM     31  C   UNL A   1      41.207  20.905  26.478  1.00  0.00     0.039 A 
ATOM     32  C   UNL A   1      41.095  21.173  27.852  1.00  0.00     0.014 A 
ATOM     33  C   UNL A   1      41.713  21.906  25.648  1.00  0.00     0.014 A 
ATOM     34  C   UNL A   1      41.494  22.408  28.384  1.00  0.00     0.010 A 
ATOM     35  C   UNL A   1      42.180  23.116  26.190  1.00  0.00     0.010 A 
ATOM     36  C   UNL A   1      42.055  23.393  27.560  1.00  0.00    -0.014 A 
BRANCH  36  37
ATOM     37  C   UNL A   1      42.467  24.717  28.115  1.00  0.00     0.031 A 
ATOM     38  C   UNL A   1      41.450  25.809  28.345  1.00  0.00     0.074 A 
ATOM     39  C   UNL A   1      43.762  24.962  28.402  1.00  0.00     0.049 A 
ATOM     40  N   UNL A   1      41.633  27.034  28.777  1.00  0.00    -0.248 NA
ATOM     41  C   UNL A   1      40.049  25.490  28.033  1.00  0.00     0.031 C 
ATOM     42  C   UNL A   1      44.864  24.017  28.222  1.00  0.00     0.029 A 
ATOM     43  N   UNL A   1      44.369  26.089  28.905  1.00  0.00    -0.354 N 
ATOM     44  C   UNL A   1      40.380  27.636  28.764  1.00  0.00     0.074 A 
ATOM     45  C   UNL A   1      39.450  26.654  28.251  1.00  0.00     0.031 C 
ATOM     46  C   UNL A   1      46.007  24.592  28.629  1.00  0.00     0.029 A 
ATOM     47  C   UNL A   1      45.730  25.959  29.061  1.00  0.00     0.049 A 
ATOM     48  H   UNL A   1      43.878  26.910  29.132  1.00  0.00     0.167 HD
ATOM     49  C   UNL A   1      40.026  28.885  29.155  1.00  0.00     0.031 A 
ATOM     50  C   UNL A   1      46.655  26.838  29.491  1.00  0.00     0.031 A 
ATOM     51  C   UNL A   1      40.930  29.866  29.693  1.00  0.00     0.049 A 
ATOM     52  C   UNL A   1      46.239  28.221  29.909  1.00  0.00     0.074 A 
ATOM     53  C   UNL A   1      40.642  31.136  30.167  1.00  0.00     0.029 A 
ATOM     54  N   UNL A   1      42.297  29.691  29.830  1.00  0.00    -0.354 N 
ATOM     55  N   UNL A   1      45.042  28.752  29.934  1.00  0.00    -0.248 NA
ATOM     56  C   UNL A   1      47.307  29.124  30.367  1.00  0.00     0.031 C 
ATOM     57  C   UNL A   1      41.842  31.744  30.550  1.00  0.00     0.029 A 
ATOM     58  C   UNL A   1      42.869  30.836  30.360  1.00  0.00     0.049 A 
ATOM     59  H   UNL A   1      42.789  28.874  29.586  1.00  0.00     0.167 HD
ATOM     60  C   UNL A   1      45.209  30.039  30.428  1.00  0.00     0.074 A 
ATOM     61  C   UNL A   1      46.619  30.206  30.707  1.00  0.00     0.031 C 
ATOM     62  C   UNL A   1      44.273  30.997  30.634  1.00  0.00     0.031 A 
BRANCH  49  63
ATOM     63  C   UNL A   1      38.579  29.272  29.008  1.00  0.00    -0.014 A 
ATOM     64  C   UNL A   1      37.701  29.240  30.102  1.00  0.00     0.009 A 
ATOM     65  C   UNL A   1      38.103  29.726  27.767  1.00  0.00     0.009 A 
ATOM     66  C   UNL A   1      36.366  29.620  29.948  1.00  0.00     0.001 A 
ATOM     67  C   UNL A   1      36.774  30.130  27.622  1.00  0.00     0.001 A 
ATOM     68  C   UNL A   1      35.904  30.068  28.711  1.00  0.00     0.000 A 
ENDBRANCH  49  63
BRANCH  50  69
ATOM     69  C   UNL A   1      48.084  26.437  29.554  1.00  0.00    -0.014 A 
ATOM     70  C   UNL A   1      48.936  26.664  28.462  1.00  0.00     0.009 A 
ATOM     71  C   UNL A   1      48.601  25.819  30.703  1.00  0.00     0.009 A 
ATOM     72  C   UNL A   1      50.272  26.257  28.511  1.00  0.00     0.001 A 
ATOM     73  C   UNL A   1      49.943  25.438  30.759  1.00  0.00     0.001 A 
ATOM     74  C   UNL A   1      50.775  25.650  29.660  1.00  0.00     0.000 A 
ENDBRANCH  50  69
BRANCH  62  75
ATOM     75  C   UNL A   1      44.735  32.303  31.215  1.00  0.00    -0.014 A 
ATOM     76  C   UNL A   1      45.118  33.372  30.388  1.00  0.00     0.009 A 
ATOM     77  C   UNL A   1      44.751  32.481  32.607  1.00  0.00     0.009 A 
ATOM     78  C   UNL A   1      45.536  34.582  30.947  1.00  0.00     0.001 A 
ATOM     79  C   UNL A   1      45.145  33.700  33.162  1.00  0.00     0.001 A 
ATOM     80  C   UNL A   1      45.545  34.746  32.332  1.00  0.00     0.000 A 
ENDBRANCH  62  75
ENDBRANCH  36  37
ENDBRANCH  28  31
ENDBRANCH  26  27
ENDBRANCH   1  26
TORSDOF 13
ENDMDL
MODEL 2
REMARK VINA RESULT:     -11.5      2.253      7.353
REMARK SMILES C[C@]12CCC(=O)N1[C@@H](C(=O)N1C[C@H](O)C[C@@H]1C(=O)NCCCNC(=O)c1ccc(-c3c4nc(c(-c5ccccc5)c5ccc([nH]5)c(-c5ccccc5)c5nc(c(-c6ccccc6)c6ccc3[nH]6)C=C5)C=C4)cc1)CS2
REMARK SMILES IDX 21 1 20 2 19 3 17 4 18 5 16 7 11 8 12 9 13 10 15 11 9 12
REMARK SMILES IDX 10 13 8 14 1 15 2 16 3 17 7 18 75 19 4 20 5 21 74 22 6 23
REMARK SMILES IDX 14 24 22 26 23 27 24 28 25 30 26 31 27 32 73 33 28 34 72 35
REMARK SMILES IDX 29 36 30 37 31 38 66 39 32 40 71 41 65 42 67 43 33 44 70 45
REMARK SMILES IDX 64 46 63 47 34 49 56 50 41 51 55 52 42 53 45 54 54 55 68 56
REMARK SMILES IDX 43 57 44 58 53 60 69 61 46 62 35 63 36 64 40 65 37 66 39 67
REMARK SMILES IDX 38 68 57 69 58 70 62 71 59 72 61 73 60 74 47 75 48 76 52 77
REMARK SMILES IDX 49 78 51 79 50 80
REMARK H PARENT 19 6 14 25 23 29 67 48 45 59
REMARK Flexibility Score: inf
ROOT
ATOM      1  C   UNL A   1      33.731  28.589  25.855  1.00  0.00     0.042 C 
ENDROOT
BRANCH   1   2
ATOM      2  C   UNL A   1      33.086  29.468  24.774  1.00  0.00     0.117 C 
BRANCH   2   3
ATOM      3  N   UNL A   1      33.599  29.168  23.442  1.00  0.00    -0.354 N 
ATOM      4  C   UNL A   1      33.577  28.026  22.685  1.00  0.00     0.242 C 
ATOM      5  O   UNL A   1      34.291  28.030  21.682  1.00  0.00    -0.273 OA
ATOM      6  H   UNL A   1      34.045  29.929  23.006  1.00  0.00     0.163 HD
BRANCH   4   7
ATOM      7  C   UNL A   1      32.662  26.830  23.064  1.00  0.00     0.177 C 
ATOM      8  N   UNL A   1      33.376  25.542  23.132  1.00  0.00    -0.326 N 
ATOM      9  C   UNL A   1      33.032  24.692  21.998  1.00  0.00     0.152 C 
ATOM     10  C   UNL A   1      32.191  25.540  21.056  1.00  0.00     0.136 C 
ATOM     11  C   UNL A   1      31.612  26.633  21.954  1.00  0.00     0.069 C 
BRANCH   8  12
ATOM     12  C   UNL A   1      34.122  24.953  24.131  1.00  0.00     0.247 C 
ATOM     13  O   UNL A   1      34.796  25.650  24.902  1.00  0.00    -0.272 OA
BRANCH  12  14
ATOM     14  C   UNL A   1      34.206  23.426  24.303  1.00  0.00     0.186 C 
ATOM     15  C   UNL A   1      32.815  20.538  25.064  1.00  0.00     0.047 C 
ATOM     16  C   UNL A   1      33.823  21.473  25.754  1.00  0.00     0.087 C 
ATOM     17  C   UNL A   1      33.743  21.410  27.278  1.00  0.00     0.049 C 
ATOM     18  N   UNL A   1      33.561  22.858  25.484  1.00  0.00    -0.315 N 
ATOM     19  S   UNL A   1      35.482  21.193  25.043  1.00  0.00    -0.131 SA
ATOM     20  C   UNL A   1      32.851  22.595  27.673  1.00  0.00     0.103 C 
ATOM     21  C   UNL A   1      32.829  23.482  26.460  1.00  0.00     0.224 C 
ATOM     22  C   UNL A   1      35.616  22.864  24.295  1.00  0.00     0.107 C 
ATOM     23  O   UNL A   1      32.324  24.593  26.429  1.00  0.00    -0.275 OA
ENDBRANCH  12  14
ENDBRANCH   8  12
BRANCH  10  24
ATOM     24  O   UNL A   1      33.006  26.101  20.035  1.00  0.00    -0.391 OA
ATOM     25  H   UNL A   1      33.037  27.065  20.140  1.00  0.00     0.211 HD
ENDBRANCH  10  24
ENDBRANCH   4   7
ENDBRANCH   2   3
ENDBRANCH   1   2
BRANCH   1  26
ATOM     26  C   UNL A   1      33.199  28.796  27.275  1.00  0.00     0.118 C 
BRANCH  26  27
ATOM     27  N   UNL A   1      33.413  30.152  27.750  1.00  0.00    -0.352 N 
ATOM     28  C   UNL A   1      34.481  30.780  28.343  1.00  0.00     0.251 C 
ATOM     29  H   UNL A   1      32.635  30.740  27.622  1.00  0.00     0.163 HD
ATOM     30  O   UNL A   1      34.278  31.894  28.831  1.00  0.00    -0.269 OA
BRANCH  28  31
ATOM     31  C   UNL A   1      35.853  30.204  28.438  1.00  0.00     0.039 A 
ATOM     32  C   UNL A   1      36.250  29.685  29.681  1.00  0.00     0.014 A 
ATOM     33  C   UNL A   1      36.804  30.278  27.419  1.00  0.00     0.014 A 
ATOM     34  C   UNL A   1      37.562  29.237  29.894  1.00  0.00     0.010 A 
ATOM     35  C   UNL A   1      38.098  29.763  27.608  1.00  0.00     0.010 A 
ATOM     36  C   UNL A   1      38.502  29.258  28.854  1.00  0.00    -0.014 A 
BRANCH  36  37
ATOM     37  C   UNL A   1      39.905  28.798  29.076  1.00  0.00     0.031 A 
ATOM     38  C   UNL A   1      40.925  29.709  29.717  1.00  0.00     0.074 A 
ATOM     39  C   UNL A   1      40.287  27.564  28.688  1.00  0.00     0.049 A 
ATOM     40  N   UNL A   1      42.198  29.495  29.947  1.00  0.00    -0.248 NA
ATOM     41  C   UNL A   1      40.458  31.038  30.138  1.00  0.00     0.031 C 
ATOM     42  C   UNL A   1      39.426  26.573  28.042  1.00  0.00     0.029 A 
ATOM     43  N   UNL A   1      41.506  26.935  28.780  1.00  0.00    -0.354 N 
ATOM     44  C   UNL A   1      42.687  30.666  30.514  1.00  0.00     0.074 A 
ATOM     45  C   UNL A   1      41.582  31.600  30.562  1.00  0.00     0.031 C 
ATOM     46  C   UNL A   1      40.134  25.455  27.817  1.00  0.00     0.029 A 
ATOM     47  C   UNL A   1      41.509  25.660  28.264  1.00  0.00     0.049 A 
ATOM     48  H   UNL A   1      42.301  27.356  29.177  1.00  0.00     0.167 HD
ATOM     49  C   UNL A   1      43.934  30.943  30.968  1.00  0.00     0.031 A 
ATOM     50  C   UNL A   1      42.502  24.757  28.150  1.00  0.00     0.031 A 
ATOM     51  C   UNL A   1      45.038  30.020  30.953  1.00  0.00     0.049 A 
ATOM     52  C   UNL A   1      43.880  25.091  28.651  1.00  0.00     0.074 A 
ATOM     53  C   UNL A   1      46.320  30.202  31.446  1.00  0.00     0.029 A 
ATOM     54  N   UNL A   1      44.994  28.743  30.419  1.00  0.00    -0.354 N 
ATOM     55  N   UNL A   1      44.308  26.187  29.226  1.00  0.00    -0.248 NA
ATOM     56  C   UNL A   1      44.913  24.054  28.490  1.00  0.00     0.031 C 
ATOM     57  C   UNL A   1      47.064  29.050  31.171  1.00  0.00     0.029 A 
ATOM     58  C   UNL A   1      46.232  28.134  30.550  1.00  0.00     0.049 A 
ATOM     59  H   UNL A   1      44.202  28.330  30.007  1.00  0.00     0.167 HD
ATOM     60  C   UNL A   1      45.648  25.966  29.516  1.00  0.00     0.074 A 
ATOM     61  C   UNL A   1      45.961  24.625  29.069  1.00  0.00     0.031 C 
ATOM     62  C   UNL A   1      46.538  26.801  30.103  1.00  0.00     0.031 A 
BRANCH  49  63
ATOM     63  C   UNL A   1      44.181  32.321  31.520  1.00  0.00    -0.014 A 
ATOM     64  C   UNL A   1      44.590  33.376  30.690  1.00  0.00     0.009 A 
ATOM     65  C   UNL A   1      43.949  32.577  32.881  1.00  0.00     0.009 A 
ATOM     66  C   UNL A   1      44.798  34.651  31.220  1.00  0.00     0.001 A 
ATOM     67  C   UNL A   1      44.132  33.859  33.403  1.00  0.00     0.001 A 
ATOM     68  C   UNL A   1      44.565  34.893  32.573  1.00  0.00     0.000 A 
ENDBRANCH  49  63
BRANCH  50  69
ATOM     69  C   UNL A   1      42.233  23.433  27.532  1.00  0.00    -0.014 A 
ATOM     70  C   UNL A   1      42.584  23.186  26.196  1.00  0.00     0.009 A 
ATOM     71  C   UNL A   1      41.616  22.414  28.273  1.00  0.00     0.009 A 
ATOM     72  C   UNL A   1      42.301  21.951  25.608  1.00  0.00     0.001 A 
ATOM     73  C   UNL A   1      41.359  21.172  27.690  1.00  0.00     0.001 A 
ATOM     74  C   UNL A   1      41.694  20.944  26.356  1.00  0.00     0.000 A 
ENDBRANCH  50  69
BRANCH  62  75
ATOM     75  C   UNL A   1      47.932  26.283  30.324  1.00  0.00    -0.014 A 
ATOM     76  C   UNL A   1      48.318  25.741  31.560  1.00  0.00     0.009 A 
ATOM     77  C   UNL A   1      48.858  26.302  29.269  1.00  0.00     0.009 A 
ATOM     78  C   UNL A   1      49.615  25.256  31.744  1.00  0.00     0.001 A 
ATOM     79  C   UNL A   1      50.145  25.793  29.448  1.00  0.00     0.001 A 
ATOM     80  C   UNL A   1      50.526  25.278  30.686  1.00  0.00     0.000 A 
ENDBRANCH  62  75
ENDBRANCH  36  37
ENDBRANCH  28  31
ENDBRANCH  26  27
ENDBRANCH   1  26
TORSDOF 13
ENDMDL
MODEL 3
REMARK VINA RESULT:     -11.5      0.258      5.909
REMARK SMILES C[C@]12CCC(=O)N1[C@@H](C(=O)N1C[C@H](O)C[C@@H]1C(=O)NCCCNC(=O)c1ccc(-c3c4nc(c(-c5ccccc5)c5ccc([nH]5)c(-c5ccccc5)c5nc(c(-c6ccccc6)c6ccc3[nH]6)C=C5)C=C4)cc1)CS2
REMARK SMILES IDX 21 1 20 2 19 3 17 4 18 5 16 7 11 8 12 9 13 10 15 11 9 12
REMARK SMILES IDX 10 13 8 14 1 15 2 16 3 17 7 18 75 19 4 20 5 21 74 22 6 23
REMARK SMILES IDX 14 24 22 26 23 27 24 28 25 30 26 31 27 32 73 33 28 34 72 35
REMARK SMILES IDX 29 36 30 37 31 38 66 39 32 40 71 41 65 42 67 43 33 44 70 45
REMARK SMILES IDX 64 46 63 47 34 49 56 50 41 51 55 52 42 53 45 54 54 55 68 56
REMARK SMILES IDX 43 57 44 58 53 60 69 61 46 62 35 63 36 64 40 65 37 66 39 67
REMARK SMILES IDX 38 68 57 69 58 70 62 71 59 72 61 73 60 74 47 75 48 76 52 77
REMARK SMILES IDX 49 78 51 79 50 80
REMARK H PARENT 19 6 14 25 23 29 67 48 45 59
REMARK Flexibility Score: inf
ROOT
ATOM      1  C   UNL A   1      38.298  21.390  25.951  1.00  0.00     0.042 C 
ENDROOT
BRANCH   1   2
ATOM      2  C   UNL A   1      37.083  22.261  25.602  1.00  0.00     0.117 C 
BRANCH   2   3
ATOM      3  N   UNL A   1      35.915  21.924  26.408  1.00  0.00    -0.354 N 
ATOM      4  C   UNL A   1      34.708  21.360  26.087  1.00  0.00     0.242 C 
ATOM      5  O   UNL A   1      33.841  21.404  26.961  1.00  0.00    -0.273 OA
ATOM      6  H   UNL A   1      36.012  22.143  27.363  1.00  0.00     0.163 HD
BRANCH   4   7
ATOM      7  C   UNL A   1      34.486  20.670  24.713  1.00  0.00     0.177 C 
ATOM      8  N   UNL A   1      33.106  20.793  24.210  1.00  0.00    -0.326 N 
ATOM      9  C   UNL A   1      32.398  19.521  24.307  1.00  0.00     0.152 C 
ATOM     10  C   UNL A   1      33.307  18.572  25.074  1.00  0.00     0.136 C 
ATOM     11  C   UNL A   1      34.707  19.153  24.875  1.00  0.00     0.069 C 
BRANCH   8  12
ATOM     12  C   UNL A   1      32.464  21.796  23.518  1.00  0.00     0.247 C 
ATOM     13  O   UNL A   1      32.472  21.807  22.278  1.00  0.00    -0.272 OA
BRANCH  12  14
ATOM     14  C   UNL A   1      31.766  22.969  24.228  1.00  0.00     0.186 C 
ATOM     15  C   UNL A   1      31.207  26.199  24.573  1.00  0.00     0.047 C 
ATOM     16  C   UNL A   1      31.993  25.141  25.368  1.00  0.00     0.087 C 
ATOM     17  C   UNL A   1      33.206  25.724  26.091  1.00  0.00     0.049 C 
ATOM     18  N   UNL A   1      32.584  24.144  24.521  1.00  0.00    -0.315 N 
ATOM     19  S   UNL A   1      30.834  24.197  26.416  1.00  0.00    -0.131 SA
ATOM     20  C   UNL A   1      34.391  25.446  25.155  1.00  0.00     0.103 C 
ATOM     21  C   UNL A   1      33.894  24.391  24.207  1.00  0.00     0.224 C 
ATOM     22  C   UNL A   1      31.087  22.606  25.536  1.00  0.00     0.107 C 
ATOM     23  O   UNL A   1      34.595  23.817  23.390  1.00  0.00    -0.275 OA
ENDBRANCH  12  14
ENDBRANCH   8  12
BRANCH  10  24
ATOM     24  O   UNL A   1      32.956  18.558  26.451  1.00  0.00    -0.391 OA
ATOM     25  H   UNL A   1      32.905  17.641  26.763  1.00  0.00     0.211 HD
ENDBRANCH  10  24
ENDBRANCH   4   7
ENDBRANCH   2   3
ENDBRANCH   1   2
BRANCH   1  26
ATOM     26  C   UNL A   1      38.579  20.236  24.986  1.00  0.00     0.118 C 
BRANCH  26  27
ATOM     27  N   UNL A   1      39.608  19.339  25.486  1.00  0.00    -0.352 N 
ATOM     28  C   UNL A   1      40.838  19.551  26.059  1.00  0.00     0.251 C 
ATOM     29  H   UNL A   1      39.376  18.387  25.395  1.00  0.00     0.163 HD
ATOM     30  O   UNL A   1      41.576  18.570  26.183  1.00  0.00    -0.269 OA
BRANCH  28  31
ATOM     31  C   UNL A   1      41.333  20.875  26.531  1.00  0.00     0.039 A 
ATOM     32  C   UNL A   1      41.174  21.174  27.894  1.00  0.00     0.014 A 
ATOM     33  C   UNL A   1      41.811  21.878  25.686  1.00  0.00     0.014 A 
ATOM     34  C   UNL A   1      41.499  22.442  28.401  1.00  0.00     0.010 A 
ATOM     35  C   UNL A   1      42.204  23.123  26.204  1.00  0.00     0.010 A 
ATOM     36  C   UNL A   1      42.031  23.431  27.563  1.00  0.00    -0.014 A 
BRANCH  36  37
ATOM     37  C   UNL A   1      42.365  24.788  28.089  1.00  0.00     0.031 A 
ATOM     38  C   UNL A   1      43.779  25.136  28.488  1.00  0.00     0.074 A 
ATOM     39  C   UNL A   1      41.400  25.719  28.235  1.00  0.00     0.049 A 
ATOM     40  N   UNL A   1      44.244  26.248  29.006  1.00  0.00    -0.248 NA
ATOM     41  C   UNL A   1      44.800  24.095  28.297  1.00  0.00     0.031 C 
ATOM     42  C   UNL A   1      39.985  25.532  27.909  1.00  0.00     0.029 A 
ATOM     43  N   UNL A   1      41.465  27.012  28.699  1.00  0.00    -0.354 N 
ATOM     44  C   UNL A   1      45.600  26.031  29.224  1.00  0.00     0.074 A 
ATOM     45  C   UNL A   1      45.876  24.671  28.815  1.00  0.00     0.031 C 
ATOM     46  C   UNL A   1      39.323  26.672  28.160  1.00  0.00     0.029 A 
ATOM     47  C   UNL A   1      40.252  27.659  28.702  1.00  0.00     0.049 A 
ATOM     48  H   UNL A   1      42.302  27.434  28.999  1.00  0.00     0.167 HD
ATOM     49  C   UNL A   1      46.537  26.884  29.707  1.00  0.00     0.031 A 
ATOM     50  C   UNL A   1      39.917  28.900  29.104  1.00  0.00     0.031 A 
ATOM     51  C   UNL A   1      46.287  28.247  30.094  1.00  0.00     0.049 A 
ATOM     52  C   UNL A   1      40.972  29.824  29.647  1.00  0.00     0.074 A 
ATOM     53  C   UNL A   1      47.192  29.196  30.540  1.00  0.00     0.029 A 
ATOM     54  N   UNL A   1      45.043  28.857  30.083  1.00  0.00    -0.354 N 
ATOM     55  N   UNL A   1      42.255  29.613  29.800  1.00  0.00    -0.248 NA
ATOM     56  C   UNL A   1      40.527  31.163  30.066  1.00  0.00     0.031 C 
ATOM     57  C   UNL A   1      46.489  30.368  30.840  1.00  0.00     0.029 A 
ATOM     58  C   UNL A   1      45.154  30.162  30.535  1.00  0.00     0.049 A 
ATOM     59  H   UNL A   1      44.206  28.427  29.798  1.00  0.00     0.167 HD
ATOM     60  C   UNL A   1      42.775  30.796  30.310  1.00  0.00     0.074 A 
ATOM     61  C   UNL A   1      41.673  31.727  30.426  1.00  0.00     0.031 C 
ATOM     62  C   UNL A   1      44.054  31.083  30.650  1.00  0.00     0.031 A 
BRANCH  49  63
ATOM     63  C   UNL A   1      47.939  26.360  29.855  1.00  0.00    -0.014 A 
ATOM     64  C   UNL A   1      48.382  25.792  31.059  1.00  0.00     0.009 A 
ATOM     65  C   UNL A   1      48.813  26.389  28.756  1.00  0.00     0.009 A 
ATOM     66  C   UNL A   1      49.683  25.296  31.171  1.00  0.00     0.001 A 
ATOM     67  C   UNL A   1      50.104  25.869  28.862  1.00  0.00     0.001 A 
ATOM     68  C   UNL A   1      50.541  25.331  30.072  1.00  0.00     0.000 A 
ENDBRANCH  49  63
BRANCH  50  69
ATOM     69  C   UNL A   1      38.505  29.353  29.009  1.00  0.00    -0.014 A 
ATOM     70  C   UNL A   1      37.651  29.264  30.119  1.00  0.00     0.009 A 
ATOM     71  C   UNL A   1      38.003  29.869  27.804  1.00  0.00     0.009 A 
ATOM     72  C   UNL A   1      36.316  29.661  30.017  1.00  0.00     0.001 A 
ATOM     73  C   UNL A   1      36.675  30.290  27.713  1.00  0.00     0.001 A 
ATOM     74  C   UNL A   1      35.831  30.178  28.817  1.00  0.00     0.000 A 
ENDBRANCH  50  69
BRANCH  62  75
ATOM     75  C   UNL A   1      44.342  32.469  31.154  1.00  0.00    -0.014 A 
ATOM     76  C   UNL A   1      44.305  32.766  32.526  1.00  0.00     0.009 A 
ATOM     77  C   UNL A   1      44.693  33.482  30.248  1.00  0.00     0.009 A 
ATOM     78  C   UNL A   1      44.585  34.059  32.976  1.00  0.00     0.001 A 
ATOM     79  C   UNL A   1      44.997  34.766  30.702  1.00  0.00     0.001 A 
ATOM     80  C   UNL A   1      44.935  35.056  32.064  1.00  0.00     0.000 A 
ENDBRANCH  62  75
ENDBRANCH  36  37
ENDBRANCH  28  31
ENDBRANCH  26  27
ENDBRANCH   1  26
TORSDOF 13
ENDMDL
