MODEL 1
REMARK VINA RESULT:     -11.4      0.000      0.000
REMARK SMILES Cc1ccccc1C(=O)Nc1ccc(N2CCC(n3c(C)nc4cccnc43)CC2)c(C(=O)NCCCNC(=O)c2ccc(-c3c4nc(c(-c5ccccc5)c5ccc([nH]5)c(-c5ccccc5)c5nc(c(-c6ccccc6)c6ccc3[nH]6)C=C5)C=C4)cc2)c1
REMARK SMILES IDX 36 1 35 2 34 3 32 4 33 5 31 7 11 8 12 9 89 10 13 11 14 12
REMARK SMILES IDX 10 13 8 14 9 15 7 17 1 18 2 19 3 20 4 21 6 22 5 23 15 24
REMARK SMILES IDX 16 25 30 26 17 27 29 28 18 29 19 30 20 31 28 32 21 33 22 34
REMARK SMILES IDX 23 35 27 36 24 37 26 38 25 39 37 40 38 41 39 42 40 44 41 45
REMARK SMILES IDX 42 46 88 47 43 48 87 49 44 50 45 51 46 52 81 53 47 54 86 55
REMARK SMILES IDX 80 56 82 57 48 58 85 59 79 60 78 61 49 63 71 64 56 65 70 66
REMARK SMILES IDX 57 67 60 68 69 69 83 70 58 71 59 72 68 74 84 75 61 76 50 77
REMARK SMILES IDX 51 78 55 79 52 80 54 81 53 82 72 83 73 84 77 85 74 86 76 87
REMARK SMILES IDX 75 88 62 89 63 90 67 91 64 92 66 93 65 94
REMARK H PARENT 34 6 10 16 38 43 82 62 60 73
REMARK Flexibility Score: inf
ROOT
ATOM      1  C   UNL A   1      46.019  29.518  34.171  1.00  0.00     0.042 C 
ENDROOT
BRANCH   1   2
ATOM      2  C   UNL A   1      45.577  30.196  32.899  1.00  0.00     0.118 C 
BRANCH   2   3
ATOM      3  N   UNL A   1      45.331  31.611  32.964  1.00  0.00    -0.352 N 
ATOM      4  C   UNL A   1      44.643  32.380  32.050  1.00  0.00     0.253 C 
ATOM      5  O   UNL A   1      44.416  33.550  32.368  1.00  0.00    -0.269 OA
ATOM      6  H   UNL A   1      45.693  32.082  33.749  1.00  0.00     0.163 HD
BRANCH   4   7
ATOM      7  C   UNL A   1      44.223  31.903  30.682  1.00  0.00     0.065 A 
ATOM      8  C   UNL A   1      45.084  31.611  28.414  1.00  0.00     0.042 A 
ATOM      9  C   UNL A   1      43.861  31.123  27.996  1.00  0.00     0.028 A 
ATOM     10  C   UNL A   1      45.306  31.844  29.771  1.00  0.00     0.042 A 
ATOM     11  C   UNL A   1      42.794  31.117  28.889  1.00  0.00     0.029 A 
ATOM     12  C   UNL A   1      42.912  31.641  30.198  1.00  0.00     0.050 A 
BRANCH   8  13
ATOM     13  N   UNL A   1      46.067  32.032  27.513  1.00  0.00    -0.322 N 
ATOM     14  C   UNL A   1      46.048  33.104  26.637  1.00  0.00     0.255 C 
ATOM     15  O   UNL A   1      46.981  33.228  25.841  1.00  0.00    -0.269 OA
ATOM     16  H   UNL A   1      46.889  31.490  27.501  1.00  0.00     0.170 HD
BRANCH  14  17
ATOM     17  C   UNL A   1      44.985  34.160  26.645  1.00  0.00     0.043 A 
ATOM     18  C   UNL A   1      45.964  35.616  28.539  1.00  0.00     0.045 C 
ATOM     19  C   UNL A   1      44.923  35.269  27.517  1.00  0.00    -0.038 A 
ATOM     20  C   UNL A   1      43.829  36.156  27.423  1.00  0.00     0.004 A 
ATOM     21  C   UNL A   1      42.887  36.031  26.406  1.00  0.00     0.000 A 
ATOM     22  C   UNL A   1      44.046  34.075  25.601  1.00  0.00     0.014 A 
ATOM     23  C   UNL A   1      43.015  35.011  25.473  1.00  0.00     0.001 A 
ENDBRANCH  14  17
ENDBRANCH   8  13
BRANCH  12  24
ATOM     24  N   UNL A   1      41.714  32.046  30.816  1.00  0.00    -0.371 N 
ATOM     25  C   UNL A   1      40.990  33.194  30.275  1.00  0.00     0.118 C 
ATOM     26  C   UNL A   1      41.357  31.350  32.044  1.00  0.00     0.118 C 
ATOM     27  C   UNL A   1      39.843  33.720  31.119  1.00  0.00     0.047 C 
ATOM     28  C   UNL A   1      40.401  32.126  32.924  1.00  0.00     0.047 C 
ATOM     29  C   UNL A   1      39.249  32.757  32.152  1.00  0.00     0.094 C 
BRANCH  29  30
ATOM     30  N   UNL A   1      38.234  33.449  32.965  1.00  0.00    -0.310 N 
ATOM     31  C   UNL A   1      38.347  34.426  33.946  1.00  0.00     0.108 A 
ATOM     32  C   UNL A   1      36.879  33.202  32.819  1.00  0.00     0.160 A 
ATOM     33  C   UNL A   1      39.597  34.954  34.548  1.00  0.00     0.088 C 
ATOM     34  N   UNL A   1      37.158  34.860  34.329  1.00  0.00    -0.232 NA
ATOM     35  C   UNL A   1      36.246  34.107  33.654  1.00  0.00     0.108 A 
ATOM     36  N   UNL A   1      36.291  32.298  32.008  1.00  0.00    -0.237 NA
ATOM     37  C   UNL A   1      34.848  34.120  33.682  1.00  0.00     0.034 A 
ATOM     38  C   UNL A   1      34.939  32.312  32.108  1.00  0.00     0.113 A 
ATOM     39  C   UNL A   1      34.187  33.182  32.889  1.00  0.00     0.022 A 
ENDBRANCH  29  30
ENDBRANCH  12  24
ENDBRANCH   4   7
ENDBRANCH   2   3
ENDBRANCH   1   2
BRANCH   1  40
ATOM     40  C   UNL A   1      45.043  28.469  34.687  1.00  0.00     0.118 C 
BRANCH  40  41
ATOM     41  N   UNL A   1      45.065  28.273  36.148  1.00  0.00    -0.352 N 
ATOM     42  C   UNL A   1      44.061  27.864  37.029  1.00  0.00     0.251 C 
ATOM     43  H   UNL A   1      45.932  28.463  36.573  1.00  0.00     0.163 HD
ATOM     44  O   UNL A   1      44.312  27.439  38.124  1.00  0.00    -0.269 OA
BRANCH  42  45
ATOM     45  C   UNL A   1      42.667  27.818  36.533  1.00  0.00     0.039 A 
ATOM     46  C   UNL A   1      42.252  26.583  36.033  1.00  0.00     0.014 A 
ATOM     47  C   UNL A   1      42.077  29.004  36.132  1.00  0.00     0.014 A 
ATOM     48  C   UNL A   1      41.556  26.571  34.836  1.00  0.00     0.010 A 
ATOM     49  C   UNL A   1      41.501  28.996  34.881  1.00  0.00     0.010 A 
ATOM     50  C   UNL A   1      41.363  27.786  34.183  1.00  0.00    -0.014 A 
BRANCH  50  51
ATOM     51  C   UNL A   1      41.290  27.879  32.728  1.00  0.00     0.031 A 
ATOM     52  C   UNL A   1      39.997  28.149  32.070  1.00  0.00     0.074 A 
ATOM     53  C   UNL A   1      42.410  27.779  31.970  1.00  0.00     0.049 A 
ATOM     54  N   UNL A   1      39.760  27.869  30.833  1.00  0.00    -0.248 NA
ATOM     55  C   UNL A   1      38.827  28.683  32.767  1.00  0.00     0.031 C 
ATOM     56  C   UNL A   1      42.567  28.135  30.559  1.00  0.00     0.029 A 
ATOM     57  N   UNL A   1      43.615  27.159  32.268  1.00  0.00    -0.354 N 
ATOM     58  C   UNL A   1      38.587  28.492  30.499  1.00  0.00     0.074 A 
ATOM     59  C   UNL A   1      37.975  28.848  31.752  1.00  0.00     0.031 C 
ATOM     60  C   UNL A   1      43.658  27.525  30.066  1.00  0.00     0.029 A 
ATOM     61  C   UNL A   1      44.176  26.643  31.096  1.00  0.00     0.049 A 
ATOM     62  H   UNL A   1      44.012  27.092  33.166  1.00  0.00     0.167 HD
ATOM     63  C   UNL A   1      38.346  28.784  29.193  1.00  0.00     0.031 A 
ATOM     64  C   UNL A   1      44.389  25.303  30.933  1.00  0.00     0.031 A 
ATOM     65  C   UNL A   1      39.260  28.075  28.298  1.00  0.00     0.049 A 
ATOM     66  C   UNL A   1      43.521  24.667  29.858  1.00  0.00     0.074 A 
ATOM     67  C   UNL A   1      40.300  28.467  27.472  1.00  0.00     0.029 A 
ATOM     68  N   UNL A   1      39.324  26.687  28.374  1.00  0.00    -0.354 N 
ATOM     69  N   UNL A   1      42.582  25.296  29.206  1.00  0.00    -0.248 NA
ATOM     70  C   UNL A   1      43.595  23.255  29.480  1.00  0.00     0.031 C 
ATOM     71  C   UNL A   1      41.060  27.305  27.150  1.00  0.00     0.029 A 
ATOM     72  C   UNL A   1      40.451  26.208  27.737  1.00  0.00     0.049 A 
ATOM     73  H   UNL A   1      38.656  26.122  28.824  1.00  0.00     0.167 HD
ATOM     74  C   UNL A   1      41.878  24.411  28.433  1.00  0.00     0.074 A 
ATOM     75  C   UNL A   1      42.584  23.154  28.597  1.00  0.00     0.031 C 
ATOM     76  C   UNL A   1      40.743  24.779  27.769  1.00  0.00     0.031 A 
BRANCH  63  77
ATOM     77  C   UNL A   1      37.405  29.877  28.746  1.00  0.00    -0.014 A 
ATOM     78  C   UNL A   1      37.815  31.219  28.823  1.00  0.00     0.009 A 
ATOM     79  C   UNL A   1      36.066  29.665  28.360  1.00  0.00     0.009 A 
ATOM     80  C   UNL A   1      36.942  32.277  28.526  1.00  0.00     0.001 A 
ATOM     81  C   UNL A   1      35.201  30.714  28.023  1.00  0.00     0.001 A 
ATOM     82  C   UNL A   1      35.639  32.024  28.115  1.00  0.00     0.000 A 
ENDBRANCH  63  77
BRANCH  64  83
ATOM     83  C   UNL A   1      44.842  24.626  32.179  1.00  0.00    -0.014 A 
ATOM     84  C   UNL A   1      45.993  25.130  32.817  1.00  0.00     0.009 A 
ATOM     85  C   UNL A   1      43.977  23.803  32.913  1.00  0.00     0.009 A 
ATOM     86  C   UNL A   1      46.201  24.928  34.184  1.00  0.00     0.001 A 
ATOM     87  C   UNL A   1      44.192  23.599  34.282  1.00  0.00     0.001 A 
ATOM     88  C   UNL A   1      45.279  24.193  34.923  1.00  0.00     0.000 A 
ENDBRANCH  64  83
BRANCH  76  89
ATOM     89  C   UNL A   1      39.781  23.837  27.081  1.00  0.00    -0.014 A 
ATOM     90  C   UNL A   1      38.554  24.221  26.524  1.00  0.00     0.009 A 
ATOM     91  C   UNL A   1      40.190  22.503  26.851  1.00  0.00     0.009 A 
ATOM     92  C   UNL A   1      37.758  23.310  25.814  1.00  0.00     0.001 A 
ATOM     93  C   UNL A   1      39.422  21.606  26.104  1.00  0.00     0.001 A 
ATOM     94  C   UNL A   1      38.197  22.007  25.595  1.00  0.00     0.000 A 
ENDBRANCH  76  89
ENDBRANCH  50  51
ENDBRANCH  42  45
ENDBRANCH  40  41
ENDBRANCH   1  40
TORSDOF 14
ENDMDL
MODEL 2
REMARK VINA RESULT:     -11.0      2.672      9.983
REMARK SMILES Cc1ccccc1C(=O)Nc1ccc(N2CCC(n3c(C)nc4cccnc43)CC2)c(C(=O)NCCCNC(=O)c2ccc(-c3c4nc(c(-c5ccccc5)c5ccc([nH]5)c(-c5ccccc5)c5nc(c(-c6ccccc6)c6ccc3[nH]6)C=C5)C=C4)cc2)c1
REMARK SMILES IDX 36 1 35 2 34 3 32 4 33 5 31 7 11 8 12 9 89 10 13 11 14 12
REMARK SMILES IDX 10 13 8 14 9 15 7 17 1 18 2 19 3 20 4 21 6 22 5 23 15 24
REMARK SMILES IDX 16 25 30 26 17 27 29 28 18 29 19 30 20 31 28 32 21 33 22 34
REMARK SMILES IDX 23 35 27 36 24 37 26 38 25 39 37 40 38 41 39 42 40 44 41 45
REMARK SMILES IDX 42 46 88 47 43 48 87 49 44 50 45 51 46 52 81 53 47 54 86 55
REMARK SMILES IDX 80 56 82 57 48 58 85 59 79 60 78 61 49 63 71 64 56 65 70 66
REMARK SMILES IDX 57 67 60 68 69 69 83 70 58 71 59 72 68 74 84 75 61 76 50 77
REMARK SMILES IDX 51 78 55 79 52 80 54 81 53 82 72 83 73 84 77 85 74 86 76 87
REMARK SMILES IDX 75 88 62 89 63 90 67 91 64 92 66 93 65 94
REMARK H PARENT 34 6 10 16 38 43 82 62 60 73
REMARK Flexibility Score: inf
ROOT
ATOM      1  C   UNL A   1      46.879  31.385  30.787  1.00  0.00     0.042 C 
ENDROOT
BRANCH   1   2
ATOM      2  C   UNL A   1      46.433  30.012  30.354  1.00  0.00     0.118 C 
BRANCH   2   3
ATOM      3  N   UNL A   1      46.857  28.901  31.162  1.00  0.00    -0.352 N 
ATOM      4  C   UNL A   1      46.058  27.942  31.746  1.00  0.00     0.253 C 
ATOM      5  O   UNL A   1      46.633  26.988  32.276  1.00  0.00    -0.269 OA
ATOM      6  H   UNL A   1      47.826  28.817  31.314  1.00  0.00     0.163 HD
BRANCH   4   7
ATOM      7  C   UNL A   1      44.555  28.026  31.834  1.00  0.00     0.065 A 
ATOM      8  C   UNL A   1      42.764  28.646  33.376  1.00  0.00     0.042 A 
ATOM      9  C   UNL A   1      41.813  28.327  32.425  1.00  0.00     0.028 A 
ATOM     10  C   UNL A   1      44.114  28.648  33.027  1.00  0.00     0.042 A 
ATOM     11  C   UNL A   1      42.224  27.766  31.220  1.00  0.00     0.029 A 
ATOM     12  C   UNL A   1      43.582  27.468  30.959  1.00  0.00     0.050 A 
BRANCH   8  13
ATOM     13  N   UNL A   1      42.441  28.818  34.726  1.00  0.00    -0.322 N 
ATOM     14  C   UNL A   1      42.293  27.864  35.718  1.00  0.00     0.255 C 
ATOM     15  O   UNL A   1      41.886  28.224  36.824  1.00  0.00    -0.269 OA
ATOM     16  H   UNL A   1      42.298  29.750  35.011  1.00  0.00     0.170 HD
BRANCH  14  17
ATOM     17  C   UNL A   1      42.661  26.422  35.539  1.00  0.00     0.043 A 
ATOM     18  C   UNL A   1      45.221  26.699  35.705  1.00  0.00     0.045 C 
ATOM     19  C   UNL A   1      43.971  25.898  35.498  1.00  0.00    -0.038 A 
ATOM     20  C   UNL A   1      44.151  24.515  35.282  1.00  0.00     0.004 A 
ATOM     21  C   UNL A   1      43.065  23.646  35.240  1.00  0.00     0.000 A 
ATOM     22  C   UNL A   1      41.579  25.522  35.536  1.00  0.00     0.014 A 
ATOM     23  C   UNL A   1      41.779  24.145  35.403  1.00  0.00     0.001 A 
ENDBRANCH  14  17
ENDBRANCH   8  13
BRANCH  12  24
ATOM     24  N   UNL A   1      43.826  26.483  29.984  1.00  0.00    -0.371 N 
ATOM     25  C   UNL A   1      44.220  25.143  30.414  1.00  0.00     0.118 C 
ATOM     26  C   UNL A   1      43.788  26.926  28.598  1.00  0.00     0.118 C 
ATOM     27  C   UNL A   1      44.693  24.202  29.322  1.00  0.00     0.047 C 
ATOM     28  C   UNL A   1      44.541  26.017  27.651  1.00  0.00     0.047 C 
ATOM     29  C   UNL A   1      44.265  24.537  27.889  1.00  0.00     0.094 C 
BRANCH  29  30
ATOM     30  N   UNL A   1      44.897  23.605  26.939  1.00  0.00    -0.310 N 
ATOM     31  C   UNL A   1      46.156  23.598  26.354  1.00  0.00     0.108 A 
ATOM     32  C   UNL A   1      44.248  22.472  26.477  1.00  0.00     0.160 A 
ATOM     33  C   UNL A   1      47.193  24.657  26.439  1.00  0.00     0.088 C 
ATOM     34  N   UNL A   1      46.353  22.493  25.654  1.00  0.00    -0.232 NA
ATOM     35  C   UNL A   1      45.183  21.798  25.711  1.00  0.00     0.108 A 
ATOM     36  N   UNL A   1      42.985  22.081  26.745  1.00  0.00    -0.237 NA
ATOM     37  C   UNL A   1      44.818  20.574  25.141  1.00  0.00     0.034 A 
ATOM     38  C   UNL A   1      42.659  20.917  26.129  1.00  0.00     0.113 A 
ATOM     39  C   UNL A   1      43.511  20.138  25.355  1.00  0.00     0.022 A 
ENDBRANCH  29  30
ENDBRANCH  12  24
ENDBRANCH   4   7
ENDBRANCH   2   3
ENDBRANCH   1   2
BRANCH   1  40
ATOM     40  C   UNL A   1      45.815  32.176  31.536  1.00  0.00     0.118 C 
BRANCH  40  41
ATOM     41  N   UNL A   1      45.953  33.641  31.438  1.00  0.00    -0.352 N 
ATOM     42  C   UNL A   1      45.535  34.657  32.301  1.00  0.00     0.251 C 
ATOM     43  H   UNL A   1      46.417  33.955  30.629  1.00  0.00     0.163 HD
ATOM     44  O   UNL A   1      46.002  35.762  32.253  1.00  0.00    -0.269 OA
BRANCH  42  45
ATOM     45  C   UNL A   1      44.601  34.309  33.395  1.00  0.00     0.039 A 
ATOM     46  C   UNL A   1      44.735  33.017  33.906  1.00  0.00     0.014 A 
ATOM     47  C   UNL A   1      43.411  35.010  33.486  1.00  0.00     0.014 A 
ATOM     48  C   UNL A   1      43.580  32.281  34.116  1.00  0.00     0.010 A 
ATOM     49  C   UNL A   1      42.267  34.247  33.568  1.00  0.00     0.010 A 
ATOM     50  C   UNL A   1      42.366  32.859  33.753  1.00  0.00    -0.014 A 
BRANCH  50  51
ATOM     51  C   UNL A   1      41.238  32.059  33.285  1.00  0.00     0.031 A 
ATOM     52  C   UNL A   1      41.134  31.692  31.859  1.00  0.00     0.074 A 
ATOM     53  C   UNL A   1      40.308  31.596  34.157  1.00  0.00     0.049 A 
ATOM     54  N   UNL A   1      40.028  31.345  31.296  1.00  0.00    -0.248 NA
ATOM     55  C   UNL A   1      42.253  31.763  30.919  1.00  0.00     0.031 C 
ATOM     56  C   UNL A   1      39.301  30.560  33.920  1.00  0.00     0.029 A 
ATOM     57  N   UNL A   1      39.952  32.093  35.402  1.00  0.00    -0.354 N 
ATOM     58  C   UNL A   1      40.348  30.822  30.072  1.00  0.00     0.074 A 
ATOM     59  C   UNL A   1      41.702  31.240  29.821  1.00  0.00     0.031 C 
ATOM     60  C   UNL A   1      38.328  30.668  34.840  1.00  0.00     0.029 A 
ATOM     61  C   UNL A   1      38.592  31.859  35.626  1.00  0.00     0.049 A 
ATOM     62  H   UNL A   1      40.563  32.542  36.030  1.00  0.00     0.167 HD
ATOM     63  C   UNL A   1      39.484  29.953  29.481  1.00  0.00     0.031 A 
ATOM     64  C   UNL A   1      37.708  32.886  35.798  1.00  0.00     0.031 A 
ATOM     65  C   UNL A   1      38.170  29.969  30.123  1.00  0.00     0.049 A 
ATOM     66  C   UNL A   1      36.690  33.018  34.674  1.00  0.00     0.074 A 
ATOM     67  C   UNL A   1      37.460  29.065  30.894  1.00  0.00     0.029 A 
ATOM     68  N   UNL A   1      37.490  31.180  30.216  1.00  0.00    -0.354 N 
ATOM     69  N   UNL A   1      36.699  32.294  33.589  1.00  0.00    -0.248 NA
ATOM     70  C   UNL A   1      35.622  34.019  34.654  1.00  0.00     0.031 C 
ATOM     71  C   UNL A   1      36.413  29.779  31.547  1.00  0.00     0.029 A 
ATOM     72  C   UNL A   1      36.458  31.099  31.131  1.00  0.00     0.049 A 
ATOM     73  H   UNL A   1      37.714  31.987  29.700  1.00  0.00     0.167 HD
ATOM     74  C   UNL A   1      35.762  32.765  32.708  1.00  0.00     0.074 A 
ATOM     75  C   UNL A   1      35.076  33.812  33.442  1.00  0.00     0.031 C 
ATOM     76  C   UNL A   1      35.669  32.289  31.431  1.00  0.00     0.031 A 
BRANCH  63  77
ATOM     77  C   UNL A   1      39.905  28.939  28.445  1.00  0.00    -0.014 A 
ATOM     78  C   UNL A   1      39.660  27.573  28.672  1.00  0.00     0.009 A 
ATOM     79  C   UNL A   1      40.653  29.244  27.290  1.00  0.00     0.009 A 
ATOM     80  C   UNL A   1      40.128  26.582  27.796  1.00  0.00     0.001 A 
ATOM     81  C   UNL A   1      41.089  28.263  26.390  1.00  0.00     0.001 A 
ATOM     82  C   UNL A   1      40.832  26.928  26.648  1.00  0.00     0.000 A 
ENDBRANCH  63  77
BRANCH  64  83
ATOM     83  C   UNL A   1      38.271  34.022  36.579  1.00  0.00    -0.014 A 
ATOM     84  C   UNL A   1      38.346  33.879  37.979  1.00  0.00     0.009 A 
ATOM     85  C   UNL A   1      39.055  35.007  35.964  1.00  0.00     0.009 A 
ATOM     86  C   UNL A   1      39.277  34.608  38.724  1.00  0.00     0.001 A 
ATOM     87  C   UNL A   1      39.982  35.740  36.716  1.00  0.00     0.001 A 
ATOM     88  C   UNL A   1      40.121  35.512  38.085  1.00  0.00     0.000 A 
ENDBRANCH  64  83
BRANCH  76  89
ATOM     89  C   UNL A   1      34.830  32.888  30.326  1.00  0.00    -0.014 A 
ATOM     90  C   UNL A   1      34.395  34.221  30.293  1.00  0.00     0.009 A 
ATOM     91  C   UNL A   1      34.573  32.110  29.174  1.00  0.00     0.009 A 
ATOM     92  C   UNL A   1      33.702  34.734  29.186  1.00  0.00     0.001 A 
ATOM     93  C   UNL A   1      33.925  32.631  28.051  1.00  0.00     0.001 A 
ATOM     94  C   UNL A   1      33.477  33.943  28.063  1.00  0.00     0.000 A 
ENDBRANCH  76  89
ENDBRANCH  50  51
ENDBRANCH  42  45
ENDBRANCH  40  41
ENDBRANCH   1  40
TORSDOF 14
ENDMDL
MODEL 3
REMARK VINA RESULT:     -11.0      2.237      9.958
REMARK SMILES Cc1ccccc1C(=O)Nc1ccc(N2CCC(n3c(C)nc4cccnc43)CC2)c(C(=O)NCCCNC(=O)c2ccc(-c3c4nc(c(-c5ccccc5)c5ccc([nH]5)c(-c5ccccc5)c5nc(c(-c6ccccc6)c6ccc3[nH]6)C=C5)C=C4)cc2)c1
REMARK SMILES IDX 36 1 35 2 34 3 32 4 33 5 31 7 11 8 12 9 89 10 13 11 14 12
REMARK SMILES IDX 10 13 8 14 9 15 7 17 1 18 2 19 3 20 4 21 6 22 5 23 15 24
REMARK SMILES IDX 16 25 30 26 17 27 29 28 18 29 19 30 20 31 28 32 21 33 22 34
REMARK SMILES IDX 23 35 27 36 24 37 26 38 25 39 37 40 38 41 39 42 40 44 41 45
REMARK SMILES IDX 42 46 88 47 43 48 87 49 44 50 45 51 46 52 81 53 47 54 86 55
REMARK SMILES IDX 80 56 82 57 48 58 85 59 79 60 78 61 49 63 71 64 56 65 70 66
REMARK SMILES IDX 57 67 60 68 69 69 83 70 58 71 59 72 68 74 84 75 61 76 50 77
REMARK SMILES IDX 51 78 55 79 52 80 54 81 53 82 72 83 73 84 77 85 74 86 76 87
REMARK SMILES IDX 75 88 62 89 63 90 67 91 64 92 66 93 65 94
REMARK H PARENT 34 6 10 16 38 43 82 62 60 73
REMARK Flexibility Score: inf
ROOT
ATOM      1  C   UNL A   1      46.373  32.343  31.314  1.00  0.00     0.042 C 
ENDROOT
BRANCH   1   2
ATOM      2  C   UNL A   1      45.740  31.088  31.862  1.00  0.00     0.118 C 
BRANCH   2   3
ATOM      3  N   UNL A   1      46.625  30.018  32.233  1.00  0.00    -0.352 N 
ATOM      4  C   UNL A   1      46.277  28.730  32.578  1.00  0.00     0.253 C 
ATOM      5  O   UNL A   1      47.200  27.923  32.718  1.00  0.00    -0.269 OA
ATOM      6  H   UNL A   1      47.587  30.229  32.240  1.00  0.00     0.163 HD
BRANCH   4   7
ATOM      7  C   UNL A   1      44.866  28.277  32.858  1.00  0.00     0.065 A 
ATOM      8  C   UNL A   1      43.274  28.010  34.692  1.00  0.00     0.042 A 
ATOM      9  C   UNL A   1      42.322  27.524  33.816  1.00  0.00     0.028 A 
ATOM     10  C   UNL A   1      44.469  28.528  34.193  1.00  0.00     0.042 A 
ATOM     11  C   UNL A   1      42.669  27.321  32.484  1.00  0.00     0.029 A 
ATOM     12  C   UNL A   1      43.983  27.551  32.011  1.00  0.00     0.050 A 
BRANCH   8  13
ATOM     13  N   UNL A   1      43.158  27.862  36.078  1.00  0.00    -0.322 N 
ATOM     14  C   UNL A   1      43.330  26.728  36.853  1.00  0.00     0.255 C 
ATOM     15  O   UNL A   1      43.061  26.792  38.055  1.00  0.00    -0.269 OA
ATOM     16  H   UNL A   1      42.920  28.680  36.571  1.00  0.00     0.170 HD
BRANCH  14  17
ATOM     17  C   UNL A   1      43.885  25.440  36.324  1.00  0.00     0.043 A 
ATOM     18  C   UNL A   1      41.645  24.369  35.618  1.00  0.00     0.045 C 
ATOM     19  C   UNL A   1      43.134  24.366  35.801  1.00  0.00    -0.038 A 
ATOM     20  C   UNL A   1      43.807  23.200  35.378  1.00  0.00     0.004 A 
ATOM     21  C   UNL A   1      45.197  23.143  35.346  1.00  0.00     0.000 A 
ATOM     22  C   UNL A   1      45.288  25.379  36.245  1.00  0.00     0.014 A 
ATOM     23  C   UNL A   1      45.938  24.246  35.746  1.00  0.00     0.001 A 
ENDBRANCH  14  17
ENDBRANCH   8  13
BRANCH  12  24
ATOM     24  N   UNL A   1      44.351  26.863  30.840  1.00  0.00    -0.371 N 
ATOM     25  C   UNL A   1      44.749  25.460  30.937  1.00  0.00     0.118 C 
ATOM     26  C   UNL A   1      44.429  27.659  29.624  1.00  0.00     0.118 C 
ATOM     27  C   UNL A   1      45.355  24.848  29.687  1.00  0.00     0.047 C 
ATOM     28  C   UNL A   1      45.298  27.042  28.549  1.00  0.00     0.047 C 
ATOM     29  C   UNL A   1      45.052  25.550  28.359  1.00  0.00     0.094 C 
BRANCH  29  30
ATOM     30  N   UNL A   1      45.802  24.910  27.265  1.00  0.00    -0.310 N 
ATOM     31  C   UNL A   1      47.165  24.740  27.057  1.00  0.00     0.108 A 
ATOM     32  C   UNL A   1      45.169  24.303  26.193  1.00  0.00     0.160 A 
ATOM     33  C   UNL A   1      48.275  25.309  27.864  1.00  0.00     0.088 C 
ATOM     34  N   UNL A   1      47.398  23.988  25.995  1.00  0.00    -0.232 NA
ATOM     35  C   UNL A   1      46.179  23.723  25.446  1.00  0.00     0.108 A 
ATOM     36  N   UNL A   1      43.843  24.250  25.945  1.00  0.00    -0.237 NA
ATOM     37  C   UNL A   1      45.828  22.991  24.308  1.00  0.00     0.034 A 
ATOM     38  C   UNL A   1      43.555  23.576  24.804  1.00  0.00     0.113 A 
ATOM     39  C   UNL A   1      44.474  22.933  23.982  1.00  0.00     0.022 A 
ENDBRANCH  29  30
ENDBRANCH  12  24
ENDBRANCH   4   7
ENDBRANCH   2   3
ENDBRANCH   1   2
BRANCH   1  40
ATOM     40  C   UNL A   1      46.045  32.615  29.852  1.00  0.00     0.118 C 
BRANCH  40  41
ATOM     41  N   UNL A   1      47.172  33.135  29.055  1.00  0.00    -0.352 N 
ATOM     42  C   UNL A   1      47.366  33.181  27.672  1.00  0.00     0.251 C 
ATOM     43  H   UNL A   1      47.909  33.511  29.586  1.00  0.00     0.163 HD
ATOM     44  O   UNL A   1      48.169  33.920  27.169  1.00  0.00    -0.269 OA
BRANCH  42  45
ATOM     45  C   UNL A   1      46.451  32.404  26.807  1.00  0.00     0.039 A 
ATOM     46  C   UNL A   1      45.261  33.049  26.465  1.00  0.00     0.014 A 
ATOM     47  C   UNL A   1      46.555  31.024  26.818  1.00  0.00     0.014 A 
ATOM     48  C   UNL A   1      44.084  32.325  26.553  1.00  0.00     0.010 A 
ATOM     49  C   UNL A   1      45.383  30.333  27.034  1.00  0.00     0.010 A 
ATOM     50  C   UNL A   1      44.158  31.018  27.029  1.00  0.00    -0.014 A 
BRANCH  50  51
ATOM     51  C   UNL A   1      43.069  30.407  27.784  1.00  0.00     0.031 A 
ATOM     52  C   UNL A   1      42.333  29.258  27.221  1.00  0.00     0.074 A 
ATOM     53  C   UNL A   1      42.758  30.846  29.029  1.00  0.00     0.049 A 
ATOM     54  N   UNL A   1      41.153  28.913  27.609  1.00  0.00    -0.248 NA
ATOM     55  C   UNL A   1      42.828  28.443  26.112  1.00  0.00     0.031 C 
ATOM     56  C   UNL A   1      41.918  30.179  30.026  1.00  0.00     0.029 A 
ATOM     57  N   UNL A   1      42.991  32.087  29.603  1.00  0.00    -0.354 N 
ATOM     58  C   UNL A   1      40.903  27.675  27.081  1.00  0.00     0.074 A 
ATOM     59  C   UNL A   1      41.890  27.495  26.048  1.00  0.00     0.031 C 
ATOM     60  C   UNL A   1      41.514  31.078  30.939  1.00  0.00     0.029 A 
ATOM     61  C   UNL A   1      41.961  32.386  30.500  1.00  0.00     0.049 A 
ATOM     62  H   UNL A   1      43.762  32.667  29.408  1.00  0.00     0.167 HD
ATOM     63  C   UNL A   1      39.991  26.871  27.691  1.00  0.00     0.031 A 
ATOM     64  C   UNL A   1      41.141  33.463  30.314  1.00  0.00     0.031 A 
ATOM     65  C   UNL A   1      39.170  27.609  28.651  1.00  0.00     0.049 A 
ATOM     66  C   UNL A   1      39.697  33.093  30.009  1.00  0.00     0.074 A 
ATOM     67  C   UNL A   1      39.061  27.606  30.031  1.00  0.00     0.029 A 
ATOM     68  N   UNL A   1      38.462  28.721  28.205  1.00  0.00    -0.354 N 
ATOM     69  N   UNL A   1      39.274  31.871  29.836  1.00  0.00    -0.248 NA
ATOM     70  C   UNL A   1      38.629  34.073  29.808  1.00  0.00     0.031 C 
ATOM     71  C   UNL A   1      38.379  28.799  30.414  1.00  0.00     0.029 A 
ATOM     72  C   UNL A   1      38.031  29.492  29.267  1.00  0.00     0.049 A 
ATOM     73  H   UNL A   1      38.292  28.932  27.259  1.00  0.00     0.167 HD
ATOM     74  C   UNL A   1      37.971  31.884  29.414  1.00  0.00     0.074 A 
ATOM     75  C   UNL A   1      37.594  33.285  29.463  1.00  0.00     0.031 C 
ATOM     76  C   UNL A   1      37.333  30.747  29.008  1.00  0.00     0.031 A 
BRANCH  63  77
ATOM     77  C   UNL A   1      39.987  25.368  27.557  1.00  0.00    -0.014 A 
ATOM     78  C   UNL A   1      41.014  24.616  28.155  1.00  0.00     0.009 A 
ATOM     79  C   UNL A   1      39.082  24.642  26.758  1.00  0.00     0.009 A 
ATOM     80  C   UNL A   1      41.121  23.230  27.969  1.00  0.00     0.001 A 
ATOM     81  C   UNL A   1      39.158  23.252  26.600  1.00  0.00     0.001 A 
ATOM     82  C   UNL A   1      40.185  22.546  27.201  1.00  0.00     0.000 A 
ENDBRANCH  63  77
BRANCH  64  83
ATOM     83  C   UNL A   1      41.850  34.656  29.775  1.00  0.00    -0.014 A 
ATOM     84  C   UNL A   1      42.987  35.112  30.473  1.00  0.00     0.009 A 
ATOM     85  C   UNL A   1      41.669  35.070  28.449  1.00  0.00     0.009 A 
ATOM     86  C   UNL A   1      43.980  35.848  29.821  1.00  0.00     0.001 A 
ATOM     87  C   UNL A   1      42.664  35.813  27.801  1.00  0.00     0.001 A 
ATOM     88  C   UNL A   1      43.834  36.166  28.474  1.00  0.00     0.000 A 
ENDBRANCH  64  83
BRANCH  76  89
ATOM     89  C   UNL A   1      35.988  30.689  28.322  1.00  0.00    -0.014 A 
ATOM     90  C   UNL A   1      35.405  29.520  27.813  1.00  0.00     0.009 A 
ATOM     91  C   UNL A   1      35.186  31.854  28.307  1.00  0.00     0.009 A 
ATOM     92  C   UNL A   1      34.109  29.525  27.276  1.00  0.00     0.001 A 
ATOM     93  C   UNL A   1      33.878  31.852  27.817  1.00  0.00     0.001 A 
ATOM     94  C   UNL A   1      33.342  30.688  27.289  1.00  0.00     0.000 A 
ENDBRANCH  76  89
ENDBRANCH  50  51
ENDBRANCH  42  45
ENDBRANCH  40  41
ENDBRANCH   1  40
TORSDOF 14
ENDMDL
