MODEL 1
REMARK VINA RESULT:     -10.8      0.000      0.000
REMARK SMILES O=C(NCCCNC(=O)[C@@H]1C=C[C@H](NC(=O)[C@@H]2CCSC2)C1)c1ccc(-c2c3nc(c(-c4ccccc4)c4ccc([nH]4)c(-c4ccccc4)c4nc(c(-c5ccccc5)c5ccc2[nH]5)C=C4)C=C3)cc1
REMARK SMILES IDX 5 1 4 2 3 3 1 4 2 5 23 7 24 8 70 9 25 10 69 11 26 12 27 13
REMARK SMILES IDX 28 14 63 15 29 16 68 17 62 18 64 19 30 20 67 21 61 22 60 23
REMARK SMILES IDX 31 25 53 26 38 27 52 28 39 29 42 30 51 31 65 32 40 33 41 34
REMARK SMILES IDX 50 36 66 37 43 38 32 39 33 40 37 41 34 42 36 43 35 44 54 45
REMARK SMILES IDX 55 46 59 47 56 48 58 49 57 50 44 51 45 52 49 53 46 54 48 55
REMARK SMILES IDX 47 56 6 57 7 58 8 59 9 61 10 62 11 63 22 64 12 65 13 66
REMARK SMILES IDX 14 67 15 68 16 70 17 71 18 72 21 73 19 74 20 75
REMARK H PARENT 3 6 64 24 42 35 7 60 14 69
REMARK Flexibility Score: inf
ROOT
ATOM      1  C   UNL A   1      38.124  19.440  24.973  1.00  0.00     0.042 C 
ENDROOT
BRANCH   1   2
ATOM      2  C   UNL A   1      39.199  19.959  25.906  1.00  0.00     0.118 C 
BRANCH   2   3
ATOM      3  N   UNL A   1      40.422  19.176  25.817  1.00  0.00    -0.352 N 
ATOM      4  O   UNL A   1      42.647  18.827  25.679  1.00  0.00    -0.269 OA
ATOM      5  C   UNL A   1      41.727  19.579  25.986  1.00  0.00     0.251 C 
ATOM      6  H   UNL A   1      40.299  18.222  25.606  1.00  0.00     0.163 HD
BRANCH   5   7
ATOM      7  C   UNL A   1      42.020  20.925  26.528  1.00  0.00     0.039 A 
ATOM      8  C   UNL A   1      41.984  21.152  27.903  1.00  0.00     0.014 A 
ATOM      9  C   UNL A   1      42.352  21.970  25.660  1.00  0.00     0.014 A 
ATOM     10  C   UNL A   1      42.096  22.443  28.395  1.00  0.00     0.010 A 
ATOM     11  C   UNL A   1      42.611  23.247  26.173  1.00  0.00     0.010 A 
ATOM     12  C   UNL A   1      42.467  23.497  27.544  1.00  0.00    -0.014 A 
BRANCH  12  13
ATOM     13  C   UNL A   1      42.813  24.801  28.167  1.00  0.00     0.031 A 
ATOM     14  C   UNL A   1      44.230  25.183  28.481  1.00  0.00     0.074 A 
ATOM     15  C   UNL A   1      41.808  25.678  28.375  1.00  0.00     0.049 A 
ATOM     16  N   UNL A   1      44.684  26.320  28.948  1.00  0.00    -0.248 NA
ATOM     17  C   UNL A   1      45.272  24.170  28.254  1.00  0.00     0.031 C 
ATOM     18  C   UNL A   1      40.388  25.405  28.122  1.00  0.00     0.029 A 
ATOM     19  N   UNL A   1      41.821  26.982  28.793  1.00  0.00    -0.354 N 
ATOM     20  C   UNL A   1      46.056  26.155  29.088  1.00  0.00     0.074 A 
ATOM     21  C   UNL A   1      46.361  24.801  28.678  1.00  0.00     0.031 C 
ATOM     22  C   UNL A   1      39.683  26.529  28.299  1.00  0.00     0.029 A 
ATOM     23  C   UNL A   1      40.581  27.574  28.769  1.00  0.00     0.049 A 
ATOM     24  H   UNL A   1      42.638  27.449  29.083  1.00  0.00     0.167 HD
ATOM     25  C   UNL A   1      46.973  27.055  29.516  1.00  0.00     0.031 A 
ATOM     26  C   UNL A   1      40.197  28.817  29.106  1.00  0.00     0.031 A 
ATOM     27  C   UNL A   1      46.660  28.400  29.929  1.00  0.00     0.049 A 
ATOM     28  C   UNL A   1      41.235  29.780  29.593  1.00  0.00     0.074 A 
ATOM     29  C   UNL A   1      47.520  29.387  30.379  1.00  0.00     0.029 A 
ATOM     30  N   UNL A   1      45.386  28.946  29.943  1.00  0.00    -0.354 N 
ATOM     31  N   UNL A   1      42.530  29.608  29.705  1.00  0.00    -0.248 NA
ATOM     32  C   UNL A   1      40.759  31.105  30.007  1.00  0.00     0.031 C 
ATOM     33  C   UNL A   1      46.761  30.515  30.708  1.00  0.00     0.029 A 
ATOM     34  C   UNL A   1      45.434  30.251  30.409  1.00  0.00     0.049 A 
ATOM     35  H   UNL A   1      44.567  28.477  29.661  1.00  0.00     0.167 HD
ATOM     36  C   UNL A   1      43.025  30.804  30.202  1.00  0.00     0.074 A 
ATOM     37  C   UNL A   1      41.896  31.705  30.327  1.00  0.00     0.031 C 
ATOM     38  C   UNL A   1      44.297  31.124  30.540  1.00  0.00     0.031 A 
BRANCH  25  39
ATOM     39  C   UNL A   1      48.411  26.612  29.583  1.00  0.00    -0.014 A 
ATOM     40  C   UNL A   1      49.299  26.865  28.527  1.00  0.00     0.009 A 
ATOM     41  C   UNL A   1      48.897  25.993  30.746  1.00  0.00     0.009 A 
ATOM     42  C   UNL A   1      50.642  26.489  28.627  1.00  0.00     0.001 A 
ATOM     43  C   UNL A   1      50.244  25.640  30.852  1.00  0.00     0.001 A 
ATOM     44  C   UNL A   1      51.114  25.883  29.791  1.00  0.00     0.000 A 
ENDBRANCH  25  39
BRANCH  26  45
ATOM     45  C   UNL A   1      38.762  29.200  29.034  1.00  0.00    -0.014 A 
ATOM     46  C   UNL A   1      38.213  29.728  27.857  1.00  0.00     0.009 A 
ATOM     47  C   UNL A   1      37.931  29.035  30.155  1.00  0.00     0.009 A 
ATOM     48  C   UNL A   1      36.869  30.110  27.814  1.00  0.00     0.001 A 
ATOM     49  C   UNL A   1      36.581  29.381  30.097  1.00  0.00     0.001 A 
ATOM     50  C   UNL A   1      36.054  29.932  28.930  1.00  0.00     0.000 A 
ENDBRANCH  26  45
BRANCH  38  51
ATOM     51  C   UNL A   1      44.520  32.514  31.059  1.00  0.00    -0.014 A 
ATOM     52  C   UNL A   1      44.447  32.796  32.433  1.00  0.00     0.009 A 
ATOM     53  C   UNL A   1      44.797  33.557  30.162  1.00  0.00     0.009 A 
ATOM     54  C   UNL A   1      44.600  34.105  32.893  1.00  0.00     0.001 A 
ATOM     55  C   UNL A   1      44.981  34.859  30.629  1.00  0.00     0.001 A 
ATOM     56  C   UNL A   1      44.869  35.134  31.991  1.00  0.00     0.000 A 
ENDBRANCH  38  51
ENDBRANCH  12  13
ENDBRANCH   5   7
ENDBRANCH   2   3
ENDBRANCH   1   2
BRANCH   1  57
ATOM     57  C   UNL A   1      37.081  20.496  24.639  1.00  0.00     0.117 C 
BRANCH  57  58
ATOM     58  N   UNL A   1      35.785  20.120  25.166  1.00  0.00    -0.356 N 
ATOM     59  C   UNL A   1      34.610  20.797  25.248  1.00  0.00     0.227 C 
ATOM     60  H   UNL A   1      35.749  19.206  25.531  1.00  0.00     0.163 HD
ATOM     61  O   UNL A   1      33.686  20.217  25.830  1.00  0.00    -0.274 OA
BRANCH  59  62
ATOM     62  C   UNL A   1      34.358  22.166  24.604  1.00  0.00     0.103 C 
ATOM     63  C   UNL A   1      34.807  23.268  25.499  1.00  0.00    -0.016 C 
ATOM     64  C   UNL A   1      32.934  22.577  24.199  1.00  0.00     0.047 C 
ATOM     65  C   UNL A   1      33.850  24.179  25.691  1.00  0.00    -0.006 C 
ATOM     66  C   UNL A   1      32.587  23.885  24.956  1.00  0.00     0.106 C 
BRANCH  66  67
ATOM     67  N   UNL A   1      31.489  23.697  25.885  1.00  0.00    -0.350 N 
ATOM     68  C   UNL A   1      30.462  24.451  26.329  1.00  0.00     0.224 C 
ATOM     69  H   UNL A   1      31.496  22.800  26.291  1.00  0.00     0.164 HD
ATOM     70  O   UNL A   1      29.732  23.907  27.168  1.00  0.00    -0.275 OA
BRANCH  68  71
ATOM     71  C   UNL A   1      30.169  25.883  25.913  1.00  0.00     0.089 C 
ATOM     72  C   UNL A   1      29.725  26.099  24.469  1.00  0.00     0.025 C 
ATOM     73  C   UNL A   1      31.254  26.868  26.323  1.00  0.00     0.083 C 
ATOM     74  C   UNL A   1      30.794  26.842  23.692  1.00  0.00     0.070 C 
ATOM     75  S   UNL A   1      31.554  27.947  24.896  1.00  0.00    -0.161 SA
ENDBRANCH  68  71
ENDBRANCH  66  67
ENDBRANCH  59  62
ENDBRANCH  57  58
ENDBRANCH   1  57
TORSDOF 12
ENDMDL
MODEL 2
REMARK VINA RESULT:     -10.8      1.925      2.492
REMARK SMILES O=C(NCCCNC(=O)[C@@H]1C=C[C@H](NC(=O)[C@@H]2CCSC2)C1)c1ccc(-c2c3nc(c(-c4ccccc4)c4ccc([nH]4)c(-c4ccccc4)c4nc(c(-c5ccccc5)c5ccc2[nH]5)C=C4)C=C3)cc1
REMARK SMILES IDX 5 1 4 2 3 3 1 4 2 5 23 7 24 8 70 9 25 10 69 11 26 12 27 13
REMARK SMILES IDX 28 14 63 15 29 16 68 17 62 18 64 19 30 20 67 21 61 22 60 23
REMARK SMILES IDX 31 25 53 26 38 27 52 28 39 29 42 30 51 31 65 32 40 33 41 34
REMARK SMILES IDX 50 36 66 37 43 38 32 39 33 40 37 41 34 42 36 43 35 44 54 45
REMARK SMILES IDX 55 46 59 47 56 48 58 49 57 50 44 51 45 52 49 53 46 54 48 55
REMARK SMILES IDX 47 56 6 57 7 58 8 59 9 61 10 62 11 63 22 64 12 65 13 66
REMARK SMILES IDX 14 67 15 68 16 70 17 71 18 72 21 73 19 74 20 75
REMARK H PARENT 3 6 64 24 42 35 7 60 14 69
REMARK Flexibility Score: inf
ROOT
ATOM      1  C   UNL A   1      37.779  19.625  25.004  1.00  0.00     0.042 C 
ENDROOT
BRANCH   1   2
ATOM      2  C   UNL A   1      38.981  20.135  25.772  1.00  0.00     0.118 C 
BRANCH   2   3
ATOM      3  N   UNL A   1      40.057  19.156  25.813  1.00  0.00    -0.352 N 
ATOM      4  O   UNL A   1      42.195  18.435  25.843  1.00  0.00    -0.269 OA
ATOM      5  C   UNL A   1      41.400  19.350  26.041  1.00  0.00     0.251 C 
ATOM      6  H   UNL A   1      39.785  18.223  25.655  1.00  0.00     0.163 HD
BRANCH   5   7
ATOM      7  C   UNL A   1      41.887  20.664  26.515  1.00  0.00     0.039 A 
ATOM      8  C   UNL A   1      42.217  21.664  25.601  1.00  0.00     0.014 A 
ATOM      9  C   UNL A   1      42.001  20.912  27.887  1.00  0.00     0.014 A 
ATOM     10  C   UNL A   1      42.826  22.829  26.039  1.00  0.00     0.010 A 
ATOM     11  C   UNL A   1      42.480  22.150  28.334  1.00  0.00     0.010 A 
ATOM     12  C   UNL A   1      42.913  23.112  27.412  1.00  0.00    -0.014 A 
BRANCH  12  13
ATOM     13  C   UNL A   1      43.345  24.475  27.812  1.00  0.00     0.031 A 
ATOM     14  C   UNL A   1      44.778  24.916  27.724  1.00  0.00     0.074 A 
ATOM     15  C   UNL A   1      42.387  25.347  28.192  1.00  0.00     0.049 A 
ATOM     16  N   UNL A   1      45.283  26.101  27.962  1.00  0.00    -0.248 NA
ATOM     17  C   UNL A   1      45.774  23.908  27.329  1.00  0.00     0.031 C 
ATOM     18  C   UNL A   1      40.962  25.021  28.330  1.00  0.00     0.029 A 
ATOM     19  N   UNL A   1      42.445  26.684  28.480  1.00  0.00    -0.354 N 
ATOM     20  C   UNL A   1      46.653  25.979  27.764  1.00  0.00     0.074 A 
ATOM     21  C   UNL A   1      46.905  24.599  27.408  1.00  0.00     0.031 C 
ATOM     22  C   UNL A   1      40.274  26.142  28.583  1.00  0.00     0.029 A 
ATOM     23  C   UNL A   1      41.214  27.246  28.720  1.00  0.00     0.049 A 
ATOM     24  H   UNL A   1      43.288  27.194  28.512  1.00  0.00     0.167 HD
ATOM     25  C   UNL A   1      47.607  26.935  27.868  1.00  0.00     0.031 A 
ATOM     26  C   UNL A   1      40.871  28.506  29.035  1.00  0.00     0.031 A 
ATOM     27  C   UNL A   1      47.348  28.305  28.230  1.00  0.00     0.049 A 
ATOM     28  C   UNL A   1      41.955  29.532  29.159  1.00  0.00     0.074 A 
ATOM     29  C   UNL A   1      48.248  29.349  28.361  1.00  0.00     0.029 A 
ATOM     30  N   UNL A   1      46.094  28.824  28.518  1.00  0.00    -0.354 N 
ATOM     31  N   UNL A   1      43.243  29.399  28.955  1.00  0.00    -0.248 NA
ATOM     32  C   UNL A   1      41.540  30.880  29.565  1.00  0.00     0.031 C 
ATOM     33  C   UNL A   1      47.546  30.486  28.773  1.00  0.00     0.029 A 
ATOM     34  C   UNL A   1      46.200  30.167  28.843  1.00  0.00     0.049 A 
ATOM     35  H   UNL A   1      45.253  28.313  28.494  1.00  0.00     0.167 HD
ATOM     36  C   UNL A   1      43.793  30.646  29.206  1.00  0.00     0.074 A 
ATOM     37  C   UNL A   1      42.693  31.531  29.534  1.00  0.00     0.031 C 
ATOM     38  C   UNL A   1      45.094  31.024  29.182  1.00  0.00     0.031 A 
BRANCH  25  39
ATOM     39  C   UNL A   1      49.034  26.531  27.607  1.00  0.00    -0.014 A 
ATOM     40  C   UNL A   1      49.866  26.089  28.646  1.00  0.00     0.009 A 
ATOM     41  C   UNL A   1      49.530  26.531  26.293  1.00  0.00     0.009 A 
ATOM     42  C   UNL A   1      51.173  25.673  28.377  1.00  0.00     0.001 A 
ATOM     43  C   UNL A   1      50.828  26.092  26.025  1.00  0.00     0.001 A 
ATOM     44  C   UNL A   1      51.650  25.669  27.067  1.00  0.00     0.000 A 
ENDBRANCH  25  39
BRANCH  26  45
ATOM     45  C   UNL A   1      39.448  28.849  29.295  1.00  0.00    -0.014 A 
ATOM     46  C   UNL A   1      38.896  28.716  30.578  1.00  0.00     0.009 A 
ATOM     47  C   UNL A   1      38.633  29.315  28.250  1.00  0.00     0.009 A 
ATOM     48  C   UNL A   1      37.549  29.015  30.800  1.00  0.00     0.001 A 
ATOM     49  C   UNL A   1      37.299  29.649  28.484  1.00  0.00     0.001 A 
ATOM     50  C   UNL A   1      36.754  29.486  29.756  1.00  0.00     0.000 A 
ENDBRANCH  26  45
BRANCH  38  51
ATOM     51  C   UNL A   1      45.378  32.462  29.507  1.00  0.00    -0.014 A 
ATOM     52  C   UNL A   1      45.617  32.874  30.828  1.00  0.00     0.009 A 
ATOM     53  C   UNL A   1      45.396  33.418  28.480  1.00  0.00     0.009 A 
ATOM     54  C   UNL A   1      45.822  34.223  31.120  1.00  0.00     0.001 A 
ATOM     55  C   UNL A   1      45.633  34.762  28.772  1.00  0.00     0.001 A 
ATOM     56  C   UNL A   1      45.832  35.164  30.091  1.00  0.00     0.000 A 
ENDBRANCH  38  51
ENDBRANCH  12  13
ENDBRANCH   5   7
ENDBRANCH   2   3
ENDBRANCH   1   2
BRANCH   1  57
ATOM     57  C   UNL A   1      36.652  20.645  24.938  1.00  0.00     0.117 C 
BRANCH  57  58
ATOM     58  N   UNL A   1      36.996  21.731  24.043  1.00  0.00    -0.356 N 
ATOM     59  C   UNL A   1      36.268  22.771  23.562  1.00  0.00     0.227 C 
ATOM     60  H   UNL A   1      37.929  21.712  23.726  1.00  0.00     0.163 HD
ATOM     61  O   UNL A   1      36.837  23.502  22.741  1.00  0.00    -0.274 OA
BRANCH  59  62
ATOM     62  C   UNL A   1      34.850  23.121  24.030  1.00  0.00     0.103 C 
ATOM     63  C   UNL A   1      33.842  22.759  22.996  1.00  0.00    -0.016 C 
ATOM     64  C   UNL A   1      34.495  24.570  24.399  1.00  0.00     0.047 C 
ATOM     65  C   UNL A   1      33.035  23.781  22.703  1.00  0.00    -0.006 C 
ATOM     66  C   UNL A   1      33.324  25.015  23.487  1.00  0.00     0.106 C 
BRANCH  66  67
ATOM     67  N   UNL A   1      33.707  26.101  22.604  1.00  0.00    -0.350 N 
ATOM     68  C   UNL A   1      33.687  27.448  22.667  1.00  0.00     0.224 C 
ATOM     69  H   UNL A   1      34.072  25.773  21.750  1.00  0.00     0.164 HD
ATOM     70  O   UNL A   1      34.099  28.030  21.655  1.00  0.00    -0.275 OA
BRANCH  68  71
ATOM     71  C   UNL A   1      33.176  28.273  23.837  1.00  0.00     0.089 C 
ATOM     72  C   UNL A   1      34.023  28.257  25.107  1.00  0.00     0.025 C 
ATOM     73  C   UNL A   1      31.702  28.050  24.140  1.00  0.00     0.083 C 
ATOM     74  C   UNL A   1      33.295  27.530  26.219  1.00  0.00     0.070 C 
ATOM     75  S   UNL A   1      31.551  27.889  25.940  1.00  0.00    -0.161 SA
ENDBRANCH  68  71
ENDBRANCH  66  67
ENDBRANCH  59  62
ENDBRANCH  57  58
ENDBRANCH   1  57
TORSDOF 12
ENDMDL
MODEL 3
REMARK VINA RESULT:     -10.8      4.784      9.807
REMARK SMILES O=C(NCCCNC(=O)[C@@H]1C=C[C@H](NC(=O)[C@@H]2CCSC2)C1)c1ccc(-c2c3nc(c(-c4ccccc4)c4ccc([nH]4)c(-c4ccccc4)c4nc(c(-c5ccccc5)c5ccc2[nH]5)C=C4)C=C3)cc1
REMARK SMILES IDX 5 1 4 2 3 3 1 4 2 5 23 7 24 8 70 9 25 10 69 11 26 12 27 13
REMARK SMILES IDX 28 14 63 15 29 16 68 17 62 18 64 19 30 20 67 21 61 22 60 23
REMARK SMILES IDX 31 25 53 26 38 27 52 28 39 29 42 30 51 31 65 32 40 33 41 34
REMARK SMILES IDX 50 36 66 37 43 38 32 39 33 40 37 41 34 42 36 43 35 44 54 45
REMARK SMILES IDX 55 46 59 47 56 48 58 49 57 50 44 51 45 52 49 53 46 54 48 55
REMARK SMILES IDX 47 56 6 57 7 58 8 59 9 61 10 62 11 63 22 64 12 65 13 66
REMARK SMILES IDX 14 67 15 68 16 70 17 71 18 72 21 73 19 74 20 75
REMARK H PARENT 3 6 64 24 42 35 7 60 14 69
REMARK Flexibility Score: inf
ROOT
ATOM      1  C   UNL A   1      31.485  32.106  26.603  1.00  0.00     0.042 C 
ENDROOT
BRANCH   1   2
ATOM      2  C   UNL A   1      32.712  32.753  27.213  1.00  0.00     0.118 C 
BRANCH   2   3
ATOM      3  N   UNL A   1      32.444  34.110  27.666  1.00  0.00    -0.352 N 
ATOM      4  O   UNL A   1      32.539  35.878  29.064  1.00  0.00    -0.269 OA
ATOM      5  C   UNL A   1      33.026  34.813  28.695  1.00  0.00     0.251 C 
ATOM      6  H   UNL A   1      31.747  34.592  27.165  1.00  0.00     0.163 HD
BRANCH   5   7
ATOM      7  C   UNL A   1      34.235  34.281  29.364  1.00  0.00     0.039 A 
ATOM      8  C   UNL A   1      34.115  33.472  30.493  1.00  0.00     0.014 A 
ATOM      9  C   UNL A   1      35.502  34.576  28.852  1.00  0.00     0.014 A 
ATOM     10  C   UNL A   1      35.245  33.112  31.209  1.00  0.00     0.010 A 
ATOM     11  C   UNL A   1      36.646  34.087  29.496  1.00  0.00     0.010 A 
ATOM     12  C   UNL A   1      36.525  33.365  30.692  1.00  0.00    -0.014 A 
BRANCH  12  13
ATOM     13  C   UNL A   1      37.686  32.741  31.377  1.00  0.00     0.031 A 
ATOM     14  C   UNL A   1      38.143  33.186  32.736  1.00  0.00     0.074 A 
ATOM     15  C   UNL A   1      38.281  31.695  30.766  1.00  0.00     0.049 A 
ATOM     16  N   UNL A   1      39.088  32.676  33.486  1.00  0.00    -0.248 NA
ATOM     17  C   UNL A   1      37.467  34.349  33.332  1.00  0.00     0.031 C 
ATOM     18  C   UNL A   1      37.930  31.188  29.434  1.00  0.00     0.029 A 
ATOM     19  N   UNL A   1      39.262  30.840  31.193  1.00  0.00    -0.354 N 
ATOM     20  C   UNL A   1      39.134  33.463  34.630  1.00  0.00     0.074 A 
ATOM     21  C   UNL A   1      38.137  34.499  34.468  1.00  0.00     0.031 C 
ATOM     22  C   UNL A   1      38.614  30.062  29.194  1.00  0.00     0.029 A 
ATOM     23  C   UNL A   1      39.519  29.820  30.309  1.00  0.00     0.049 A 
ATOM     24  H   UNL A   1      39.737  30.946  32.050  1.00  0.00     0.167 HD
ATOM     25  C   UNL A   1      39.935  33.327  35.714  1.00  0.00     0.031 A 
ATOM     26  C   UNL A   1      40.399  28.806  30.371  1.00  0.00     0.031 A 
ATOM     27  C   UNL A   1      40.930  32.295  35.865  1.00  0.00     0.049 A 
ATOM     28  C   UNL A   1      41.280  28.697  31.577  1.00  0.00     0.074 A 
ATOM     29  C   UNL A   1      41.790  32.073  36.927  1.00  0.00     0.029 A 
ATOM     30  N   UNL A   1      41.198  31.312  34.924  1.00  0.00    -0.354 N 
ATOM     31  N   UNL A   1      41.299  29.445  32.654  1.00  0.00    -0.248 NA
ATOM     32  C   UNL A   1      42.268  27.611  31.573  1.00  0.00     0.031 C 
ATOM     33  C   UNL A   1      42.609  30.985  36.609  1.00  0.00     0.029 A 
ATOM     34  C   UNL A   1      42.221  30.492  35.374  1.00  0.00     0.049 A 
ATOM     35  H   UNL A   1      40.729  31.211  34.064  1.00  0.00     0.167 HD
ATOM     36  C   UNL A   1      42.298  28.918  33.458  1.00  0.00     0.074 A 
ATOM     37  C   UNL A   1      42.831  27.763  32.762  1.00  0.00     0.031 C 
ATOM     38  C   UNL A   1      42.746  29.359  34.658  1.00  0.00     0.031 A 
BRANCH  25  39
ATOM     39  C   UNL A   1      39.786  34.332  36.825  1.00  0.00    -0.014 A 
ATOM     40  C   UNL A   1      38.995  34.059  37.952  1.00  0.00     0.009 A 
ATOM     41  C   UNL A   1      40.500  35.540  36.774  1.00  0.00     0.009 A 
ATOM     42  C   UNL A   1      38.906  34.985  38.995  1.00  0.00     0.001 A 
ATOM     43  C   UNL A   1      40.429  36.452  37.828  1.00  0.00     0.001 A 
ATOM     44  C   UNL A   1      39.629  36.177  38.936  1.00  0.00     0.000 A 
ENDBRANCH  25  39
BRANCH  26  45
ATOM     45  C   UNL A   1      40.515  27.848  29.240  1.00  0.00    -0.014 A 
ATOM     46  C   UNL A   1      41.414  28.077  28.188  1.00  0.00     0.009 A 
ATOM     47  C   UNL A   1      39.718  26.691  29.212  1.00  0.00     0.009 A 
ATOM     48  C   UNL A   1      41.490  27.182  27.118  1.00  0.00     0.001 A 
ATOM     49  C   UNL A   1      39.824  25.780  28.161  1.00  0.00     0.001 A 
ATOM     50  C   UNL A   1      40.701  26.033  27.108  1.00  0.00     0.000 A 
ENDBRANCH  26  45
BRANCH  38  51
ATOM     51  C   UNL A   1      43.857  28.569  35.287  1.00  0.00    -0.014 A 
ATOM     52  C   UNL A   1      43.586  27.476  36.126  1.00  0.00     0.009 A 
ATOM     53  C   UNL A   1      45.191  28.928  35.044  1.00  0.00     0.009 A 
ATOM     54  C   UNL A   1      44.628  26.789  36.749  1.00  0.00     0.001 A 
ATOM     55  C   UNL A   1      46.233  28.218  35.643  1.00  0.00     0.001 A 
ATOM     56  C   UNL A   1      45.950  27.159  36.505  1.00  0.00     0.000 A 
ENDBRANCH  38  51
ENDBRANCH  12  13
ENDBRANCH   5   7
ENDBRANCH   2   3
ENDBRANCH   1   2
BRANCH   1  57
ATOM     57  C   UNL A   1      31.757  30.696  26.102  1.00  0.00     0.117 C 
BRANCH  57  58
ATOM     58  N   UNL A   1      31.697  29.744  27.193  1.00  0.00    -0.356 N 
ATOM     59  C   UNL A   1      31.673  28.386  27.208  1.00  0.00     0.227 C 
ATOM     60  H   UNL A   1      31.669  30.157  28.087  1.00  0.00     0.163 HD
ATOM     61  O   UNL A   1      31.542  27.856  28.318  1.00  0.00    -0.274 OA
BRANCH  59  62
ATOM     62  C   UNL A   1      31.874  27.506  25.968  1.00  0.00     0.103 C 
ATOM     63  C   UNL A   1      30.664  27.520  25.101  1.00  0.00    -0.016 C 
ATOM     64  C   UNL A   1      32.195  26.012  26.127  1.00  0.00     0.047 C 
ATOM     65  C   UNL A   1      30.243  26.288  24.806  1.00  0.00    -0.006 C 
ATOM     66  C   UNL A   1      31.089  25.211  25.395  1.00  0.00     0.106 C 
BRANCH  66  67
ATOM     67  N   UNL A   1      30.313  24.398  26.311  1.00  0.00    -0.350 N 
ATOM     68  C   UNL A   1      30.457  23.185  26.884  1.00  0.00     0.224 C 
ATOM     69  H   UNL A   1      29.475  24.840  26.581  1.00  0.00     0.164 HD
ATOM     70  O   UNL A   1      29.524  22.833  27.617  1.00  0.00    -0.275 OA
BRANCH  68  71
ATOM     71  C   UNL A   1      31.626  22.238  26.671  1.00  0.00     0.089 C 
ATOM     72  C   UNL A   1      32.924  22.578  27.398  1.00  0.00     0.025 C 
ATOM     73  C   UNL A   1      31.872  21.896  25.208  1.00  0.00     0.083 C 
ATOM     74  C   UNL A   1      33.994  22.989  26.406  1.00  0.00     0.070 C 
ATOM     75  S   UNL A   1      33.662  22.003  24.935  1.00  0.00    -0.161 SA
ENDBRANCH  68  71
ENDBRANCH  66  67
ENDBRANCH  59  62
ENDBRANCH  57  58
ENDBRANCH   1  57
TORSDOF 12
ENDMDL
