MODEL 1
REMARK VINA RESULT:     -10.3      0.000      0.000
REMARK SMILES C=CCSc1ccccc1C(=O)NCCCNC(=O)c1ccc(-c2c3nc(c(-c4ccccc4)c4ccc([nH]4)c(-c4ccccc4)c4nc(c(-c5ccccc5)c5ccc2[nH]5)C=C4)C=C3)cc1
REMARK SMILES IDX 14 1 13 2 11 3 12 4 10 6 5 7 6 8 7 9 9 10 8 11 4 12 3 13
REMARK SMILES IDX 2 14 1 15 15 16 16 17 17 18 18 19 19 21 20 22 21 23 67 24
REMARK SMILES IDX 22 25 66 26 23 27 24 28 25 29 60 30 26 31 65 32 59 33 61 34
REMARK SMILES IDX 27 35 64 36 58 37 57 38 28 40 50 41 35 42 49 43 36 44 39 45
REMARK SMILES IDX 48 46 62 47 37 48 38 49 47 51 63 52 40 53 29 54 30 55 34 56
REMARK SMILES IDX 31 57 33 58 32 59 51 60 52 61 56 62 53 63 55 64 54 65 41 66
REMARK SMILES IDX 42 67 46 68 43 69 45 70 44 71
REMARK H PARENT 13 5 17 20 61 39 39 50
REMARK Flexibility Score: inf
ROOT
ATOM      1  C   UNL A   1      36.769  20.549  24.627  1.00  0.00     0.118 C 
ENDROOT
BRANCH   1   2
ATOM      2  N   UNL A   1      35.882  20.763  25.753  1.00  0.00    -0.352 N 
ATOM      3  C   UNL A   1      34.603  21.245  25.841  1.00  0.00     0.252 C 
ATOM      4  O   UNL A   1      34.148  21.419  26.974  1.00  0.00    -0.269 OA
ATOM      5  H   UNL A   1      36.275  20.517  26.622  1.00  0.00     0.163 HD
BRANCH   3   6
ATOM      6  C   UNL A   1      33.685  21.415  24.682  1.00  0.00     0.053 A 
ATOM      7  C   UNL A   1      32.821  20.454  24.119  1.00  0.00     0.020 A 
ATOM      8  C   UNL A   1      32.152  20.773  22.920  1.00  0.00     0.016 A 
ATOM      9  C   UNL A   1      32.328  22.006  22.288  1.00  0.00     0.001 A 
ATOM     10  C   UNL A   1      33.862  22.651  24.019  1.00  0.00     0.015 A 
ATOM     11  C   UNL A   1      33.191  22.944  22.833  1.00  0.00     0.001 A 
BRANCH   7  12
ATOM     12  S   UNL A   1      32.681  18.771  24.697  1.00  0.00    -0.121 SA
BRANCH  12  13
ATOM     13  C   UNL A   1      33.087  17.713  23.261  1.00  0.00     0.101 C 
BRANCH  13  14
ATOM     14  C   UNL A   1      34.032  16.579  23.515  1.00  0.00    -0.024 C 
ATOM     15  C   UNL A   1      34.404  16.184  24.741  1.00  0.00     0.005 C 
ENDBRANCH  13  14
ENDBRANCH  12  13
ENDBRANCH   7  12
ENDBRANCH   3   6
ENDBRANCH   1   2
BRANCH   1  16
ATOM     16  C   UNL A   1      37.847  19.526  24.992  1.00  0.00     0.042 C 
BRANCH  16  17
ATOM     17  C   UNL A   1      39.026  20.121  25.751  1.00  0.00     0.118 C 
BRANCH  17  18
ATOM     18  N   UNL A   1      40.100  19.157  25.922  1.00  0.00    -0.352 N 
ATOM     19  C   UNL A   1      41.447  19.358  26.077  1.00  0.00     0.251 C 
ATOM     20  H   UNL A   1      39.817  18.214  25.928  1.00  0.00     0.163 HD
ATOM     21  O   UNL A   1      42.213  18.396  25.951  1.00  0.00    -0.269 OA
BRANCH  19  22
ATOM     22  C   UNL A   1      42.009  20.696  26.381  1.00  0.00     0.039 A 
ATOM     23  C   UNL A   1      42.211  21.052  27.719  1.00  0.00     0.014 A 
ATOM     24  C   UNL A   1      42.268  21.633  25.377  1.00  0.00     0.014 A 
ATOM     25  C   UNL A   1      42.705  22.321  28.046  1.00  0.00     0.010 A 
ATOM     26  C   UNL A   1      42.839  22.866  25.697  1.00  0.00     0.010 A 
ATOM     27  C   UNL A   1      43.043  23.233  27.035  1.00  0.00    -0.014 A 
BRANCH  27  28
ATOM     28  C   UNL A   1      43.569  24.587  27.356  1.00  0.00     0.031 A 
ATOM     29  C   UNL A   1      42.633  25.666  27.839  1.00  0.00     0.074 A 
ATOM     30  C   UNL A   1      44.872  24.869  27.165  1.00  0.00     0.049 A 
ATOM     31  N   UNL A   1      42.884  26.925  28.094  1.00  0.00    -0.248 NA
ATOM     32  C   UNL A   1      41.225  25.283  28.036  1.00  0.00     0.031 C 
ATOM     33  C   UNL A   1      45.882  23.930  26.673  1.00  0.00     0.029 A 
ATOM     34  N   UNL A   1      45.569  26.036  27.356  1.00  0.00    -0.354 N 
ATOM     35  C   UNL A   1      41.666  27.489  28.452  1.00  0.00     0.074 A 
ATOM     36  C   UNL A   1      40.669  26.446  28.342  1.00  0.00     0.031 C 
ATOM     37  C   UNL A   1      47.072  24.551  26.625  1.00  0.00     0.029 A 
ATOM     38  C   UNL A   1      46.903  25.939  27.043  1.00  0.00     0.049 A 
ATOM     39  H   UNL A   1      45.152  26.865  27.687  1.00  0.00     0.167 HD
ATOM     40  C   UNL A   1      41.398  28.755  28.853  1.00  0.00     0.031 A 
ATOM     41  C   UNL A   1      47.881  26.864  27.081  1.00  0.00     0.031 A 
ATOM     42  C   UNL A   1      42.388  29.788  28.992  1.00  0.00     0.049 A 
ATOM     43  C   UNL A   1      47.561  28.261  27.536  1.00  0.00     0.074 A 
ATOM     44  C   UNL A   1      42.222  31.086  29.446  1.00  0.00     0.029 A 
ATOM     45  N   UNL A   1      43.730  29.641  28.683  1.00  0.00    -0.354 N 
ATOM     46  N   UNL A   1      46.412  28.761  27.919  1.00  0.00    -0.248 NA
ATOM     47  C   UNL A   1      48.677  29.217  27.572  1.00  0.00     0.031 C 
ATOM     48  C   UNL A   1      43.460  31.735  29.377  1.00  0.00     0.029 A 
ATOM     49  C   UNL A   1      44.402  30.827  28.922  1.00  0.00     0.049 A 
ATOM     50  H   UNL A   1      44.144  28.814  28.342  1.00  0.00     0.167 HD
ATOM     51  C   UNL A   1      46.671  30.080  28.268  1.00  0.00     0.074 A 
ATOM     52  C   UNL A   1      48.089  30.298  28.063  1.00  0.00     0.031 C 
ATOM     53  C   UNL A   1      45.813  31.026  28.719  1.00  0.00     0.031 A 
BRANCH  40  54
ATOM     54  C   UNL A   1      39.967  29.092  29.170  1.00  0.00    -0.014 A 
ATOM     55  C   UNL A   1      39.447  28.911  30.461  1.00  0.00     0.009 A 
ATOM     56  C   UNL A   1      39.139  29.629  28.172  1.00  0.00     0.009 A 
ATOM     57  C   UNL A   1      38.115  29.227  30.737  1.00  0.00     0.001 A 
ATOM     58  C   UNL A   1      37.815  29.969  28.458  1.00  0.00     0.001 A 
ATOM     59  C   UNL A   1      37.302  29.759  29.737  1.00  0.00     0.000 A 
ENDBRANCH  40  54
BRANCH  41  60
ATOM     60  C   UNL A   1      49.267  26.498  26.693  1.00  0.00    -0.014 A 
ATOM     61  C   UNL A   1      49.712  26.699  25.376  1.00  0.00     0.009 A 
ATOM     62  C   UNL A   1      50.149  25.940  27.630  1.00  0.00     0.009 A 
ATOM     63  C   UNL A   1      51.004  26.324  25.002  1.00  0.00     0.001 A 
ATOM     64  C   UNL A   1      51.448  25.589  27.259  1.00  0.00     0.001 A 
ATOM     65  C   UNL A   1      51.872  25.774  25.943  1.00  0.00     0.000 A 
ENDBRANCH  41  60
BRANCH  53  66
ATOM     66  C   UNL A   1      46.389  32.371  29.057  1.00  0.00    -0.014 A 
ATOM     67  C   UNL A   1      46.439  33.401  28.107  1.00  0.00     0.009 A 
ATOM     68  C   UNL A   1      46.850  32.620  30.359  1.00  0.00     0.009 A 
ATOM     69  C   UNL A   1      46.971  34.647  28.446  1.00  0.00     0.001 A 
ATOM     70  C   UNL A   1      47.358  33.873  30.702  1.00  0.00     0.001 A 
ATOM     71  C   UNL A   1      47.425  34.883  29.744  1.00  0.00     0.000 A 
ENDBRANCH  53  66
ENDBRANCH  27  28
ENDBRANCH  19  22
ENDBRANCH  17  18
ENDBRANCH  16  17
ENDBRANCH   1  16
TORSDOF 13
ENDMDL
MODEL 2
REMARK VINA RESULT:     -10.3      3.240      7.500
REMARK SMILES C=CCSc1ccccc1C(=O)NCCCNC(=O)c1ccc(-c2c3nc(c(-c4ccccc4)c4ccc([nH]4)c(-c4ccccc4)c4nc(c(-c5ccccc5)c5ccc2[nH]5)C=C4)C=C3)cc1
REMARK SMILES IDX 14 1 13 2 11 3 12 4 10 6 5 7 6 8 7 9 9 10 8 11 4 12 3 13
REMARK SMILES IDX 2 14 1 15 15 16 16 17 17 18 18 19 19 21 20 22 21 23 67 24
REMARK SMILES IDX 22 25 66 26 23 27 24 28 25 29 60 30 26 31 65 32 59 33 61 34
REMARK SMILES IDX 27 35 64 36 58 37 57 38 28 40 50 41 35 42 49 43 36 44 39 45
REMARK SMILES IDX 48 46 62 47 37 48 38 49 47 51 63 52 40 53 29 54 30 55 34 56
REMARK SMILES IDX 31 57 33 58 32 59 51 60 52 61 56 62 53 63 55 64 54 65 41 66
REMARK SMILES IDX 42 67 46 68 43 69 45 70 44 71
REMARK H PARENT 13 5 17 20 61 39 39 50
REMARK Flexibility Score: inf
ROOT
ATOM      1  C   UNL A   1      33.675  26.838  25.206  1.00  0.00     0.118 C 
ENDROOT
BRANCH   1   2
ATOM      2  N   UNL A   1      33.692  26.750  23.759  1.00  0.00    -0.352 N 
ATOM      3  C   UNL A   1      33.631  25.684  22.900  1.00  0.00     0.252 C 
ATOM      4  O   UNL A   1      33.785  25.926  21.700  1.00  0.00    -0.269 OA
ATOM      5  H   UNL A   1      33.762  27.622  23.308  1.00  0.00     0.163 HD
BRANCH   3   6
ATOM      6  C   UNL A   1      33.238  24.305  23.294  1.00  0.00     0.053 A 
ATOM      7  C   UNL A   1      34.086  23.239  23.659  1.00  0.00     0.020 A 
ATOM      8  C   UNL A   1      33.518  21.962  23.843  1.00  0.00     0.016 A 
ATOM      9  C   UNL A   1      32.150  21.736  23.673  1.00  0.00     0.001 A 
ATOM     10  C   UNL A   1      31.860  24.053  23.111  1.00  0.00     0.015 A 
ATOM     11  C   UNL A   1      31.320  22.782  23.297  1.00  0.00     0.001 A 
BRANCH   7  12
ATOM     12  S   UNL A   1      35.868  23.340  23.689  1.00  0.00    -0.121 SA
BRANCH  12  13
ATOM     13  C   UNL A   1      36.313  23.862  25.384  1.00  0.00     0.101 C 
BRANCH  13  14
ATOM     14  C   UNL A   1      37.738  23.655  25.793  1.00  0.00    -0.024 C 
ATOM     15  C   UNL A   1      38.284  22.447  25.992  1.00  0.00     0.005 C 
ENDBRANCH  13  14
ENDBRANCH  12  13
ENDBRANCH   7  12
ENDBRANCH   3   6
ENDBRANCH   1   2
BRANCH   1  16
ATOM     16  C   UNL A   1      33.722  28.303  25.645  1.00  0.00     0.042 C 
BRANCH  16  17
ATOM     17  C   UNL A   1      33.707  28.493  27.156  1.00  0.00     0.118 C 
BRANCH  17  18
ATOM     18  N   UNL A   1      33.645  29.898  27.524  1.00  0.00    -0.352 N 
ATOM     19  C   UNL A   1      34.545  30.667  28.214  1.00  0.00     0.251 C 
ATOM     20  H   UNL A   1      32.831  30.369  27.233  1.00  0.00     0.163 HD
ATOM     21  O   UNL A   1      34.186  31.770  28.641  1.00  0.00    -0.269 OA
BRANCH  19  22
ATOM     22  C   UNL A   1      35.932  30.210  28.469  1.00  0.00     0.039 A 
ATOM     23  C   UNL A   1      36.863  30.268  27.426  1.00  0.00     0.014 A 
ATOM     24  C   UNL A   1      36.313  29.653  29.694  1.00  0.00     0.014 A 
ATOM     25  C   UNL A   1      38.172  29.810  27.619  1.00  0.00     0.010 A 
ATOM     26  C   UNL A   1      37.638  29.274  29.913  1.00  0.00     0.010 A 
ATOM     27  C   UNL A   1      38.577  29.328  28.874  1.00  0.00    -0.014 A 
BRANCH  27  28
ATOM     28  C   UNL A   1      39.961  28.835  29.105  1.00  0.00     0.031 A 
ATOM     29  C   UNL A   1      40.995  29.743  29.719  1.00  0.00     0.074 A 
ATOM     30  C   UNL A   1      40.310  27.593  28.716  1.00  0.00     0.049 A 
ATOM     31  N   UNL A   1      42.269  29.526  29.927  1.00  0.00    -0.248 NA
ATOM     32  C   UNL A   1      40.540  31.082  30.130  1.00  0.00     0.031 C 
ATOM     33  C   UNL A   1      39.420  26.618  28.082  1.00  0.00     0.029 A 
ATOM     34  N   UNL A   1      41.515  26.940  28.793  1.00  0.00    -0.354 N 
ATOM     35  C   UNL A   1      42.772  30.706  30.462  1.00  0.00     0.074 A 
ATOM     36  C   UNL A   1      41.676  31.649  30.511  1.00  0.00     0.031 C 
ATOM     37  C   UNL A   1      40.102  25.485  27.849  1.00  0.00     0.029 A 
ATOM     38  C   UNL A   1      41.485  25.665  28.282  1.00  0.00     0.049 A 
ATOM     39  H   UNL A   1      42.325  27.347  29.179  1.00  0.00     0.167 HD
ATOM     40  C   UNL A   1      44.027  30.978  30.893  1.00  0.00     0.031 A 
ATOM     41  C   UNL A   1      42.462  24.745  28.166  1.00  0.00     0.031 A 
ATOM     42  C   UNL A   1      45.113  30.037  30.876  1.00  0.00     0.049 A 
ATOM     43  C   UNL A   1      43.845  25.068  28.657  1.00  0.00     0.074 A 
ATOM     44  C   UNL A   1      46.406  30.202  31.343  1.00  0.00     0.029 A 
ATOM     45  N   UNL A   1      45.033  28.750  30.366  1.00  0.00    -0.354 N 
ATOM     46  N   UNL A   1      44.288  26.172  29.208  1.00  0.00    -0.248 NA
ATOM     47  C   UNL A   1      44.859  24.013  28.518  1.00  0.00     0.031 C 
ATOM     48  C   UNL A   1      47.119  29.027  31.083  1.00  0.00     0.029 A 
ATOM     49  C   UNL A   1      46.257  28.116  30.495  1.00  0.00     0.049 A 
ATOM     50  H   UNL A   1      44.225  28.348  29.971  1.00  0.00     0.167 HD
ATOM     51  C   UNL A   1      45.624  25.935  29.507  1.00  0.00     0.074 A 
ATOM     52  C   UNL A   1      45.914  24.579  29.087  1.00  0.00     0.031 C 
ATOM     53  C   UNL A   1      46.528  26.766  30.078  1.00  0.00     0.031 A 
BRANCH  40  54
ATOM     54  C   UNL A   1      44.291  32.361  31.422  1.00  0.00    -0.014 A 
ATOM     55  C   UNL A   1      44.143  32.658  32.787  1.00  0.00     0.009 A 
ATOM     56  C   UNL A   1      44.727  33.370  30.550  1.00  0.00     0.009 A 
ATOM     57  C   UNL A   1      44.391  33.948  33.261  1.00  0.00     0.001 A 
ATOM     58  C   UNL A   1      44.999  34.653  31.032  1.00  0.00     0.001 A 
ATOM     59  C   UNL A   1      44.822  34.942  32.384  1.00  0.00     0.000 A 
ENDBRANCH  40  54
BRANCH  41  60
ATOM     60  C   UNL A   1      42.164  23.415  27.573  1.00  0.00    -0.014 A 
ATOM     61  C   UNL A   1      42.459  23.158  26.225  1.00  0.00     0.009 A 
ATOM     62  C   UNL A   1      41.580  22.402  28.346  1.00  0.00     0.009 A 
ATOM     63  C   UNL A   1      42.149  21.920  25.658  1.00  0.00     0.001 A 
ATOM     64  C   UNL A   1      41.295  21.156  27.783  1.00  0.00     0.001 A 
ATOM     65  C   UNL A   1      41.572  20.920  26.437  1.00  0.00     0.000 A 
ENDBRANCH  41  60
BRANCH  53  66
ATOM     66  C   UNL A   1      47.906  26.219  30.319  1.00  0.00    -0.014 A 
ATOM     67  C   UNL A   1      48.875  26.216  29.304  1.00  0.00     0.009 A 
ATOM     68  C   UNL A   1      48.250  25.740  31.592  1.00  0.00     0.009 A 
ATOM     69  C   UNL A   1      50.153  25.711  29.552  1.00  0.00     0.001 A 
ATOM     70  C   UNL A   1      49.535  25.259  31.844  1.00  0.00     0.001 A 
ATOM     71  C   UNL A   1      50.483  25.238  30.822  1.00  0.00     0.000 A 
ENDBRANCH  53  66
ENDBRANCH  27  28
ENDBRANCH  19  22
ENDBRANCH  17  18
ENDBRANCH  16  17
ENDBRANCH   1  16
TORSDOF 13
ENDMDL
MODEL 3
REMARK VINA RESULT:     -10.2      3.339      7.597
REMARK SMILES C=CCSc1ccccc1C(=O)NCCCNC(=O)c1ccc(-c2c3nc(c(-c4ccccc4)c4ccc([nH]4)c(-c4ccccc4)c4nc(c(-c5ccccc5)c5ccc2[nH]5)C=C4)C=C3)cc1
REMARK SMILES IDX 14 1 13 2 11 3 12 4 10 6 5 7 6 8 7 9 9 10 8 11 4 12 3 13
REMARK SMILES IDX 2 14 1 15 15 16 16 17 17 18 18 19 19 21 20 22 21 23 67 24
REMARK SMILES IDX 22 25 66 26 23 27 24 28 25 29 60 30 26 31 65 32 59 33 61 34
REMARK SMILES IDX 27 35 64 36 58 37 57 38 28 40 50 41 35 42 49 43 36 44 39 45
REMARK SMILES IDX 48 46 62 47 37 48 38 49 47 51 63 52 40 53 29 54 30 55 34 56
REMARK SMILES IDX 31 57 33 58 32 59 51 60 52 61 56 62 53 63 55 64 54 65 41 66
REMARK SMILES IDX 42 67 46 68 43 69 45 70 44 71
REMARK H PARENT 13 5 17 20 61 39 39 50
REMARK Flexibility Score: inf
ROOT
ATOM      1  C   UNL A   1      33.419  27.021  25.154  1.00  0.00     0.118 C 
ENDROOT
BRANCH   1   2
ATOM      2  N   UNL A   1      33.077  25.849  25.934  1.00  0.00    -0.352 N 
ATOM      3  C   UNL A   1      33.488  24.544  25.867  1.00  0.00     0.252 C 
ATOM      4  O   UNL A   1      32.919  23.739  26.610  1.00  0.00    -0.269 OA
ATOM      5  H   UNL A   1      32.422  26.023  26.649  1.00  0.00     0.163 HD
BRANCH   3   6
ATOM      6  C   UNL A   1      34.663  24.070  25.087  1.00  0.00     0.053 A 
ATOM      7  C   UNL A   1      34.665  23.473  23.810  1.00  0.00     0.020 A 
ATOM      8  C   UNL A   1      35.877  22.949  23.316  1.00  0.00     0.016 A 
ATOM      9  C   UNL A   1      37.059  23.009  24.057  1.00  0.00     0.001 A 
ATOM     10  C   UNL A   1      35.865  24.107  25.828  1.00  0.00     0.015 A 
ATOM     11  C   UNL A   1      37.052  23.581  25.321  1.00  0.00     0.001 A 
BRANCH   7  12
ATOM     12  S   UNL A   1      33.193  23.131  22.860  1.00  0.00    -0.121 SA
BRANCH  12  13
ATOM     13  C   UNL A   1      32.653  24.738  22.175  1.00  0.00     0.101 C 
BRANCH  13  14
ATOM     14  C   UNL A   1      31.359  25.283  22.694  1.00  0.00    -0.024 C 
ATOM     15  C   UNL A   1      30.530  24.594  23.491  1.00  0.00     0.005 C 
ENDBRANCH  13  14
ENDBRANCH  12  13
ENDBRANCH   7  12
ENDBRANCH   3   6
ENDBRANCH   1   2
BRANCH   1  16
ATOM     16  C   UNL A   1      34.213  28.010  26.011  1.00  0.00     0.042 C 
BRANCH  16  17
ATOM     17  C   UNL A   1      33.514  28.399  27.307  1.00  0.00     0.118 C 
BRANCH  17  18
ATOM     18  N   UNL A   1      33.488  29.840  27.496  1.00  0.00    -0.352 N 
ATOM     19  C   UNL A   1      34.414  30.668  28.075  1.00  0.00     0.251 C 
ATOM     20  H   UNL A   1      32.682  30.291  27.156  1.00  0.00     0.163 HD
ATOM     21  O   UNL A   1      34.085  31.824  28.363  1.00  0.00    -0.269 OA
BRANCH  19  22
ATOM     22  C   UNL A   1      35.793  30.213  28.374  1.00  0.00     0.039 A 
ATOM     23  C   UNL A   1      36.759  30.285  27.364  1.00  0.00     0.014 A 
ATOM     24  C   UNL A   1      36.133  29.647  29.606  1.00  0.00     0.014 A 
ATOM     25  C   UNL A   1      38.062  29.830  27.598  1.00  0.00     0.010 A 
ATOM     26  C   UNL A   1      37.452  29.270  29.867  1.00  0.00     0.010 A 
ATOM     27  C   UNL A   1      38.426  29.337  28.861  1.00  0.00    -0.014 A 
BRANCH  27  28
ATOM     28  C   UNL A   1      39.803  28.847  29.134  1.00  0.00     0.031 A 
ATOM     29  C   UNL A   1      40.810  29.752  29.796  1.00  0.00     0.074 A 
ATOM     30  C   UNL A   1      40.171  27.612  28.743  1.00  0.00     0.049 A 
ATOM     31  N   UNL A   1      42.077  29.537  30.047  1.00  0.00    -0.248 NA
ATOM     32  C   UNL A   1      40.335  31.083  30.208  1.00  0.00     0.031 C 
ATOM     33  C   UNL A   1      39.308  26.642  28.064  1.00  0.00     0.029 A 
ATOM     34  N   UNL A   1      41.375  26.962  28.854  1.00  0.00    -0.354 N 
ATOM     35  C   UNL A   1      42.555  30.711  30.615  1.00  0.00     0.074 A 
ATOM     36  C   UNL A   1      41.454  31.649  30.636  1.00  0.00     0.031 C 
ATOM     37  C   UNL A   1      40.004  25.515  27.842  1.00  0.00     0.029 A 
ATOM     38  C   UNL A   1      41.369  25.694  28.326  1.00  0.00     0.049 A 
ATOM     39  H   UNL A   1      42.169  27.368  29.274  1.00  0.00     0.167 HD
ATOM     40  C   UNL A   1      43.793  30.983  31.094  1.00  0.00     0.031 A 
ATOM     41  C   UNL A   1      42.354  24.780  28.232  1.00  0.00     0.031 A 
ATOM     42  C   UNL A   1      44.884  30.047  31.102  1.00  0.00     0.049 A 
ATOM     43  C   UNL A   1      43.717  25.102  28.777  1.00  0.00     0.074 A 
ATOM     44  C   UNL A   1      46.158  30.212  31.617  1.00  0.00     0.029 A 
ATOM     45  N   UNL A   1      44.828  28.767  30.574  1.00  0.00    -0.354 N 
ATOM     46  N   UNL A   1      44.136  26.200  29.358  1.00  0.00    -0.248 NA
ATOM     47  C   UNL A   1      44.741  24.054  28.660  1.00  0.00     0.031 C 
ATOM     48  C   UNL A   1      46.885  29.043  31.368  1.00  0.00     0.029 A 
ATOM     49  C   UNL A   1      46.048  28.136  30.738  1.00  0.00     0.049 A 
ATOM     50  H   UNL A   1      44.036  28.367  30.145  1.00  0.00     0.167 HD
ATOM     51  C   UNL A   1      45.461  25.965  29.700  1.00  0.00     0.074 A 
ATOM     52  C   UNL A   1      45.772  24.616  29.274  1.00  0.00     0.031 C 
ATOM     53  C   UNL A   1      46.340  26.792  30.314  1.00  0.00     0.031 A 
BRANCH  40  54
ATOM     54  C   UNL A   1      44.032  32.360  31.649  1.00  0.00    -0.014 A 
ATOM     55  C   UNL A   1      44.487  33.406  30.830  1.00  0.00     0.009 A 
ATOM     56  C   UNL A   1      43.767  32.622  33.002  1.00  0.00     0.009 A 
ATOM     57  C   UNL A   1      44.706  34.678  31.363  1.00  0.00     0.001 A 
ATOM     58  C   UNL A   1      43.962  33.902  33.527  1.00  0.00     0.001 A 
ATOM     59  C   UNL A   1      44.440  34.925  32.709  1.00  0.00     0.000 A 
ENDBRANCH  40  54
BRANCH  41  60
ATOM     60  C   UNL A   1      42.084  23.457  27.613  1.00  0.00    -0.014 A 
ATOM     61  C   UNL A   1      41.498  22.427  28.366  1.00  0.00     0.009 A 
ATOM     62  C   UNL A   1      42.416  23.214  26.272  1.00  0.00     0.009 A 
ATOM     63  C   UNL A   1      41.275  21.173  27.794  1.00  0.00     0.001 A 
ATOM     64  C   UNL A   1      42.168  21.967  25.696  1.00  0.00     0.001 A 
ATOM     65  C   UNL A   1      41.605  20.945  26.460  1.00  0.00     0.000 A 
ENDBRANCH  41  60
BRANCH  53  66
ATOM     66  C   UNL A   1      47.712  26.248  30.596  1.00  0.00    -0.014 A 
ATOM     67  C   UNL A   1      48.050  25.746  31.862  1.00  0.00     0.009 A 
ATOM     68  C   UNL A   1      48.664  26.202  29.567  1.00  0.00     0.009 A 
ATOM     69  C   UNL A   1      49.328  25.237  32.099  1.00  0.00     0.001 A 
ATOM     70  C   UNL A   1      49.933  25.670  29.800  1.00  0.00     0.001 A 
ATOM     71  C   UNL A   1      50.266  25.196  31.068  1.00  0.00     0.000 A 
ENDBRANCH  53  66
ENDBRANCH  27  28
ENDBRANCH  19  22
ENDBRANCH  17  18
ENDBRANCH  16  17
ENDBRANCH   1  16
TORSDOF 13
ENDMDL
