MODEL 1
REMARK VINA RESULT:     -10.7      0.000      0.000
REMARK SMILES CCC(CC)NC(=O)NC[C@H]1CC[C@H](C(=O)NCCCNC(=O)c2ccc(-c3c4nc(c(-c5ccccc5)c5ccc([nH]5)c(-c5ccccc5)c5nc(c(-c6ccccc6)c6ccc3[nH]6)C=C5)C=C4)cc2)O1
REMARK SMILES IDX 18 1 17 2 15 3 16 4 14 6 11 7 12 8 72 9 13 10 10 11 9 12
REMARK SMILES IDX 6 13 7 14 8 16 3 18 2 19 1 20 4 21 5 22 19 23 20 24 21 25
REMARK SMILES IDX 22 26 23 28 24 29 25 30 71 31 26 32 70 33 27 34 28 35 29 36
REMARK SMILES IDX 64 37 30 38 69 39 63 40 65 41 31 42 68 43 62 44 61 45 32 47
REMARK SMILES IDX 54 48 39 49 53 50 40 51 43 52 52 53 66 54 41 55 42 56 51 58
REMARK SMILES IDX 67 59 44 60 33 61 34 62 38 63 35 64 37 65 36 66 55 67 56 68
REMARK SMILES IDX 60 69 57 70 59 71 58 72 45 73 46 74 50 75 47 76 49 77 48 78
REMARK H PARENT 17 5 6 15 9 17 21 27 65 46 43 57
REMARK Flexibility Score: inf
ROOT
ATOM      1  C   UNL A   1      31.479  30.673  26.196  1.00  0.00     0.117 C 
ENDROOT
BRANCH   1   2
ATOM      2  N   UNL A   1      31.288  30.415  24.789  1.00  0.00    -0.354 N 
ATOM      3  C   UNL A   1      31.002  29.246  24.151  1.00  0.00     0.249 C 
ATOM      4  O   UNL A   1      30.885  29.293  22.922  1.00  0.00    -0.272 OA
ATOM      5  H   UNL A   1      31.375  31.201  24.204  1.00  0.00     0.163 HD
BRANCH   3   6
ATOM      6  C   UNL A   1      30.914  27.892  24.900  1.00  0.00     0.207 C 
ATOM      7  C   UNL A   1      32.398  26.067  25.029  1.00  0.00     0.138 C 
ATOM      8  C   UNL A   1      31.363  25.707  23.975  1.00  0.00     0.037 C 
ATOM      9  O   UNL A   1      32.089  27.382  25.515  1.00  0.00    -0.363 OA
ATOM     10  C   UNL A   1      30.311  26.791  24.046  1.00  0.00     0.045 C 
BRANCH   7  11
ATOM     11  C   UNL A   1      32.560  25.008  26.140  1.00  0.00     0.149 C 
BRANCH  11  12
ATOM     12  N   UNL A   1      31.313  24.496  26.670  1.00  0.00    -0.336 N 
ATOM     13  N   UNL A   1      31.445  22.145  26.457  1.00  0.00    -0.335 N 
ATOM     14  C   UNL A   1      30.837  23.263  26.878  1.00  0.00     0.315 C 
ATOM     15  H   UNL A   1      31.026  21.325  26.804  1.00  0.00     0.165 HD
ATOM     16  O   UNL A   1      29.783  23.147  27.506  1.00  0.00    -0.249 OA
ATOM     17  H   UNL A   1      30.683  25.206  26.933  1.00  0.00     0.165 HD
BRANCH  13  18
ATOM     18  C   UNL A   1      32.592  21.883  25.598  1.00  0.00     0.083 C 
BRANCH  18  19
ATOM     19  C   UNL A   1      33.660  21.098  26.374  1.00  0.00     0.021 C 
ATOM     20  C   UNL A   1      34.139  21.824  27.623  1.00  0.00     0.006 C 
ENDBRANCH  18  19
BRANCH  18  21
ATOM     21  C   UNL A   1      32.145  21.251  24.267  1.00  0.00     0.021 C 
ATOM     22  C   UNL A   1      32.669  19.854  23.987  1.00  0.00     0.006 C 
ENDBRANCH  18  21
ENDBRANCH  13  18
ENDBRANCH  11  12
ENDBRANCH   7  11
ENDBRANCH   3   6
ENDBRANCH   1   2
BRANCH   1  23
ATOM     23  C   UNL A   1      31.395  32.160  26.519  1.00  0.00     0.042 C 
BRANCH  23  24
ATOM     24  C   UNL A   1      32.647  32.689  27.207  1.00  0.00     0.118 C 
BRANCH  24  25
ATOM     25  N   UNL A   1      32.485  34.075  27.627  1.00  0.00    -0.352 N 
ATOM     26  C   UNL A   1      33.071  34.765  28.656  1.00  0.00     0.251 C 
ATOM     27  H   UNL A   1      31.853  34.599  27.084  1.00  0.00     0.163 HD
ATOM     28  O   UNL A   1      32.615  35.853  28.992  1.00  0.00    -0.269 OA
BRANCH  26  29
ATOM     29  C   UNL A   1      34.241  34.208  29.367  1.00  0.00     0.039 A 
ATOM     30  C   UNL A   1      34.027  33.452  30.524  1.00  0.00     0.014 A 
ATOM     31  C   UNL A   1      35.542  34.461  28.928  1.00  0.00     0.014 A 
ATOM     32  C   UNL A   1      35.116  32.907  31.206  1.00  0.00     0.010 A 
ATOM     33  C   UNL A   1      36.619  33.848  29.557  1.00  0.00     0.010 A 
ATOM     34  C   UNL A   1      36.418  33.073  30.709  1.00  0.00    -0.014 A 
BRANCH  34  35
ATOM     35  C   UNL A   1      37.584  32.447  31.380  1.00  0.00     0.031 A 
ATOM     36  C   UNL A   1      38.269  31.262  30.757  1.00  0.00     0.074 A 
ATOM     37  C   UNL A   1      37.979  32.906  32.582  1.00  0.00     0.049 A 
ATOM     38  N   UNL A   1      39.257  30.542  31.223  1.00  0.00    -0.248 NA
ATOM     39  C   UNL A   1      37.760  30.811  29.451  1.00  0.00     0.031 C 
ATOM     40  C   UNL A   1      37.369  34.023  33.308  1.00  0.00     0.029 A 
ATOM     41  N   UNL A   1      38.987  32.484  33.412  1.00  0.00    -0.354 N 
ATOM     42  C   UNL A   1      39.472  29.544  30.281  1.00  0.00     0.074 A 
ATOM     43  C   UNL A   1      38.482  29.721  29.241  1.00  0.00     0.031 C 
ATOM     44  C   UNL A   1      38.033  34.215  34.459  1.00  0.00     0.029 A 
ATOM     45  C   UNL A   1      39.084  33.210  34.573  1.00  0.00     0.049 A 
ATOM     46  H   UNL A   1      39.584  31.732  33.195  1.00  0.00     0.167 HD
ATOM     47  C   UNL A   1      40.423  28.580  30.271  1.00  0.00     0.031 A 
ATOM     48  C   UNL A   1      39.921  33.076  35.618  1.00  0.00     0.031 A 
ATOM     49  C   UNL A   1      41.414  28.415  31.301  1.00  0.00     0.049 A 
ATOM     50  C   UNL A   1      40.959  31.990  35.589  1.00  0.00     0.074 A 
ATOM     51  C   UNL A   1      42.455  27.505  31.357  1.00  0.00     0.029 A 
ATOM     52  N   UNL A   1      41.483  29.177  32.457  1.00  0.00    -0.354 N 
ATOM     53  N   UNL A   1      41.194  31.098  34.658  1.00  0.00    -0.248 NA
ATOM     54  C   UNL A   1      41.855  31.902  36.751  1.00  0.00     0.031 C 
ATOM     55  C   UNL A   1      43.124  27.682  32.573  1.00  0.00     0.029 A 
ATOM     56  C   UNL A   1      42.535  28.741  33.246  1.00  0.00     0.049 A 
ATOM     57  H   UNL A   1      40.875  29.917  32.683  1.00  0.00     0.167 HD
ATOM     58  C   UNL A   1      42.281  30.359  35.107  1.00  0.00     0.074 A 
ATOM     59  C   UNL A   1      42.669  30.921  36.385  1.00  0.00     0.031 C 
ATOM     60  C   UNL A   1      42.904  29.311  34.515  1.00  0.00     0.031 A 
BRANCH  47  61
ATOM     61  C   UNL A   1      40.429  27.622  29.111  1.00  0.00    -0.014 A 
ATOM     62  C   UNL A   1      39.652  26.453  29.126  1.00  0.00     0.009 A 
ATOM     63  C   UNL A   1      41.196  27.912  27.971  1.00  0.00     0.009 A 
ATOM     64  C   UNL A   1      39.672  25.575  28.040  1.00  0.00     0.001 A 
ATOM     65  C   UNL A   1      41.190  27.048  26.874  1.00  0.00     0.001 A 
ATOM     66  C   UNL A   1      40.436  25.876  26.913  1.00  0.00     0.000 A 
ENDBRANCH  47  61
BRANCH  48  67
ATOM     67  C   UNL A   1      39.823  34.004  36.776  1.00  0.00    -0.014 A 
ATOM     68  C   UNL A   1      39.028  33.676  37.885  1.00  0.00     0.009 A 
ATOM     69  C   UNL A   1      40.520  35.222  36.778  1.00  0.00     0.009 A 
ATOM     70  C   UNL A   1      38.912  34.561  38.960  1.00  0.00     0.001 A 
ATOM     71  C   UNL A   1      40.427  36.091  37.867  1.00  0.00     0.001 A 
ATOM     72  C   UNL A   1      39.614  35.765  38.951  1.00  0.00     0.000 A 
ENDBRANCH  48  67
BRANCH  60  73
ATOM     73  C   UNL A   1      44.091  28.728  35.227  1.00  0.00    -0.014 A 
ATOM     74  C   UNL A   1      45.386  29.226  35.018  1.00  0.00     0.009 A 
ATOM     75  C   UNL A   1      43.902  27.687  36.152  1.00  0.00     0.009 A 
ATOM     76  C   UNL A   1      46.473  28.670  35.695  1.00  0.00     0.001 A 
ATOM     77  C   UNL A   1      44.986  27.156  36.850  1.00  0.00     0.001 A 
ATOM     78  C   UNL A   1      46.272  27.640  36.614  1.00  0.00     0.000 A 
ENDBRANCH  60  73
ENDBRANCH  34  35
ENDBRANCH  26  29
ENDBRANCH  24  25
ENDBRANCH  23  24
ENDBRANCH   1  23
TORSDOF 15
ENDMDL
MODEL 2
REMARK VINA RESULT:     -10.6      4.515      9.688
REMARK SMILES CCC(CC)NC(=O)NC[C@H]1CC[C@H](C(=O)NCCCNC(=O)c2ccc(-c3c4nc(c(-c5ccccc5)c5ccc([nH]5)c(-c5ccccc5)c5nc(c(-c6ccccc6)c6ccc3[nH]6)C=C5)C=C4)cc2)O1
REMARK SMILES IDX 18 1 17 2 15 3 16 4 14 6 11 7 12 8 72 9 13 10 10 11 9 12
REMARK SMILES IDX 6 13 7 14 8 16 3 18 2 19 1 20 4 21 5 22 19 23 20 24 21 25
REMARK SMILES IDX 22 26 23 28 24 29 25 30 71 31 26 32 70 33 27 34 28 35 29 36
REMARK SMILES IDX 64 37 30 38 69 39 63 40 65 41 31 42 68 43 62 44 61 45 32 47
REMARK SMILES IDX 54 48 39 49 53 50 40 51 43 52 52 53 66 54 41 55 42 56 51 58
REMARK SMILES IDX 67 59 44 60 33 61 34 62 38 63 35 64 37 65 36 66 55 67 56 68
REMARK SMILES IDX 60 69 57 70 59 71 58 72 45 73 46 74 50 75 47 76 49 77 48 78
REMARK H PARENT 17 5 6 15 9 17 21 27 65 46 43 57
REMARK Flexibility Score: inf
ROOT
ATOM      1  C   UNL A   1      36.074  20.691  25.062  1.00  0.00     0.117 C 
ENDROOT
BRANCH   1   2
ATOM      2  N   UNL A   1      34.855  19.924  25.151  1.00  0.00    -0.354 N 
ATOM      3  C   UNL A   1      33.563  20.349  25.226  1.00  0.00     0.249 C 
ATOM      4  O   UNL A   1      32.690  19.478  25.294  1.00  0.00    -0.272 OA
ATOM      5  H   UNL A   1      34.975  18.947  25.158  1.00  0.00     0.163 HD
BRANCH   3   6
ATOM      6  C   UNL A   1      33.189  21.850  25.316  1.00  0.00     0.207 C 
ATOM      7  C   UNL A   1      31.117  22.941  25.572  1.00  0.00     0.138 C 
ATOM      8  C   UNL A   1      31.438  22.970  24.086  1.00  0.00     0.037 C 
ATOM      9  O   UNL A   1      32.179  22.242  26.237  1.00  0.00    -0.363 OA
ATOM     10  C   UNL A   1      32.852  22.450  23.963  1.00  0.00     0.045 C 
BRANCH   7  11
ATOM     11  C   UNL A   1      30.802  24.327  26.175  1.00  0.00     0.149 C 
BRANCH  11  12
ATOM     12  N   UNL A   1      29.860  25.117  25.408  1.00  0.00    -0.336 N 
ATOM     13  N   UNL A   1      31.149  26.793  24.348  1.00  0.00    -0.335 N 
ATOM     14  C   UNL A   1      29.995  26.144  24.561  1.00  0.00     0.315 C 
ATOM     15  H   UNL A   1      31.098  27.435  23.603  1.00  0.00     0.165 HD
ATOM     16  O   UNL A   1      29.002  26.508  23.928  1.00  0.00    -0.249 OA
ATOM     17  H   UNL A   1      28.925  24.841  25.538  1.00  0.00     0.165 HD
BRANCH  13  18
ATOM     18  C   UNL A   1      32.461  26.751  24.979  1.00  0.00     0.083 C 
BRANCH  18  19
ATOM     19  C   UNL A   1      33.486  26.135  24.016  1.00  0.00     0.021 C 
ATOM     20  C   UNL A   1      33.148  26.379  22.552  1.00  0.00     0.006 C 
ENDBRANCH  18  19
BRANCH  18  21
ATOM     21  C   UNL A   1      32.837  28.131  25.549  1.00  0.00     0.021 C 
ATOM     22  C   UNL A   1      33.400  28.135  26.959  1.00  0.00     0.006 C 
ENDBRANCH  18  21
ENDBRANCH  13  18
ENDBRANCH  11  12
ENDBRANCH   7  11
ENDBRANCH   3   6
ENDBRANCH   1   2
BRANCH   1  23
ATOM     23  C   UNL A   1      37.301  19.797  24.928  1.00  0.00     0.042 C 
BRANCH  23  24
ATOM     24  C   UNL A   1      38.562  20.431  25.499  1.00  0.00     0.118 C 
BRANCH  24  25
ATOM     25  N   UNL A   1      39.619  19.447  25.693  1.00  0.00    -0.352 N 
ATOM     26  C   UNL A   1      40.929  19.612  26.061  1.00  0.00     0.251 C 
ATOM     27  H   UNL A   1      39.348  18.514  25.534  1.00  0.00     0.163 HD
ATOM     28  O   UNL A   1      41.717  18.680  25.927  1.00  0.00    -0.269 OA
BRANCH  26  29
ATOM     29  C   UNL A   1      41.401  20.901  26.609  1.00  0.00     0.039 A 
ATOM     30  C   UNL A   1      41.921  21.855  25.729  1.00  0.00     0.014 A 
ATOM     31  C   UNL A   1      41.377  21.156  27.981  1.00  0.00     0.014 A 
ATOM     32  C   UNL A   1      42.363  23.084  26.221  1.00  0.00     0.010 A 
ATOM     33  C   UNL A   1      41.738  22.410  28.461  1.00  0.00     0.010 A 
ATOM     34  C   UNL A   1      42.244  23.383  27.588  1.00  0.00    -0.014 A 
BRANCH  34  35
ATOM     35  C   UNL A   1      42.646  24.706  28.124  1.00  0.00     0.031 A 
ATOM     36  C   UNL A   1      41.614  25.777  28.347  1.00  0.00     0.074 A 
ATOM     37  C   UNL A   1      43.949  24.962  28.344  1.00  0.00     0.049 A 
ATOM     38  N   UNL A   1      41.780  27.012  28.745  1.00  0.00    -0.248 NA
ATOM     39  C   UNL A   1      40.214  25.421  28.061  1.00  0.00     0.031 C 
ATOM     40  C   UNL A   1      45.049  24.019  28.127  1.00  0.00     0.029 A 
ATOM     41  N   UNL A   1      44.572  26.099  28.794  1.00  0.00    -0.354 N 
ATOM     42  C   UNL A   1      40.514  27.584  28.736  1.00  0.00     0.074 A 
ATOM     43  C   UNL A   1      39.597  26.578  28.248  1.00  0.00     0.031 C 
ATOM     44  C   UNL A   1      46.206  24.606  28.471  1.00  0.00     0.029 A 
ATOM     45  C   UNL A   1      45.937  25.977  28.889  1.00  0.00     0.049 A 
ATOM     46  H   UNL A   1      44.087  26.923  29.027  1.00  0.00     0.167 HD
ATOM     47  C   UNL A   1      40.144  28.829  29.120  1.00  0.00     0.031 A 
ATOM     48  C   UNL A   1      46.869  26.872  29.265  1.00  0.00     0.031 A 
ATOM     49  C   UNL A   1      41.058  29.824  29.617  1.00  0.00     0.049 A 
ATOM     50  C   UNL A   1      46.434  28.251  29.674  1.00  0.00     0.074 A 
ATOM     51  C   UNL A   1      40.777  31.095  30.085  1.00  0.00     0.029 A 
ATOM     52  N   UNL A   1      42.431  29.658  29.706  1.00  0.00    -0.354 N 
ATOM     53  N   UNL A   1      45.225  28.754  29.726  1.00  0.00    -0.248 NA
ATOM     54  C   UNL A   1      47.494  29.182  30.088  1.00  0.00     0.031 C 
ATOM     55  C   UNL A   1      41.986  31.718  30.409  1.00  0.00     0.029 A 
ATOM     56  C   UNL A   1      43.014  30.813  30.198  1.00  0.00     0.049 A 
ATOM     57  H   UNL A   1      42.919  28.840  29.456  1.00  0.00     0.167 HD
ATOM     58  C   UNL A   1      45.374  30.050  30.205  1.00  0.00     0.074 A 
ATOM     59  C   UNL A   1      46.789  30.247  30.443  1.00  0.00     0.031 C 
ATOM     60  C   UNL A   1      44.425  30.991  30.427  1.00  0.00     0.031 A 
BRANCH  47  61
ATOM     61  C   UNL A   1      38.687  29.186  29.009  1.00  0.00    -0.014 A 
ATOM     62  C   UNL A   1      37.814  29.035  30.098  1.00  0.00     0.009 A 
ATOM     63  C   UNL A   1      38.188  29.716  27.808  1.00  0.00     0.009 A 
ATOM     64  C   UNL A   1      36.464  29.370  29.975  1.00  0.00     0.001 A 
ATOM     65  C   UNL A   1      36.845  30.080  27.698  1.00  0.00     0.001 A 
ATOM     66  C   UNL A   1      35.982  29.897  28.777  1.00  0.00     0.000 A 
ENDBRANCH  47  61
BRANCH  48  67
ATOM     67  C   UNL A   1      48.305  26.490  29.284  1.00  0.00    -0.014 A 
ATOM     68  C   UNL A   1      49.109  26.687  28.151  1.00  0.00     0.009 A 
ATOM     69  C   UNL A   1      48.880  25.925  30.433  1.00  0.00     0.009 A 
ATOM     70  C   UNL A   1      50.451  26.300  28.159  1.00  0.00     0.001 A 
ATOM     71  C   UNL A   1      50.230  25.567  30.449  1.00  0.00     0.001 A 
ATOM     72  C   UNL A   1      51.011  25.745  29.309  1.00  0.00     0.000 A 
ENDBRANCH  48  67
BRANCH  60  73
ATOM     73  C   UNL A   1      44.883  32.306  30.990  1.00  0.00    -0.014 A 
ATOM     74  C   UNL A   1      44.984  32.514  32.374  1.00  0.00     0.009 A 
ATOM     75  C   UNL A   1      45.257  33.341  30.116  1.00  0.00     0.009 A 
ATOM     76  C   UNL A   1      45.416  33.745  32.872  1.00  0.00     0.001 A 
ATOM     77  C   UNL A   1      45.720  34.558  30.618  1.00  0.00     0.001 A 
ATOM     78  C   UNL A   1      45.789  34.763  31.995  1.00  0.00     0.000 A 
ENDBRANCH  60  73
ENDBRANCH  34  35
ENDBRANCH  26  29
ENDBRANCH  24  25
ENDBRANCH  23  24
ENDBRANCH   1  23
TORSDOF 15
ENDMDL
MODEL 3
REMARK VINA RESULT:     -10.5      3.678      7.544
REMARK SMILES CCC(CC)NC(=O)NC[C@H]1CC[C@H](C(=O)NCCCNC(=O)c2ccc(-c3c4nc(c(-c5ccccc5)c5ccc([nH]5)c(-c5ccccc5)c5nc(c(-c6ccccc6)c6ccc3[nH]6)C=C5)C=C4)cc2)O1
REMARK SMILES IDX 18 1 17 2 15 3 16 4 14 6 11 7 12 8 72 9 13 10 10 11 9 12
REMARK SMILES IDX 6 13 7 14 8 16 3 18 2 19 1 20 4 21 5 22 19 23 20 24 21 25
REMARK SMILES IDX 22 26 23 28 24 29 25 30 71 31 26 32 70 33 27 34 28 35 29 36
REMARK SMILES IDX 64 37 30 38 69 39 63 40 65 41 31 42 68 43 62 44 61 45 32 47
REMARK SMILES IDX 54 48 39 49 53 50 40 51 43 52 52 53 66 54 41 55 42 56 51 58
REMARK SMILES IDX 67 59 44 60 33 61 34 62 38 63 35 64 37 65 36 66 55 67 56 68
REMARK SMILES IDX 60 69 57 70 59 71 58 72 45 73 46 74 50 75 47 76 49 77 48 78
REMARK H PARENT 17 5 6 15 9 17 21 27 65 46 43 57
REMARK Flexibility Score: inf
ROOT
ATOM      1  C   UNL A   1      31.693  28.990  25.522  1.00  0.00     0.117 C 
ENDROOT
BRANCH   1   2
ATOM      2  N   UNL A   1      31.239  29.569  24.280  1.00  0.00    -0.354 N 
ATOM      3  C   UNL A   1      30.803  28.959  23.143  1.00  0.00     0.249 C 
ATOM      4  O   UNL A   1      30.466  29.692  22.208  1.00  0.00    -0.272 OA
ATOM      5  H   UNL A   1      31.244  30.553  24.251  1.00  0.00     0.163 HD
BRANCH   3   6
ATOM      6  C   UNL A   1      30.810  27.418  22.975  1.00  0.00     0.207 C 
ATOM      7  C   UNL A   1      31.332  25.676  24.472  1.00  0.00     0.138 C 
ATOM      8  C   UNL A   1      32.577  25.909  23.631  1.00  0.00     0.037 C 
ATOM      9  O   UNL A   1      30.335  26.618  24.050  1.00  0.00    -0.363 OA
ATOM     10  C   UNL A   1      32.165  26.883  22.551  1.00  0.00     0.045 C 
BRANCH   7  11
ATOM     11  C   UNL A   1      30.846  24.210  24.484  1.00  0.00     0.149 C 
BRANCH  11  12
ATOM     12  N   UNL A   1      30.086  23.838  25.660  1.00  0.00    -0.336 N 
ATOM     13  N   UNL A   1      31.561  22.559  26.994  1.00  0.00    -0.335 N 
ATOM     14  C   UNL A   1      30.393  23.183  26.785  1.00  0.00     0.315 C 
ATOM     15  H   UNL A   1      31.667  22.239  27.919  1.00  0.00     0.165 HD
ATOM     16  O   UNL A   1      29.556  23.162  27.691  1.00  0.00    -0.249 OA
ATOM     17  H   UNL A   1      29.146  24.128  25.623  1.00  0.00     0.165 HD
BRANCH  13  18
ATOM     18  C   UNL A   1      32.707  22.254  26.148  1.00  0.00     0.083 C 
BRANCH  18  19
ATOM     19  C   UNL A   1      34.006  22.402  26.953  1.00  0.00     0.021 C 
ATOM     20  C   UNL A   1      34.948  23.448  26.373  1.00  0.00     0.006 C 
ENDBRANCH  18  19
BRANCH  18  21
ATOM     21  C   UNL A   1      32.519  20.901  25.440  1.00  0.00     0.021 C 
ATOM     22  C   UNL A   1      33.405  20.656  24.231  1.00  0.00     0.006 C 
ENDBRANCH  18  21
ENDBRANCH  13  18
ENDBRANCH  11  12
ENDBRANCH   7  11
ENDBRANCH   3   6
ENDBRANCH   1   2
BRANCH   1  23
ATOM     23  C   UNL A   1      33.214  28.975  25.621  1.00  0.00     0.042 C 
BRANCH  23  24
ATOM     24  C   UNL A   1      33.713  28.970  27.059  1.00  0.00     0.118 C 
BRANCH  24  25
ATOM     25  N   UNL A   1      33.699  30.307  27.639  1.00  0.00    -0.352 N 
ATOM     26  C   UNL A   1      34.609  30.932  28.451  1.00  0.00     0.251 C 
ATOM     27  H   UNL A   1      32.909  30.847  27.410  1.00  0.00     0.163 HD
ATOM     28  O   UNL A   1      34.293  31.967  29.029  1.00  0.00    -0.269 OA
BRANCH  26  29
ATOM     29  C   UNL A   1      35.962  30.368  28.641  1.00  0.00     0.039 A 
ATOM     30  C   UNL A   1      36.870  30.427  27.579  1.00  0.00     0.014 A 
ATOM     31  C   UNL A   1      36.325  29.744  29.836  1.00  0.00     0.014 A 
ATOM     32  C   UNL A   1      38.157  29.910  27.738  1.00  0.00     0.010 A 
ATOM     33  C   UNL A   1      37.631  29.307  30.023  1.00  0.00     0.010 A 
ATOM     34  C   UNL A   1      38.557  29.376  28.973  1.00  0.00    -0.014 A 
BRANCH  34  35
ATOM     35  C   UNL A   1      39.939  28.881  29.185  1.00  0.00     0.031 A 
ATOM     36  C   UNL A   1      40.986  29.790  29.769  1.00  0.00     0.074 A 
ATOM     37  C   UNL A   1      40.264  27.636  28.789  1.00  0.00     0.049 A 
ATOM     38  N   UNL A   1      42.259  29.560  29.967  1.00  0.00    -0.248 NA
ATOM     39  C   UNL A   1      40.552  31.142  30.155  1.00  0.00     0.031 C 
ATOM     40  C   UNL A   1      39.347  26.674  28.172  1.00  0.00     0.029 A 
ATOM     41  N   UNL A   1      41.461  26.967  28.839  1.00  0.00    -0.354 N 
ATOM     42  C   UNL A   1      42.779  30.741  30.481  1.00  0.00     0.074 A 
ATOM     43  C   UNL A   1      41.697  31.701  30.517  1.00  0.00     0.031 C 
ATOM     44  C   UNL A   1      40.007  25.531  27.929  1.00  0.00     0.029 A 
ATOM     45  C   UNL A   1      41.401  25.693  28.329  1.00  0.00     0.049 A 
ATOM     46  H   UNL A   1      42.285  27.362  29.205  1.00  0.00     0.167 HD
ATOM     47  C   UNL A   1      44.040  30.999  30.903  1.00  0.00     0.031 A 
ATOM     48  C   UNL A   1      42.362  24.762  28.192  1.00  0.00     0.031 A 
ATOM     49  C   UNL A   1      45.110  30.038  30.876  1.00  0.00     0.049 A 
ATOM     50  C   UNL A   1      43.756  25.076  28.657  1.00  0.00     0.074 A 
ATOM     51  C   UNL A   1      46.409  30.182  31.333  1.00  0.00     0.029 A 
ATOM     52  N   UNL A   1      45.006  28.756  30.360  1.00  0.00    -0.354 N 
ATOM     53  N   UNL A   1      44.215  26.175  29.204  1.00  0.00    -0.248 NA
ATOM     54  C   UNL A   1      44.761  24.016  28.496  1.00  0.00     0.031 C 
ATOM     55  C   UNL A   1      47.105  29.003  31.046  1.00  0.00     0.029 A 
ATOM     56  C   UNL A   1      46.224  28.105  30.464  1.00  0.00     0.049 A 
ATOM     57  H   UNL A   1      44.187  28.366  29.976  1.00  0.00     0.167 HD
ATOM     58  C   UNL A   1      45.554  25.930  29.479  1.00  0.00     0.074 A 
ATOM     59  C   UNL A   1      45.827  24.573  29.053  1.00  0.00     0.031 C 
ATOM     60  C   UNL A   1      46.476  26.754  30.034  1.00  0.00     0.031 A 
BRANCH  47  61
ATOM     61  C   UNL A   1      44.329  32.380  31.424  1.00  0.00    -0.014 A 
ATOM     62  C   UNL A   1      44.841  33.383  30.585  1.00  0.00     0.009 A 
ATOM     63  C   UNL A   1      44.053  32.693  32.765  1.00  0.00     0.009 A 
ATOM     64  C   UNL A   1      45.105  34.659  31.087  1.00  0.00     0.001 A 
ATOM     65  C   UNL A   1      44.289  33.978  33.256  1.00  0.00     0.001 A 
ATOM     66  C   UNL A   1      44.824  34.958  32.420  1.00  0.00     0.000 A 
ENDBRANCH  47  61
BRANCH  48  67
ATOM     67  C   UNL A   1      42.038  23.437  27.600  1.00  0.00    -0.014 A 
ATOM     68  C   UNL A   1      42.298  23.180  26.245  1.00  0.00     0.009 A 
ATOM     69  C   UNL A   1      41.467  22.424  28.385  1.00  0.00     0.009 A 
ATOM     70  C   UNL A   1      41.965  21.946  25.682  1.00  0.00     0.001 A 
ATOM     71  C   UNL A   1      41.164  21.180  27.827  1.00  0.00     0.001 A 
ATOM     72  C   UNL A   1      41.403  20.946  26.474  1.00  0.00     0.000 A 
ENDBRANCH  48  67
BRANCH  60  73
ATOM     73  C   UNL A   1      47.855  26.197  30.246  1.00  0.00    -0.014 A 
ATOM     74  C   UNL A   1      48.797  26.164  29.207  1.00  0.00     0.009 A 
ATOM     75  C   UNL A   1      48.226  25.733  31.518  1.00  0.00     0.009 A 
ATOM     76  C   UNL A   1      50.074  25.645  29.430  1.00  0.00     0.001 A 
ATOM     77  C   UNL A   1      49.514  25.245  31.745  1.00  0.00     0.001 A 
ATOM     78  C   UNL A   1      50.433  25.191  30.699  1.00  0.00     0.000 A 
ENDBRANCH  60  73
ENDBRANCH  34  35
ENDBRANCH  26  29
ENDBRANCH  24  25
ENDBRANCH  23  24
ENDBRANCH   1  23
TORSDOF 15
ENDMDL
