MODEL 1
REMARK VINA RESULT:      -9.8      0.000      0.000
REMARK SMILES CS(=O)(=O)c1ccc(C2=NN(c3ccc(C(=O)NCCCNC(=O)c4ccc(-c5c6nc(c(-c7ccccc7)c7ccc([nH]7)c(-c7ccccc7)c7nc(c(-c8ccccc8)c8ccc5[nH]8)C=C7)C=C6)cc4)cc3)[C@H](c3ccccc3)C2)cc1
REMARK SMILES IDX 19 1 18 2 16 3 17 4 15 6 12 7 13 8 74 9 14 10 73 11 11 12
REMARK SMILES IDX 9 13 10 14 82 15 75 16 8 17 5 18 6 19 84 20 7 21 83 22 2 23
REMARK SMILES IDX 1 24 3 25 4 26 76 27 77 28 81 29 78 30 80 31 79 32 20 33
REMARK SMILES IDX 21 34 22 35 23 36 24 38 25 39 26 40 72 41 27 42 71 43 28 44
REMARK SMILES IDX 29 45 30 46 65 47 31 48 70 49 64 50 66 51 32 52 69 53 63 54
REMARK SMILES IDX 62 55 33 57 55 58 40 59 54 60 41 61 44 62 53 63 67 64 42 65
REMARK SMILES IDX 43 66 52 68 68 69 45 70 34 71 35 72 39 73 36 74 38 75 37 76
REMARK SMILES IDX 56 77 57 78 61 79 58 80 60 81 59 82 46 83 47 84 51 85 48 86
REMARK SMILES IDX 50 87 49 88
REMARK H PARENT 18 5 22 37 66 56 44 67
REMARK Flexibility Score: inf
ROOT
ATOM      1  C   UNL A   1      35.464  33.897  30.375  1.00  0.00     0.118 C 
ENDROOT
BRANCH   1   2
ATOM      2  N   UNL A   1      34.368  33.748  31.316  1.00  0.00    -0.352 N 
ATOM      3  C   UNL A   1      34.339  33.228  32.587  1.00  0.00     0.251 C 
ATOM      4  O   UNL A   1      33.292  33.295  33.226  1.00  0.00    -0.269 OA
ATOM      5  H   UNL A   1      33.499  34.073  30.988  1.00  0.00     0.163 HD
BRANCH   3   6
ATOM      6  C   UNL A   1      35.554  32.663  33.225  1.00  0.00     0.039 A 
ATOM      7  C   UNL A   1      37.966  31.818  34.394  1.00  0.00     0.060 A 
ATOM      8  C   UNL A   1      37.246  32.880  34.947  1.00  0.00     0.029 A 
ATOM      9  C   UNL A   1      37.415  31.124  33.316  1.00  0.00     0.029 A 
ATOM     10  C   UNL A   1      36.044  33.300  34.371  1.00  0.00     0.016 A 
ATOM     11  C   UNL A   1      36.213  31.532  32.742  1.00  0.00     0.016 A 
BRANCH   7  12
ATOM     12  N   UNL A   1      39.204  31.454  34.880  1.00  0.00    -0.257 N 
ATOM     13  C   UNL A   1      40.761  30.087  35.299  1.00  0.00     0.071 C 
ATOM     14  N   UNL A   1      39.734  30.265  34.530  1.00  0.00    -0.176 NA
ATOM     15  C   UNL A   1      41.003  31.169  36.320  1.00  0.00     0.091 C 
ATOM     16  C   UNL A   1      40.002  32.232  35.829  1.00  0.00     0.144 C 
BRANCH  13  17
ATOM     17  C   UNL A   1      41.604  28.888  35.193  1.00  0.00    -0.002 A 
ATOM     18  C   UNL A   1      43.060  26.530  34.929  1.00  0.00     0.067 A 
ATOM     19  C   UNL A   1      42.412  27.073  33.815  1.00  0.00     0.021 A 
ATOM     20  C   UNL A   1      42.987  27.162  36.175  1.00  0.00     0.021 A 
ATOM     21  C   UNL A   1      41.674  28.246  33.952  1.00  0.00     0.011 A 
ATOM     22  C   UNL A   1      42.261  28.352  36.305  1.00  0.00     0.011 A 
BRANCH  18  23
ATOM     23  S   UNL A   1      43.955  25.017  34.671  1.00  0.00     0.175 S 
ATOM     24  C   UNL A   1      42.928  23.688  35.224  1.00  0.00     0.163 C 
ATOM     25  O   UNL A   1      45.103  25.070  35.559  1.00  0.00    -0.224 OA
ATOM     26  O   UNL A   1      44.117  24.877  33.238  1.00  0.00    -0.224 OA
ENDBRANCH  18  23
ENDBRANCH  13  17
BRANCH  16  27
ATOM     27  C   UNL A   1      40.561  33.495  35.172  1.00  0.00    -0.023 A 
ATOM     28  C   UNL A   1      40.677  33.678  33.786  1.00  0.00     0.006 A 
ATOM     29  C   UNL A   1      40.955  34.565  36.004  1.00  0.00     0.006 A 
ATOM     30  C   UNL A   1      41.176  34.876  33.257  1.00  0.00     0.000 A 
ATOM     31  C   UNL A   1      41.422  35.771  35.476  1.00  0.00     0.000 A 
ATOM     32  C   UNL A   1      41.540  35.924  34.099  1.00  0.00     0.000 A 
ENDBRANCH  16  27
ENDBRANCH   7  12
ENDBRANCH   3   6
ENDBRANCH   1   2
BRANCH   1  33
ATOM     33  C   UNL A   1      34.949  34.215  28.972  1.00  0.00     0.042 C 
BRANCH  33  34
ATOM     34  C   UNL A   1      35.361  33.182  27.933  1.00  0.00     0.118 C 
BRANCH  34  35
ATOM     35  N   UNL A   1      34.436  32.060  27.885  1.00  0.00    -0.352 N 
ATOM     36  C   UNL A   1      34.689  30.712  27.894  1.00  0.00     0.251 C 
ATOM     37  H   UNL A   1      33.485  32.305  27.839  1.00  0.00     0.163 HD
ATOM     38  O   UNL A   1      33.786  29.927  27.621  1.00  0.00    -0.269 OA
BRANCH  36  39
ATOM     39  C   UNL A   1      36.037  30.196  28.225  1.00  0.00     0.039 A 
ATOM     40  C   UNL A   1      36.267  29.704  29.513  1.00  0.00     0.014 A 
ATOM     41  C   UNL A   1      37.086  30.253  27.303  1.00  0.00     0.014 A 
ATOM     42  C   UNL A   1      37.537  29.244  29.866  1.00  0.00     0.010 A 
ATOM     43  C   UNL A   1      38.328  29.717  27.628  1.00  0.00     0.010 A 
ATOM     44  C   UNL A   1      38.576  29.233  28.920  1.00  0.00    -0.014 A 
BRANCH  44  45
ATOM     45  C   UNL A   1      39.938  28.766  29.279  1.00  0.00     0.031 A 
ATOM     46  C   UNL A   1      40.411  27.410  28.823  1.00  0.00     0.074 A 
ATOM     47  C   UNL A   1      40.732  29.536  30.048  1.00  0.00     0.049 A 
ATOM     48  N   UNL A   1      41.542  26.801  29.077  1.00  0.00    -0.248 NA
ATOM     49  C   UNL A   1      39.482  26.625  27.993  1.00  0.00     0.031 C 
ATOM     50  C   UNL A   1      40.380  30.854  30.578  1.00  0.00     0.029 A 
ATOM     51  N   UNL A   1      42.001  29.315  30.522  1.00  0.00    -0.354 N 
ATOM     52  C   UNL A   1      41.447  25.559  28.460  1.00  0.00     0.074 A 
ATOM     53  C   UNL A   1      40.132  25.481  27.864  1.00  0.00     0.031 C 
ATOM     54  C   UNL A   1      41.418  31.337  31.281  1.00  0.00     0.029 A 
ATOM     55  C   UNL A   1      42.490  30.346  31.286  1.00  0.00     0.049 A 
ATOM     56  H   UNL A   1      42.512  28.495  30.332  1.00  0.00     0.167 HD
ATOM     57  C   UNL A   1      42.379  24.579  28.376  1.00  0.00     0.031 A 
ATOM     58  C   UNL A   1      43.668  30.476  31.925  1.00  0.00     0.031 A 
ATOM     59  C   UNL A   1      43.692  24.665  28.956  1.00  0.00     0.049 A 
ATOM     60  C   UNL A   1      44.680  29.367  31.828  1.00  0.00     0.074 A 
ATOM     61  C   UNL A   1      44.726  23.748  28.885  1.00  0.00     0.029 A 
ATOM     62  N   UNL A   1      44.151  25.731  29.713  1.00  0.00    -0.354 N 
ATOM     63  N   UNL A   1      44.599  28.226  31.188  1.00  0.00    -0.248 NA
ATOM     64  C   UNL A   1      45.954  29.575  32.530  1.00  0.00     0.031 C 
ATOM     65  C   UNL A   1      45.794  24.236  29.646  1.00  0.00     0.029 A 
ATOM     66  C   UNL A   1      45.448  25.487  30.133  1.00  0.00     0.049 A 
ATOM     67  H   UNL A   1      43.632  26.541  29.922  1.00  0.00     0.167 HD
ATOM     68  C   UNL A   1      45.823  27.597  31.377  1.00  0.00     0.074 A 
ATOM     69  C   UNL A   1      46.633  28.491  32.180  1.00  0.00     0.031 C 
ATOM     70  C   UNL A   1      46.242  26.391  30.923  1.00  0.00     0.031 A 
BRANCH  57  71
ATOM     71  C   UNL A   1      42.006  23.326  27.633  1.00  0.00    -0.014 A 
ATOM     72  C   UNL A   1      42.368  23.138  26.289  1.00  0.00     0.009 A 
ATOM     73  C   UNL A   1      41.314  22.301  28.297  1.00  0.00     0.009 A 
ATOM     74  C   UNL A   1      42.011  21.966  25.616  1.00  0.00     0.001 A 
ATOM     75  C   UNL A   1      40.988  21.117  27.631  1.00  0.00     0.001 A 
ATOM     76  C   UNL A   1      41.329  20.955  26.290  1.00  0.00     0.000 A 
ENDBRANCH  57  71
BRANCH  58  77
ATOM     77  C   UNL A   1      43.966  31.707  32.704  1.00  0.00    -0.014 A 
ATOM     78  C   UNL A   1      44.406  32.872  32.056  1.00  0.00     0.009 A 
ATOM     79  C   UNL A   1      43.832  31.719  34.101  1.00  0.00     0.009 A 
ATOM     80  C   UNL A   1      44.740  34.010  32.793  1.00  0.00     0.001 A 
ATOM     81  C   UNL A   1      44.135  32.870  34.833  1.00  0.00     0.001 A 
ATOM     82  C   UNL A   1      44.600  34.009  34.181  1.00  0.00     0.000 A 
ENDBRANCH  58  77
BRANCH  70  83
ATOM     83  C   UNL A   1      47.658  25.990  31.234  1.00  0.00    -0.014 A 
ATOM     84  C   UNL A   1      48.022  25.491  32.494  1.00  0.00     0.009 A 
ATOM     85  C   UNL A   1      48.634  26.082  30.230  1.00  0.00     0.009 A 
ATOM     86  C   UNL A   1      49.346  25.127  32.751  1.00  0.00     0.001 A 
ATOM     87  C   UNL A   1      49.949  25.686  30.480  1.00  0.00     0.001 A 
ATOM     88  C   UNL A   1      50.306  25.220  31.743  1.00  0.00     0.000 A 
ENDBRANCH  70  83
ENDBRANCH  44  45
ENDBRANCH  36  39
ENDBRANCH  34  35
ENDBRANCH  33  34
ENDBRANCH   1  33
TORSDOF 14
ENDMDL
MODEL 2
REMARK VINA RESULT:      -9.8      5.196     10.970
REMARK SMILES CS(=O)(=O)c1ccc(C2=NN(c3ccc(C(=O)NCCCNC(=O)c4ccc(-c5c6nc(c(-c7ccccc7)c7ccc([nH]7)c(-c7ccccc7)c7nc(c(-c8ccccc8)c8ccc5[nH]8)C=C7)C=C6)cc4)cc3)[C@H](c3ccccc3)C2)cc1
REMARK SMILES IDX 19 1 18 2 16 3 17 4 15 6 12 7 13 8 74 9 14 10 73 11 11 12
REMARK SMILES IDX 9 13 10 14 82 15 75 16 8 17 5 18 6 19 84 20 7 21 83 22 2 23
REMARK SMILES IDX 1 24 3 25 4 26 76 27 77 28 81 29 78 30 80 31 79 32 20 33
REMARK SMILES IDX 21 34 22 35 23 36 24 38 25 39 26 40 72 41 27 42 71 43 28 44
REMARK SMILES IDX 29 45 30 46 65 47 31 48 70 49 64 50 66 51 32 52 69 53 63 54
REMARK SMILES IDX 62 55 33 57 55 58 40 59 54 60 41 61 44 62 53 63 67 64 42 65
REMARK SMILES IDX 43 66 52 68 68 69 45 70 34 71 35 72 39 73 36 74 38 75 37 76
REMARK SMILES IDX 56 77 57 78 61 79 58 80 60 81 59 82 46 83 47 84 51 85 48 86
REMARK SMILES IDX 50 87 49 88
REMARK H PARENT 18 5 22 37 66 56 44 67
REMARK Flexibility Score: inf
ROOT
ATOM      1  C   UNL A   1      32.042  31.561  27.028  1.00  0.00     0.118 C 
ENDROOT
BRANCH   1   2
ATOM      2  N   UNL A   1      33.265  31.246  27.745  1.00  0.00    -0.352 N 
ATOM      3  C   UNL A   1      34.035  30.107  27.752  1.00  0.00     0.251 C 
ATOM      4  O   UNL A   1      35.090  30.116  28.382  1.00  0.00    -0.269 OA
ATOM      5  H   UNL A   1      33.599  31.968  28.324  1.00  0.00     0.163 HD
BRANCH   3   6
ATOM      6  C   UNL A   1      33.660  28.909  26.962  1.00  0.00     0.039 A 
ATOM      7  C   UNL A   1      32.910  26.795  25.269  1.00  0.00     0.060 A 
ATOM      8  C   UNL A   1      34.028  27.578  24.969  1.00  0.00     0.029 A 
ATOM      9  C   UNL A   1      32.238  27.018  26.472  1.00  0.00     0.029 A 
ATOM     10  C   UNL A   1      34.406  28.628  25.812  1.00  0.00     0.016 A 
ATOM     11  C   UNL A   1      32.615  28.056  27.320  1.00  0.00     0.016 A 
BRANCH   7  12
ATOM     12  N   UNL A   1      32.456  25.824  24.402  1.00  0.00    -0.257 N 
ATOM     13  C   UNL A   1      32.301  23.850  23.662  1.00  0.00     0.071 C 
ATOM     14  N   UNL A   1      32.584  24.523  24.731  1.00  0.00    -0.176 NA
ATOM     15  C   UNL A   1      31.988  24.674  22.439  1.00  0.00     0.091 C 
ATOM     16  C   UNL A   1      31.887  26.073  23.076  1.00  0.00     0.144 C 
BRANCH  13  17
ATOM     17  C   UNL A   1      32.323  22.380  23.648  1.00  0.00    -0.002 A 
ATOM     18  C   UNL A   1      32.530  19.604  23.682  1.00  0.00     0.067 A 
ATOM     19  C   UNL A   1      32.774  20.333  24.852  1.00  0.00     0.021 A 
ATOM     20  C   UNL A   1      32.180  20.258  22.496  1.00  0.00     0.021 A 
ATOM     21  C   UNL A   1      32.681  21.722  24.830  1.00  0.00     0.011 A 
ATOM     22  C   UNL A   1      32.068  21.653  22.482  1.00  0.00     0.011 A 
BRANCH  18  23
ATOM     23  S   UNL A   1      32.699  17.839  23.794  1.00  0.00     0.175 S 
ATOM     24  C   UNL A   1      34.371  17.490  24.247  1.00  0.00     0.163 C 
ATOM     25  O   UNL A   1      32.503  17.330  22.448  1.00  0.00    -0.224 OA
ATOM     26  O   UNL A   1      31.851  17.416  24.889  1.00  0.00    -0.224 OA
ENDBRANCH  18  23
ENDBRANCH  13  17
BRANCH  16  27
ATOM     27  C   UNL A   1      30.503  26.715  23.183  1.00  0.00    -0.023 A 
ATOM     28  C   UNL A   1      29.396  26.106  23.794  1.00  0.00     0.006 A 
ATOM     29  C   UNL A   1      30.326  28.018  22.669  1.00  0.00     0.006 A 
ATOM     30  C   UNL A   1      28.164  26.769  23.875  1.00  0.00     0.000 A 
ATOM     31  C   UNL A   1      29.107  28.690  22.780  1.00  0.00     0.000 A 
ATOM     32  C   UNL A   1      28.021  28.061  23.378  1.00  0.00     0.000 A 
ENDBRANCH  16  27
ENDBRANCH   7  12
ENDBRANCH   3   6
ENDBRANCH   1   2
BRANCH   1  33
ATOM     33  C   UNL A   1      31.863  33.071  26.880  1.00  0.00     0.042 C 
BRANCH  33  34
ATOM     34  C   UNL A   1      33.112  33.863  27.241  1.00  0.00     0.118 C 
BRANCH  34  35
ATOM     35  N   UNL A   1      32.852  34.843  28.284  1.00  0.00    -0.352 N 
ATOM     36  C   UNL A   1      33.388  34.953  29.541  1.00  0.00     0.251 C 
ATOM     37  H   UNL A   1      32.189  35.533  28.052  1.00  0.00     0.163 HD
ATOM     38  O   UNL A   1      32.873  35.717  30.352  1.00  0.00    -0.269 OA
BRANCH  36  39
ATOM     39  C   UNL A   1      34.575  34.158  29.930  1.00  0.00     0.039 A 
ATOM     40  C   UNL A   1      34.403  33.081  30.805  1.00  0.00     0.014 A 
ATOM     41  C   UNL A   1      35.858  34.503  29.493  1.00  0.00     0.014 A 
ATOM     42  C   UNL A   1      35.510  32.336  31.218  1.00  0.00     0.010 A 
ATOM     43  C   UNL A   1      36.948  33.709  29.838  1.00  0.00     0.010 A 
ATOM     44  C   UNL A   1      36.790  32.635  30.725  1.00  0.00    -0.014 A 
BRANCH  44  45
ATOM     45  C   UNL A   1      37.982  31.869  31.166  1.00  0.00     0.031 A 
ATOM     46  C   UNL A   1      38.639  32.193  32.482  1.00  0.00     0.074 A 
ATOM     47  C   UNL A   1      38.501  30.915  30.369  1.00  0.00     0.049 A 
ATOM     48  N   UNL A   1      39.716  31.678  33.019  1.00  0.00    -0.248 NA
ATOM     49  C   UNL A   1      38.017  33.254  33.292  1.00  0.00     0.031 C 
ATOM     50  C   UNL A   1      37.977  30.526  29.058  1.00  0.00     0.029 A 
ATOM     51  N   UNL A   1      39.592  30.101  30.545  1.00  0.00    -0.354 N 
ATOM     52  C   UNL A   1      39.910  32.366  34.211  1.00  0.00     0.074 A 
ATOM     53  C   UNL A   1      38.872  33.369  34.295  1.00  0.00     0.031 C 
ATOM     54  C   UNL A   1      38.730  29.531  28.561  1.00  0.00     0.029 A 
ATOM     55  C   UNL A   1      39.812  29.240  29.497  1.00  0.00     0.049 A 
ATOM     56  H   UNL A   1      40.162  30.130  31.347  1.00  0.00     0.167 HD
ATOM     57  C   UNL A   1      40.854  32.168  35.161  1.00  0.00     0.031 A 
ATOM     58  C   UNL A   1      40.781  28.325  29.308  1.00  0.00     0.031 A 
ATOM     59  C   UNL A   1      41.877  31.159  35.084  1.00  0.00     0.049 A 
ATOM     60  C   UNL A   1      41.826  28.134  30.373  1.00  0.00     0.074 A 
ATOM     61  C   UNL A   1      42.849  30.845  36.016  1.00  0.00     0.029 A 
ATOM     62  N   UNL A   1      42.058  30.302  34.009  1.00  0.00    -0.354 N 
ATOM     63  N   UNL A   1      41.958  28.751  31.523  1.00  0.00    -0.248 NA
ATOM     64  C   UNL A   1      42.846  27.107  30.119  1.00  0.00     0.031 C 
ATOM     65  C   UNL A   1      43.653  29.832  35.482  1.00  0.00     0.029 A 
ATOM     66  C   UNL A   1      43.139  29.471  34.247  1.00  0.00     0.049 A 
ATOM     67  H   UNL A   1      41.501  30.287  33.198  1.00  0.00     0.167 HD
ATOM     68  C   UNL A   1      43.051  28.160  32.146  1.00  0.00     0.074 A 
ATOM     69  C   UNL A   1      43.535  27.128  31.252  1.00  0.00     0.031 C 
ATOM     70  C   UNL A   1      43.602  28.443  33.351  1.00  0.00     0.031 A 
BRANCH  57  71
ATOM     71  C   UNL A   1      40.827  33.066  36.367  1.00  0.00    -0.014 A 
ATOM     72  C   UNL A   1      41.521  34.287  36.384  1.00  0.00     0.009 A 
ATOM     73  C   UNL A   1      40.068  32.705  37.491  1.00  0.00     0.009 A 
ATOM     74  C   UNL A   1      41.484  35.109  37.514  1.00  0.00     0.001 A 
ATOM     75  C   UNL A   1      40.006  33.544  38.606  1.00  0.00     0.001 A 
ATOM     76  C   UNL A   1      40.721  34.739  38.620  1.00  0.00     0.000 A 
ENDBRANCH  57  71
BRANCH  58  77
ATOM     77  C   UNL A   1      40.806  27.506  28.068  1.00  0.00    -0.014 A 
ATOM     78  C   UNL A   1      40.149  26.266  28.018  1.00  0.00     0.009 A 
ATOM     79  C   UNL A   1      41.502  27.948  26.932  1.00  0.00     0.009 A 
ATOM     80  C   UNL A   1      40.220  25.471  26.872  1.00  0.00     0.001 A 
ATOM     81  C   UNL A   1      41.544  27.167  25.775  1.00  0.00     0.001 A 
ATOM     82  C   UNL A   1      40.914  25.924  25.751  1.00  0.00     0.000 A 
ENDBRANCH  58  77
BRANCH  70  83
ATOM     83  C   UNL A   1      44.754  27.588  33.801  1.00  0.00    -0.014 A 
ATOM     84  C   UNL A   1      44.552  26.392  34.506  1.00  0.00     0.009 A 
ATOM     85  C   UNL A   1      46.064  27.973  33.475  1.00  0.00     0.009 A 
ATOM     86  C   UNL A   1      45.644  25.620  34.910  1.00  0.00     0.001 A 
ATOM     87  C   UNL A   1      47.150  27.182  33.850  1.00  0.00     0.001 A 
ATOM     88  C   UNL A   1      46.940  26.012  34.577  1.00  0.00     0.000 A 
ENDBRANCH  70  83
ENDBRANCH  44  45
ENDBRANCH  36  39
ENDBRANCH  34  35
ENDBRANCH  33  34
ENDBRANCH   1  33
TORSDOF 14
ENDMDL
MODEL 3
REMARK VINA RESULT:      -9.6      7.282     12.870
REMARK SMILES CS(=O)(=O)c1ccc(C2=NN(c3ccc(C(=O)NCCCNC(=O)c4ccc(-c5c6nc(c(-c7ccccc7)c7ccc([nH]7)c(-c7ccccc7)c7nc(c(-c8ccccc8)c8ccc5[nH]8)C=C7)C=C6)cc4)cc3)[C@H](c3ccccc3)C2)cc1
REMARK SMILES IDX 19 1 18 2 16 3 17 4 15 6 12 7 13 8 74 9 14 10 73 11 11 12
REMARK SMILES IDX 9 13 10 14 82 15 75 16 8 17 5 18 6 19 84 20 7 21 83 22 2 23
REMARK SMILES IDX 1 24 3 25 4 26 76 27 77 28 81 29 78 30 80 31 79 32 20 33
REMARK SMILES IDX 21 34 22 35 23 36 24 38 25 39 26 40 72 41 27 42 71 43 28 44
REMARK SMILES IDX 29 45 30 46 65 47 31 48 70 49 64 50 66 51 32 52 69 53 63 54
REMARK SMILES IDX 62 55 33 57 55 58 40 59 54 60 41 61 44 62 53 63 67 64 42 65
REMARK SMILES IDX 43 66 52 68 68 69 45 70 34 71 35 72 39 73 36 74 38 75 37 76
REMARK SMILES IDX 56 77 57 78 61 79 58 80 60 81 59 82 46 83 47 84 51 85 48 86
REMARK SMILES IDX 50 87 49 88
REMARK H PARENT 18 5 22 37 66 56 44 67
REMARK Flexibility Score: inf
ROOT
ATOM      1  C   UNL A   1      39.607  24.588  26.449  1.00  0.00     0.118 C 
ENDROOT
BRANCH   1   2
ATOM      2  N   UNL A   1      39.583  23.155  26.212  1.00  0.00    -0.352 N 
ATOM      3  C   UNL A   1      38.565  22.330  25.798  1.00  0.00     0.251 C 
ATOM      4  O   UNL A   1      38.819  21.147  25.581  1.00  0.00    -0.269 OA
ATOM      5  H   UNL A   1      40.439  22.698  26.375  1.00  0.00     0.163 HD
BRANCH   3   6
ATOM      6  C   UNL A   1      37.200  22.848  25.537  1.00  0.00     0.039 A 
ATOM      7  C   UNL A   1      34.524  23.611  25.138  1.00  0.00     0.060 A 
ATOM      8  C   UNL A   1      35.002  23.357  26.426  1.00  0.00     0.029 A 
ATOM      9  C   UNL A   1      35.423  23.577  24.071  1.00  0.00     0.029 A 
ATOM     10  C   UNL A   1      36.333  22.981  26.628  1.00  0.00     0.016 A 
ATOM     11  C   UNL A   1      36.753  23.212  24.266  1.00  0.00     0.016 A 
BRANCH   7  12
ATOM     12  N   UNL A   1      33.192  23.879  24.902  1.00  0.00    -0.257 N 
ATOM     13  C   UNL A   1      31.536  25.144  24.549  1.00  0.00     0.071 C 
ATOM     14  N   UNL A   1      32.827  25.098  24.457  1.00  0.00    -0.176 NA
ATOM     15  C   UNL A   1      30.882  23.920  25.140  1.00  0.00     0.091 C 
ATOM     16  C   UNL A   1      32.085  22.957  25.162  1.00  0.00     0.144 C 
BRANCH  13  17
ATOM     17  C   UNL A   1      30.776  26.332  24.135  1.00  0.00    -0.002 A 
ATOM     18  C   UNL A   1      29.269  28.487  23.220  1.00  0.00     0.067 A 
ATOM     19  C   UNL A   1      28.632  27.284  23.547  1.00  0.00     0.021 A 
ATOM     20  C   UNL A   1      30.655  28.618  23.352  1.00  0.00     0.021 A 
ATOM     21  C   UNL A   1      29.389  26.204  23.994  1.00  0.00     0.011 A 
ATOM     22  C   UNL A   1      31.411  27.536  23.820  1.00  0.00     0.011 A 
BRANCH  18  23
ATOM     23  S   UNL A   1      28.230  29.803  22.633  1.00  0.00     0.175 S 
ATOM     24  C   UNL A   1      28.789  31.301  23.387  1.00  0.00     0.163 C 
ATOM     25  O   UNL A   1      26.901  29.531  23.151  1.00  0.00    -0.224 OA
ATOM     26  O   UNL A   1      28.475  29.912  21.209  1.00  0.00    -0.224 OA
ENDBRANCH  18  23
ENDBRANCH  13  17
BRANCH  16  27
ATOM     27  C   UNL A   1      32.092  21.795  24.168  1.00  0.00    -0.023 A 
ATOM     28  C   UNL A   1      31.871  21.935  22.789  1.00  0.00     0.006 A 
ATOM     29  C   UNL A   1      32.373  20.500  24.653  1.00  0.00     0.006 A 
ATOM     30  C   UNL A   1      31.918  20.823  21.937  1.00  0.00     0.000 A 
ATOM     31  C   UNL A   1      32.452  19.398  23.798  1.00  0.00     0.000 A 
ATOM     32  C   UNL A   1      32.216  19.559  22.437  1.00  0.00     0.000 A 
ENDBRANCH  16  27
ENDBRANCH   7  12
ENDBRANCH   3   6
ENDBRANCH   1   2
BRANCH   1  33
ATOM     33  C   UNL A   1      39.795  24.899  27.933  1.00  0.00     0.042 C 
BRANCH  33  34
ATOM     34  C   UNL A   1      41.255  25.055  28.334  1.00  0.00     0.118 C 
BRANCH  34  35
ATOM     35  N   UNL A   1      42.023  23.847  28.073  1.00  0.00    -0.352 N 
ATOM     36  C   UNL A   1      43.254  23.698  27.488  1.00  0.00     0.251 C 
ATOM     37  H   UNL A   1      41.593  23.010  28.359  1.00  0.00     0.163 HD
ATOM     38  O   UNL A   1      43.631  22.578  27.155  1.00  0.00    -0.269 OA
BRANCH  36  39
ATOM     39  C   UNL A   1      44.128  24.870  27.252  1.00  0.00     0.039 A 
ATOM     40  C   UNL A   1      44.847  25.396  28.329  1.00  0.00     0.014 A 
ATOM     41  C   UNL A   1      44.194  25.489  26.001  1.00  0.00     0.014 A 
ATOM     42  C   UNL A   1      45.652  26.522  28.144  1.00  0.00     0.010 A 
ATOM     43  C   UNL A   1      45.059  26.560  25.798  1.00  0.00     0.010 A 
ATOM     44  C   UNL A   1      45.776  27.105  26.873  1.00  0.00    -0.014 A 
BRANCH  44  45
ATOM     45  C   UNL A   1      46.610  28.313  26.659  1.00  0.00     0.031 A 
ATOM     46  C   UNL A   1      48.094  28.172  26.436  1.00  0.00     0.074 A 
ATOM     47  C   UNL A   1      46.048  29.536  26.708  1.00  0.00     0.049 A 
ATOM     48  N   UNL A   1      49.000  29.104  26.284  1.00  0.00    -0.248 NA
ATOM     49  C   UNL A   1      48.634  26.802  26.404  1.00  0.00     0.031 C 
ATOM     50  C   UNL A   1      44.630  29.810  26.946  1.00  0.00     0.029 A 
ATOM     51  N   UNL A   1      46.607  30.781  26.565  1.00  0.00    -0.354 N 
ATOM     52  C   UNL A   1      50.213  28.435  26.163  1.00  0.00     0.074 A 
ATOM     53  C   UNL A   1      49.935  27.025  26.310  1.00  0.00     0.031 C 
ATOM     54  C   UNL A   1      44.425  31.136  26.906  1.00  0.00     0.029 A 
ATOM     55  C   UNL A   1      45.701  31.808  26.681  1.00  0.00     0.049 A 
ATOM     56  H   UNL A   1      47.566  30.926  26.395  1.00  0.00     0.167 HD
ATOM     57  C   UNL A   1      51.444  28.947  25.927  1.00  0.00     0.031 A 
ATOM     58  C   UNL A   1      45.880  33.141  26.621  1.00  0.00     0.031 A 
ATOM     59  C   UNL A   1      51.717  30.350  25.766  1.00  0.00     0.049 A 
ATOM     60  C   UNL A   1      47.261  33.684  26.373  1.00  0.00     0.074 A 
ATOM     61  C   UNL A   1      52.921  30.966  25.475  1.00  0.00     0.029 A 
ATOM     62  N   UNL A   1      50.769  31.355  25.881  1.00  0.00    -0.354 N 
ATOM     63  N   UNL A   1      48.387  33.034  26.198  1.00  0.00    -0.248 NA
ATOM     64  C   UNL A   1      47.390  35.146  26.297  1.00  0.00     0.031 C 
ATOM     65  C   UNL A   1      52.713  32.348  25.468  1.00  0.00     0.029 A 
ATOM     66  C   UNL A   1      51.366  32.589  25.686  1.00  0.00     0.049 A 
ATOM     67  H   UNL A   1      49.814  31.212  26.072  1.00  0.00     0.167 HD
ATOM     68  C   UNL A   1      49.350  34.006  25.953  1.00  0.00     0.074 A 
ATOM     69  C   UNL A   1      48.672  35.286  25.988  1.00  0.00     0.031 C 
ATOM     70  C   UNL A   1      50.675  33.852  25.715  1.00  0.00     0.031 A 
BRANCH  57  71
ATOM     71  C   UNL A   1      52.593  27.981  25.837  1.00  0.00    -0.014 A 
ATOM     72  C   UNL A   1      52.988  27.428  24.608  1.00  0.00     0.009 A 
ATOM     73  C   UNL A   1      53.317  27.646  26.992  1.00  0.00     0.009 A 
ATOM     74  C   UNL A   1      54.058  26.531  24.544  1.00  0.00     0.001 A 
ATOM     75  C   UNL A   1      54.407  26.776  26.920  1.00  0.00     0.001 A 
ATOM     76  C   UNL A   1      54.770  26.212  25.699  1.00  0.00     0.000 A 
ENDBRANCH  57  71
BRANCH  58  77
ATOM     77  C   UNL A   1      44.723  34.060  26.783  1.00  0.00    -0.014 A 
ATOM     78  C   UNL A   1      44.374  34.551  28.052  1.00  0.00     0.009 A 
ATOM     79  C   UNL A   1      43.950  34.440  25.675  1.00  0.00     0.009 A 
ATOM     80  C   UNL A   1      43.253  35.369  28.211  1.00  0.00     0.001 A 
ATOM     81  C   UNL A   1      42.850  35.286  25.832  1.00  0.00     0.001 A 
ATOM     82  C   UNL A   1      42.495  35.739  27.101  1.00  0.00     0.000 A 
ENDBRANCH  58  77
BRANCH  70  83
ATOM     83  C   UNL A   1      51.471  35.093  25.417  1.00  0.00    -0.014 A 
ATOM     84  C   UNL A   1      52.070  35.846  26.438  1.00  0.00     0.009 A 
ATOM     85  C   UNL A   1      51.653  35.488  24.083  1.00  0.00     0.009 A 
ATOM     86  C   UNL A   1      52.804  36.994  26.128  1.00  0.00     0.001 A 
ATOM     87  C   UNL A   1      52.415  36.616  23.775  1.00  0.00     0.001 A 
ATOM     88  C   UNL A   1      52.980  37.374  24.798  1.00  0.00     0.000 A 
ENDBRANCH  70  83
ENDBRANCH  44  45
ENDBRANCH  36  39
ENDBRANCH  34  35
ENDBRANCH  33  34
ENDBRANCH   1  33
TORSDOF 14
ENDMDL
