MODEL 1
REMARK VINA RESULT:     -11.1      0.000      0.000
REMARK SMILES COc1ccc(-c2nc(NCC(=O)NCCCNC(=O)c3ccc(-c4c5nc(c(-c6ccccc6)c6ccc([nH]6)c(-c6ccccc6)c6nc(c(-c7ccccc7)c7ccc4[nH]7)C=C6)C=C5)cc3)sc2-c2ccc(OC)cc2)cc1
REMARK SMILES IDX 15 1 14 2 12 3 13 4 11 6 10 7 9 9 7 10 8 11 70 12 69 13 6 14
REMARK SMILES IDX 3 15 4 16 80 17 5 18 79 19 2 20 1 21 71 22 72 23 78 24 73 25
REMARK SMILES IDX 77 26 74 27 75 28 76 29 16 30 17 31 18 32 19 33 20 35 21 36
REMARK SMILES IDX 22 37 68 38 23 39 67 40 24 41 25 42 26 43 61 44 27 45 66 46
REMARK SMILES IDX 60 47 62 48 28 49 65 50 59 51 58 52 29 54 51 55 36 56 50 57
REMARK SMILES IDX 37 58 40 59 49 60 63 61 38 62 39 63 48 65 64 66 41 67 30 68
REMARK SMILES IDX 31 69 35 70 32 71 34 72 33 73 52 74 53 75 57 76 54 77 56 78
REMARK SMILES IDX 55 79 42 80 43 81 47 82 44 83 46 84 45 85
REMARK H PARENT 14 5 10 8 18 34 62 53 40 64
REMARK Flexibility Score: inf
ROOT
ATOM      1  C   UNL A   1      32.696  29.304  24.990  1.00  0.00     0.117 C 
ENDROOT
BRANCH   1   2
ATOM      2  N   UNL A   1      31.358  28.753  24.881  1.00  0.00    -0.355 N 
ATOM      3  C   UNL A   1      30.766  28.152  23.804  1.00  0.00     0.239 C 
ATOM      4  O   UNL A   1      29.587  27.807  23.908  1.00  0.00    -0.273 OA
ATOM      5  H   UNL A   1      30.804  28.820  25.691  1.00  0.00     0.163 HD
BRANCH   3   6
ATOM      6  C   UNL A   1      31.574  27.884  22.530  1.00  0.00     0.215 C 
BRANCH   6   7
ATOM      7  N   UNL A   1      31.621  26.466  22.216  1.00  0.00    -0.352 N 
ATOM      8  H   UNL A   1      31.067  26.153  21.463  1.00  0.00     0.163 HD
BRANCH   7   9
ATOM      9  C   UNL A   1      32.355  25.538  22.866  1.00  0.00     0.184 A 
ATOM     10  C   UNL A   1      32.927  23.513  23.565  1.00  0.00     0.091 A 
ATOM     11  N   UNL A   1      31.975  24.282  22.914  1.00  0.00    -0.220 NA
ATOM     12  C   UNL A   1      34.089  24.181  23.918  1.00  0.00     0.064 A 
ATOM     13  S   UNL A   1      33.857  25.854  23.656  1.00  0.00    -0.096 S 
BRANCH  10  14
ATOM     14  C   UNL A   1      32.705  22.101  23.840  1.00  0.00     0.002 A 
ATOM     15  C   UNL A   1      32.188  19.385  24.336  1.00  0.00     0.118 A 
ATOM     16  C   UNL A   1      32.161  19.879  23.033  1.00  0.00     0.047 A 
ATOM     17  C   UNL A   1      32.504  20.244  25.392  1.00  0.00     0.047 A 
ATOM     18  C   UNL A   1      32.412  21.227  22.785  1.00  0.00     0.014 A 
ATOM     19  C   UNL A   1      32.770  21.600  25.143  1.00  0.00     0.014 A 
BRANCH  15  20
ATOM     20  O   UNL A   1      31.943  18.044  24.438  1.00  0.00    -0.497 OA
ATOM     21  C   UNL A   1      32.843  17.308  25.253  1.00  0.00     0.278 C 
ENDBRANCH  15  20
ENDBRANCH  10  14
BRANCH  12  22
ATOM     22  C   UNL A   1      35.369  23.680  24.421  1.00  0.00    -0.006 A 
ATOM     23  C   UNL A   1      35.914  24.132  25.625  1.00  0.00     0.013 A 
ATOM     24  C   UNL A   1      36.064  22.706  23.688  1.00  0.00     0.013 A 
ATOM     25  C   UNL A   1      37.123  23.605  26.091  1.00  0.00     0.047 A 
ATOM     26  C   UNL A   1      37.272  22.179  24.156  1.00  0.00     0.047 A 
ATOM     27  C   UNL A   1      37.801  22.621  25.368  1.00  0.00     0.118 A 
BRANCH  27  28
ATOM     28  O   UNL A   1      38.959  22.179  25.944  1.00  0.00    -0.497 OA
ATOM     29  C   UNL A   1      39.227  20.784  25.852  1.00  0.00     0.278 C 
ENDBRANCH  27  28
ENDBRANCH  12  22
ENDBRANCH   7   9
ENDBRANCH   6   7
ENDBRANCH   3   6
ENDBRANCH   1   2
BRANCH   1  30
ATOM     30  C   UNL A   1      33.620  28.401  25.802  1.00  0.00     0.042 C 
BRANCH  30  31
ATOM     31  C   UNL A   1      33.546  28.662  27.304  1.00  0.00     0.118 C 
BRANCH  31  32
ATOM     32  N   UNL A   1      33.647  30.081  27.629  1.00  0.00    -0.352 N 
ATOM     33  C   UNL A   1      34.655  30.782  28.241  1.00  0.00     0.251 C 
ATOM     34  H   UNL A   1      32.867  30.622  27.369  1.00  0.00     0.163 HD
ATOM     35  O   UNL A   1      34.460  31.940  28.606  1.00  0.00    -0.269 OA
BRANCH  33  36
ATOM     36  C   UNL A   1      35.966  30.150  28.482  1.00  0.00     0.039 A 
ATOM     37  C   UNL A   1      36.916  30.149  27.456  1.00  0.00     0.014 A 
ATOM     38  C   UNL A   1      36.261  29.552  29.710  1.00  0.00     0.014 A 
ATOM     39  C   UNL A   1      38.191  29.635  27.692  1.00  0.00     0.010 A 
ATOM     40  C   UNL A   1      37.552  29.100  29.966  1.00  0.00     0.010 A 
ATOM     41  C   UNL A   1      38.535  29.156  28.967  1.00  0.00    -0.014 A 
BRANCH  41  42
ATOM     42  C   UNL A   1      39.929  28.770  29.297  1.00  0.00     0.031 A 
ATOM     43  C   UNL A   1      40.851  29.740  29.978  1.00  0.00     0.074 A 
ATOM     44  C   UNL A   1      40.389  27.569  28.895  1.00  0.00     0.049 A 
ATOM     45  N   UNL A   1      42.128  29.615  30.241  1.00  0.00    -0.248 NA
ATOM     46  C   UNL A   1      40.271  31.024  30.399  1.00  0.00     0.031 C 
ATOM     47  C   UNL A   1      39.605  26.549  28.194  1.00  0.00     0.029 A 
ATOM     48  N   UNL A   1      41.640  27.012  28.999  1.00  0.00    -0.354 N 
ATOM     49  C   UNL A   1      42.506  30.808  30.845  1.00  0.00     0.074 A 
ATOM     50  C   UNL A   1      41.335  31.657  30.872  1.00  0.00     0.031 C 
ATOM     51  C   UNL A   1      40.387  25.486  27.946  1.00  0.00     0.029 A 
ATOM     52  C   UNL A   1      41.737  25.770  28.419  1.00  0.00     0.049 A 
ATOM     53  H   UNL A   1      42.394  27.460  29.445  1.00  0.00     0.167 HD
ATOM     54  C   UNL A   1      43.716  31.158  31.342  1.00  0.00     0.031 A 
ATOM     55  C   UNL A   1      42.800  24.960  28.261  1.00  0.00     0.031 A 
ATOM     56  C   UNL A   1      44.883  30.316  31.306  1.00  0.00     0.049 A 
ATOM     57  C   UNL A   1      44.145  25.398  28.766  1.00  0.00     0.074 A 
ATOM     58  C   UNL A   1      46.140  30.563  31.832  1.00  0.00     0.029 A 
ATOM     59  N   UNL A   1      44.942  29.072  30.698  1.00  0.00    -0.354 N 
ATOM     60  N   UNL A   1      44.470  26.500  29.396  1.00  0.00    -0.248 NA
ATOM     61  C   UNL A   1      45.269  24.479  28.534  1.00  0.00     0.031 C 
ATOM     62  C   UNL A   1      46.977  29.498  31.485  1.00  0.00     0.029 A 
ATOM     63  C   UNL A   1      46.224  28.557  30.800  1.00  0.00     0.049 A 
ATOM     64  H   UNL A   1      44.185  28.620  30.260  1.00  0.00     0.167 HD
ATOM     65  C   UNL A   1      45.831  26.398  29.653  1.00  0.00     0.074 A 
ATOM     66  C   UNL A   1      46.265  25.121  29.129  1.00  0.00     0.031 C 
ATOM     67  C   UNL A   1      46.647  27.288  30.268  1.00  0.00     0.031 A 
BRANCH  54  68
ATOM     68  C   UNL A   1      43.849  32.527  31.952  1.00  0.00    -0.014 A 
ATOM     69  C   UNL A   1      43.626  32.738  33.322  1.00  0.00     0.009 A 
ATOM     70  C   UNL A   1      44.249  33.610  31.155  1.00  0.00     0.009 A 
ATOM     71  C   UNL A   1      43.768  34.014  33.873  1.00  0.00     0.001 A 
ATOM     72  C   UNL A   1      44.419  34.879  31.714  1.00  0.00     0.001 A 
ATOM     73  C   UNL A   1      44.169  35.081  33.070  1.00  0.00     0.000 A 
ENDBRANCH  54  68
BRANCH  55  74
ATOM     74  C   UNL A   1      42.648  23.658  27.563  1.00  0.00    -0.014 A 
ATOM     75  C   UNL A   1      42.331  22.497  28.282  1.00  0.00     0.009 A 
ATOM     76  C   UNL A   1      42.853  23.569  26.178  1.00  0.00     0.009 A 
ATOM     77  C   UNL A   1      42.252  21.263  27.631  1.00  0.00     0.001 A 
ATOM     78  C   UNL A   1      42.754  22.338  25.528  1.00  0.00     0.001 A 
ATOM     79  C   UNL A   1      42.463  21.186  26.256  1.00  0.00     0.000 A 
ENDBRANCH  55  74
BRANCH  67  80
ATOM     80  C   UNL A   1      48.091  26.903  30.429  1.00  0.00    -0.014 A 
ATOM     81  C   UNL A   1      48.520  26.130  31.519  1.00  0.00     0.009 A 
ATOM     82  C   UNL A   1      49.023  27.270  29.446  1.00  0.00     0.009 A 
ATOM     83  C   UNL A   1      49.859  25.754  31.633  1.00  0.00     0.001 A 
ATOM     84  C   UNL A   1      50.354  26.867  29.547  1.00  0.00     0.001 A 
ATOM     85  C   UNL A   1      50.774  26.115  30.644  1.00  0.00     0.000 A 
ENDBRANCH  67  80
ENDBRANCH  41  42
ENDBRANCH  33  36
ENDBRANCH  31  32
ENDBRANCH  30  31
ENDBRANCH   1  30
TORSDOF 16
ENDMDL
MODEL 2
REMARK VINA RESULT:     -10.8      1.590      2.220
REMARK SMILES COc1ccc(-c2nc(NCC(=O)NCCCNC(=O)c3ccc(-c4c5nc(c(-c6ccccc6)c6ccc([nH]6)c(-c6ccccc6)c6nc(c(-c7ccccc7)c7ccc4[nH]7)C=C6)C=C5)cc3)sc2-c2ccc(OC)cc2)cc1
REMARK SMILES IDX 15 1 14 2 12 3 13 4 11 6 10 7 9 9 7 10 8 11 70 12 69 13 6 14
REMARK SMILES IDX 3 15 4 16 80 17 5 18 79 19 2 20 1 21 71 22 72 23 78 24 73 25
REMARK SMILES IDX 77 26 74 27 75 28 76 29 16 30 17 31 18 32 19 33 20 35 21 36
REMARK SMILES IDX 22 37 68 38 23 39 67 40 24 41 25 42 26 43 61 44 27 45 66 46
REMARK SMILES IDX 60 47 62 48 28 49 65 50 59 51 58 52 29 54 51 55 36 56 50 57
REMARK SMILES IDX 37 58 40 59 49 60 63 61 38 62 39 63 48 65 64 66 41 67 30 68
REMARK SMILES IDX 31 69 35 70 32 71 34 72 33 73 52 74 53 75 57 76 54 77 56 78
REMARK SMILES IDX 55 79 42 80 43 81 47 82 44 83 46 84 45 85
REMARK H PARENT 14 5 10 8 18 34 62 53 40 64
REMARK Flexibility Score: inf
ROOT
ATOM      1  C   UNL A   1      32.390  29.300  24.754  1.00  0.00     0.117 C 
ENDROOT
BRANCH   1   2
ATOM      2  N   UNL A   1      31.236  28.426  24.843  1.00  0.00    -0.355 N 
ATOM      3  C   UNL A   1      30.612  27.729  23.845  1.00  0.00     0.239 C 
ATOM      4  O   UNL A   1      29.599  27.088  24.131  1.00  0.00    -0.273 OA
ATOM      5  H   UNL A   1      30.853  28.319  25.743  1.00  0.00     0.163 HD
BRANCH   3   6
ATOM      6  C   UNL A   1      31.195  27.723  22.428  1.00  0.00     0.215 C 
BRANCH   6   7
ATOM      7  N   UNL A   1      31.478  26.372  21.973  1.00  0.00    -0.352 N 
ATOM      8  H   UNL A   1      31.111  26.107  21.098  1.00  0.00     0.163 HD
BRANCH   7   9
ATOM      9  C   UNL A   1      32.197  25.449  22.644  1.00  0.00     0.184 A 
ATOM     10  C   UNL A   1      32.767  23.425  23.349  1.00  0.00     0.091 A 
ATOM     11  N   UNL A   1      31.833  24.187  22.667  1.00  0.00    -0.220 NA
ATOM     12  C   UNL A   1      33.906  24.104  23.753  1.00  0.00     0.064 A 
ATOM     13  S   UNL A   1      33.663  25.777  23.495  1.00  0.00    -0.096 S 
BRANCH  10  14
ATOM     14  C   UNL A   1      32.553  22.008  23.604  1.00  0.00     0.002 A 
ATOM     15  C   UNL A   1      32.229  19.269  24.131  1.00  0.00     0.118 A 
ATOM     16  C   UNL A   1      32.439  20.166  25.177  1.00  0.00     0.047 A 
ATOM     17  C   UNL A   1      32.151  19.745  22.820  1.00  0.00     0.047 A 
ATOM     18  C   UNL A   1      32.606  21.525  24.917  1.00  0.00     0.014 A 
ATOM     19  C   UNL A   1      32.305  21.115  22.558  1.00  0.00     0.014 A 
BRANCH  15  20
ATOM     20  O   UNL A   1      32.063  17.970  24.525  1.00  0.00    -0.497 OA
ATOM     21  C   UNL A   1      32.727  17.594  25.722  1.00  0.00     0.278 C 
ENDBRANCH  15  20
ENDBRANCH  10  14
BRANCH  12  22
ATOM     22  C   UNL A   1      35.172  23.615  24.302  1.00  0.00    -0.006 A 
ATOM     23  C   UNL A   1      35.969  22.699  23.611  1.00  0.00     0.013 A 
ATOM     24  C   UNL A   1      35.611  24.088  25.548  1.00  0.00     0.013 A 
ATOM     25  C   UNL A   1      37.188  22.281  24.152  1.00  0.00     0.047 A 
ATOM     26  C   UNL A   1      36.832  23.670  26.086  1.00  0.00     0.047 A 
ATOM     27  C   UNL A   1      37.631  22.770  25.383  1.00  0.00     0.118 A 
BRANCH  27  28
ATOM     28  O   UNL A   1      38.847  22.295  25.787  1.00  0.00    -0.497 OA
ATOM     29  C   UNL A   1      39.023  20.883  25.764  1.00  0.00     0.278 C 
ENDBRANCH  27  28
ENDBRANCH  12  22
ENDBRANCH   7   9
ENDBRANCH   6   7
ENDBRANCH   3   6
ENDBRANCH   1   2
BRANCH   1  30
ATOM     30  C   UNL A   1      33.690  28.562  25.065  1.00  0.00     0.042 C 
BRANCH  30  31
ATOM     31  C   UNL A   1      34.303  28.966  26.403  1.00  0.00     0.118 C 
BRANCH  31  32
ATOM     32  N   UNL A   1      34.011  30.352  26.755  1.00  0.00    -0.352 N 
ATOM     33  C   UNL A   1      34.572  31.164  27.708  1.00  0.00     0.251 C 
ATOM     34  H   UNL A   1      33.294  30.771  26.225  1.00  0.00     0.163 HD
ATOM     35  O   UNL A   1      34.043  32.239  27.983  1.00  0.00    -0.269 OA
BRANCH  33  36
ATOM     36  C   UNL A   1      35.795  30.746  28.419  1.00  0.00     0.039 A 
ATOM     37  C   UNL A   1      35.689  29.814  29.456  1.00  0.00     0.014 A 
ATOM     38  C   UNL A   1      37.043  31.274  28.075  1.00  0.00     0.014 A 
ATOM     39  C   UNL A   1      36.843  29.341  30.083  1.00  0.00     0.010 A 
ATOM     40  C   UNL A   1      38.196  30.753  28.654  1.00  0.00     0.010 A 
ATOM     41  C   UNL A   1      38.109  29.767  29.648  1.00  0.00    -0.014 A 
BRANCH  41  42
ATOM     42  C   UNL A   1      39.353  29.151  30.171  1.00  0.00     0.031 A 
ATOM     43  C   UNL A   1      40.045  29.725  31.374  1.00  0.00     0.074 A 
ATOM     44  C   UNL A   1      39.909  28.124  29.498  1.00  0.00     0.049 A 
ATOM     45  N   UNL A   1      41.196  29.387  31.900  1.00  0.00    -0.248 NA
ATOM     46  C   UNL A   1      39.369  30.834  32.062  1.00  0.00     0.031 C 
ATOM     47  C   UNL A   1      39.355  27.496  28.296  1.00  0.00     0.029 A 
ATOM     48  N   UNL A   1      41.079  27.441  29.719  1.00  0.00    -0.354 N 
ATOM     49  C   UNL A   1      41.387  30.251  32.971  1.00  0.00     0.074 A 
ATOM     50  C   UNL A   1      40.255  31.152  32.995  1.00  0.00     0.031 C 
ATOM     51  C   UNL A   1      40.176  26.511  27.895  1.00  0.00     0.029 A 
ATOM     52  C   UNL A   1      41.337  26.475  28.777  1.00  0.00     0.049 A 
ATOM     53  H   UNL A   1      41.677  27.627  30.479  1.00  0.00     0.167 HD
ATOM     54  C   UNL A   1      42.408  30.282  33.862  1.00  0.00     0.031 A 
ATOM     55  C   UNL A   1      42.401  25.666  28.623  1.00  0.00     0.031 A 
ATOM     56  C   UNL A   1      43.537  29.390  33.832  1.00  0.00     0.049 A 
ATOM     57  C   UNL A   1      43.549  25.763  29.587  1.00  0.00     0.074 A 
ATOM     58  C   UNL A   1      44.594  29.310  34.723  1.00  0.00     0.029 A 
ATOM     59  N   UNL A   1      43.765  28.435  32.854  1.00  0.00    -0.354 N 
ATOM     60  N   UNL A   1      43.682  26.537  30.635  1.00  0.00    -0.248 NA
ATOM     61  C   UNL A   1      44.693  24.872  29.344  1.00  0.00     0.031 C 
ATOM     62  C   UNL A   1      45.495  28.352  34.248  1.00  0.00     0.029 A 
ATOM     63  C   UNL A   1      44.967  27.789  33.097  1.00  0.00     0.049 A 
ATOM     64  H   UNL A   1      43.163  28.243  32.099  1.00  0.00     0.167 HD
ATOM     65  C   UNL A   1      44.915  26.215  31.187  1.00  0.00     0.074 A 
ATOM     66  C   UNL A   1      45.480  25.162  30.371  1.00  0.00     0.031 C 
ATOM     67  C   UNL A   1      45.524  26.748  32.274  1.00  0.00     0.031 A 
BRANCH  54  68
ATOM     68  C   UNL A   1      42.361  31.332  34.938  1.00  0.00    -0.014 A 
ATOM     69  C   UNL A   1      42.918  32.605  34.737  1.00  0.00     0.009 A 
ATOM     70  C   UNL A   1      41.709  31.060  36.150  1.00  0.00     0.009 A 
ATOM     71  C   UNL A   1      42.853  33.572  35.744  1.00  0.00     0.001 A 
ATOM     72  C   UNL A   1      41.619  32.038  37.143  1.00  0.00     0.001 A 
ATOM     73  C   UNL A   1      42.199  33.289  36.943  1.00  0.00     0.000 A 
ENDBRANCH  54  68
BRANCH  55  74
ATOM     74  C   UNL A   1      42.453  24.710  27.488  1.00  0.00    -0.014 A 
ATOM     75  C   UNL A   1      42.039  23.381  27.655  1.00  0.00     0.009 A 
ATOM     76  C   UNL A   1      42.950  25.118  26.241  1.00  0.00     0.009 A 
ATOM     77  C   UNL A   1      42.150  22.469  26.603  1.00  0.00     0.001 A 
ATOM     78  C   UNL A   1      43.041  24.210  25.186  1.00  0.00     0.001 A 
ATOM     79  C   UNL A   1      42.650  22.884  25.371  1.00  0.00     0.000 A 
ENDBRANCH  55  74
BRANCH  67  80
ATOM     80  C   UNL A   1      46.863  26.186  32.659  1.00  0.00    -0.014 A 
ATOM     81  C   UNL A   1      48.054  26.745  32.170  1.00  0.00     0.009 A 
ATOM     82  C   UNL A   1      46.934  25.119  33.568  1.00  0.00     0.009 A 
ATOM     83  C   UNL A   1      49.289  26.229  32.567  1.00  0.00     0.001 A 
ATOM     84  C   UNL A   1      48.170  24.626  33.986  1.00  0.00     0.001 A 
ATOM     85  C   UNL A   1      49.348  25.177  33.480  1.00  0.00     0.000 A 
ENDBRANCH  67  80
ENDBRANCH  41  42
ENDBRANCH  33  36
ENDBRANCH  31  32
ENDBRANCH  30  31
ENDBRANCH   1  30
TORSDOF 16
ENDMDL
MODEL 3
REMARK VINA RESULT:     -10.6      4.248      7.235
REMARK SMILES COc1ccc(-c2nc(NCC(=O)NCCCNC(=O)c3ccc(-c4c5nc(c(-c6ccccc6)c6ccc([nH]6)c(-c6ccccc6)c6nc(c(-c7ccccc7)c7ccc4[nH]7)C=C6)C=C5)cc3)sc2-c2ccc(OC)cc2)cc1
REMARK SMILES IDX 15 1 14 2 12 3 13 4 11 6 10 7 9 9 7 10 8 11 70 12 69 13 6 14
REMARK SMILES IDX 3 15 4 16 80 17 5 18 79 19 2 20 1 21 71 22 72 23 78 24 73 25
REMARK SMILES IDX 77 26 74 27 75 28 76 29 16 30 17 31 18 32 19 33 20 35 21 36
REMARK SMILES IDX 22 37 68 38 23 39 67 40 24 41 25 42 26 43 61 44 27 45 66 46
REMARK SMILES IDX 60 47 62 48 28 49 65 50 59 51 58 52 29 54 51 55 36 56 50 57
REMARK SMILES IDX 37 58 40 59 49 60 63 61 38 62 39 63 48 65 64 66 41 67 30 68
REMARK SMILES IDX 31 69 35 70 32 71 34 72 33 73 52 74 53 75 57 76 54 77 56 78
REMARK SMILES IDX 55 79 42 80 43 81 47 82 44 83 46 84 45 85
REMARK H PARENT 14 5 10 8 18 34 62 53 40 64
REMARK Flexibility Score: inf
ROOT
ATOM      1  C   UNL A   1      34.336  35.486  28.458  1.00  0.00     0.117 C 
ENDROOT
BRANCH   1   2
ATOM      2  N   UNL A   1      34.740  34.388  29.316  1.00  0.00    -0.355 N 
ATOM      3  C   UNL A   1      34.430  33.060  29.210  1.00  0.00     0.239 C 
ATOM      4  O   UNL A   1      34.831  32.298  30.091  1.00  0.00    -0.273 OA
ATOM      5  H   UNL A   1      35.315  34.633  30.077  1.00  0.00     0.163 HD
BRANCH   3   6
ATOM      6  C   UNL A   1      33.644  32.547  27.998  1.00  0.00     0.215 C 
BRANCH   6   7
ATOM      7  N   UNL A   1      34.042  31.197  27.637  1.00  0.00    -0.352 N 
ATOM      8  H   UNL A   1      34.949  30.912  27.894  1.00  0.00     0.163 HD
BRANCH   7   9
ATOM      9  C   UNL A   1      33.279  30.300  26.978  1.00  0.00     0.184 A 
ATOM     10  C   UNL A   1      31.949  29.540  25.374  1.00  0.00     0.091 A 
ATOM     11  N   UNL A   1      32.584  30.645  25.919  1.00  0.00    -0.220 NA
ATOM     12  C   UNL A   1      32.257  28.326  25.969  1.00  0.00     0.064 A 
ATOM     13  S   UNL A   1      33.151  28.629  27.394  1.00  0.00    -0.096 S 
BRANCH  10  14
ATOM     14  C   UNL A   1      31.034  29.667  24.250  1.00  0.00     0.002 A 
ATOM     15  C   UNL A   1      29.199  29.876  22.134  1.00  0.00     0.118 A 
ATOM     16  C   UNL A   1      29.019  30.622  23.297  1.00  0.00     0.047 A 
ATOM     17  C   UNL A   1      30.315  29.044  22.015  1.00  0.00     0.047 A 
ATOM     18  C   UNL A   1      29.925  30.516  24.350  1.00  0.00     0.014 A 
ATOM     19  C   UNL A   1      31.237  28.946  23.069  1.00  0.00     0.014 A 
BRANCH  15  20
ATOM     20  O   UNL A   1      28.249  30.087  21.174  1.00  0.00    -0.497 OA
ATOM     21  C   UNL A   1      28.045  31.438  20.788  1.00  0.00     0.278 C 
ENDBRANCH  15  20
ENDBRANCH  10  14
BRANCH  12  22
ATOM     22  C   UNL A   1      31.956  26.954  25.560  1.00  0.00    -0.006 A 
ATOM     23  C   UNL A   1      30.661  26.434  25.625  1.00  0.00     0.013 A 
ATOM     24  C   UNL A   1      32.988  26.138  25.073  1.00  0.00     0.013 A 
ATOM     25  C   UNL A   1      30.405  25.129  25.193  1.00  0.00     0.047 A 
ATOM     26  C   UNL A   1      32.730  24.833  24.640  1.00  0.00     0.047 A 
ATOM     27  C   UNL A   1      31.432  24.327  24.690  1.00  0.00     0.118 A 
BRANCH  27  28
ATOM     28  O   UNL A   1      31.043  23.081  24.285  1.00  0.00    -0.497 OA
ATOM     29  C   UNL A   1      31.767  22.505  23.204  1.00  0.00     0.278 C 
ENDBRANCH  27  28
ENDBRANCH  12  22
ENDBRANCH   7   9
ENDBRANCH   6   7
ENDBRANCH   3   6
ENDBRANCH   1   2
BRANCH   1  30
ATOM     30  C   UNL A   1      33.299  36.382  29.128  1.00  0.00     0.042 C 
BRANCH  30  31
ATOM     31  C   UNL A   1      32.538  35.684  30.252  1.00  0.00     0.118 C 
BRANCH  31  32
ATOM     32  N   UNL A   1      32.509  36.473  31.480  1.00  0.00    -0.352 N 
ATOM     33  C   UNL A   1      33.192  36.305  32.658  1.00  0.00     0.251 C 
ATOM     34  H   UNL A   1      31.903  37.248  31.460  1.00  0.00     0.163 HD
ATOM     35  O   UNL A   1      32.873  36.964  33.647  1.00  0.00    -0.269 OA
BRANCH  33  36
ATOM     36  C   UNL A   1      34.290  35.326  32.754  1.00  0.00     0.039 A 
ATOM     37  C   UNL A   1      35.568  35.700  32.328  1.00  0.00     0.014 A 
ATOM     38  C   UNL A   1      34.066  34.040  33.253  1.00  0.00     0.014 A 
ATOM     39  C   UNL A   1      36.639  34.819  32.491  1.00  0.00     0.010 A 
ATOM     40  C   UNL A   1      35.143  33.188  33.477  1.00  0.00     0.010 A 
ATOM     41  C   UNL A   1      36.442  33.577  33.117  1.00  0.00    -0.014 A 
BRANCH  41  42
ATOM     42  C   UNL A   1      37.586  32.698  33.465  1.00  0.00     0.031 A 
ATOM     43  C   UNL A   1      38.380  32.933  34.717  1.00  0.00     0.074 A 
ATOM     44  C   UNL A   1      37.964  31.741  32.595  1.00  0.00     0.049 A 
ATOM     45  N   UNL A   1      39.474  32.339  35.122  1.00  0.00    -0.248 NA
ATOM     46  C   UNL A   1      37.895  33.986  35.622  1.00  0.00     0.031 C 
ATOM     47  C   UNL A   1      37.299  31.432  31.327  1.00  0.00     0.029 A 
ATOM     48  N   UNL A   1      39.019  30.863  32.637  1.00  0.00    -0.354 N 
ATOM     49  C   UNL A   1      39.816  32.954  36.319  1.00  0.00     0.074 A 
ATOM     50  C   UNL A   1      38.837  33.993  36.555  1.00  0.00     0.031 C 
ATOM     51  C   UNL A   1      37.951  30.427  30.720  1.00  0.00     0.029 A 
ATOM     52  C   UNL A   1      39.108  30.058  31.527  1.00  0.00     0.049 A 
ATOM     53  H   UNL A   1      39.652  30.816  33.389  1.00  0.00     0.167 HD
ATOM     54  C   UNL A   1      40.845  32.670  37.153  1.00  0.00     0.031 A 
ATOM     55  C   UNL A   1      40.032  29.143  31.183  1.00  0.00     0.031 A 
ATOM     56  C   UNL A   1      41.823  31.641  36.914  1.00  0.00     0.049 A 
ATOM     57  C   UNL A   1      41.198  28.890  32.095  1.00  0.00     0.074 A 
ATOM     58  C   UNL A   1      42.871  31.244  37.727  1.00  0.00     0.029 A 
ATOM     59  N   UNL A   1      41.884  30.858  35.772  1.00  0.00    -0.354 N 
ATOM     60  N   UNL A   1      41.468  29.431  33.257  1.00  0.00    -0.248 NA
ATOM     61  C   UNL A   1      42.187  27.899  31.645  1.00  0.00     0.031 C 
ATOM     62  C   UNL A   1      43.605  30.266  37.048  1.00  0.00     0.029 A 
ATOM     63  C   UNL A   1      42.976  30.008  35.841  1.00  0.00     0.049 A 
ATOM     64  H   UNL A   1      41.245  30.898  35.023  1.00  0.00     0.167 HD
ATOM     65  C   UNL A   1      42.647  28.834  33.686  1.00  0.00     0.074 A 
ATOM     66  C   UNL A   1      43.028  27.876  32.670  1.00  0.00     0.031 C 
ATOM     67  C   UNL A   1      43.350  29.064  34.821  1.00  0.00     0.031 A 
BRANCH  54  68
ATOM     68  C   UNL A   1      40.981  33.501  38.400  1.00  0.00    -0.014 A 
ATOM     69  C   UNL A   1      41.732  34.686  38.406  1.00  0.00     0.009 A 
ATOM     70  C   UNL A   1      40.308  33.117  39.570  1.00  0.00     0.009 A 
ATOM     71  C   UNL A   1      41.835  35.452  39.571  1.00  0.00     0.001 A 
ATOM     72  C   UNL A   1      40.388  33.900  40.724  1.00  0.00     0.001 A 
ATOM     73  C   UNL A   1      41.159  35.061  40.726  1.00  0.00     0.000 A 
ENDBRANCH  54  68
BRANCH  55  74
ATOM     74  C   UNL A   1      39.915  28.413  29.895  1.00  0.00    -0.014 A 
ATOM     75  C   UNL A   1      39.326  27.142  29.846  1.00  0.00     0.009 A 
ATOM     76  C   UNL A   1      40.425  28.975  28.714  1.00  0.00     0.009 A 
ATOM     77  C   UNL A   1      39.276  26.433  28.643  1.00  0.00     0.001 A 
ATOM     78  C   UNL A   1      40.356  28.272  27.511  1.00  0.00     0.001 A 
ATOM     79  C   UNL A   1      39.790  26.998  27.479  1.00  0.00     0.000 A 
ENDBRANCH  55  74
BRANCH  67  80
ATOM     80  C   UNL A   1      44.594  28.248  35.038  1.00  0.00    -0.014 A 
ATOM     81  C   UNL A   1      45.855  28.730  34.655  1.00  0.00     0.009 A 
ATOM     82  C   UNL A   1      44.506  27.006  35.686  1.00  0.00     0.009 A 
ATOM     83  C   UNL A   1      47.002  27.971  34.896  1.00  0.00     0.001 A 
ATOM     84  C   UNL A   1      45.657  26.265  35.953  1.00  0.00     0.001 A 
ATOM     85  C   UNL A   1      46.904  26.744  35.552  1.00  0.00     0.000 A 
ENDBRANCH  67  80
ENDBRANCH  41  42
ENDBRANCH  33  36
ENDBRANCH  31  32
ENDBRANCH  30  31
ENDBRANCH   1  30
TORSDOF 16
ENDMDL
