MODEL 1
REMARK VINA RESULT:     -10.8      0.000      0.000
REMARK SMILES O=C(NCCCNC(=O)[C@]1(CCc2ccccc2)C[C@H]2CC[C@@H]1O2)c1ccc(-c2c3nc(c(-c4ccccc4)c4ccc([nH]4)c(-c4ccccc4)c4nc(c(-c5ccccc5)c5ccc2[nH]5)C=C4)C=C3)cc1
REMARK SMILES IDX 5 1 4 2 3 3 1 4 2 5 25 7 26 8 72 9 27 10 71 11 28 12 29 13
REMARK SMILES IDX 30 14 65 15 31 16 70 17 64 18 66 19 32 20 69 21 63 22 62 23
REMARK SMILES IDX 33 25 55 26 40 27 54 28 41 29 44 30 53 31 67 32 42 33 43 34
REMARK SMILES IDX 52 36 68 37 45 38 34 39 35 40 39 41 36 42 38 43 37 44 56 45
REMARK SMILES IDX 57 46 61 47 58 48 60 49 59 50 46 51 47 52 51 53 48 54 50 55
REMARK SMILES IDX 49 56 6 57 7 58 8 59 9 61 10 62 19 63 23 64 20 65 22 66
REMARK SMILES IDX 24 67 21 68 11 69 12 70 13 71 14 72 18 73 15 74 17 75 16 76
REMARK H PARENT 3 6 66 24 44 35 7 60
REMARK Flexibility Score: inf
ROOT
ATOM      1  C   UNL A   1      33.798  27.968  25.700  1.00  0.00     0.042 C 
ENDROOT
BRANCH   1   2
ATOM      2  C   UNL A   1      33.774  28.311  27.185  1.00  0.00     0.118 C 
BRANCH   2   3
ATOM      3  N   UNL A   1      33.674  29.755  27.398  1.00  0.00    -0.352 N 
ATOM      4  O   UNL A   1      34.151  31.710  28.417  1.00  0.00    -0.269 OA
ATOM      5  C   UNL A   1      34.522  30.589  28.071  1.00  0.00     0.251 C 
ATOM      6  H   UNL A   1      32.884  30.186  27.001  1.00  0.00     0.163 HD
BRANCH   5   7
ATOM      7  C   UNL A   1      35.888  30.132  28.368  1.00  0.00     0.039 A 
ATOM      8  C   UNL A   1      36.873  30.209  27.378  1.00  0.00     0.014 A 
ATOM      9  C   UNL A   1      36.188  29.643  29.639  1.00  0.00     0.014 A 
ATOM     10  C   UNL A   1      38.129  29.677  27.616  1.00  0.00     0.010 A 
ATOM     11  C   UNL A   1      37.479  29.194  29.906  1.00  0.00     0.010 A 
ATOM     12  C   UNL A   1      38.449  29.190  28.890  1.00  0.00    -0.014 A 
BRANCH  12  13
ATOM     13  C   UNL A   1      39.825  28.737  29.176  1.00  0.00     0.031 A 
ATOM     14  C   UNL A   1      40.818  29.667  29.800  1.00  0.00     0.074 A 
ATOM     15  C   UNL A   1      40.174  27.484  28.829  1.00  0.00     0.049 A 
ATOM     16  N   UNL A   1      42.094  29.480  30.021  1.00  0.00    -0.248 NA
ATOM     17  C   UNL A   1      40.318  30.986  30.216  1.00  0.00     0.031 C 
ATOM     18  C   UNL A   1      39.276  26.493  28.229  1.00  0.00     0.029 A 
ATOM     19  N   UNL A   1      41.376  26.834  28.921  1.00  0.00    -0.354 N 
ATOM     20  C   UNL A   1      42.556  30.666  30.573  1.00  0.00     0.074 A 
ATOM     21  C   UNL A   1      41.430  31.574  30.632  1.00  0.00     0.031 C 
ATOM     22  C   UNL A   1      39.955  25.358  28.019  1.00  0.00     0.029 A 
ATOM     23  C   UNL A   1      41.346  25.566  28.398  1.00  0.00     0.049 A 
ATOM     24  H   UNL A   1      42.179  27.236  29.323  1.00  0.00     0.167 HD
ATOM     25  C   UNL A   1      43.810  30.967  30.987  1.00  0.00     0.031 A 
ATOM     26  C   UNL A   1      42.340  24.683  28.200  1.00  0.00     0.031 A 
ATOM     27  C   UNL A   1      44.921  30.054  30.902  1.00  0.00     0.049 A 
ATOM     28  C   UNL A   1      43.731  25.057  28.612  1.00  0.00     0.074 A 
ATOM     29  C   UNL A   1      46.227  30.243  31.316  1.00  0.00     0.029 A 
ATOM     30  N   UNL A   1      44.855  28.781  30.353  1.00  0.00    -0.354 N 
ATOM     31  N   UNL A   1      44.156  26.172  29.156  1.00  0.00    -0.248 NA
ATOM     32  C   UNL A   1      44.779  24.054  28.388  1.00  0.00     0.031 C 
ATOM     33  C   UNL A   1      46.965  29.110  30.957  1.00  0.00     0.029 A 
ATOM     34  C   UNL A   1      46.103  28.184  30.390  1.00  0.00     0.049 A 
ATOM     35  H   UNL A   1      44.040  28.363  29.991  1.00  0.00     0.167 HD
ATOM     36  C   UNL A   1      45.515  25.996  29.370  1.00  0.00     0.074 A 
ATOM     37  C   UNL A   1      45.842  24.664  28.899  1.00  0.00     0.031 C 
ATOM     38  C   UNL A   1      46.407  26.856  29.917  1.00  0.00     0.031 A 
BRANCH  25  39
ATOM     39  C   UNL A   1      44.050  32.357  31.510  1.00  0.00    -0.014 A 
ATOM     40  C   UNL A   1      43.914  32.669  32.872  1.00  0.00     0.009 A 
ATOM     41  C   UNL A   1      44.423  33.376  30.619  1.00  0.00     0.009 A 
ATOM     42  C   UNL A   1      44.092  33.979  33.322  1.00  0.00     0.001 A 
ATOM     43  C   UNL A   1      44.634  34.679  31.075  1.00  0.00     0.001 A 
ATOM     44  C   UNL A   1      44.454  34.982  32.424  1.00  0.00     0.000 A 
ENDBRANCH  25  39
BRANCH  26  45
ATOM     45  C   UNL A   1      42.033  23.377  27.563  1.00  0.00    -0.014 A 
ATOM     46  C   UNL A   1      42.369  23.138  26.223  1.00  0.00     0.009 A 
ATOM     47  C   UNL A   1      41.459  22.338  28.316  1.00  0.00     0.009 A 
ATOM     48  C   UNL A   1      42.126  21.889  25.647  1.00  0.00     0.001 A 
ATOM     49  C   UNL A   1      41.246  21.082  27.746  1.00  0.00     0.001 A 
ATOM     50  C   UNL A   1      41.575  20.861  26.410  1.00  0.00     0.000 A 
ENDBRANCH  26  45
BRANCH  38  51
ATOM     51  C   UNL A   1      47.817  26.367  30.091  1.00  0.00    -0.014 A 
ATOM     52  C   UNL A   1      48.257  25.805  31.298  1.00  0.00     0.009 A 
ATOM     53  C   UNL A   1      48.696  26.407  28.997  1.00  0.00     0.009 A 
ATOM     54  C   UNL A   1      49.557  25.309  31.411  1.00  0.00     0.001 A 
ATOM     55  C   UNL A   1      49.984  25.884  29.102  1.00  0.00     0.001 A 
ATOM     56  C   UNL A   1      50.416  25.341  30.311  1.00  0.00     0.000 A 
ENDBRANCH  38  51
ENDBRANCH  12  13
ENDBRANCH   5   7
ENDBRANCH   2   3
ENDBRANCH   1   2
BRANCH   1  57
ATOM     57  C   UNL A   1      32.388  27.778  25.167  1.00  0.00     0.117 C 
BRANCH  57  58
ATOM     58  N   UNL A   1      31.656  26.828  25.977  1.00  0.00    -0.355 N 
ATOM     59  C   UNL A   1      31.605  25.475  26.004  1.00  0.00     0.228 C 
ATOM     60  H   UNL A   1      31.075  27.254  26.648  1.00  0.00     0.163 HD
ATOM     61  O   UNL A   1      30.873  24.993  26.879  1.00  0.00    -0.274 OA
BRANCH  59  62
ATOM     62  C   UNL A   1      32.483  24.560  25.132  1.00  0.00     0.078 C 
ATOM     63  C   UNL A   1      32.706  24.958  23.655  1.00  0.00     0.051 C 
ATOM     64  C   UNL A   1      31.614  23.274  24.908  1.00  0.00     0.134 C 
ATOM     65  C   UNL A   1      31.910  23.922  22.864  1.00  0.00     0.120 C 
ATOM     66  C   UNL A   1      32.358  22.090  24.284  1.00  0.00     0.036 C 
ATOM     67  O   UNL A   1      30.810  23.679  23.760  1.00  0.00    -0.374 OA
ATOM     68  C   UNL A   1      32.616  22.577  22.860  1.00  0.00     0.035 C 
BRANCH  62  69
ATOM     69  C   UNL A   1      33.787  24.236  25.925  1.00  0.00     0.024 C 
BRANCH  69  70
ATOM     70  C   UNL A   1      35.157  24.617  25.315  1.00  0.00     0.037 C 
BRANCH  70  71
ATOM     71  C   UNL A   1      36.223  23.547  25.258  1.00  0.00    -0.048 A 
ATOM     72  C   UNL A   1      37.444  23.739  25.921  1.00  0.00     0.004 A 
ATOM     73  C   UNL A   1      36.034  22.348  24.560  1.00  0.00     0.004 A 
ATOM     74  C   UNL A   1      38.377  22.702  26.026  1.00  0.00     0.000 A 
ATOM     75  C   UNL A   1      36.983  21.322  24.636  1.00  0.00     0.000 A 
ATOM     76  C   UNL A   1      38.136  21.486  25.398  1.00  0.00     0.000 A 
ENDBRANCH  70  71
ENDBRANCH  69  70
ENDBRANCH  62  69
ENDBRANCH  59  62
ENDBRANCH  57  58
ENDBRANCH   1  57
TORSDOF 13
ENDMDL
MODEL 2
REMARK VINA RESULT:     -10.6      2.474      7.665
REMARK SMILES O=C(NCCCNC(=O)[C@]1(CCc2ccccc2)C[C@H]2CC[C@@H]1O2)c1ccc(-c2c3nc(c(-c4ccccc4)c4ccc([nH]4)c(-c4ccccc4)c4nc(c(-c5ccccc5)c5ccc2[nH]5)C=C4)C=C3)cc1
REMARK SMILES IDX 5 1 4 2 3 3 1 4 2 5 25 7 26 8 72 9 27 10 71 11 28 12 29 13
REMARK SMILES IDX 30 14 65 15 31 16 70 17 64 18 66 19 32 20 69 21 63 22 62 23
REMARK SMILES IDX 33 25 55 26 40 27 54 28 41 29 44 30 53 31 67 32 42 33 43 34
REMARK SMILES IDX 52 36 68 37 45 38 34 39 35 40 39 41 36 42 38 43 37 44 56 45
REMARK SMILES IDX 57 46 61 47 58 48 60 49 59 50 46 51 47 52 51 53 48 54 50 55
REMARK SMILES IDX 49 56 6 57 7 58 8 59 9 61 10 62 19 63 23 64 20 65 22 66
REMARK SMILES IDX 24 67 21 68 11 69 12 70 13 71 14 72 18 73 15 74 17 75 16 76
REMARK H PARENT 3 6 66 24 44 35 7 60
REMARK Flexibility Score: inf
ROOT
ATOM      1  C   UNL A   1      35.349  23.343  26.514  1.00  0.00     0.042 C 
ENDROOT
BRANCH   1   2
ATOM      2  C   UNL A   1      36.617  23.693  25.744  1.00  0.00     0.118 C 
BRANCH   2   3
ATOM      3  N   UNL A   1      37.663  22.692  25.954  1.00  0.00    -0.352 N 
ATOM      4  O   UNL A   1      39.788  21.966  26.158  1.00  0.00    -0.269 OA
ATOM      5  C   UNL A   1      38.969  22.869  26.315  1.00  0.00     0.251 C 
ATOM      6  H   UNL A   1      37.386  21.758  25.814  1.00  0.00     0.163 HD
BRANCH   5   7
ATOM      7  C   UNL A   1      39.378  24.153  26.905  1.00  0.00     0.039 A 
ATOM      8  C   UNL A   1      39.075  24.428  28.243  1.00  0.00     0.014 A 
ATOM      9  C   UNL A   1      40.079  25.073  26.127  1.00  0.00     0.014 A 
ATOM     10  C   UNL A   1      39.359  25.677  28.768  1.00  0.00     0.010 A 
ATOM     11  C   UNL A   1      40.447  26.295  26.686  1.00  0.00     0.010 A 
ATOM     12  C   UNL A   1      40.070  26.610  28.002  1.00  0.00    -0.014 A 
BRANCH  12  13
ATOM     13  C   UNL A   1      40.478  27.894  28.607  1.00  0.00     0.031 A 
ATOM     14  C   UNL A   1      41.856  28.067  29.167  1.00  0.00     0.074 A 
ATOM     15  C   UNL A   1      39.574  28.887  28.675  1.00  0.00     0.049 A 
ATOM     16  N   UNL A   1      42.352  29.079  29.831  1.00  0.00    -0.248 NA
ATOM     17  C   UNL A   1      42.795  26.952  28.971  1.00  0.00     0.031 C 
ATOM     18  C   UNL A   1      38.209  28.826  28.145  1.00  0.00     0.029 A 
ATOM     19  N   UNL A   1      39.662  30.138  29.227  1.00  0.00    -0.354 N 
ATOM     20  C   UNL A   1      43.650  28.712  30.158  1.00  0.00     0.074 A 
ATOM     21  C   UNL A   1      43.857  27.376  29.640  1.00  0.00     0.031 C 
ATOM     22  C   UNL A   1      37.592  29.990  28.385  1.00  0.00     0.029 A 
ATOM     23  C   UNL A   1      38.489  30.847  29.150  1.00  0.00     0.049 A 
ATOM     24  H   UNL A   1      40.483  30.493  29.636  1.00  0.00     0.167 HD
ATOM     25  C   UNL A   1      44.579  29.428  30.834  1.00  0.00     0.031 A 
ATOM     26  C   UNL A   1      38.155  32.038  29.676  1.00  0.00     0.031 A 
ATOM     27  C   UNL A   1      44.347  30.750  31.356  1.00  0.00     0.049 A 
ATOM     28  C   UNL A   1      39.180  32.788  30.471  1.00  0.00     0.074 A 
ATOM     29  C   UNL A   1      45.225  31.578  32.033  1.00  0.00     0.029 A 
ATOM     30  N   UNL A   1      43.140  31.431  31.269  1.00  0.00    -0.354 N 
ATOM     31  N   UNL A   1      40.413  32.446  30.755  1.00  0.00    -0.248 NA
ATOM     32  C   UNL A   1      38.773  34.089  31.014  1.00  0.00     0.031 C 
ATOM     33  C   UNL A   1      44.530  32.731  32.412  1.00  0.00     0.029 A 
ATOM     34  C   UNL A   1      43.241  32.656  31.906  1.00  0.00     0.049 A 
ATOM     35  H   UNL A   1      42.332  31.093  30.821  1.00  0.00     0.167 HD
ATOM     36  C   UNL A   1      40.942  33.501  31.483  1.00  0.00     0.074 A 
ATOM     37  C   UNL A   1      39.895  34.497  31.594  1.00  0.00     0.031 C 
ATOM     38  C   UNL A   1      42.186  33.635  32.003  1.00  0.00     0.031 A 
BRANCH  25  39
ATOM     39  C   UNL A   1      45.906  28.767  31.094  1.00  0.00    -0.014 A 
ATOM     40  C   UNL A   1      46.135  27.994  32.244  1.00  0.00     0.009 A 
ATOM     41  C   UNL A   1      46.948  28.920  30.166  1.00  0.00     0.009 A 
ATOM     42  C   UNL A   1      47.392  27.435  32.484  1.00  0.00     0.001 A 
ATOM     43  C   UNL A   1      48.194  28.332  30.392  1.00  0.00     0.001 A 
ATOM     44  C   UNL A   1      48.419  27.603  31.558  1.00  0.00     0.000 A 
ENDBRANCH  25  39
BRANCH  26  45
ATOM     45  C   UNL A   1      36.780  32.561  29.472  1.00  0.00    -0.014 A 
ATOM     46  C   UNL A   1      35.792  32.370  30.448  1.00  0.00     0.009 A 
ATOM     47  C   UNL A   1      36.470  33.312  28.326  1.00  0.00     0.009 A 
ATOM     48  C   UNL A   1      34.516  32.912  30.273  1.00  0.00     0.001 A 
ATOM     49  C   UNL A   1      35.204  33.877  28.170  1.00  0.00     0.001 A 
ATOM     50  C   UNL A   1      34.226  33.672  29.141  1.00  0.00     0.000 A 
ENDBRANCH  26  45
BRANCH  38  51
ATOM     51  C   UNL A   1      42.508  34.930  32.694  1.00  0.00    -0.014 A 
ATOM     52  C   UNL A   1      42.122  35.172  34.020  1.00  0.00     0.009 A 
ATOM     53  C   UNL A   1      43.277  35.893  32.021  1.00  0.00     0.009 A 
ATOM     54  C   UNL A   1      42.484  36.362  34.653  1.00  0.00     0.001 A 
ATOM     55  C   UNL A   1      43.663  37.068  32.664  1.00  0.00     0.001 A 
ATOM     56  C   UNL A   1      43.261  37.305  33.978  1.00  0.00     0.000 A 
ENDBRANCH  38  51
ENDBRANCH  12  13
ENDBRANCH   5   7
ENDBRANCH   2   3
ENDBRANCH   1   2
BRANCH   1  57
ATOM     57  C   UNL A   1      34.308  22.734  25.590  1.00  0.00     0.117 C 
BRANCH  57  58
ATOM     58  N   UNL A   1      34.481  23.210  24.234  1.00  0.00    -0.355 N 
ATOM     59  C   UNL A   1      33.922  24.219  23.525  1.00  0.00     0.228 C 
ATOM     60  H   UNL A   1      35.144  22.693  23.721  1.00  0.00     0.163 HD
ATOM     61  O   UNL A   1      34.351  24.353  22.371  1.00  0.00    -0.274 OA
BRANCH  59  62
ATOM     62  C   UNL A   1      32.931  25.241  24.110  1.00  0.00     0.078 C 
ATOM     63  C   UNL A   1      31.822  24.719  25.053  1.00  0.00     0.051 C 
ATOM     64  C   UNL A   1      32.036  25.665  22.895  1.00  0.00     0.134 C 
ATOM     65  C   UNL A   1      30.539  24.863  24.236  1.00  0.00     0.120 C 
ATOM     66  C   UNL A   1      31.129  26.873  23.149  1.00  0.00     0.036 C 
ATOM     67  O   UNL A   1      31.031  24.609  22.908  1.00  0.00    -0.374 OA
ATOM     68  C   UNL A   1      30.111  26.317  24.141  1.00  0.00     0.035 C 
BRANCH  62  69
ATOM     69  C   UNL A   1      33.747  26.448  24.667  1.00  0.00     0.024 C 
BRANCH  69  70
ATOM     70  C   UNL A   1      33.707  26.753  26.184  1.00  0.00     0.037 C 
BRANCH  70  71
ATOM     71  C   UNL A   1      33.375  28.166  26.607  1.00  0.00    -0.048 A 
ATOM     72  C   UNL A   1      34.382  28.997  27.120  1.00  0.00     0.004 A 
ATOM     73  C   UNL A   1      32.080  28.688  26.501  1.00  0.00     0.004 A 
ATOM     74  C   UNL A   1      34.142  30.354  27.360  1.00  0.00     0.000 A 
ATOM     75  C   UNL A   1      31.831  30.037  26.775  1.00  0.00     0.000 A 
ATOM     76  C   UNL A   1      32.868  30.877  27.169  1.00  0.00     0.000 A 
ENDBRANCH  70  71
ENDBRANCH  69  70
ENDBRANCH  62  69
ENDBRANCH  59  62
ENDBRANCH  57  58
ENDBRANCH   1  57
TORSDOF 13
ENDMDL
MODEL 3
REMARK VINA RESULT:     -10.6      2.737      7.161
REMARK SMILES O=C(NCCCNC(=O)[C@]1(CCc2ccccc2)C[C@H]2CC[C@@H]1O2)c1ccc(-c2c3nc(c(-c4ccccc4)c4ccc([nH]4)c(-c4ccccc4)c4nc(c(-c5ccccc5)c5ccc2[nH]5)C=C4)C=C3)cc1
REMARK SMILES IDX 5 1 4 2 3 3 1 4 2 5 25 7 26 8 72 9 27 10 71 11 28 12 29 13
REMARK SMILES IDX 30 14 65 15 31 16 70 17 64 18 66 19 32 20 69 21 63 22 62 23
REMARK SMILES IDX 33 25 55 26 40 27 54 28 41 29 44 30 53 31 67 32 42 33 43 34
REMARK SMILES IDX 52 36 68 37 45 38 34 39 35 40 39 41 36 42 38 43 37 44 56 45
REMARK SMILES IDX 57 46 61 47 58 48 60 49 59 50 46 51 47 52 51 53 48 54 50 55
REMARK SMILES IDX 49 56 6 57 7 58 8 59 9 61 10 62 19 63 23 64 20 65 22 66
REMARK SMILES IDX 24 67 21 68 11 69 12 70 13 71 14 72 18 73 15 74 17 75 16 76
REMARK H PARENT 3 6 66 24 44 35 7 60
REMARK Flexibility Score: inf
ROOT
ATOM      1  C   UNL A   1      37.179  19.791  24.991  1.00  0.00     0.042 C 
ENDROOT
BRANCH   1   2
ATOM      2  C   UNL A   1      38.505  20.431  25.385  1.00  0.00     0.118 C 
BRANCH   2   3
ATOM      3  N   UNL A   1      39.523  19.420  25.666  1.00  0.00    -0.352 N 
ATOM      4  O   UNL A   1      41.628  18.657  25.943  1.00  0.00    -0.269 OA
ATOM      5  C   UNL A   1      40.828  19.587  26.037  1.00  0.00     0.251 C 
ATOM      6  H   UNL A   1      39.226  18.486  25.575  1.00  0.00     0.163 HD
BRANCH   5   7
ATOM      7  C   UNL A   1      41.261  20.892  26.559  1.00  0.00     0.039 A 
ATOM      8  C   UNL A   1      41.630  21.905  25.667  1.00  0.00     0.014 A 
ATOM      9  C   UNL A   1      41.281  21.108  27.936  1.00  0.00     0.014 A 
ATOM     10  C   UNL A   1      42.145  23.094  26.155  1.00  0.00     0.010 A 
ATOM     11  C   UNL A   1      41.710  22.340  28.423  1.00  0.00     0.010 A 
ATOM     12  C   UNL A   1      42.164  23.331  27.535  1.00  0.00    -0.014 A 
BRANCH  12  13
ATOM     13  C   UNL A   1      42.597  24.647  28.046  1.00  0.00     0.031 A 
ATOM     14  C   UNL A   1      41.593  25.716  28.343  1.00  0.00     0.074 A 
ATOM     15  C   UNL A   1      43.915  24.873  28.202  1.00  0.00     0.049 A 
ATOM     16  N   UNL A   1      41.795  26.961  28.691  1.00  0.00    -0.248 NA
ATOM     17  C   UNL A   1      40.175  25.345  28.219  1.00  0.00     0.031 C 
ATOM     18  C   UNL A   1      44.976  23.892  27.955  1.00  0.00     0.029 A 
ATOM     19  N   UNL A   1      44.587  25.999  28.595  1.00  0.00    -0.354 N 
ATOM     20  C   UNL A   1      40.535  27.531  28.797  1.00  0.00     0.074 A 
ATOM     21  C   UNL A   1      39.575  26.502  28.455  1.00  0.00     0.031 C 
ATOM     22  C   UNL A   1      46.162  24.455  28.214  1.00  0.00     0.029 A 
ATOM     23  C   UNL A   1      45.951  25.852  28.570  1.00  0.00     0.049 A 
ATOM     24  H   UNL A   1      44.137  26.831  28.867  1.00  0.00     0.167 HD
ATOM     25  C   UNL A   1      40.213  28.799  29.144  1.00  0.00     0.031 A 
ATOM     26  C   UNL A   1      46.928  26.753  28.767  1.00  0.00     0.031 A 
ATOM     27  C   UNL A   1      41.185  29.812  29.464  1.00  0.00     0.049 A 
ATOM     28  C   UNL A   1      46.552  28.167  29.093  1.00  0.00     0.074 A 
ATOM     29  C   UNL A   1      40.972  31.122  29.855  1.00  0.00     0.029 A 
ATOM     30  N   UNL A   1      42.561  29.628  29.415  1.00  0.00    -0.354 N 
ATOM     31  N   UNL A   1      45.356  28.692  29.216  1.00  0.00    -0.248 NA
ATOM     32  C   UNL A   1      47.653  29.111  29.312  1.00  0.00     0.031 C 
ATOM     33  C   UNL A   1      42.217  31.747  29.978  1.00  0.00     0.029 A 
ATOM     34  C   UNL A   1      43.208  30.808  29.740  1.00  0.00     0.049 A 
ATOM     35  H   UNL A   1      43.010  28.783  29.185  1.00  0.00     0.167 HD
ATOM     36  C   UNL A   1      45.559  30.020  29.558  1.00  0.00     0.074 A 
ATOM     37  C   UNL A   1      46.993  30.219  29.626  1.00  0.00     0.031 C 
ATOM     38  C   UNL A   1      44.639  30.984  29.803  1.00  0.00     0.031 A 
BRANCH  25  39
ATOM     39  C   UNL A   1      38.755  29.169  29.136  1.00  0.00    -0.014 A 
ATOM     40  C   UNL A   1      37.958  29.064  30.288  1.00  0.00     0.009 A 
ATOM     41  C   UNL A   1      38.166  29.635  27.950  1.00  0.00     0.009 A 
ATOM     42  C   UNL A   1      36.595  29.365  30.238  1.00  0.00     0.001 A 
ATOM     43  C   UNL A   1      36.811  29.968  27.910  1.00  0.00     0.001 A 
ATOM     44  C   UNL A   1      36.024  29.818  29.051  1.00  0.00     0.000 A 
ENDBRANCH  25  39
BRANCH  26  45
ATOM     45  C   UNL A   1      48.345  26.328  28.635  1.00  0.00    -0.014 A 
ATOM     46  C   UNL A   1      49.055  25.852  29.746  1.00  0.00     0.009 A 
ATOM     47  C   UNL A   1      48.974  26.336  27.378  1.00  0.00     0.009 A 
ATOM     48  C   UNL A   1      50.370  25.403  29.603  1.00  0.00     0.001 A 
ATOM     49  C   UNL A   1      50.277  25.858  27.233  1.00  0.00     0.001 A 
ATOM     50  C   UNL A   1      50.976  25.398  28.347  1.00  0.00     0.000 A 
ENDBRANCH  26  45
BRANCH  38  51
ATOM     51  C   UNL A   1      45.149  32.333  30.225  1.00  0.00    -0.014 A 
ATOM     52  C   UNL A   1      45.384  33.354  29.293  1.00  0.00     0.009 A 
ATOM     53  C   UNL A   1      45.327  32.602  31.591  1.00  0.00     0.009 A 
ATOM     54  C   UNL A   1      45.805  34.614  29.721  1.00  0.00     0.001 A 
ATOM     55  C   UNL A   1      45.718  33.870  32.019  1.00  0.00     0.001 A 
ATOM     56  C   UNL A   1      45.963  34.874  31.084  1.00  0.00     0.000 A 
ENDBRANCH  38  51
ENDBRANCH  12  13
ENDBRANCH   5   7
ENDBRANCH   2   3
ENDBRANCH   1   2
BRANCH   1  57
ATOM     57  C   UNL A   1      36.089  20.843  24.866  1.00  0.00     0.117 C 
BRANCH  57  58
ATOM     58  N   UNL A   1      35.405  21.027  26.129  1.00  0.00    -0.355 N 
ATOM     59  C   UNL A   1      34.194  21.533  26.464  1.00  0.00     0.228 C 
ATOM     60  H   UNL A   1      35.928  20.721  26.904  1.00  0.00     0.163 HD
ATOM     61  O   UNL A   1      33.925  21.498  27.672  1.00  0.00    -0.274 OA
BRANCH  59  62
ATOM     62  C   UNL A   1      33.137  21.992  25.444  1.00  0.00     0.078 C 
ATOM     63  C   UNL A   1      33.616  22.792  24.211  1.00  0.00     0.051 C 
ATOM     64  C   UNL A   1      32.347  23.130  26.179  1.00  0.00     0.134 C 
ATOM     65  C   UNL A   1      33.101  24.208  24.460  1.00  0.00     0.120 C 
ATOM     66  C   UNL A   1      31.064  23.585  25.475  1.00  0.00     0.036 C 
ATOM     67  O   UNL A   1      33.193  24.283  25.894  1.00  0.00    -0.374 OA
ATOM     68  C   UNL A   1      31.602  24.293  24.235  1.00  0.00     0.035 C 
BRANCH  62  69
ATOM     69  C   UNL A   1      32.215  20.777  25.116  1.00  0.00     0.024 C 
BRANCH  69  70
ATOM     70  C   UNL A   1      32.590  19.838  23.945  1.00  0.00     0.037 C 
BRANCH  70  71
ATOM     71  C   UNL A   1      33.031  18.432  24.285  1.00  0.00    -0.048 A 
ATOM     72  C   UNL A   1      32.643  17.853  25.503  1.00  0.00     0.004 A 
ATOM     73  C   UNL A   1      33.821  17.671  23.416  1.00  0.00     0.004 A 
ATOM     74  C   UNL A   1      32.894  16.503  25.770  1.00  0.00     0.000 A 
ATOM     75  C   UNL A   1      34.101  16.329  23.698  1.00  0.00     0.000 A 
ATOM     76  C   UNL A   1      33.607  15.736  24.856  1.00  0.00     0.000 A 
ENDBRANCH  70  71
ENDBRANCH  69  70
ENDBRANCH  62  69
ENDBRANCH  59  62
ENDBRANCH  57  58
ENDBRANCH   1  57
TORSDOF 13
ENDMDL
