MODEL 1
REMARK VINA RESULT:     -12.0      0.000      0.000
REMARK SMILES Cc1nn(C)c2nc(C3CC3)c(Cl)c(C(=O)NCCCNC(=O)c3ccc(-c4c5nc(c(-c6ccccc6)c6ccc([nH]6)c(-c6ccccc6)c6nc(c(-c7ccccc7)c7ccc4[nH]7)C=C6)C=C5)cc3)c12
REMARK SMILES IDX 19 1 18 2 17 3 15 4 16 5 14 7 1 8 2 9 3 10 72 11 4 12 6 13
REMARK SMILES IDX 5 14 7 15 12 16 8 17 13 18 9 19 10 20 11 21 20 22 21 23
REMARK SMILES IDX 22 24 23 26 24 27 25 28 71 29 26 30 70 31 27 32 28 33 29 34
REMARK SMILES IDX 64 35 30 36 69 37 63 38 65 39 31 40 68 41 62 42 61 43 32 45
REMARK SMILES IDX 54 46 39 47 53 48 40 49 43 50 52 51 66 52 41 53 42 54 51 56
REMARK SMILES IDX 67 57 44 58 33 59 34 60 38 61 35 62 37 63 36 64 55 65 56 66
REMARK SMILES IDX 60 67 57 68 59 69 58 70 45 71 46 72 50 73 47 74 49 75 48 76
REMARK H PARENT 17 6 21 25 65 44 43 55
REMARK Flexibility Score: inf
ROOT
ATOM      1  C   UNL A   1      36.585  22.703  25.839  1.00  0.00     0.042 C 
ENDROOT
BRANCH   1   2
ATOM      2  C   UNL A   1      35.941  24.030  25.424  1.00  0.00     0.118 C 
BRANCH   2   3
ATOM      3  N   UNL A   1      35.330  24.065  24.100  1.00  0.00    -0.352 N 
ATOM      4  C   UNL A   1      34.074  24.476  23.684  1.00  0.00     0.253 C 
ATOM      5  O   UNL A   1      33.871  24.555  22.471  1.00  0.00    -0.269 OA
ATOM      6  H   UNL A   1      35.912  23.740  23.375  1.00  0.00     0.163 HD
BRANCH   4   7
ATOM      7  C   UNL A   1      32.954  24.755  24.618  1.00  0.00     0.073 A 
ATOM      8  C   UNL A   1      32.815  21.301  24.191  1.00  0.00     0.069 C 
ATOM      9  C   UNL A   1      32.066  22.262  25.042  1.00  0.00     0.070 A 
ATOM     10  N   UNL A   1      31.074  21.779  25.808  1.00  0.00    -0.176 NA
ATOM     11  C   UNL A   1      32.196  23.685  25.153  1.00  0.00     0.056 A 
ATOM     12  N   UNL A   1      30.558  22.870  26.397  1.00  0.00    -0.250 N 
ATOM     13  C   UNL A   1      31.224  24.021  26.084  1.00  0.00     0.158 A 
ATOM     14  C   UNL A   1      29.382  22.765  27.224  1.00  0.00     0.176 C 
ATOM     15  N   UNL A   1      30.972  25.232  26.600  1.00  0.00    -0.231 NA
ATOM     16  C   UNL A   1      32.531  26.058  24.957  1.00  0.00     0.076 A 
ATOM     17  C   UNL A   1      31.660  26.263  26.048  1.00  0.00     0.065 A 
ATOM     18  Cl  UNL A   1      32.904  27.369  23.877  1.00  0.00    -0.081 Cl
BRANCH  17  19
ATOM     19  C   UNL A   1      31.474  27.560  26.840  1.00  0.00     0.040 C 
ATOM     20  C   UNL A   1      32.668  28.272  27.439  1.00  0.00     0.011 C 
ATOM     21  C   UNL A   1      31.807  28.958  26.413  1.00  0.00     0.011 C 
ENDBRANCH  17  19
ENDBRANCH   4   7
ENDBRANCH   2   3
ENDBRANCH   1   2
BRANCH   1  22
ATOM     22  C   UNL A   1      37.850  22.253  25.089  1.00  0.00     0.118 C 
BRANCH  22  23
ATOM     23  N   UNL A   1      38.733  21.409  25.880  1.00  0.00    -0.352 N 
ATOM     24  C   UNL A   1      39.804  21.667  26.699  1.00  0.00     0.251 C 
ATOM     25  H   UNL A   1      38.515  20.451  25.815  1.00  0.00     0.163 HD
ATOM     26  O   UNL A   1      40.412  20.694  27.152  1.00  0.00    -0.269 OA
BRANCH  24  27
ATOM     27  C   UNL A   1      40.289  23.028  27.060  1.00  0.00     0.039 A 
ATOM     28  C   UNL A   1      41.641  23.318  26.803  1.00  0.00     0.014 A 
ATOM     29  C   UNL A   1      39.521  23.977  27.734  1.00  0.00     0.014 A 
ATOM     30  C   UNL A   1      42.197  24.557  27.150  1.00  0.00     0.010 A 
ATOM     31  C   UNL A   1      40.074  25.225  28.071  1.00  0.00     0.010 A 
ATOM     32  C   UNL A   1      41.410  25.537  27.764  1.00  0.00    -0.014 A 
BRANCH  32  33
ATOM     33  C   UNL A   1      41.955  26.907  27.918  1.00  0.00     0.031 A 
ATOM     34  C   UNL A   1      40.967  28.017  27.809  1.00  0.00     0.074 A 
ATOM     35  C   UNL A   1      43.120  27.232  28.520  1.00  0.00     0.049 A 
ATOM     36  N   UNL A   1      40.244  28.406  28.818  1.00  0.00    -0.248 NA
ATOM     37  C   UNL A   1      40.594  28.625  26.534  1.00  0.00     0.031 C 
ATOM     38  C   UNL A   1      43.803  26.411  29.523  1.00  0.00     0.029 A 
ATOM     39  N   UNL A   1      43.802  28.429  28.543  1.00  0.00    -0.354 N 
ATOM     40  C   UNL A   1      39.276  29.250  28.318  1.00  0.00     0.074 A 
ATOM     41  C   UNL A   1      39.548  29.381  26.901  1.00  0.00     0.031 C 
ATOM     42  C   UNL A   1      44.682  27.192  30.190  1.00  0.00     0.029 A 
ATOM     43  C   UNL A   1      44.755  28.506  29.553  1.00  0.00     0.049 A 
ATOM     44  H   UNL A   1      43.633  29.159  27.904  1.00  0.00     0.167 HD
ATOM     45  C   UNL A   1      38.284  29.774  29.082  1.00  0.00     0.031 A 
ATOM     46  C   UNL A   1      45.156  29.639  30.193  1.00  0.00     0.031 A 
ATOM     47  C   UNL A   1      38.309  29.427  30.471  1.00  0.00     0.049 A 
ATOM     48  C   UNL A   1      43.885  30.146  30.816  1.00  0.00     0.074 A 
ATOM     49  C   UNL A   1      37.823  28.406  31.261  1.00  0.00     0.029 A 
ATOM     50  N   UNL A   1      39.073  30.188  31.323  1.00  0.00    -0.354 N 
ATOM     51  N   UNL A   1      43.363  29.758  31.946  1.00  0.00    -0.248 NA
ATOM     52  C   UNL A   1      43.003  30.968  29.984  1.00  0.00     0.031 C 
ATOM     53  C   UNL A   1      38.678  28.364  32.407  1.00  0.00     0.029 A 
ATOM     54  C   UNL A   1      39.673  29.316  32.199  1.00  0.00     0.049 A 
ATOM     55  H   UNL A   1      39.172  31.167  31.308  1.00  0.00     0.167 HD
ATOM     56  C   UNL A   1      42.000  30.032  31.837  1.00  0.00     0.074 A 
ATOM     57  C   UNL A   1      41.852  30.815  30.625  1.00  0.00     0.031 C 
ATOM     58  C   UNL A   1      41.049  29.448  32.622  1.00  0.00     0.031 A 
BRANCH  45  59
ATOM     59  C   UNL A   1      37.266  30.703  28.562  1.00  0.00    -0.014 A 
ATOM     60  C   UNL A   1      37.429  32.080  28.768  1.00  0.00     0.009 A 
ATOM     61  C   UNL A   1      36.076  30.226  28.006  1.00  0.00     0.009 A 
ATOM     62  C   UNL A   1      36.399  32.966  28.455  1.00  0.00     0.001 A 
ATOM     63  C   UNL A   1      35.047  31.116  27.686  1.00  0.00     0.001 A 
ATOM     64  C   UNL A   1      35.206  32.482  27.922  1.00  0.00     0.000 A 
ENDBRANCH  45  59
BRANCH  46  65
ATOM     65  C   UNL A   1      46.068  30.564  29.439  1.00  0.00    -0.014 A 
ATOM     66  C   UNL A   1      46.652  30.120  28.238  1.00  0.00     0.009 A 
ATOM     67  C   UNL A   1      46.430  31.847  29.887  1.00  0.00     0.009 A 
ATOM     68  C   UNL A   1      47.484  30.951  27.476  1.00  0.00     0.001 A 
ATOM     69  C   UNL A   1      47.236  32.691  29.113  1.00  0.00     0.001 A 
ATOM     70  C   UNL A   1      47.756  32.246  27.902  1.00  0.00     0.000 A 
ENDBRANCH  46  65
BRANCH  58  71
ATOM     71  C   UNL A   1      41.547  28.673  33.800  1.00  0.00    -0.014 A 
ATOM     72  C   UNL A   1      41.452  29.217  35.088  1.00  0.00     0.009 A 
ATOM     73  C   UNL A   1      42.074  27.382  33.649  1.00  0.00     0.009 A 
ATOM     74  C   UNL A   1      41.848  28.473  36.203  1.00  0.00     0.001 A 
ATOM     75  C   UNL A   1      42.453  26.632  34.763  1.00  0.00     0.001 A 
ATOM     76  C   UNL A   1      42.336  27.177  36.040  1.00  0.00     0.000 A 
ENDBRANCH  58  71
ENDBRANCH  32  33
ENDBRANCH  24  27
ENDBRANCH  22  23
ENDBRANCH   1  22
TORSDOF 11
ENDMDL
MODEL 2
REMARK VINA RESULT:     -11.8      2.653      7.041
REMARK SMILES Cc1nn(C)c2nc(C3CC3)c(Cl)c(C(=O)NCCCNC(=O)c3ccc(-c4c5nc(c(-c6ccccc6)c6ccc([nH]6)c(-c6ccccc6)c6nc(c(-c7ccccc7)c7ccc4[nH]7)C=C6)C=C5)cc3)c12
REMARK SMILES IDX 19 1 18 2 17 3 15 4 16 5 14 7 1 8 2 9 3 10 72 11 4 12 6 13
REMARK SMILES IDX 5 14 7 15 12 16 8 17 13 18 9 19 10 20 11 21 20 22 21 23
REMARK SMILES IDX 22 24 23 26 24 27 25 28 71 29 26 30 70 31 27 32 28 33 29 34
REMARK SMILES IDX 64 35 30 36 69 37 63 38 65 39 31 40 68 41 62 42 61 43 32 45
REMARK SMILES IDX 54 46 39 47 53 48 40 49 43 50 52 51 66 52 41 53 42 54 51 56
REMARK SMILES IDX 67 57 44 58 33 59 34 60 38 61 35 62 37 63 36 64 55 65 56 66
REMARK SMILES IDX 60 67 57 68 59 69 58 70 45 71 46 72 50 73 47 74 49 75 48 76
REMARK H PARENT 17 6 21 25 65 44 43 55
REMARK Flexibility Score: inf
ROOT
ATOM      1  C   UNL A   1      32.315  29.616  27.181  1.00  0.00     0.042 C 
ENDROOT
BRANCH   1   2
ATOM      2  C   UNL A   1      32.486  28.093  27.211  1.00  0.00     0.118 C 
BRANCH   2   3
ATOM      3  N   UNL A   1      31.267  27.304  27.068  1.00  0.00    -0.352 N 
ATOM      4  C   UNL A   1      30.988  26.186  26.299  1.00  0.00     0.253 C 
ATOM      5  O   UNL A   1      29.913  25.613  26.493  1.00  0.00    -0.269 OA
ATOM      6  H   UNL A   1      30.511  27.621  27.614  1.00  0.00     0.163 HD
BRANCH   4   7
ATOM      7  C   UNL A   1      31.878  25.694  25.218  1.00  0.00     0.073 A 
ATOM      8  C   UNL A   1      29.445  27.505  23.507  1.00  0.00     0.069 C 
ATOM      9  C   UNL A   1      30.689  26.808  23.090  1.00  0.00     0.070 A 
ATOM     10  N   UNL A   1      30.987  26.787  21.780  1.00  0.00    -0.176 NA
ATOM     11  C   UNL A   1      31.641  26.080  23.876  1.00  0.00     0.056 A 
ATOM     12  N   UNL A   1      32.106  26.048  21.714  1.00  0.00    -0.250 N 
ATOM     13  C   UNL A   1      32.567  25.651  22.936  1.00  0.00     0.158 A 
ATOM     14  C   UNL A   1      32.678  25.704  20.435  1.00  0.00     0.176 C 
ATOM     15  N   UNL A   1      33.705  24.980  23.160  1.00  0.00    -0.231 NA
ATOM     16  C   UNL A   1      32.928  24.776  25.433  1.00  0.00     0.076 A 
ATOM     17  C   UNL A   1      33.903  24.564  24.436  1.00  0.00     0.065 A 
ATOM     18  Cl  UNL A   1      32.870  23.748  26.834  1.00  0.00    -0.081 Cl
BRANCH  17  19
ATOM     19  C   UNL A   1      35.315  24.007  24.640  1.00  0.00     0.040 C 
ATOM     20  C   UNL A   1      35.533  22.524  24.849  1.00  0.00     0.011 C 
ATOM     21  C   UNL A   1      36.150  23.226  23.669  1.00  0.00     0.011 C 
ENDBRANCH  17  19
ENDBRANCH   4   7
ENDBRANCH   2   3
ENDBRANCH   1   2
BRANCH   1  22
ATOM     22  C   UNL A   1      33.562  30.472  26.905  1.00  0.00     0.118 C 
BRANCH  22  23
ATOM     23  N   UNL A   1      33.526  31.782  27.538  1.00  0.00    -0.352 N 
ATOM     24  C   UNL A   1      34.315  32.400  28.477  1.00  0.00     0.251 C 
ATOM     25  H   UNL A   1      32.780  32.344  27.228  1.00  0.00     0.163 HD
ATOM     26  O   UNL A   1      33.944  33.504  28.884  1.00  0.00    -0.269 OA
BRANCH  24  27
ATOM     27  C   UNL A   1      35.567  31.828  29.044  1.00  0.00     0.039 A 
ATOM     28  C   UNL A   1      35.659  31.742  30.445  1.00  0.00     0.014 A 
ATOM     29  C   UNL A   1      36.685  31.485  28.282  1.00  0.00     0.014 A 
ATOM     30  C   UNL A   1      36.816  31.258  31.070  1.00  0.00     0.010 A 
ATOM     31  C   UNL A   1      37.841  30.988  28.908  1.00  0.00     0.010 A 
ATOM     32  C   UNL A   1      37.913  30.848  30.305  1.00  0.00    -0.014 A 
BRANCH  32  33
ATOM     33  C   UNL A   1      39.031  30.138  30.970  1.00  0.00     0.031 A 
ATOM     34  C   UNL A   1      39.279  28.742  30.512  1.00  0.00     0.074 A 
ATOM     35  C   UNL A   1      40.059  30.720  31.625  1.00  0.00     0.049 A 
ATOM     36  N   UNL A   1      39.997  28.472  29.461  1.00  0.00    -0.248 NA
ATOM     37  C   UNL A   1      38.593  27.585  31.084  1.00  0.00     0.031 C 
ATOM     38  C   UNL A   1      40.527  32.089  31.404  1.00  0.00     0.029 A 
ATOM     39  N   UNL A   1      41.025  30.160  32.433  1.00  0.00    -0.354 N 
ATOM     40  C   UNL A   1      39.810  27.136  29.179  1.00  0.00     0.074 A 
ATOM     41  C   UNL A   1      38.955  26.618  30.227  1.00  0.00     0.031 C 
ATOM     42  C   UNL A   1      41.777  32.202  31.904  1.00  0.00     0.029 A 
ATOM     43  C   UNL A   1      42.128  30.983  32.631  1.00  0.00     0.049 A 
ATOM     44  H   UNL A   1      40.942  29.264  32.833  1.00  0.00     0.167 HD
ATOM     45  C   UNL A   1      40.339  26.529  28.086  1.00  0.00     0.031 A 
ATOM     46  C   UNL A   1      43.407  30.572  32.852  1.00  0.00     0.031 A 
ATOM     47  C   UNL A   1      41.146  27.354  27.237  1.00  0.00     0.049 A 
ATOM     48  C   UNL A   1      43.729  29.780  31.614  1.00  0.00     0.074 A 
ATOM     49  C   UNL A   1      40.941  28.197  26.165  1.00  0.00     0.029 A 
ATOM     50  N   UNL A   1      42.480  27.495  27.537  1.00  0.00    -0.354 N 
ATOM     51  N   UNL A   1      44.136  30.256  30.471  1.00  0.00    -0.248 NA
ATOM     52  C   UNL A   1      43.317  28.375  31.582  1.00  0.00     0.031 C 
ATOM     53  C   UNL A   1      42.037  29.116  26.182  1.00  0.00     0.029 A 
ATOM     54  C   UNL A   1      42.797  28.812  27.309  1.00  0.00     0.049 A 
ATOM     55  H   UNL A   1      43.089  26.790  27.854  1.00  0.00     0.167 HD
ATOM     56  C   UNL A   1      43.757  29.308  29.521  1.00  0.00     0.074 A 
ATOM     57  C   UNL A   1      43.298  28.157  30.275  1.00  0.00     0.031 C 
ATOM     58  C   UNL A   1      43.651  29.579  28.188  1.00  0.00     0.031 A 
BRANCH  45  59
ATOM     59  C   UNL A   1      40.171  25.095  27.795  1.00  0.00    -0.014 A 
ATOM     60  C   UNL A   1      41.177  24.198  28.181  1.00  0.00     0.009 A 
ATOM     61  C   UNL A   1      39.106  24.641  27.011  1.00  0.00     0.009 A 
ATOM     62  C   UNL A   1      41.136  22.869  27.758  1.00  0.00     0.001 A 
ATOM     63  C   UNL A   1      39.064  23.308  26.595  1.00  0.00     0.001 A 
ATOM     64  C   UNL A   1      40.084  22.428  26.958  1.00  0.00     0.000 A 
ENDBRANCH  45  59
BRANCH  46  65
ATOM     65  C   UNL A   1      43.727  30.032  34.217  1.00  0.00    -0.014 A 
ATOM     66  C   UNL A   1      45.031  30.186  34.725  1.00  0.00     0.009 A 
ATOM     67  C   UNL A   1      42.812  29.322  35.015  1.00  0.00     0.009 A 
ATOM     68  C   UNL A   1      45.378  29.733  36.004  1.00  0.00     0.001 A 
ATOM     69  C   UNL A   1      43.147  28.895  36.307  1.00  0.00     0.001 A 
ATOM     70  C   UNL A   1      44.428  29.109  36.804  1.00  0.00     0.000 A 
ENDBRANCH  46  65
BRANCH  58  71
ATOM     71  C   UNL A   1      44.211  30.888  27.731  1.00  0.00    -0.014 A 
ATOM     72  C   UNL A   1      43.589  32.087  28.105  1.00  0.00     0.009 A 
ATOM     73  C   UNL A   1      45.383  30.946  26.961  1.00  0.00     0.009 A 
ATOM     74  C   UNL A   1      44.144  33.317  27.743  1.00  0.00     0.001 A 
ATOM     75  C   UNL A   1      45.947  32.175  26.615  1.00  0.00     0.001 A 
ATOM     76  C   UNL A   1      45.329  33.360  27.010  1.00  0.00     0.000 A 
ENDBRANCH  58  71
ENDBRANCH  32  33
ENDBRANCH  24  27
ENDBRANCH  22  23
ENDBRANCH   1  22
TORSDOF 11
ENDMDL
MODEL 3
REMARK VINA RESULT:     -11.6      1.383      1.988
REMARK SMILES Cc1nn(C)c2nc(C3CC3)c(Cl)c(C(=O)NCCCNC(=O)c3ccc(-c4c5nc(c(-c6ccccc6)c6ccc([nH]6)c(-c6ccccc6)c6nc(c(-c7ccccc7)c7ccc4[nH]7)C=C6)C=C5)cc3)c12
REMARK SMILES IDX 19 1 18 2 17 3 15 4 16 5 14 7 1 8 2 9 3 10 72 11 4 12 6 13
REMARK SMILES IDX 5 14 7 15 12 16 8 17 13 18 9 19 10 20 11 21 20 22 21 23
REMARK SMILES IDX 22 24 23 26 24 27 25 28 71 29 26 30 70 31 27 32 28 33 29 34
REMARK SMILES IDX 64 35 30 36 69 37 63 38 65 39 31 40 68 41 62 42 61 43 32 45
REMARK SMILES IDX 54 46 39 47 53 48 40 49 43 50 52 51 66 52 41 53 42 54 51 56
REMARK SMILES IDX 67 57 44 58 33 59 34 60 38 61 35 62 37 63 36 64 55 65 56 66
REMARK SMILES IDX 60 67 57 68 59 69 58 70 45 71 46 72 50 73 47 74 49 75 48 76
REMARK H PARENT 17 6 21 25 65 44 43 55
REMARK Flexibility Score: inf
ROOT
ATOM      1  C   UNL A   1      36.414  22.376  25.742  1.00  0.00     0.042 C 
ENDROOT
BRANCH   1   2
ATOM      2  C   UNL A   1      35.742  23.752  25.805  1.00  0.00     0.118 C 
BRANCH   2   3
ATOM      3  N   UNL A   1      34.448  23.809  26.476  1.00  0.00    -0.352 N 
ATOM      4  C   UNL A   1      33.241  24.366  26.086  1.00  0.00     0.253 C 
ATOM      5  O   UNL A   1      32.250  24.126  26.779  1.00  0.00    -0.269 OA
ATOM      6  H   UNL A   1      34.429  23.375  27.359  1.00  0.00     0.163 HD
BRANCH   4   7
ATOM      7  C   UNL A   1      33.100  25.285  24.928  1.00  0.00     0.073 A 
ATOM      8  C   UNL A   1      33.344  22.143  23.446  1.00  0.00     0.069 C 
ATOM      9  C   UNL A   1      33.103  23.512  22.919  1.00  0.00     0.070 A 
ATOM     10  N   UNL A   1      32.988  23.660  21.589  1.00  0.00    -0.176 NA
ATOM     11  C   UNL A   1      33.017  24.762  23.615  1.00  0.00     0.056 A 
ATOM     12  N   UNL A   1      32.844  24.984  21.421  1.00  0.00    -0.250 N 
ATOM     13  C   UNL A   1      32.798  25.678  22.596  1.00  0.00     0.158 A 
ATOM     14  C   UNL A   1      32.801  25.550  20.096  1.00  0.00     0.176 C 
ATOM     15  N   UNL A   1      32.575  26.993  22.717  1.00  0.00    -0.231 NA
ATOM     16  C   UNL A   1      33.124  26.691  25.045  1.00  0.00     0.076 A 
ATOM     17  C   UNL A   1      32.709  27.503  23.968  1.00  0.00     0.065 A 
ATOM     18  Cl  UNL A   1      33.886  27.406  26.435  1.00  0.00    -0.081 Cl
BRANCH  17  19
ATOM     19  C   UNL A   1      32.225  28.952  24.047  1.00  0.00     0.040 C 
ATOM     20  C   UNL A   1      30.757  29.283  23.880  1.00  0.00     0.011 C 
ATOM     21  C   UNL A   1      31.472  29.615  25.162  1.00  0.00     0.011 C 
ENDBRANCH  17  19
ENDBRANCH   4   7
ENDBRANCH   2   3
ENDBRANCH   1   2
BRANCH   1  22
ATOM     22  C   UNL A   1      37.808  22.287  25.098  1.00  0.00     0.118 C 
BRANCH  22  23
ATOM     23  N   UNL A   1      38.741  21.446  25.832  1.00  0.00    -0.352 N 
ATOM     24  C   UNL A   1      39.836  21.711  26.617  1.00  0.00     0.251 C 
ATOM     25  H   UNL A   1      38.546  20.484  25.749  1.00  0.00     0.163 HD
ATOM     26  O   UNL A   1      40.485  20.743  27.021  1.00  0.00    -0.269 OA
BRANCH  24  27
ATOM     27  C   UNL A   1      40.298  23.074  26.998  1.00  0.00     0.039 A 
ATOM     28  C   UNL A   1      41.655  23.376  26.785  1.00  0.00     0.014 A 
ATOM     29  C   UNL A   1      39.502  24.016  27.650  1.00  0.00     0.014 A 
ATOM     30  C   UNL A   1      42.190  24.618  27.153  1.00  0.00     0.010 A 
ATOM     31  C   UNL A   1      40.035  25.266  28.008  1.00  0.00     0.010 A 
ATOM     32  C   UNL A   1      41.377  25.590  27.745  1.00  0.00    -0.014 A 
BRANCH  32  33
ATOM     33  C   UNL A   1      41.906  26.963  27.920  1.00  0.00     0.031 A 
ATOM     34  C   UNL A   1      40.907  28.064  27.811  1.00  0.00     0.074 A 
ATOM     35  C   UNL A   1      43.060  27.293  28.539  1.00  0.00     0.049 A 
ATOM     36  N   UNL A   1      40.169  28.435  28.816  1.00  0.00    -0.248 NA
ATOM     37  C   UNL A   1      40.544  28.683  26.538  1.00  0.00     0.031 C 
ATOM     38  C   UNL A   1      43.740  26.469  29.540  1.00  0.00     0.029 A 
ATOM     39  N   UNL A   1      43.730  28.497  28.582  1.00  0.00    -0.354 N 
ATOM     40  C   UNL A   1      39.199  29.275  28.314  1.00  0.00     0.074 A 
ATOM     41  C   UNL A   1      39.485  29.424  26.902  1.00  0.00     0.031 C 
ATOM     42  C   UNL A   1      44.603  27.251  30.226  1.00  0.00     0.029 A 
ATOM     43  C   UNL A   1      44.670  28.572  29.605  1.00  0.00     0.049 A 
ATOM     44  H   UNL A   1      43.560  29.232  27.950  1.00  0.00     0.167 HD
ATOM     45  C   UNL A   1      38.193  29.781  29.072  1.00  0.00     0.031 A 
ATOM     46  C   UNL A   1      45.052  29.702  30.261  1.00  0.00     0.031 A 
ATOM     47  C   UNL A   1      38.205  29.418  30.457  1.00  0.00     0.049 A 
ATOM     48  C   UNL A   1      43.769  30.190  30.875  1.00  0.00     0.074 A 
ATOM     49  C   UNL A   1      37.720  28.384  31.230  1.00  0.00     0.029 A 
ATOM     50  N   UNL A   1      38.952  30.178  31.326  1.00  0.00    -0.354 N 
ATOM     51  N   UNL A   1      43.238  29.784  31.994  1.00  0.00    -0.248 NA
ATOM     52  C   UNL A   1      42.888  31.011  30.042  1.00  0.00     0.031 C 
ATOM     53  C   UNL A   1      38.563  28.338  32.385  1.00  0.00     0.029 A 
ATOM     54  C   UNL A   1      39.550  29.303  32.200  1.00  0.00     0.049 A 
ATOM     55  H   UNL A   1      39.041  31.158  31.323  1.00  0.00     0.167 HD
ATOM     56  C   UNL A   1      41.874  30.046  31.872  1.00  0.00     0.074 A 
ATOM     57  C   UNL A   1      41.732  30.841  30.668  1.00  0.00     0.031 C 
ATOM     58  C   UNL A   1      40.920  29.443  32.640  1.00  0.00     0.031 A 
BRANCH  45  59
ATOM     59  C   UNL A   1      37.171  30.705  28.550  1.00  0.00    -0.014 A 
ATOM     60  C   UNL A   1      37.296  32.077  28.809  1.00  0.00     0.009 A 
ATOM     61  C   UNL A   1      36.011  30.221  27.938  1.00  0.00     0.009 A 
ATOM     62  C   UNL A   1      36.257  32.951  28.491  1.00  0.00     0.001 A 
ATOM     63  C   UNL A   1      34.974  31.100  27.614  1.00  0.00     0.001 A 
ATOM     64  C   UNL A   1      35.093  32.460  27.903  1.00  0.00     0.000 A 
ENDBRANCH  45  59
BRANCH  46  65
ATOM     65  C   UNL A   1      45.963  30.645  29.528  1.00  0.00    -0.014 A 
ATOM     66  C   UNL A   1      46.495  31.754  30.214  1.00  0.00     0.009 A 
ATOM     67  C   UNL A   1      46.285  30.526  28.165  1.00  0.00     0.009 A 
ATOM     68  C   UNL A   1      47.375  32.647  29.592  1.00  0.00     0.001 A 
ATOM     69  C   UNL A   1      47.190  31.400  27.548  1.00  0.00     0.001 A 
ATOM     70  C   UNL A   1      47.742  32.456  28.265  1.00  0.00     0.000 A 
ENDBRANCH  46  65
BRANCH  58  71
ATOM     71  C   UNL A   1      41.411  28.661  33.816  1.00  0.00    -0.014 A 
ATOM     72  C   UNL A   1      41.362  29.218  35.100  1.00  0.00     0.009 A 
ATOM     73  C   UNL A   1      41.888  27.350  33.666  1.00  0.00     0.009 A 
ATOM     74  C   UNL A   1      41.752  28.470  36.214  1.00  0.00     0.001 A 
ATOM     75  C   UNL A   1      42.262  26.596  34.780  1.00  0.00     0.001 A 
ATOM     76  C   UNL A   1      42.189  27.155  36.054  1.00  0.00     0.000 A 
ENDBRANCH  58  71
ENDBRANCH  32  33
ENDBRANCH  24  27
ENDBRANCH  22  23
ENDBRANCH   1  22
TORSDOF 11
ENDMDL
