MODEL 1
REMARK VINA RESULT:     -11.3      0.000      0.000
REMARK SMILES CC(=O)Nc1cnc(N(C)CCc2cn[nH]c2)c(C(=O)NCCCNC(=O)c2ccc(-c3c4nc(c(-c5ccccc5)c5ccc([nH]5)c(-c5ccccc5)c5nc(c(-c6ccccc6)c6ccc3[nH]6)C=C5)C=C4)cc2)c1
REMARK SMILES IDX 22 1 21 2 19 3 20 4 18 6 5 7 6 8 76 9 7 10 8 11 4 12 1 13
REMARK SMILES IDX 2 14 3 15 9 17 10 18 11 19 12 20 13 21 14 22 17 23 15 24
REMARK SMILES IDX 16 25 23 27 24 28 25 29 26 30 27 32 28 33 29 34 75 35 30 36
REMARK SMILES IDX 74 37 31 38 32 39 33 40 68 41 34 42 73 43 67 44 69 45 35 46
REMARK SMILES IDX 72 47 66 48 65 49 36 51 58 52 43 53 57 54 44 55 47 56 56 57
REMARK SMILES IDX 70 58 45 59 46 60 55 62 71 63 48 64 37 65 38 66 42 67 39 68
REMARK SMILES IDX 41 69 40 70 59 71 60 72 64 73 61 74 63 75 62 76 49 77 50 78
REMARK SMILES IDX 54 79 51 80 53 81 52 82
REMARK H PARENT 21 5 4 16 16 26 25 31 69 50 47 61
REMARK Flexibility Score: inf
ROOT
ATOM      1  C   UNL A   1      37.236  21.117  24.607  1.00  0.00     0.118 C 
ENDROOT
BRANCH   1   2
ATOM      2  N   UNL A   1      36.673  21.827  25.741  1.00  0.00    -0.352 N 
ATOM      3  C   UNL A   1      35.364  22.090  26.054  1.00  0.00     0.255 C 
ATOM      4  O   UNL A   1      35.124  22.899  26.947  1.00  0.00    -0.269 OA
ATOM      5  H   UNL A   1      37.333  22.172  26.384  1.00  0.00     0.163 HD
BRANCH   3   6
ATOM      6  C   UNL A   1      34.260  21.397  25.364  1.00  0.00     0.084 A 
ATOM      7  C   UNL A   1      32.965  19.371  25.100  1.00  0.00     0.060 A 
ATOM      8  C   UNL A   1      32.547  19.885  23.891  1.00  0.00     0.139 A 
ATOM      9  C   UNL A   1      33.898  20.110  25.808  1.00  0.00     0.045 A 
ATOM     10  N   UNL A   1      32.861  21.128  23.460  1.00  0.00    -0.236 NA
ATOM     11  C   UNL A   1      33.666  21.934  24.210  1.00  0.00     0.141 A 
BRANCH   7  12
ATOM     12  N   UNL A   1      32.479  18.135  25.545  1.00  0.00    -0.325 N 
ATOM     13  C   UNL A   1      34.164  16.757  24.354  1.00  0.00     0.114 C 
ATOM     14  C   UNL A   1      32.899  16.886  25.164  1.00  0.00     0.221 C 
ATOM     15  O   UNL A   1      32.289  15.893  25.561  1.00  0.00    -0.275 OA
ATOM     16  H   UNL A   1      31.752  18.167  26.207  1.00  0.00     0.169 HD
ENDBRANCH   7  12
BRANCH  11  17
ATOM     17  N   UNL A   1      33.729  23.251  23.794  1.00  0.00    -0.359 N 
ATOM     18  C   UNL A   1      34.926  23.672  23.070  1.00  0.00     0.145 C 
BRANCH  17  19
ATOM     19  C   UNL A   1      32.692  24.273  23.998  1.00  0.00     0.122 C 
BRANCH  19  20
ATOM     20  C   UNL A   1      32.556  24.746  25.455  1.00  0.00     0.060 C 
BRANCH  20  21
ATOM     21  C   UNL A   1      31.318  24.334  26.187  1.00  0.00    -0.008 A 
ATOM     22  C   UNL A   1      31.079  23.137  26.901  1.00  0.00     0.138 A 
ATOM     23  C   UNL A   1      30.100  24.985  26.234  1.00  0.00     0.108 A 
ATOM     24  N   UNL A   1      29.845  23.073  27.409  1.00  0.00    -0.184 NA
ATOM     25  N   UNL A   1      29.251  24.178  26.936  1.00  0.00    -0.285 N 
ATOM     26  H   UNL A   1      28.301  24.387  27.081  1.00  0.00     0.189 HD
ENDBRANCH  20  21
ENDBRANCH  19  20
ENDBRANCH  17  19
ENDBRANCH  11  17
ENDBRANCH   3   6
ENDBRANCH   1   2
BRANCH   1  27
ATOM     27  C   UNL A   1      37.993  19.894  25.112  1.00  0.00     0.042 C 
BRANCH  27  28
ATOM     28  C   UNL A   1      39.176  20.302  25.975  1.00  0.00     0.118 C 
BRANCH  28  29
ATOM     29  N   UNL A   1      40.264  19.337  25.885  1.00  0.00    -0.352 N 
ATOM     30  C   UNL A   1      41.615  19.566  26.029  1.00  0.00     0.251 C 
ATOM     31  H   UNL A   1      40.002  18.407  25.698  1.00  0.00     0.163 HD
ATOM     32  O   UNL A   1      42.431  18.708  25.745  1.00  0.00    -0.269 OA
BRANCH  30  33
ATOM     33  C   UNL A   1      42.049  20.895  26.511  1.00  0.00     0.039 A 
ATOM     34  C   UNL A   1      42.465  21.857  25.589  1.00  0.00     0.014 A 
ATOM     35  C   UNL A   1      41.972  21.197  27.873  1.00  0.00     0.014 A 
ATOM     36  C   UNL A   1      42.747  23.151  26.030  1.00  0.00     0.010 A 
ATOM     37  C   UNL A   1      42.168  22.504  28.295  1.00  0.00     0.010 A 
ATOM     38  C   UNL A   1      42.566  23.493  27.381  1.00  0.00    -0.014 A 
BRANCH  38  39
ATOM     39  C   UNL A   1      42.814  24.865  27.887  1.00  0.00     0.031 A 
ATOM     40  C   UNL A   1      44.198  25.244  28.339  1.00  0.00     0.074 A 
ATOM     41  C   UNL A   1      41.793  25.731  28.034  1.00  0.00     0.049 A 
ATOM     42  N   UNL A   1      44.601  26.323  28.960  1.00  0.00    -0.248 NA
ATOM     43  C   UNL A   1      45.264  24.256  28.097  1.00  0.00     0.031 C 
ATOM     44  C   UNL A   1      40.399  25.478  27.665  1.00  0.00     0.029 A 
ATOM     45  N   UNL A   1      41.772  27.001  28.556  1.00  0.00    -0.354 N 
ATOM     46  C   UNL A   1      45.952  26.124  29.215  1.00  0.00     0.074 A 
ATOM     47  C   UNL A   1      46.290  24.806  28.728  1.00  0.00     0.031 C 
ATOM     48  C   UNL A   1      39.664  26.565  27.952  1.00  0.00     0.029 A 
ATOM     49  C   UNL A   1      40.522  27.571  28.568  1.00  0.00     0.049 A 
ATOM     50  H   UNL A   1      42.577  27.461  28.889  1.00  0.00     0.167 HD
ATOM     51  C   UNL A   1      46.840  26.971  29.787  1.00  0.00     0.031 A 
ATOM     52  C   UNL A   1      40.112  28.765  29.038  1.00  0.00     0.031 A 
ATOM     53  C   UNL A   1      46.511  28.294  30.241  1.00  0.00     0.049 A 
ATOM     54  C   UNL A   1      41.118  29.691  29.666  1.00  0.00     0.074 A 
ATOM     55  C   UNL A   1      47.350  29.254  30.779  1.00  0.00     0.029 A 
ATOM     56  N   UNL A   1      45.240  28.845  30.203  1.00  0.00    -0.354 N 
ATOM     57  N   UNL A   1      42.403  29.511  29.853  1.00  0.00    -0.248 NA
ATOM     58  C   UNL A   1      40.617  30.991  30.137  1.00  0.00     0.031 C 
ATOM     59  C   UNL A   1      46.577  30.373  31.105  1.00  0.00     0.029 A 
ATOM     60  C   UNL A   1      45.268  30.128  30.720  1.00  0.00     0.049 A 
ATOM     61  H   UNL A   1      44.437  28.390  29.860  1.00  0.00     0.167 HD
ATOM     62  C   UNL A   1      42.870  30.685  30.430  1.00  0.00     0.074 A 
ATOM     63  C   UNL A   1      41.732  31.573  30.554  1.00  0.00     0.031 C 
ATOM     64  C   UNL A   1      44.129  31.001  30.819  1.00  0.00     0.031 A 
BRANCH  51  65
ATOM     65  C   UNL A   1      48.252  26.482  29.955  1.00  0.00    -0.014 A 
ATOM     66  C   UNL A   1      49.224  26.707  28.967  1.00  0.00     0.009 A 
ATOM     67  C   UNL A   1      48.621  25.804  31.127  1.00  0.00     0.009 A 
ATOM     68  C   UNL A   1      50.523  26.223  29.129  1.00  0.00     0.001 A 
ATOM     69  C   UNL A   1      49.930  25.351  31.302  1.00  0.00     0.001 A 
ATOM     70  C   UNL A   1      50.876  25.551  30.298  1.00  0.00     0.000 A 
ENDBRANCH  51  65
BRANCH  52  71
ATOM     71  C   UNL A   1      38.685  29.165  28.921  1.00  0.00    -0.014 A 
ATOM     72  C   UNL A   1      37.811  29.000  30.007  1.00  0.00     0.009 A 
ATOM     73  C   UNL A   1      38.185  29.703  27.725  1.00  0.00     0.009 A 
ATOM     74  C   UNL A   1      36.461  29.337  29.890  1.00  0.00     0.001 A 
ATOM     75  C   UNL A   1      36.840  30.068  27.620  1.00  0.00     0.001 A 
ATOM     76  C   UNL A   1      35.978  29.875  28.698  1.00  0.00     0.000 A 
ENDBRANCH  52  71
BRANCH  64  77
ATOM     77  C   UNL A   1      44.360  32.383  31.360  1.00  0.00    -0.014 A 
ATOM     78  C   UNL A   1      44.288  32.653  32.734  1.00  0.00     0.009 A 
ATOM     79  C   UNL A   1      44.719  33.417  30.480  1.00  0.00     0.009 A 
ATOM     80  C   UNL A   1      44.548  33.938  33.213  1.00  0.00     0.001 A 
ATOM     81  C   UNL A   1      45.006  34.693  30.964  1.00  0.00     0.001 A 
ATOM     82  C   UNL A   1      44.913  34.954  32.330  1.00  0.00     0.000 A 
ENDBRANCH  64  77
ENDBRANCH  38  39
ENDBRANCH  30  33
ENDBRANCH  28  29
ENDBRANCH  27  28
ENDBRANCH   1  27
TORSDOF 15
ENDMDL
MODEL 2
REMARK VINA RESULT:     -11.3      1.136      5.970
REMARK SMILES CC(=O)Nc1cnc(N(C)CCc2cn[nH]c2)c(C(=O)NCCCNC(=O)c2ccc(-c3c4nc(c(-c5ccccc5)c5ccc([nH]5)c(-c5ccccc5)c5nc(c(-c6ccccc6)c6ccc3[nH]6)C=C5)C=C4)cc2)c1
REMARK SMILES IDX 22 1 21 2 19 3 20 4 18 6 5 7 6 8 76 9 7 10 8 11 4 12 1 13
REMARK SMILES IDX 2 14 3 15 9 17 10 18 11 19 12 20 13 21 14 22 17 23 15 24
REMARK SMILES IDX 16 25 23 27 24 28 25 29 26 30 27 32 28 33 29 34 75 35 30 36
REMARK SMILES IDX 74 37 31 38 32 39 33 40 68 41 34 42 73 43 67 44 69 45 35 46
REMARK SMILES IDX 72 47 66 48 65 49 36 51 58 52 43 53 57 54 44 55 47 56 56 57
REMARK SMILES IDX 70 58 45 59 46 60 55 62 71 63 48 64 37 65 38 66 42 67 39 68
REMARK SMILES IDX 41 69 40 70 59 71 60 72 64 73 61 74 63 75 62 76 49 77 50 78
REMARK SMILES IDX 54 79 51 80 53 81 52 82
REMARK H PARENT 21 5 4 16 16 26 25 31 69 50 47 61
REMARK Flexibility Score: inf
ROOT
ATOM      1  C   UNL A   1      37.141  21.494  24.539  1.00  0.00     0.118 C 
ENDROOT
BRANCH   1   2
ATOM      2  N   UNL A   1      36.578  22.199  25.676  1.00  0.00    -0.352 N 
ATOM      3  C   UNL A   1      35.268  22.380  26.040  1.00  0.00     0.255 C 
ATOM      4  O   UNL A   1      35.010  23.199  26.919  1.00  0.00    -0.269 OA
ATOM      5  H   UNL A   1      37.239  22.610  26.278  1.00  0.00     0.163 HD
BRANCH   3   6
ATOM      6  C   UNL A   1      34.188  21.589  25.421  1.00  0.00     0.084 A 
ATOM      7  C   UNL A   1      33.010  19.479  25.300  1.00  0.00     0.060 A 
ATOM      8  C   UNL A   1      32.526  19.906  24.081  1.00  0.00     0.139 A 
ATOM      9  C   UNL A   1      33.918  20.308  25.940  1.00  0.00     0.045 A 
ATOM     10  N   UNL A   1      32.751  21.142  23.580  1.00  0.00    -0.236 NA
ATOM     11  C   UNL A   1      33.528  22.031  24.262  1.00  0.00     0.141 A 
BRANCH   7  12
ATOM     12  N   UNL A   1      32.613  18.242  25.821  1.00  0.00    -0.325 N 
ATOM     13  C   UNL A   1      34.359  16.910  24.667  1.00  0.00     0.114 C 
ATOM     14  C   UNL A   1      33.104  17.003  25.497  1.00  0.00     0.221 C 
ATOM     15  O   UNL A   1      32.567  15.996  25.960  1.00  0.00    -0.275 OA
ATOM     16  H   UNL A   1      31.898  18.264  26.497  1.00  0.00     0.169 HD
ENDBRANCH   7  12
BRANCH  11  17
ATOM     17  N   UNL A   1      33.500  23.327  23.781  1.00  0.00    -0.359 N 
ATOM     18  C   UNL A   1      34.652  23.783  23.007  1.00  0.00     0.145 C 
BRANCH  17  19
ATOM     19  C   UNL A   1      32.406  24.292  23.960  1.00  0.00     0.122 C 
BRANCH  19  20
ATOM     20  C   UNL A   1      32.279  24.837  25.392  1.00  0.00     0.060 C 
BRANCH  20  21
ATOM     21  C   UNL A   1      31.077  24.412  26.175  1.00  0.00    -0.008 A 
ATOM     22  C   UNL A   1      30.858  23.187  26.847  1.00  0.00     0.138 A 
ATOM     23  C   UNL A   1      29.875  25.078  26.320  1.00  0.00     0.108 A 
ATOM     24  N   UNL A   1      29.653  23.118  27.422  1.00  0.00    -0.184 NA
ATOM     25  N   UNL A   1      29.054  24.253  27.033  1.00  0.00    -0.285 N 
ATOM     26  H   UNL A   1      28.117  24.469  27.241  1.00  0.00     0.189 HD
ENDBRANCH  20  21
ENDBRANCH  19  20
ENDBRANCH  17  19
ENDBRANCH  11  17
ENDBRANCH   3   6
ENDBRANCH   1   2
BRANCH   1  27
ATOM     27  C   UNL A   1      37.834  20.230  25.032  1.00  0.00     0.042 C 
BRANCH  27  28
ATOM     28  C   UNL A   1      39.139  20.562  25.739  1.00  0.00     0.118 C 
BRANCH  28  29
ATOM     29  N   UNL A   1      40.033  19.412  25.783  1.00  0.00    -0.352 N 
ATOM     30  C   UNL A   1      41.393  19.404  26.004  1.00  0.00     0.251 C 
ATOM     31  H   UNL A   1      39.615  18.533  25.637  1.00  0.00     0.163 HD
ATOM     32  O   UNL A   1      42.051  18.393  25.832  1.00  0.00    -0.269 OA
BRANCH  30  33
ATOM     33  C   UNL A   1      42.037  20.664  26.431  1.00  0.00     0.039 A 
ATOM     34  C   UNL A   1      42.496  21.561  25.465  1.00  0.00     0.014 A 
ATOM     35  C   UNL A   1      42.117  20.976  27.791  1.00  0.00     0.014 A 
ATOM     36  C   UNL A   1      42.983  22.808  25.864  1.00  0.00     0.010 A 
ATOM     37  C   UNL A   1      42.519  22.247  28.177  1.00  0.00     0.010 A 
ATOM     38  C   UNL A   1      42.964  23.173  27.220  1.00  0.00    -0.014 A 
BRANCH  38  39
ATOM     39  C   UNL A   1      43.434  24.501  27.685  1.00  0.00     0.031 A 
ATOM     40  C   UNL A   1      42.422  25.553  28.049  1.00  0.00     0.074 A 
ATOM     41  C   UNL A   1      44.748  24.796  27.687  1.00  0.00     0.049 A 
ATOM     42  N   UNL A   1      42.604  26.820  28.321  1.00  0.00    -0.248 NA
ATOM     43  C   UNL A   1      41.010  25.131  28.067  1.00  0.00     0.031 C 
ATOM     44  C   UNL A   1      45.829  23.878  27.327  1.00  0.00     0.029 A 
ATOM     45  N   UNL A   1      45.396  25.969  27.988  1.00  0.00    -0.354 N 
ATOM     46  C   UNL A   1      41.333  27.349  28.503  1.00  0.00     0.074 A 
ATOM     47  C   UNL A   1      40.387  26.283  28.263  1.00  0.00     0.031 C 
ATOM     48  C   UNL A   1      47.006  24.515  27.448  1.00  0.00     0.029 A 
ATOM     49  C   UNL A   1      46.761  25.897  27.846  1.00  0.00     0.049 A 
ATOM     50  H   UNL A   1      44.927  26.785  28.279  1.00  0.00     0.167 HD
ATOM     51  C   UNL A   1      40.982  28.608  28.857  1.00  0.00     0.031 A 
ATOM     52  C   UNL A   1      47.706  26.843  28.005  1.00  0.00     0.031 A 
ATOM     53  C   UNL A   1      41.924  29.659  29.128  1.00  0.00     0.049 A 
ATOM     54  C   UNL A   1      47.292  28.234  28.403  1.00  0.00     0.074 A 
ATOM     55  C   UNL A   1      41.675  30.952  29.553  1.00  0.00     0.029 A 
ATOM     56  N   UNL A   1      43.298  29.533  29.005  1.00  0.00    -0.354 N 
ATOM     57  N   UNL A   1      46.089  28.707  28.622  1.00  0.00    -0.248 NA
ATOM     58  C   UNL A   1      48.369  29.218  28.586  1.00  0.00     0.031 C 
ATOM     59  C   UNL A   1      42.897  31.622  29.648  1.00  0.00     0.029 A 
ATOM     60  C   UNL A   1      43.911  30.729  29.335  1.00  0.00     0.049 A 
ATOM     61  H   UNL A   1      43.769  28.715  28.726  1.00  0.00     0.167 HD
ATOM     62  C   UNL A   1      46.267  30.031  29.002  1.00  0.00     0.074 A 
ATOM     63  C   UNL A   1      47.693  30.283  28.992  1.00  0.00     0.031 C 
ATOM     64  C   UNL A   1      45.332  30.955  29.335  1.00  0.00     0.031 A 
BRANCH  51  65
ATOM     65  C   UNL A   1      39.513  28.911  28.966  1.00  0.00    -0.014 A 
ATOM     66  C   UNL A   1      38.783  29.389  27.865  1.00  0.00     0.009 A 
ATOM     67  C   UNL A   1      38.845  28.695  30.181  1.00  0.00     0.009 A 
ATOM     68  C   UNL A   1      37.426  29.688  27.992  1.00  0.00     0.001 A 
ATOM     69  C   UNL A   1      37.480  28.964  30.296  1.00  0.00     0.001 A 
ATOM     70  C   UNL A   1      36.775  29.471  29.206  1.00  0.00     0.000 A 
ENDBRANCH  51  65
BRANCH  52  71
ATOM     71  C   UNL A   1      49.140  26.509  27.803  1.00  0.00    -0.014 A 
ATOM     72  C   UNL A   1      49.724  26.629  26.532  1.00  0.00     0.009 A 
ATOM     73  C   UNL A   1      49.931  26.059  28.872  1.00  0.00     0.009 A 
ATOM     74  C   UNL A   1      51.060  26.280  26.329  1.00  0.00     0.001 A 
ATOM     75  C   UNL A   1      51.276  25.738  28.672  1.00  0.00     0.001 A 
ATOM     76  C   UNL A   1      51.836  25.839  27.400  1.00  0.00     0.000 A 
ENDBRANCH  52  71
BRANCH  64  77
ATOM     77  C   UNL A   1      45.820  32.306  29.772  1.00  0.00    -0.014 A 
ATOM     78  C   UNL A   1      45.972  33.361  28.861  1.00  0.00     0.009 A 
ATOM     79  C   UNL A   1      46.068  32.541  31.135  1.00  0.00     0.009 A 
ATOM     80  C   UNL A   1      46.388  34.618  29.302  1.00  0.00     0.001 A 
ATOM     81  C   UNL A   1      46.455  33.806  31.577  1.00  0.00     0.001 A 
ATOM     82  C   UNL A   1      46.622  34.842  30.659  1.00  0.00     0.000 A 
ENDBRANCH  64  77
ENDBRANCH  38  39
ENDBRANCH  30  33
ENDBRANCH  28  29
ENDBRANCH  27  28
ENDBRANCH   1  27
TORSDOF 15
ENDMDL
MODEL 3
REMARK VINA RESULT:     -11.2      5.186      9.591
REMARK SMILES CC(=O)Nc1cnc(N(C)CCc2cn[nH]c2)c(C(=O)NCCCNC(=O)c2ccc(-c3c4nc(c(-c5ccccc5)c5ccc([nH]5)c(-c5ccccc5)c5nc(c(-c6ccccc6)c6ccc3[nH]6)C=C5)C=C4)cc2)c1
REMARK SMILES IDX 22 1 21 2 19 3 20 4 18 6 5 7 6 8 76 9 7 10 8 11 4 12 1 13
REMARK SMILES IDX 2 14 3 15 9 17 10 18 11 19 12 20 13 21 14 22 17 23 15 24
REMARK SMILES IDX 16 25 23 27 24 28 25 29 26 30 27 32 28 33 29 34 75 35 30 36
REMARK SMILES IDX 74 37 31 38 32 39 33 40 68 41 34 42 73 43 67 44 69 45 35 46
REMARK SMILES IDX 72 47 66 48 65 49 36 51 58 52 43 53 57 54 44 55 47 56 56 57
REMARK SMILES IDX 70 58 45 59 46 60 55 62 71 63 48 64 37 65 38 66 42 67 39 68
REMARK SMILES IDX 41 69 40 70 59 71 60 72 64 73 61 74 63 75 62 76 49 77 50 78
REMARK SMILES IDX 54 79 51 80 53 81 52 82
REMARK H PARENT 21 5 4 16 16 26 25 31 69 50 47 61
REMARK Flexibility Score: inf
ROOT
ATOM      1  C   UNL A   1      31.740  30.370  26.845  1.00  0.00     0.118 C 
ENDROOT
BRANCH   1   2
ATOM      2  N   UNL A   1      32.833  29.772  26.101  1.00  0.00    -0.352 N 
ATOM      3  C   UNL A   1      32.923  28.539  25.506  1.00  0.00     0.255 C 
ATOM      4  O   UNL A   1      34.022  28.152  25.118  1.00  0.00    -0.269 OA
ATOM      5  H   UNL A   1      33.633  30.338  26.010  1.00  0.00     0.163 HD
BRANCH   3   6
ATOM      6  C   UNL A   1      31.725  27.703  25.297  1.00  0.00     0.084 A 
ATOM      7  C   UNL A   1      30.451  25.754  25.953  1.00  0.00     0.060 A 
ATOM      8  C   UNL A   1      29.801  25.865  24.743  1.00  0.00     0.139 A 
ATOM      9  C   UNL A   1      31.484  26.646  26.196  1.00  0.00     0.045 A 
ATOM     10  N   UNL A   1      29.999  26.888  23.880  1.00  0.00    -0.236 NA
ATOM     11  C   UNL A   1      30.911  27.861  24.163  1.00  0.00     0.141 A 
BRANCH   7  12
ATOM     12  N   UNL A   1      30.088  24.750  26.858  1.00  0.00    -0.325 N 
ATOM     13  C   UNL A   1      31.039  22.871  25.547  1.00  0.00     0.114 C 
ATOM     14  C   UNL A   1      30.219  23.394  26.698  1.00  0.00     0.221 C 
ATOM     15  O   UNL A   1      29.741  22.634  27.541  1.00  0.00    -0.275 OA
ATOM     16  H   UNL A   1      29.691  25.052  27.707  1.00  0.00     0.169 HD
ENDBRANCH   7  12
BRANCH  11  17
ATOM     17  N   UNL A   1      30.864  28.969  23.338  1.00  0.00    -0.359 N 
ATOM     18  C   UNL A   1      31.933  29.121  22.353  1.00  0.00     0.145 C 
BRANCH  17  19
ATOM     19  C   UNL A   1      29.825  30.008  23.344  1.00  0.00     0.122 C 
BRANCH  19  20
ATOM     20  C   UNL A   1      28.868  29.946  22.142  1.00  0.00     0.060 C 
BRANCH  20  21
ATOM     21  C   UNL A   1      28.411  31.251  21.571  1.00  0.00    -0.008 A 
ATOM     22  C   UNL A   1      28.260  32.492  22.232  1.00  0.00     0.138 A 
ATOM     23  C   UNL A   1      27.930  31.503  20.301  1.00  0.00     0.108 A 
ATOM     24  N   UNL A   1      27.794  33.454  21.431  1.00  0.00    -0.184 NA
ATOM     25  N   UNL A   1      27.542  32.811  20.281  1.00  0.00    -0.285 N 
ATOM     26  H   UNL A   1      27.120  33.240  19.502  1.00  0.00     0.189 HD
ENDBRANCH  20  21
ENDBRANCH  19  20
ENDBRANCH  17  19
ENDBRANCH  11  17
ENDBRANCH   3   6
ENDBRANCH   1   2
BRANCH   1  27
ATOM     27  C   UNL A   1      31.709  31.867  26.564  1.00  0.00     0.042 C 
BRANCH  27  28
ATOM     28  C   UNL A   1      32.768  32.598  27.374  1.00  0.00     0.118 C 
BRANCH  28  29
ATOM     29  N   UNL A   1      32.419  33.998  27.577  1.00  0.00    -0.352 N 
ATOM     30  C   UNL A   1      32.963  34.885  28.479  1.00  0.00     0.251 C 
ATOM     31  H   UNL A   1      31.705  34.353  27.000  1.00  0.00     0.163 HD
ATOM     32  O   UNL A   1      32.453  35.974  28.675  1.00  0.00    -0.269 OA
BRANCH  30  33
ATOM     33  C   UNL A   1      34.170  34.469  29.225  1.00  0.00     0.039 A 
ATOM     34  C   UNL A   1      34.030  33.880  30.482  1.00  0.00     0.014 A 
ATOM     35  C   UNL A   1      35.430  34.604  28.635  1.00  0.00     0.014 A 
ATOM     36  C   UNL A   1      35.157  33.366  31.128  1.00  0.00     0.010 A 
ATOM     37  C   UNL A   1      36.532  34.016  29.238  1.00  0.00     0.010 A 
ATOM     38  C   UNL A   1      36.411  33.399  30.494  1.00  0.00    -0.014 A 
BRANCH  38  39
ATOM     39  C   UNL A   1      37.627  32.830  31.124  1.00  0.00     0.031 A 
ATOM     40  C   UNL A   1      38.290  31.633  30.496  1.00  0.00     0.074 A 
ATOM     41  C   UNL A   1      38.076  33.315  32.298  1.00  0.00     0.049 A 
ATOM     42  N   UNL A   1      39.256  30.883  30.960  1.00  0.00    -0.248 NA
ATOM     43  C   UNL A   1      37.765  31.199  29.190  1.00  0.00     0.031 C 
ATOM     44  C   UNL A   1      37.506  34.449  33.027  1.00  0.00     0.029 A 
ATOM     45  N   UNL A   1      39.113  32.895  33.095  1.00  0.00    -0.354 N 
ATOM     46  C   UNL A   1      39.425  29.871  30.024  1.00  0.00     0.074 A 
ATOM     47  C   UNL A   1      38.432  30.073  28.992  1.00  0.00     0.031 C 
ATOM     48  C   UNL A   1      38.212  34.648  34.152  1.00  0.00     0.029 A 
ATOM     49  C   UNL A   1      39.251  33.629  34.249  1.00  0.00     0.049 A 
ATOM     50  H   UNL A   1      39.701  32.141  32.862  1.00  0.00     0.167 HD
ATOM     51  C   UNL A   1      40.337  28.871  30.012  1.00  0.00     0.031 A 
ATOM     52  C   UNL A   1      40.111  33.485  35.276  1.00  0.00     0.031 A 
ATOM     53  C   UNL A   1      41.344  28.690  31.021  1.00  0.00     0.049 A 
ATOM     54  C   UNL A   1      41.119  32.369  35.238  1.00  0.00     0.074 A 
ATOM     55  C   UNL A   1      42.355  27.746  31.071  1.00  0.00     0.029 A 
ATOM     56  N   UNL A   1      41.471  29.476  32.154  1.00  0.00    -0.354 N 
ATOM     57  N   UNL A   1      41.301  31.450  34.321  1.00  0.00    -0.248 NA
ATOM     58  C   UNL A   1      42.048  32.278  36.374  1.00  0.00     0.031 C 
ATOM     59  C   UNL A   1      43.069  27.936  32.257  1.00  0.00     0.029 A 
ATOM     60  C   UNL A   1      42.536  29.032  32.918  1.00  0.00     0.049 A 
ATOM     61  H   UNL A   1      40.890  30.238  32.383  1.00  0.00     0.167 HD
ATOM     62  C   UNL A   1      42.385  30.695  34.750  1.00  0.00     0.074 A 
ATOM     63  C   UNL A   1      42.824  31.268  36.006  1.00  0.00     0.031 C 
ATOM     64  C   UNL A   1      42.968  29.625  34.156  1.00  0.00     0.031 A 
BRANCH  51  65
ATOM     65  C   UNL A   1      40.278  27.896  28.869  1.00  0.00    -0.014 A 
ATOM     66  C   UNL A   1      39.551  26.698  28.968  1.00  0.00     0.009 A 
ATOM     67  C   UNL A   1      40.943  28.188  27.668  1.00  0.00     0.009 A 
ATOM     68  C   UNL A   1      39.528  25.794  27.905  1.00  0.00     0.001 A 
ATOM     69  C   UNL A   1      40.891  27.297  26.594  1.00  0.00     0.001 A 
ATOM     70  C   UNL A   1      40.194  26.096  26.719  1.00  0.00     0.000 A 
ENDBRANCH  51  65
BRANCH  52  71
ATOM     71  C   UNL A   1      40.071  34.430  36.422  1.00  0.00    -0.014 A 
ATOM     72  C   UNL A   1      40.762  35.651  36.359  1.00  0.00     0.009 A 
ATOM     73  C   UNL A   1      39.353  34.118  37.587  1.00  0.00     0.009 A 
ATOM     74  C   UNL A   1      40.759  36.525  37.448  1.00  0.00     0.001 A 
ATOM     75  C   UNL A   1      39.328  35.008  38.664  1.00  0.00     0.001 A 
ATOM     76  C   UNL A   1      40.038  36.205  38.597  1.00  0.00     0.000 A 
ENDBRANCH  52  71
BRANCH  64  77
ATOM     77  C   UNL A   1      44.179  29.038  34.821  1.00  0.00    -0.014 A 
ATOM     78  C   UNL A   1      45.469  29.516  34.548  1.00  0.00     0.009 A 
ATOM     79  C   UNL A   1      44.015  28.032  35.787  1.00  0.00     0.009 A 
ATOM     80  C   UNL A   1      46.573  28.979  35.213  1.00  0.00     0.001 A 
ATOM     81  C   UNL A   1      45.117  27.517  36.470  1.00  0.00     0.001 A 
ATOM     82  C   UNL A   1      46.396  27.987  36.177  1.00  0.00     0.000 A 
ENDBRANCH  64  77
ENDBRANCH  38  39
ENDBRANCH  30  33
ENDBRANCH  28  29
ENDBRANCH  27  28
ENDBRANCH   1  27
TORSDOF 15
ENDMDL
