MODEL 1
REMARK VINA RESULT:     -12.3      0.000      0.000
REMARK SMILES Cc1ccccc1[C@@H](Cc1c(Cl)cccc1Cl)C(=O)NCCCNC(=O)c1ccc(-c2c3nc(c(-c4ccccc4)c4ccc([nH]4)c(-c4ccccc4)c4nc(c(-c5ccccc5)c5ccc2[nH]5)C=C4)C=C3)cc1
REMARK SMILES IDX 22 1 21 2 20 3 18 4 19 5 8 7 7 8 1 9 2 10 3 11 4 12 6 13
REMARK SMILES IDX 5 14 9 15 10 16 11 17 16 18 12 19 13 20 15 21 17 22 14 23
REMARK SMILES IDX 23 24 24 25 25 26 26 28 27 29 28 30 74 31 29 32 73 33 30 34
REMARK SMILES IDX 31 35 32 36 67 37 33 38 72 39 66 40 68 41 34 42 71 43 65 44
REMARK SMILES IDX 64 45 35 47 57 48 42 49 56 50 43 51 46 52 55 53 69 54 44 55
REMARK SMILES IDX 45 56 54 58 70 59 47 60 36 61 37 62 41 63 38 64 40 65 39 66
REMARK SMILES IDX 58 67 59 68 63 69 60 70 62 71 61 72 48 73 49 74 53 75 50 76
REMARK SMILES IDX 52 77 51 78
REMARK H PARENT 20 6 24 27 68 46 46 57
REMARK Flexibility Score: inf
ROOT
ATOM      1  C   UNL A   1      38.312  21.994  26.161  1.00  0.00     0.042 C 
ENDROOT
BRANCH   1   2
ATOM      2  C   UNL A   1      37.640  23.289  25.720  1.00  0.00     0.117 C 
BRANCH   2   3
ATOM      3  N   UNL A   1      37.406  23.301  24.290  1.00  0.00    -0.355 N 
ATOM      4  C   UNL A   1      36.266  23.216  23.551  1.00  0.00     0.227 C 
ATOM      5  O   UNL A   1      36.434  22.976  22.347  1.00  0.00    -0.274 OA
ATOM      6  H   UNL A   1      38.225  23.387  23.751  1.00  0.00     0.163 HD
BRANCH   4   7
ATOM      7  C   UNL A   1      34.832  23.385  24.102  1.00  0.00     0.113 C 
BRANCH   7   8
ATOM      8  C   UNL A   1      34.121  22.028  24.263  1.00  0.00    -0.032 A 
ATOM      9  C   UNL A   1      31.926  22.768  23.115  1.00  0.00     0.044 C 
ATOM     10  C   UNL A   1      32.862  21.737  23.687  1.00  0.00    -0.047 A 
ATOM     11  C   UNL A   1      32.419  20.399  23.631  1.00  0.00     0.004 A 
ATOM     12  C   UNL A   1      33.161  19.364  24.190  1.00  0.00     0.000 A 
ATOM     13  C   UNL A   1      34.778  20.981  24.934  1.00  0.00     0.005 A 
ATOM     14  C   UNL A   1      34.326  19.661  24.877  1.00  0.00     0.000 A 
ENDBRANCH   7   8
BRANCH   7  15
ATOM     15  C   UNL A   1      34.592  24.380  25.266  1.00  0.00     0.057 C 
BRANCH  15  16
ATOM     16  C   UNL A   1      33.247  25.087  25.422  1.00  0.00    -0.010 A 
ATOM     17  C   UNL A   1      32.285  24.585  26.333  1.00  0.00     0.045 A 
ATOM     18  C   UNL A   1      32.860  26.216  24.671  1.00  0.00     0.045 A 
ATOM     19  Cl  UNL A   1      32.511  23.109  27.217  1.00  0.00    -0.084 Cl
ATOM     20  C   UNL A   1      31.068  25.243  26.561  1.00  0.00     0.021 A 
ATOM     21  C   UNL A   1      31.656  26.890  24.929  1.00  0.00     0.021 A 
ATOM     22  Cl  UNL A   1      33.756  26.812  23.320  1.00  0.00    -0.084 Cl
ATOM     23  C   UNL A   1      30.765  26.414  25.883  1.00  0.00     0.003 A 
ENDBRANCH  15  16
ENDBRANCH   7  15
ENDBRANCH   4   7
ENDBRANCH   2   3
ENDBRANCH   1   2
BRANCH   1  24
ATOM     24  C   UNL A   1      39.798  22.125  26.433  1.00  0.00     0.118 C 
BRANCH  24  25
ATOM     25  N   UNL A   1      40.582  21.005  25.916  1.00  0.00    -0.352 N 
ATOM     26  C   UNL A   1      41.947  20.780  26.021  1.00  0.00     0.251 C 
ATOM     27  H   UNL A   1      40.074  20.319  25.427  1.00  0.00     0.163 HD
ATOM     28  O   UNL A   1      42.451  19.762  25.591  1.00  0.00    -0.269 OA
BRANCH  26  29
ATOM     29  C   UNL A   1      42.746  21.746  26.811  1.00  0.00     0.039 A 
ATOM     30  C   UNL A   1      42.620  21.683  28.200  1.00  0.00     0.014 A 
ATOM     31  C   UNL A   1      43.308  22.859  26.194  1.00  0.00     0.014 A 
ATOM     32  C   UNL A   1      42.788  22.847  28.940  1.00  0.00     0.010 A 
ATOM     33  C   UNL A   1      43.361  24.040  26.908  1.00  0.00     0.010 A 
ATOM     34  C   UNL A   1      43.015  24.047  28.263  1.00  0.00    -0.014 A 
BRANCH  34  35
ATOM     35  C   UNL A   1      42.777  25.344  28.887  1.00  0.00     0.031 A 
ATOM     36  C   UNL A   1      41.600  26.147  28.484  1.00  0.00     0.074 A 
ATOM     37  C   UNL A   1      43.634  25.829  29.820  1.00  0.00     0.049 A 
ATOM     38  N   UNL A   1      41.563  27.439  28.497  1.00  0.00    -0.248 NA
ATOM     39  C   UNL A   1      40.377  25.545  27.963  1.00  0.00     0.031 C 
ATOM     40  C   UNL A   1      43.435  27.028  30.635  1.00  0.00     0.029 A 
ATOM     41  N   UNL A   1      44.956  25.468  30.104  1.00  0.00    -0.354 N 
ATOM     42  C   UNL A   1      40.251  27.813  28.310  1.00  0.00     0.074 A 
ATOM     43  C   UNL A   1      39.582  26.614  27.863  1.00  0.00     0.031 C 
ATOM     44  C   UNL A   1      44.636  27.477  31.033  1.00  0.00     0.029 A 
ATOM     45  C   UNL A   1      45.636  26.669  30.359  1.00  0.00     0.049 A 
ATOM     46  H   UNL A   1      45.331  24.558  30.121  1.00  0.00     0.167 HD
ATOM     47  C   UNL A   1      39.838  29.049  28.712  1.00  0.00     0.031 A 
ATOM     48  C   UNL A   1      46.666  27.166  29.612  1.00  0.00     0.031 A 
ATOM     49  C   UNL A   1      40.950  29.869  29.195  1.00  0.00     0.049 A 
ATOM     50  C   UNL A   1      46.428  28.583  29.116  1.00  0.00     0.074 A 
ATOM     51  C   UNL A   1      41.378  30.220  30.465  1.00  0.00     0.029 A 
ATOM     52  N   UNL A   1      41.971  30.229  28.323  1.00  0.00    -0.354 N 
ATOM     53  N   UNL A   1      45.253  29.147  29.080  1.00  0.00    -0.248 NA
ATOM     54  C   UNL A   1      47.468  29.446  28.555  1.00  0.00     0.031 C 
ATOM     55  C   UNL A   1      42.689  30.749  30.358  1.00  0.00     0.029 A 
ATOM     56  C   UNL A   1      43.048  30.738  29.022  1.00  0.00     0.049 A 
ATOM     57  H   UNL A   1      41.931  30.135  27.344  1.00  0.00     0.167 HD
ATOM     58  C   UNL A   1      45.350  30.389  28.510  1.00  0.00     0.074 A 
ATOM     59  C   UNL A   1      46.761  30.538  28.209  1.00  0.00     0.031 C 
ATOM     60  C   UNL A   1      44.249  31.173  28.319  1.00  0.00     0.031 A 
BRANCH  47  61
ATOM     61  C   UNL A   1      38.385  29.405  28.963  1.00  0.00    -0.014 A 
ATOM     62  C   UNL A   1      37.642  30.045  27.952  1.00  0.00     0.009 A 
ATOM     63  C   UNL A   1      37.709  29.211  30.179  1.00  0.00     0.009 A 
ATOM     64  C   UNL A   1      36.356  30.558  28.179  1.00  0.00     0.001 A 
ATOM     65  C   UNL A   1      36.438  29.750  30.427  1.00  0.00     0.001 A 
ATOM     66  C   UNL A   1      35.766  30.439  29.428  1.00  0.00     0.000 A 
ENDBRANCH  47  61
BRANCH  48  67
ATOM     67  C   UNL A   1      47.450  26.155  28.857  1.00  0.00    -0.014 A 
ATOM     68  C   UNL A   1      47.124  25.914  27.509  1.00  0.00     0.009 A 
ATOM     69  C   UNL A   1      48.680  25.692  29.344  1.00  0.00     0.009 A 
ATOM     70  C   UNL A   1      48.053  25.329  26.644  1.00  0.00     0.001 A 
ATOM     71  C   UNL A   1      49.604  25.099  28.476  1.00  0.00     0.001 A 
ATOM     72  C   UNL A   1      49.305  24.951  27.122  1.00  0.00     0.000 A 
ENDBRANCH  48  67
BRANCH  60  73
ATOM     73  C   UNL A   1      44.181  32.454  27.520  1.00  0.00    -0.014 A 
ATOM     74  C   UNL A   1      44.322  32.531  26.129  1.00  0.00     0.009 A 
ATOM     75  C   UNL A   1      43.822  33.651  28.184  1.00  0.00     0.009 A 
ATOM     76  C   UNL A   1      44.156  33.745  25.445  1.00  0.00     0.001 A 
ATOM     77  C   UNL A   1      43.613  34.853  27.502  1.00  0.00     0.001 A 
ATOM     78  C   UNL A   1      43.792  34.901  26.128  1.00  0.00     0.000 A 
ENDBRANCH  60  73
ENDBRANCH  34  35
ENDBRANCH  26  29
ENDBRANCH  24  25
ENDBRANCH   1  24
TORSDOF 13
ENDMDL
MODEL 2
REMARK VINA RESULT:     -12.2      3.323      8.166
REMARK SMILES Cc1ccccc1[C@@H](Cc1c(Cl)cccc1Cl)C(=O)NCCCNC(=O)c1ccc(-c2c3nc(c(-c4ccccc4)c4ccc([nH]4)c(-c4ccccc4)c4nc(c(-c5ccccc5)c5ccc2[nH]5)C=C4)C=C3)cc1
REMARK SMILES IDX 22 1 21 2 20 3 18 4 19 5 8 7 7 8 1 9 2 10 3 11 4 12 6 13
REMARK SMILES IDX 5 14 9 15 10 16 11 17 16 18 12 19 13 20 15 21 17 22 14 23
REMARK SMILES IDX 23 24 24 25 25 26 26 28 27 29 28 30 74 31 29 32 73 33 30 34
REMARK SMILES IDX 31 35 32 36 67 37 33 38 72 39 66 40 68 41 34 42 71 43 65 44
REMARK SMILES IDX 64 45 35 47 57 48 42 49 56 50 43 51 46 52 55 53 69 54 44 55
REMARK SMILES IDX 45 56 54 58 70 59 47 60 36 61 37 62 41 63 38 64 40 65 39 66
REMARK SMILES IDX 58 67 59 68 63 69 60 70 62 71 61 72 48 73 49 74 53 75 50 76
REMARK SMILES IDX 52 77 51 78
REMARK H PARENT 20 6 24 27 68 46 46 57
REMARK Flexibility Score: inf
ROOT
ATOM      1  C   UNL A   1      34.293  30.911  27.238  1.00  0.00     0.042 C 
ENDROOT
BRANCH   1   2
ATOM      2  C   UNL A   1      34.060  29.475  26.785  1.00  0.00     0.117 C 
BRANCH   2   3
ATOM      3  N   UNL A   1      32.992  28.850  27.540  1.00  0.00    -0.355 N 
ATOM      4  C   UNL A   1      32.065  27.912  27.204  1.00  0.00     0.227 C 
ATOM      5  O   UNL A   1      31.119  27.797  27.996  1.00  0.00    -0.274 OA
ATOM      6  H   UNL A   1      32.924  29.162  28.471  1.00  0.00     0.163 HD
BRANCH   4   7
ATOM      7  C   UNL A   1      32.113  27.023  25.940  1.00  0.00     0.113 C 
BRANCH   7   8
ATOM      8  C   UNL A   1      31.185  27.558  24.833  1.00  0.00    -0.032 A 
ATOM      9  C   UNL A   1      30.082  25.277  24.321  1.00  0.00     0.044 C 
ATOM     10  C   UNL A   1      30.183  26.775  24.215  1.00  0.00    -0.047 A 
ATOM     11  C   UNL A   1      29.194  27.409  23.432  1.00  0.00     0.004 A 
ATOM     12  C   UNL A   1      29.221  28.780  23.198  1.00  0.00     0.000 A 
ATOM     13  C   UNL A   1      31.260  28.913  24.467  1.00  0.00     0.005 A 
ATOM     14  C   UNL A   1      30.279  29.528  23.686  1.00  0.00     0.000 A 
ENDBRANCH   7   8
BRANCH   7  15
ATOM     15  C   UNL A   1      33.489  26.514  25.438  1.00  0.00     0.057 C 
BRANCH  15  16
ATOM     16  C   UNL A   1      33.577  25.344  24.460  1.00  0.00    -0.010 A 
ATOM     17  C   UNL A   1      33.774  24.027  24.947  1.00  0.00     0.045 A 
ATOM     18  C   UNL A   1      33.521  25.485  23.058  1.00  0.00     0.045 A 
ATOM     19  Cl  UNL A   1      34.039  23.679  26.625  1.00  0.00    -0.084 Cl
ATOM     20  C   UNL A   1      33.788  22.917  24.091  1.00  0.00     0.021 A 
ATOM     21  C   UNL A   1      33.501  24.366  22.210  1.00  0.00     0.021 A 
ATOM     22  Cl  UNL A   1      33.573  27.012  22.253  1.00  0.00    -0.084 Cl
ATOM     23  C   UNL A   1      33.620  23.081  22.724  1.00  0.00     0.003 A 
ENDBRANCH  15  16
ENDBRANCH   7  15
ENDBRANCH   4   7
ENDBRANCH   2   3
ENDBRANCH   1   2
BRANCH   1  24
ATOM     24  C   UNL A   1      34.628  31.053  28.710  1.00  0.00     0.118 C 
BRANCH  24  25
ATOM     25  N   UNL A   1      35.740  31.968  28.964  1.00  0.00    -0.352 N 
ATOM     26  C   UNL A   1      37.098  31.691  29.009  1.00  0.00     0.251 C 
ATOM     27  H   UNL A   1      35.491  32.906  29.125  1.00  0.00     0.163 HD
ATOM     28  O   UNL A   1      37.916  32.575  29.169  1.00  0.00    -0.269 OA
BRANCH  26  29
ATOM     29  C   UNL A   1      37.530  30.308  28.700  1.00  0.00     0.039 A 
ATOM     30  C   UNL A   1      37.702  29.442  29.782  1.00  0.00     0.014 A 
ATOM     31  C   UNL A   1      38.062  30.003  27.451  1.00  0.00     0.014 A 
ATOM     32  C   UNL A   1      38.644  28.427  29.683  1.00  0.00     0.010 A 
ATOM     33  C   UNL A   1      39.081  29.073  27.388  1.00  0.00     0.010 A 
ATOM     34  C   UNL A   1      39.428  28.347  28.531  1.00  0.00    -0.014 A 
BRANCH  34  35
ATOM     35  C   UNL A   1      40.695  27.624  28.506  1.00  0.00     0.031 A 
ATOM     36  C   UNL A   1      40.696  26.152  28.346  1.00  0.00     0.074 A 
ATOM     37  C   UNL A   1      41.871  28.285  28.645  1.00  0.00     0.049 A 
ATOM     38  N   UNL A   1      41.594  25.367  28.845  1.00  0.00    -0.248 NA
ATOM     39  C   UNL A   1      39.628  25.434  27.656  1.00  0.00     0.031 C 
ATOM     40  C   UNL A   1      43.209  27.713  28.481  1.00  0.00     0.029 A 
ATOM     41  N   UNL A   1      42.133  29.561  29.157  1.00  0.00    -0.354 N 
ATOM     42  C   UNL A   1      41.410  24.124  28.282  1.00  0.00     0.074 A 
ATOM     43  C   UNL A   1      40.111  24.188  27.652  1.00  0.00     0.031 C 
ATOM     44  C   UNL A   1      44.081  28.462  29.173  1.00  0.00     0.029 A 
ATOM     45  C   UNL A   1      43.305  29.438  29.919  1.00  0.00     0.049 A 
ATOM     46  H   UNL A   1      41.602  30.377  29.012  1.00  0.00     0.167 HD
ATOM     47  C   UNL A   1      42.441  23.232  28.265  1.00  0.00     0.031 A 
ATOM     48  C   UNL A   1      43.394  29.639  31.268  1.00  0.00     0.031 A 
ATOM     49  C   UNL A   1      43.607  23.726  28.997  1.00  0.00     0.049 A 
ATOM     50  C   UNL A   1      43.986  28.458  32.020  1.00  0.00     0.074 A 
ATOM     51  C   UNL A   1      44.815  24.269  28.588  1.00  0.00     0.029 A 
ATOM     52  N   UNL A   1      43.515  23.959  30.364  1.00  0.00    -0.354 N 
ATOM     53  N   UNL A   1      44.070  27.255  31.525  1.00  0.00    -0.248 NA
ATOM     54  C   UNL A   1      44.458  28.515  33.404  1.00  0.00     0.031 C 
ATOM     55  C   UNL A   1      45.427  24.878  29.713  1.00  0.00     0.029 A 
ATOM     56  C   UNL A   1      44.603  24.686  30.807  1.00  0.00     0.049 A 
ATOM     57  H   UNL A   1      42.777  23.648  30.937  1.00  0.00     0.167 HD
ATOM     58  C   UNL A   1      44.571  26.396  32.467  1.00  0.00     0.074 A 
ATOM     59  C   UNL A   1      44.812  27.235  33.626  1.00  0.00     0.031 C 
ATOM     60  C   UNL A   1      44.720  25.064  32.210  1.00  0.00     0.031 A 
BRANCH  47  61
ATOM     61  C   UNL A   1      42.507  22.047  27.319  1.00  0.00    -0.014 A 
ATOM     62  C   UNL A   1      41.735  20.900  27.588  1.00  0.00     0.009 A 
ATOM     63  C   UNL A   1      43.349  21.959  26.198  1.00  0.00     0.009 A 
ATOM     64  C   UNL A   1      41.882  19.711  26.858  1.00  0.00     0.001 A 
ATOM     65  C   UNL A   1      43.529  20.766  25.485  1.00  0.00     0.001 A 
ATOM     66  C   UNL A   1      42.804  19.633  25.825  1.00  0.00     0.000 A 
ENDBRANCH  47  61
BRANCH  48  67
ATOM     67  C   UNL A   1      42.371  30.547  31.844  1.00  0.00    -0.014 A 
ATOM     68  C   UNL A   1      42.524  31.936  31.673  1.00  0.00     0.009 A 
ATOM     69  C   UNL A   1      41.123  30.055  32.253  1.00  0.00     0.009 A 
ATOM     70  C   UNL A   1      41.429  32.795  31.795  1.00  0.00     0.001 A 
ATOM     71  C   UNL A   1      40.031  30.920  32.382  1.00  0.00     0.001 A 
ATOM     72  C   UNL A   1      40.176  32.282  32.118  1.00  0.00     0.000 A 
ENDBRANCH  48  67
BRANCH  60  73
ATOM     73  C   UNL A   1      45.053  23.984  33.213  1.00  0.00    -0.014 A 
ATOM     74  C   UNL A   1      46.306  23.815  33.813  1.00  0.00     0.009 A 
ATOM     75  C   UNL A   1      44.010  23.155  33.690  1.00  0.00     0.009 A 
ATOM     76  C   UNL A   1      46.516  22.845  34.805  1.00  0.00     0.001 A 
ATOM     77  C   UNL A   1      44.203  22.218  34.709  1.00  0.00     0.001 A 
ATOM     78  C   UNL A   1      45.464  22.055  35.260  1.00  0.00     0.000 A 
ENDBRANCH  60  73
ENDBRANCH  34  35
ENDBRANCH  26  29
ENDBRANCH  24  25
ENDBRANCH   1  24
TORSDOF 13
ENDMDL
MODEL 3
REMARK VINA RESULT:     -12.2      4.107      8.971
REMARK SMILES Cc1ccccc1[C@@H](Cc1c(Cl)cccc1Cl)C(=O)NCCCNC(=O)c1ccc(-c2c3nc(c(-c4ccccc4)c4ccc([nH]4)c(-c4ccccc4)c4nc(c(-c5ccccc5)c5ccc2[nH]5)C=C4)C=C3)cc1
REMARK SMILES IDX 22 1 21 2 20 3 18 4 19 5 8 7 7 8 1 9 2 10 3 11 4 12 6 13
REMARK SMILES IDX 5 14 9 15 10 16 11 17 16 18 12 19 13 20 15 21 17 22 14 23
REMARK SMILES IDX 23 24 24 25 25 26 26 28 27 29 28 30 74 31 29 32 73 33 30 34
REMARK SMILES IDX 31 35 32 36 67 37 33 38 72 39 66 40 68 41 34 42 71 43 65 44
REMARK SMILES IDX 64 45 35 47 57 48 42 49 56 50 43 51 46 52 55 53 69 54 44 55
REMARK SMILES IDX 45 56 54 58 70 59 47 60 36 61 37 62 41 63 38 64 40 65 39 66
REMARK SMILES IDX 58 67 59 68 63 69 60 70 62 71 61 72 48 73 49 74 53 75 50 76
REMARK SMILES IDX 52 77 51 78
REMARK H PARENT 20 6 24 27 68 46 46 57
REMARK Flexibility Score: inf
ROOT
ATOM      1  C   UNL A   1      35.155  29.918  27.956  1.00  0.00     0.042 C 
ENDROOT
BRANCH   1   2
ATOM      2  C   UNL A   1      34.211  29.237  26.971  1.00  0.00     0.117 C 
BRANCH   2   3
ATOM      3  N   UNL A   1      33.036  28.716  27.642  1.00  0.00    -0.355 N 
ATOM      4  C   UNL A   1      32.047  27.878  27.229  1.00  0.00     0.227 C 
ATOM      5  O   UNL A   1      31.041  27.853  27.952  1.00  0.00    -0.274 OA
ATOM      6  H   UNL A   1      32.935  29.027  28.570  1.00  0.00     0.163 HD
BRANCH   4   7
ATOM      7  C   UNL A   1      32.096  26.998  25.960  1.00  0.00     0.113 C 
BRANCH   7   8
ATOM      8  C   UNL A   1      31.201  27.564  24.840  1.00  0.00    -0.032 A 
ATOM      9  C   UNL A   1      30.044  25.317  24.296  1.00  0.00     0.044 C 
ATOM     10  C   UNL A   1      30.189  26.813  24.201  1.00  0.00    -0.047 A 
ATOM     11  C   UNL A   1      29.230  27.478  23.406  1.00  0.00     0.004 A 
ATOM     12  C   UNL A   1      29.299  28.849  23.181  1.00  0.00     0.000 A 
ATOM     13  C   UNL A   1      31.319  28.919  24.484  1.00  0.00     0.005 A 
ATOM     14  C   UNL A   1      30.368  29.565  23.691  1.00  0.00     0.000 A 
ENDBRANCH   7   8
BRANCH   7  15
ATOM     15  C   UNL A   1      33.467  26.459  25.478  1.00  0.00     0.057 C 
BRANCH  15  16
ATOM     16  C   UNL A   1      33.544  25.296  24.490  1.00  0.00    -0.010 A 
ATOM     17  C   UNL A   1      33.709  23.972  24.967  1.00  0.00     0.045 A 
ATOM     18  C   UNL A   1      33.506  25.450  23.089  1.00  0.00     0.045 A 
ATOM     19  Cl  UNL A   1      33.950  23.603  26.645  1.00  0.00    -0.084 Cl
ATOM     20  C   UNL A   1      33.712  22.868  24.102  1.00  0.00     0.021 A 
ATOM     21  C   UNL A   1      33.473  24.340  22.230  1.00  0.00     0.021 A 
ATOM     22  Cl  UNL A   1      33.596  26.983  22.298  1.00  0.00    -0.084 Cl
ATOM     23  C   UNL A   1      33.562  23.048  22.734  1.00  0.00     0.003 A 
ENDBRANCH  15  16
ENDBRANCH   7  15
ENDBRANCH   4   7
ENDBRANCH   2   3
ENDBRANCH   1   2
BRANCH   1  24
ATOM     24  C   UNL A   1      35.433  31.376  27.644  1.00  0.00     0.118 C 
BRANCH  24  25
ATOM     25  N   UNL A   1      34.381  32.278  28.111  1.00  0.00    -0.352 N 
ATOM     26  C   UNL A   1      34.406  33.158  29.183  1.00  0.00     0.251 C 
ATOM     27  H   UNL A   1      33.542  32.257  27.596  1.00  0.00     0.163 HD
ATOM     28  O   UNL A   1      33.469  33.896  29.413  1.00  0.00    -0.269 OA
BRANCH  26  29
ATOM     29  C   UNL A   1      35.670  33.280  29.945  1.00  0.00     0.039 A 
ATOM     30  C   UNL A   1      36.717  33.969  29.327  1.00  0.00     0.014 A 
ATOM     31  C   UNL A   1      35.905  32.464  31.048  1.00  0.00     0.014 A 
ATOM     32  C   UNL A   1      38.024  33.612  29.633  1.00  0.00     0.010 A 
ATOM     33  C   UNL A   1      37.195  32.025  31.268  1.00  0.00     0.010 A 
ATOM     34  C   UNL A   1      38.243  32.538  30.498  1.00  0.00    -0.014 A 
BRANCH  34  35
ATOM     35  C   UNL A   1      39.517  31.827  30.540  1.00  0.00     0.031 A 
ATOM     36  C   UNL A   1      39.663  30.541  29.821  1.00  0.00     0.074 A 
ATOM     37  C   UNL A   1      40.562  32.324  31.247  1.00  0.00     0.049 A 
ATOM     38  N   UNL A   1      40.445  29.582  30.197  1.00  0.00    -0.248 NA
ATOM     39  C   UNL A   1      38.874  30.206  28.639  1.00  0.00     0.031 C 
ATOM     40  C   UNL A   1      41.931  31.805  31.246  1.00  0.00     0.029 A 
ATOM     41  N   UNL A   1      40.586  33.279  32.270  1.00  0.00    -0.354 N 
ATOM     42  C   UNL A   1      40.507  28.675  29.163  1.00  0.00     0.074 A 
ATOM     43  C   UNL A   1      39.426  29.043  28.279  1.00  0.00     0.031 C 
ATOM     44  C   UNL A   1      42.529  32.177  32.389  1.00  0.00     0.029 A 
ATOM     45  C   UNL A   1      41.514  32.811  33.212  1.00  0.00     0.049 A 
ATOM     46  H   UNL A   1      40.059  34.109  32.317  1.00  0.00     0.167 HD
ATOM     47  C   UNL A   1      41.564  27.817  29.082  1.00  0.00     0.031 A 
ATOM     48  C   UNL A   1      41.221  32.456  34.499  1.00  0.00     0.031 A 
ATOM     49  C   UNL A   1      42.451  27.927  30.240  1.00  0.00     0.049 A 
ATOM     50  C   UNL A   1      41.668  31.048  34.857  1.00  0.00     0.074 A 
ATOM     51  C   UNL A   1      43.683  28.532  30.428  1.00  0.00     0.029 A 
ATOM     52  N   UNL A   1      41.976  27.602  31.505  1.00  0.00    -0.354 N 
ATOM     53  N   UNL A   1      41.965  30.138  33.973  1.00  0.00    -0.248 NA
ATOM     54  C   UNL A   1      41.742  30.529  36.224  1.00  0.00     0.031 C 
ATOM     55  C   UNL A   1      43.925  28.616  31.823  1.00  0.00     0.029 A 
ATOM     56  C   UNL A   1      42.850  28.044  32.480  1.00  0.00     0.049 A 
ATOM     57  H   UNL A   1      41.134  27.123  31.682  1.00  0.00     0.167 HD
ATOM     58  C   UNL A   1      42.251  28.953  34.600  1.00  0.00     0.074 A 
ATOM     59  C   UNL A   1      42.111  29.252  36.012  1.00  0.00     0.031 C 
ATOM     60  C   UNL A   1      42.557  27.827  33.891  1.00  0.00     0.031 A 
BRANCH  47  61
ATOM     61  C   UNL A   1      41.965  27.104  27.805  1.00  0.00    -0.014 A 
ATOM     62  C   UNL A   1      42.514  27.842  26.739  1.00  0.00     0.009 A 
ATOM     63  C   UNL A   1      41.767  25.736  27.552  1.00  0.00     0.009 A 
ATOM     64  C   UNL A   1      42.741  27.279  25.475  1.00  0.00     0.001 A 
ATOM     65  C   UNL A   1      41.957  25.170  26.283  1.00  0.00     0.001 A 
ATOM     66  C   UNL A   1      42.431  25.948  25.237  1.00  0.00     0.000 A 
ENDBRANCH  47  61
BRANCH  48  67
ATOM     67  C   UNL A   1      40.019  33.106  35.080  1.00  0.00    -0.014 A 
ATOM     68  C   UNL A   1      38.776  32.454  34.970  1.00  0.00     0.009 A 
ATOM     69  C   UNL A   1      40.145  34.160  35.995  1.00  0.00     0.009 A 
ATOM     70  C   UNL A   1      37.725  32.771  35.835  1.00  0.00     0.001 A 
ATOM     71  C   UNL A   1      39.087  34.481  36.853  1.00  0.00     0.001 A 
ATOM     72  C   UNL A   1      37.893  33.763  36.797  1.00  0.00     0.000 A 
ENDBRANCH  48  67
BRANCH  60  73
ATOM     73  C   UNL A   1      42.680  26.424  34.437  1.00  0.00    -0.014 A 
ATOM     74  C   UNL A   1      41.718  25.794  35.236  1.00  0.00     0.009 A 
ATOM     75  C   UNL A   1      43.773  25.626  34.021  1.00  0.00     0.009 A 
ATOM     76  C   UNL A   1      41.860  24.455  35.631  1.00  0.00     0.001 A 
ATOM     77  C   UNL A   1      43.896  24.280  34.375  1.00  0.00     0.001 A 
ATOM     78  C   UNL A   1      42.942  23.697  35.193  1.00  0.00     0.000 A 
ENDBRANCH  60  73
ENDBRANCH  34  35
ENDBRANCH  26  29
ENDBRANCH  24  25
ENDBRANCH   1  24
TORSDOF 13
ENDMDL
