MODEL 1
REMARK VINA RESULT:     -11.5      0.000      0.000
REMARK SMILES CC(=O)N1CCc2cc(S(=O)(=O)N[C@@H](C(=O)NCCCNC(=O)c3ccc(-c4c5nc(c(-c6ccccc6)c6ccc([nH]6)c(-c6ccccc6)c6nc(c(-c7ccccc7)c7ccc4[nH]7)C=C6)C=C5)cc3)C(C)C)ccc21
REMARK SMILES IDX 18 1 17 2 15 3 16 4 14 6 13 7 10 9 11 10 12 11 9 12 4 13
REMARK SMILES IDX 5 14 77 15 6 16 7 17 76 18 8 19 75 20 2 21 1 22 3 23 72 24
REMARK SMILES IDX 73 25 74 26 19 27 20 28 21 29 22 30 23 32 24 33 25 34 71 35
REMARK SMILES IDX 26 36 70 37 27 38 28 39 29 40 64 41 30 42 69 43 63 44 65 45
REMARK SMILES IDX 31 46 68 47 62 48 61 49 32 51 54 52 39 53 53 54 40 55 43 56
REMARK SMILES IDX 52 57 66 58 41 59 42 60 51 62 67 63 44 64 33 65 34 66 38 67
REMARK SMILES IDX 35 68 37 69 36 70 55 71 56 72 60 73 57 74 59 75 58 76 45 77
REMARK SMILES IDX 46 78 50 79 47 80 49 81 48 82
REMARK H PARENT 17 5 13 8 21 31 65 50 43 61
REMARK Flexibility Score: inf
ROOT
ATOM      1  C   UNL A   1      31.479  30.121  25.250  1.00  0.00     0.117 C 
ENDROOT
BRANCH   1   2
ATOM      2  N   UNL A   1      30.629  29.937  24.085  1.00  0.00    -0.355 N 
ATOM      3  C   UNL A   1      30.692  29.001  23.095  1.00  0.00     0.238 C 
ATOM      4  O   UNL A   1      30.149  29.283  22.023  1.00  0.00    -0.273 OA
ATOM      5  H   UNL A   1      29.897  30.590  23.997  1.00  0.00     0.163 HD
BRANCH   3   6
ATOM      6  C   UNL A   1      31.342  27.623  23.327  1.00  0.00     0.161 C 
BRANCH   6   7
ATOM      7  N   UNL A   1      31.560  26.872  22.070  1.00  0.00    -0.198 NA
ATOM      8  H   UNL A   1      30.963  26.047  22.137  1.00  0.00     0.142 HD
BRANCH   7   9
ATOM      9  S   UNL A   1      33.043  26.311  21.547  1.00  0.00     0.241 S 
ATOM     10  O   UNL A   1      34.002  27.350  21.847  1.00  0.00    -0.207 OA
ATOM     11  O   UNL A   1      32.855  25.853  20.193  1.00  0.00    -0.207 OA
BRANCH   9  12
ATOM     12  C   UNL A   1      33.443  24.888  22.528  1.00  0.00     0.082 A 
ATOM     13  N   UNL A   1      34.595  21.709  24.977  1.00  0.00    -0.312 N 
ATOM     14  C   UNL A   1      35.249  22.419  26.087  1.00  0.00     0.130 C 
ATOM     15  C   UNL A   1      34.103  22.653  24.058  1.00  0.00     0.047 A 
ATOM     16  C   UNL A   1      35.179  23.917  25.789  1.00  0.00     0.059 C 
ATOM     17  C   UNL A   1      34.462  23.939  24.476  1.00  0.00    -0.021 A 
ATOM     18  C   UNL A   1      33.367  22.485  22.895  1.00  0.00     0.028 A 
ATOM     19  C   UNL A   1      34.158  25.063  23.717  1.00  0.00     0.027 A 
ATOM     20  C   UNL A   1      33.043  23.609  22.119  1.00  0.00     0.024 A 
BRANCH  13  21
ATOM     21  C   UNL A   1      34.616  20.330  24.969  1.00  0.00     0.223 C 
ATOM     22  C   UNL A   1      33.319  19.572  24.984  1.00  0.00     0.115 C 
ATOM     23  O   UNL A   1      35.679  19.705  24.910  1.00  0.00    -0.275 OA
ENDBRANCH  13  21
ENDBRANCH   9  12
ENDBRANCH   7   9
ENDBRANCH   6   7
BRANCH   6  24
ATOM     24  C   UNL A   1      30.341  26.750  24.168  1.00  0.00     0.010 C 
ATOM     25  C   UNL A   1      29.946  25.437  23.475  1.00  0.00     0.009 C 
ATOM     26  C   UNL A   1      30.897  26.426  25.558  1.00  0.00     0.009 C 
ENDBRANCH   6  24
ENDBRANCH   3   6
ENDBRANCH   1   2
BRANCH   1  27
ATOM     27  C   UNL A   1      31.169  31.460  25.921  1.00  0.00     0.042 C 
BRANCH  27  28
ATOM     28  C   UNL A   1      32.150  31.850  27.016  1.00  0.00     0.118 C 
BRANCH  28  29
ATOM     29  N   UNL A   1      32.132  33.278  27.277  1.00  0.00    -0.352 N 
ATOM     30  C   UNL A   1      32.945  34.057  28.065  1.00  0.00     0.251 C 
ATOM     31  H   UNL A   1      31.418  33.771  26.812  1.00  0.00     0.163 HD
ATOM     32  O   UNL A   1      32.580  35.202  28.330  1.00  0.00    -0.269 OA
BRANCH  30  33
ATOM     33  C   UNL A   1      34.234  33.562  28.614  1.00  0.00     0.039 A 
ATOM     34  C   UNL A   1      35.408  33.826  27.895  1.00  0.00     0.014 A 
ATOM     35  C   UNL A   1      34.312  32.774  29.764  1.00  0.00     0.014 A 
ATOM     36  C   UNL A   1      36.642  33.339  28.345  1.00  0.00     0.010 A 
ATOM     37  C   UNL A   1      35.552  32.369  30.264  1.00  0.00     0.010 A 
ATOM     38  C   UNL A   1      36.730  32.624  29.549  1.00  0.00    -0.014 A 
BRANCH  38  39
ATOM     39  C   UNL A   1      38.032  32.099  30.046  1.00  0.00     0.031 A 
ATOM     40  C   UNL A   1      38.588  30.803  29.506  1.00  0.00     0.074 A 
ATOM     41  C   UNL A   1      38.697  32.750  31.022  1.00  0.00     0.049 A 
ATOM     42  N   UNL A   1      39.672  30.157  29.860  1.00  0.00    -0.248 NA
ATOM     43  C   UNL A   1      37.811  30.131  28.452  1.00  0.00     0.031 C 
ATOM     44  C   UNL A   1      38.255  33.985  31.672  1.00  0.00     0.029 A 
ATOM     45  N   UNL A   1      39.885  32.455  31.646  1.00  0.00    -0.354 N 
ATOM     46  C   UNL A   1      39.683  28.990  29.103  1.00  0.00     0.074 A 
ATOM     47  C   UNL A   1      38.483  29.000  28.297  1.00  0.00     0.031 C 
ATOM     48  C   UNL A   1      39.168  34.352  32.586  1.00  0.00     0.029 A 
ATOM     49  C   UNL A   1      40.241  33.363  32.614  1.00  0.00     0.049 A 
ATOM     50  H   UNL A   1      40.430  31.667  31.420  1.00  0.00     0.167 HD
ATOM     51  C   UNL A   1      40.613  28.007  29.068  1.00  0.00     0.031 A 
ATOM     52  C   UNL A   1      41.305  33.395  33.439  1.00  0.00     0.031 A 
ATOM     53  C   UNL A   1      41.832  28.013  29.830  1.00  0.00     0.049 A 
ATOM     54  C   UNL A   1      42.342  32.309  33.351  1.00  0.00     0.074 A 
ATOM     55  C   UNL A   1      42.878  27.106  29.789  1.00  0.00     0.029 A 
ATOM     56  N   UNL A   1      42.171  28.975  30.768  1.00  0.00    -0.354 N 
ATOM     57  N   UNL A   1      42.376  31.260  32.568  1.00  0.00    -0.248 NA
ATOM     58  C   UNL A   1      43.496  32.422  34.257  1.00  0.00     0.031 C 
ATOM     59  C   UNL A   1      43.832  27.497  30.734  1.00  0.00     0.029 A 
ATOM     60  C   UNL A   1      43.400  28.671  31.328  1.00  0.00     0.049 A 
ATOM     61  H   UNL A   1      41.621  29.757  31.000  1.00  0.00     0.167 HD
ATOM     62  C   UNL A   1      43.564  30.603  32.866  1.00  0.00     0.074 A 
ATOM     63  C   UNL A   1      44.229  31.381  33.889  1.00  0.00     0.031 C 
ATOM     64  C   UNL A   1      44.056  29.457  32.339  1.00  0.00     0.031 A 
BRANCH  51  65
ATOM     65  C   UNL A   1      40.352  26.829  28.172  1.00  0.00    -0.014 A 
ATOM     66  C   UNL A   1      40.877  26.769  26.872  1.00  0.00     0.009 A 
ATOM     67  C   UNL A   1      39.617  25.736  28.658  1.00  0.00     0.009 A 
ATOM     68  C   UNL A   1      40.646  25.651  26.067  1.00  0.00     0.001 A 
ATOM     69  C   UNL A   1      39.410  24.608  27.861  1.00  0.00     0.001 A 
ATOM     70  C   UNL A   1      39.918  24.571  26.563  1.00  0.00     0.000 A 
ENDBRANCH  51  65
BRANCH  52  71
ATOM     71  C   UNL A   1      41.456  34.500  34.421  1.00  0.00    -0.014 A 
ATOM     72  C   UNL A   1      42.132  35.679  34.072  1.00  0.00     0.009 A 
ATOM     73  C   UNL A   1      40.941  34.372  35.721  1.00  0.00     0.009 A 
ATOM     74  C   UNL A   1      42.317  36.694  35.013  1.00  0.00     0.001 A 
ATOM     75  C   UNL A   1      41.103  35.401  36.652  1.00  0.00     0.001 A 
ATOM     76  C   UNL A   1      41.800  36.555  36.301  1.00  0.00     0.000 A 
ENDBRANCH  52  71
BRANCH  64  77
ATOM     77  C   UNL A   1      45.397  28.992  32.830  1.00  0.00    -0.014 A 
ATOM     78  C   UNL A   1      45.508  28.109  33.915  1.00  0.00     0.009 A 
ATOM     79  C   UNL A   1      46.562  29.411  32.170  1.00  0.00     0.009 A 
ATOM     80  C   UNL A   1      46.763  27.677  34.347  1.00  0.00     0.001 A 
ATOM     81  C   UNL A   1      47.814  28.957  32.587  1.00  0.00     0.001 A 
ATOM     82  C   UNL A   1      47.914  28.098  33.680  1.00  0.00     0.000 A 
ENDBRANCH  64  77
ENDBRANCH  38  39
ENDBRANCH  30  33
ENDBRANCH  28  29
ENDBRANCH  27  28
ENDBRANCH   1  27
TORSDOF 15
ENDMDL
MODEL 2
REMARK VINA RESULT:     -11.5      3.093      8.908
REMARK SMILES CC(=O)N1CCc2cc(S(=O)(=O)N[C@@H](C(=O)NCCCNC(=O)c3ccc(-c4c5nc(c(-c6ccccc6)c6ccc([nH]6)c(-c6ccccc6)c6nc(c(-c7ccccc7)c7ccc4[nH]7)C=C6)C=C5)cc3)C(C)C)ccc21
REMARK SMILES IDX 18 1 17 2 15 3 16 4 14 6 13 7 10 9 11 10 12 11 9 12 4 13
REMARK SMILES IDX 5 14 77 15 6 16 7 17 76 18 8 19 75 20 2 21 1 22 3 23 72 24
REMARK SMILES IDX 73 25 74 26 19 27 20 28 21 29 22 30 23 32 24 33 25 34 71 35
REMARK SMILES IDX 26 36 70 37 27 38 28 39 29 40 64 41 30 42 69 43 63 44 65 45
REMARK SMILES IDX 31 46 68 47 62 48 61 49 32 51 54 52 39 53 53 54 40 55 43 56
REMARK SMILES IDX 52 57 66 58 41 59 42 60 51 62 67 63 44 64 33 65 34 66 38 67
REMARK SMILES IDX 35 68 37 69 36 70 55 71 56 72 60 73 57 74 59 75 58 76 45 77
REMARK SMILES IDX 46 78 50 79 47 80 49 81 48 82
REMARK H PARENT 17 5 13 8 21 31 65 50 43 61
REMARK Flexibility Score: inf
ROOT
ATOM      1  C   UNL A   1      35.691  20.687  25.068  1.00  0.00     0.117 C 
ENDROOT
BRANCH   1   2
ATOM      2  N   UNL A   1      34.480  19.891  24.961  1.00  0.00    -0.355 N 
ATOM      3  C   UNL A   1      33.181  20.236  25.195  1.00  0.00     0.238 C 
ATOM      4  O   UNL A   1      32.393  19.319  25.443  1.00  0.00    -0.273 OA
ATOM      5  H   UNL A   1      34.618  18.957  24.678  1.00  0.00     0.163 HD
BRANCH   3   6
ATOM      6  C   UNL A   1      32.701  21.696  25.080  1.00  0.00     0.161 C 
BRANCH   6   7
ATOM      7  N   UNL A   1      31.421  21.937  25.783  1.00  0.00    -0.198 NA
ATOM      8  H   UNL A   1      30.723  22.060  25.048  1.00  0.00     0.142 HD
BRANCH   7   9
ATOM      9  S   UNL A   1      31.155  23.181  26.865  1.00  0.00     0.241 S 
ATOM     10  O   UNL A   1      32.366  23.310  27.645  1.00  0.00    -0.207 OA
ATOM     11  O   UNL A   1      29.894  22.904  27.507  1.00  0.00    -0.207 OA
BRANCH   9  12
ATOM     12  C   UNL A   1      30.944  24.666  25.919  1.00  0.00     0.082 A 
ATOM     13  N   UNL A   1      30.517  28.321  23.946  1.00  0.00    -0.312 N 
ATOM     14  C   UNL A   1      31.290  29.216  24.820  1.00  0.00     0.130 C 
ATOM     15  C   UNL A   1      30.589  27.012  24.454  1.00  0.00     0.047 A 
ATOM     16  C   UNL A   1      31.840  28.379  25.975  1.00  0.00     0.059 C 
ATOM     17  C   UNL A   1      31.311  27.017  25.652  1.00  0.00    -0.021 A 
ATOM     18  C   UNL A   1      30.084  25.819  23.958  1.00  0.00     0.028 A 
ATOM     19  C   UNL A   1      31.482  25.862  26.406  1.00  0.00     0.027 A 
ATOM     20  C   UNL A   1      30.253  24.640  24.701  1.00  0.00     0.024 A 
BRANCH  13  21
ATOM     21  C   UNL A   1      29.837  28.864  22.877  1.00  0.00     0.223 C 
ATOM     22  C   UNL A   1      28.622  29.711  23.128  1.00  0.00     0.115 C 
ATOM     23  O   UNL A   1      30.228  28.702  21.717  1.00  0.00    -0.275 OA
ENDBRANCH  13  21
ENDBRANCH   9  12
ENDBRANCH   7   9
ENDBRANCH   6   7
BRANCH   6  24
ATOM     24  C   UNL A   1      32.407  21.991  23.564  1.00  0.00     0.010 C 
ATOM     25  C   UNL A   1      33.507  22.816  22.878  1.00  0.00     0.009 C 
ATOM     26  C   UNL A   1      32.187  20.703  22.764  1.00  0.00     0.009 C 
ENDBRANCH   6  24
ENDBRANCH   3   6
ENDBRANCH   1   2
BRANCH   1  27
ATOM     27  C   UNL A   1      36.923  19.789  24.951  1.00  0.00     0.042 C 
BRANCH  27  28
ATOM     28  C   UNL A   1      38.229  20.470  25.329  1.00  0.00     0.118 C 
BRANCH  28  29
ATOM     29  N   UNL A   1      39.298  19.512  25.545  1.00  0.00    -0.352 N 
ATOM     30  C   UNL A   1      40.605  19.696  25.930  1.00  0.00     0.251 C 
ATOM     31  H   UNL A   1      39.045  18.573  25.389  1.00  0.00     0.163 HD
ATOM     32  O   UNL A   1      41.390  18.758  25.799  1.00  0.00    -0.269 OA
BRANCH  30  33
ATOM     33  C   UNL A   1      41.099  20.984  26.482  1.00  0.00     0.039 A 
ATOM     34  C   UNL A   1      41.018  21.189  27.867  1.00  0.00     0.014 A 
ATOM     35  C   UNL A   1      41.555  22.026  25.673  1.00  0.00     0.014 A 
ATOM     36  C   UNL A   1      41.425  22.405  28.431  1.00  0.00     0.010 A 
ATOM     37  C   UNL A   1      42.050  23.203  26.243  1.00  0.00     0.010 A 
ATOM     38  C   UNL A   1      41.968  23.418  27.626  1.00  0.00    -0.014 A 
BRANCH  38  39
ATOM     39  C   UNL A   1      42.408  24.717  28.205  1.00  0.00     0.031 A 
ATOM     40  C   UNL A   1      41.409  25.823  28.445  1.00  0.00     0.074 A 
ATOM     41  C   UNL A   1      43.713  24.934  28.468  1.00  0.00     0.049 A 
ATOM     42  N   UNL A   1      41.612  27.041  28.883  1.00  0.00    -0.248 NA
ATOM     43  C   UNL A   1      40.001  25.531  28.127  1.00  0.00     0.031 C 
ATOM     44  C   UNL A   1      44.796  23.976  28.239  1.00  0.00     0.029 A 
ATOM     45  N   UNL A   1      44.351  26.038  28.978  1.00  0.00    -0.354 N 
ATOM     46  C   UNL A   1      40.371  27.668  28.852  1.00  0.00     0.074 A 
ATOM     47  C   UNL A   1      39.427  26.709  28.323  1.00  0.00     0.031 C 
ATOM     48  C   UNL A   1      45.959  24.526  28.626  1.00  0.00     0.029 A 
ATOM     49  C   UNL A   1      45.712  25.885  29.095  1.00  0.00     0.049 A 
ATOM     50  H   UNL A   1      43.877  26.863  29.234  1.00  0.00     0.167 HD
ATOM     51  C   UNL A   1      40.041  28.921  29.244  1.00  0.00     0.031 A 
ATOM     52  C   UNL A   1      46.658  26.743  29.524  1.00  0.00     0.031 A 
ATOM     53  C   UNL A   1      40.963  29.864  29.817  1.00  0.00     0.049 A 
ATOM     54  C   UNL A   1      46.257  28.116  29.988  1.00  0.00     0.074 A 
ATOM     55  C   UNL A   1      40.699  31.123  30.329  1.00  0.00     0.029 A 
ATOM     56  N   UNL A   1      42.324  29.651  29.956  1.00  0.00    -0.354 N 
ATOM     57  N   UNL A   1      45.065  28.659  30.032  1.00  0.00    -0.248 NA
ATOM     58  C   UNL A   1      47.335  28.990  30.476  1.00  0.00     0.031 C 
ATOM     59  C   UNL A   1      41.911  31.689  30.741  1.00  0.00     0.029 A 
ATOM     60  C   UNL A   1      42.918  30.763  30.526  1.00  0.00     0.049 A 
ATOM     61  H   UNL A   1      42.798  28.830  29.690  1.00  0.00     0.167 HD
ATOM     62  C   UNL A   1      45.245  29.925  30.575  1.00  0.00     0.074 A 
ATOM     63  C   UNL A   1      46.658  30.063  30.860  1.00  0.00     0.031 C 
ATOM     64  C   UNL A   1      44.322  30.886  30.813  1.00  0.00     0.031 A 
BRANCH  51  65
ATOM     65  C   UNL A   1      38.613  29.356  29.067  1.00  0.00    -0.014 A 
ATOM     66  C   UNL A   1      38.133  29.797  27.824  1.00  0.00     0.009 A 
ATOM     67  C   UNL A   1      37.720  29.267  30.147  1.00  0.00     0.009 A 
ATOM     68  C   UNL A   1      36.795  30.169  27.675  1.00  0.00     0.001 A 
ATOM     69  C   UNL A   1      36.377  29.614  29.989  1.00  0.00     0.001 A 
ATOM     70  C   UNL A   1      35.918  30.073  28.754  1.00  0.00     0.000 A 
ENDBRANCH  51  65
BRANCH  52  71
ATOM     71  C   UNL A   1      48.085  26.330  29.544  1.00  0.00    -0.014 A 
ATOM     72  C   UNL A   1      48.637  25.723  30.683  1.00  0.00     0.009 A 
ATOM     73  C   UNL A   1      48.909  26.560  28.431  1.00  0.00     0.009 A 
ATOM     74  C   UNL A   1      49.991  25.384  30.719  1.00  0.00     0.001 A 
ATOM     75  C   UNL A   1      50.257  26.194  28.459  1.00  0.00     0.001 A 
ATOM     76  C   UNL A   1      50.799  25.617  29.606  1.00  0.00     0.000 A 
ENDBRANCH  52  71
BRANCH  64  77
ATOM     77  C   UNL A   1      44.801  32.160  31.447  1.00  0.00    -0.014 A 
ATOM     78  C   UNL A   1      45.207  33.253  30.668  1.00  0.00     0.009 A 
ATOM     79  C   UNL A   1      44.804  32.281  32.846  1.00  0.00     0.009 A 
ATOM     80  C   UNL A   1      45.635  34.434  31.277  1.00  0.00     0.001 A 
ATOM     81  C   UNL A   1      45.208  33.472  33.452  1.00  0.00     0.001 A 
ATOM     82  C   UNL A   1      45.631  34.543  32.668  1.00  0.00     0.000 A 
ENDBRANCH  64  77
ENDBRANCH  38  39
ENDBRANCH  30  33
ENDBRANCH  28  29
ENDBRANCH  27  28
ENDBRANCH   1  27
TORSDOF 15
ENDMDL
MODEL 3
REMARK VINA RESULT:     -11.2      2.878      7.018
REMARK SMILES CC(=O)N1CCc2cc(S(=O)(=O)N[C@@H](C(=O)NCCCNC(=O)c3ccc(-c4c5nc(c(-c6ccccc6)c6ccc([nH]6)c(-c6ccccc6)c6nc(c(-c7ccccc7)c7ccc4[nH]7)C=C6)C=C5)cc3)C(C)C)ccc21
REMARK SMILES IDX 18 1 17 2 15 3 16 4 14 6 13 7 10 9 11 10 12 11 9 12 4 13
REMARK SMILES IDX 5 14 77 15 6 16 7 17 76 18 8 19 75 20 2 21 1 22 3 23 72 24
REMARK SMILES IDX 73 25 74 26 19 27 20 28 21 29 22 30 23 32 24 33 25 34 71 35
REMARK SMILES IDX 26 36 70 37 27 38 28 39 29 40 64 41 30 42 69 43 63 44 65 45
REMARK SMILES IDX 31 46 68 47 62 48 61 49 32 51 54 52 39 53 53 54 40 55 43 56
REMARK SMILES IDX 52 57 66 58 41 59 42 60 51 62 67 63 44 64 33 65 34 66 38 67
REMARK SMILES IDX 35 68 37 69 36 70 55 71 56 72 60 73 57 74 59 75 58 76 45 77
REMARK SMILES IDX 46 78 50 79 47 80 49 81 48 82
REMARK H PARENT 17 5 13 8 21 31 65 50 43 61
REMARK Flexibility Score: inf
ROOT
ATOM      1  C   UNL A   1      32.883  29.400  24.886  1.00  0.00     0.117 C 
ENDROOT
BRANCH   1   2
ATOM      2  N   UNL A   1      32.725  28.657  23.647  1.00  0.00    -0.355 N 
ATOM      3  C   UNL A   1      31.990  27.538  23.385  1.00  0.00     0.238 C 
ATOM      4  O   UNL A   1      32.329  26.862  22.409  1.00  0.00    -0.273 OA
ATOM      5  H   UNL A   1      33.227  29.016  22.879  1.00  0.00     0.163 HD
BRANCH   3   6
ATOM      6  C   UNL A   1      30.748  27.174  24.221  1.00  0.00     0.161 C 
BRANCH   6   7
ATOM      7  N   UNL A   1      30.705  25.741  24.590  1.00  0.00    -0.198 NA
ATOM      8  H   UNL A   1      29.734  25.453  24.459  1.00  0.00     0.142 HD
BRANCH   7   9
ATOM      9  S   UNL A   1      31.154  25.133  26.079  1.00  0.00     0.241 S 
ATOM     10  O   UNL A   1      30.116  24.207  26.474  1.00  0.00    -0.207 OA
ATOM     11  O   UNL A   1      31.477  26.270  26.905  1.00  0.00    -0.207 OA
BRANCH   9  12
ATOM     12  C   UNL A   1      32.654  24.217  25.843  1.00  0.00     0.082 A 
ATOM     13  N   UNL A   1      36.023  21.805  25.327  1.00  0.00    -0.312 N 
ATOM     14  C   UNL A   1      35.407  20.516  24.977  1.00  0.00     0.130 C 
ATOM     15  C   UNL A   1      35.009  22.763  25.502  1.00  0.00     0.047 A 
ATOM     16  C   UNL A   1      33.890  20.707  24.982  1.00  0.00     0.059 C 
ATOM     17  C   UNL A   1      33.760  22.151  25.352  1.00  0.00    -0.021 A 
ATOM     18  C   UNL A   1      35.083  24.121  25.775  1.00  0.00     0.028 A 
ATOM     19  C   UNL A   1      32.576  22.855  25.536  1.00  0.00     0.027 A 
ATOM     20  C   UNL A   1      33.898  24.851  25.957  1.00  0.00     0.024 A 
BRANCH  13  21
ATOM     21  C   UNL A   1      37.392  21.864  25.483  1.00  0.00     0.223 C 
ATOM     22  C   UNL A   1      38.224  20.653  25.171  1.00  0.00     0.115 C 
ATOM     23  O   UNL A   1      37.953  22.905  25.838  1.00  0.00    -0.275 OA
ENDBRANCH  13  21
ENDBRANCH   9  12
ENDBRANCH   7   9
ENDBRANCH   6   7
BRANCH   6  24
ATOM     24  C   UNL A   1      29.476  27.414  23.328  1.00  0.00     0.010 C 
ATOM     25  C   UNL A   1      28.210  26.740  23.877  1.00  0.00     0.009 C 
ATOM     26  C   UNL A   1      29.193  28.906  23.129  1.00  0.00     0.009 C 
ENDBRANCH   6  24
ENDBRANCH   3   6
ENDBRANCH   1   2
BRANCH   1  27
ATOM     27  C   UNL A   1      33.893  28.699  25.795  1.00  0.00     0.042 C 
BRANCH  27  28
ATOM     28  C   UNL A   1      33.587  28.821  27.280  1.00  0.00     0.118 C 
BRANCH  28  29
ATOM     29  N   UNL A   1      33.654  30.198  27.736  1.00  0.00    -0.352 N 
ATOM     30  C   UNL A   1      34.644  30.874  28.407  1.00  0.00     0.251 C 
ATOM     31  H   UNL A   1      32.856  30.737  27.530  1.00  0.00     0.163 HD
ATOM     32  O   UNL A   1      34.370  31.963  28.911  1.00  0.00    -0.269 OA
BRANCH  30  33
ATOM     33  C   UNL A   1      36.020  30.332  28.556  1.00  0.00     0.039 A 
ATOM     34  C   UNL A   1      36.403  29.824  29.805  1.00  0.00     0.014 A 
ATOM     35  C   UNL A   1      36.967  30.389  27.532  1.00  0.00     0.014 A 
ATOM     36  C   UNL A   1      37.704  29.348  30.010  1.00  0.00     0.010 A 
ATOM     37  C   UNL A   1      38.235  29.826  27.707  1.00  0.00     0.010 A 
ATOM     38  C   UNL A   1      38.628  29.322  28.954  1.00  0.00    -0.014 A 
BRANCH  38  39
ATOM     39  C   UNL A   1      40.016  28.817  29.150  1.00  0.00     0.031 A 
ATOM     40  C   UNL A   1      41.081  29.719  29.725  1.00  0.00     0.074 A 
ATOM     41  C   UNL A   1      40.342  27.567  28.764  1.00  0.00     0.049 A 
ATOM     42  N   UNL A   1      42.356  29.479  29.911  1.00  0.00    -0.248 NA
ATOM     43  C   UNL A   1      40.668  31.077  30.115  1.00  0.00     0.031 C 
ATOM     44  C   UNL A   1      39.429  26.603  28.148  1.00  0.00     0.029 A 
ATOM     45  N   UNL A   1      41.540  26.897  28.823  1.00  0.00    -0.354 N 
ATOM     46  C   UNL A   1      42.898  30.663  30.399  1.00  0.00     0.074 A 
ATOM     47  C   UNL A   1      41.824  31.629  30.449  1.00  0.00     0.031 C 
ATOM     48  C   UNL A   1      40.093  25.461  27.907  1.00  0.00     0.029 A 
ATOM     49  C   UNL A   1      41.485  25.621  28.315  1.00  0.00     0.049 A 
ATOM     50  H   UNL A   1      42.361  27.294  29.196  1.00  0.00     0.167 HD
ATOM     51  C   UNL A   1      44.170  30.921  30.787  1.00  0.00     0.031 A 
ATOM     52  C   UNL A   1      42.446  24.687  28.184  1.00  0.00     0.031 A 
ATOM     53  C   UNL A   1      45.232  29.952  30.786  1.00  0.00     0.049 A 
ATOM     54  C   UNL A   1      43.841  24.987  28.658  1.00  0.00     0.074 A 
ATOM     55  C   UNL A   1      46.529  30.097  31.250  1.00  0.00     0.029 A 
ATOM     56  N   UNL A   1      45.121  28.659  30.302  1.00  0.00    -0.354 N 
ATOM     57  N   UNL A   1      44.313  26.085  29.197  1.00  0.00    -0.248 NA
ATOM     58  C   UNL A   1      44.834  23.911  28.517  1.00  0.00     0.031 C 
ATOM     59  C   UNL A   1      47.215  28.902  31.007  1.00  0.00     0.029 A 
ATOM     60  C   UNL A   1      46.331  28.002  30.436  1.00  0.00     0.049 A 
ATOM     61  H   UNL A   1      44.302  28.267  29.921  1.00  0.00     0.167 HD
ATOM     62  C   UNL A   1      45.647  25.823  29.483  1.00  0.00     0.074 A 
ATOM     63  C   UNL A   1      45.905  24.459  29.074  1.00  0.00     0.031 C 
ATOM     64  C   UNL A   1      46.574  26.642  30.033  1.00  0.00     0.031 A 
BRANCH  51  65
ATOM     65  C   UNL A   1      44.492  32.314  31.248  1.00  0.00    -0.014 A 
ATOM     66  C   UNL A   1      44.908  33.305  30.345  1.00  0.00     0.009 A 
ATOM     67  C   UNL A   1      44.320  32.656  32.599  1.00  0.00     0.009 A 
ATOM     68  C   UNL A   1      45.174  34.602  30.791  1.00  0.00     0.001 A 
ATOM     69  C   UNL A   1      44.560  33.960  33.038  1.00  0.00     0.001 A 
ATOM     70  C   UNL A   1      44.995  34.928  32.135  1.00  0.00     0.000 A 
ENDBRANCH  51  65
BRANCH  52  71
ATOM     71  C   UNL A   1      42.126  23.366  27.582  1.00  0.00    -0.014 A 
ATOM     72  C   UNL A   1      41.419  22.400  28.315  1.00  0.00     0.009 A 
ATOM     73  C   UNL A   1      42.544  23.057  26.279  1.00  0.00     0.009 A 
ATOM     74  C   UNL A   1      41.164  21.141  27.766  1.00  0.00     0.001 A 
ATOM     75  C   UNL A   1      42.264  21.807  25.721  1.00  0.00     0.001 A 
ATOM     76  C   UNL A   1      41.584  20.847  26.469  1.00  0.00     0.000 A 
ENDBRANCH  52  71
BRANCH  64  77
ATOM     77  C   UNL A   1      47.946  26.076  30.262  1.00  0.00    -0.014 A 
ATOM     78  C   UNL A   1      48.875  25.975  29.215  1.00  0.00     0.009 A 
ATOM     79  C   UNL A   1      48.327  25.678  31.553  1.00  0.00     0.009 A 
ATOM     80  C   UNL A   1      50.150  25.459  29.452  1.00  0.00     0.001 A 
ATOM     81  C   UNL A   1      49.611  25.187  31.792  1.00  0.00     0.001 A 
ATOM     82  C   UNL A   1      50.518  25.070  30.741  1.00  0.00     0.000 A 
ENDBRANCH  64  77
ENDBRANCH  38  39
ENDBRANCH  30  33
ENDBRANCH  28  29
ENDBRANCH  27  28
ENDBRANCH   1  27
TORSDOF 15
ENDMDL
