MODEL 1
REMARK VINA RESULT:      -9.3      0.000      0.000
REMARK SMILES [NH3+]CCOCC(=O)N[C@]1(C(=O)NCCCNC(=O)c2ccc(-c3c4nc(c(-c5ccccc5)c5ccc([nH]5)c(-c5ccccc5)c5nc(c(-c6ccccc6)c6ccc3[nH]6)C=C5)C=C4)cc2)CCOC1
REMARK SMILES IDX 10 1 11 2 12 3 9 5 67 6 70 7 68 8 69 9 8 10 6 11 7 12 5 14
REMARK SMILES IDX 4 15 3 16 2 17 1 18 13 22 14 23 15 24 16 25 17 26 18 28
REMARK SMILES IDX 19 29 20 30 66 31 21 32 65 33 22 34 23 35 24 36 59 37 25 38
REMARK SMILES IDX 64 39 58 40 60 41 26 42 63 43 57 44 56 45 27 47 49 48 34 49
REMARK SMILES IDX 48 50 35 51 38 52 47 53 61 54 36 55 37 56 46 58 62 59 39 60
REMARK SMILES IDX 28 61 29 62 33 63 30 64 32 65 31 66 50 67 51 68 55 69 52 70
REMARK SMILES IDX 54 71 53 72 40 73 41 74 45 75 42 76 44 77 43 78
REMARK H PARENT 12 4 8 13 1 19 1 20 1 21 16 27 60 46 38 57
REMARK Flexibility Score: inf
ROOT
ATOM      1  C   UNL A   1      45.418  23.619  26.992  1.00  0.00     0.248 C 
ATOM      2  O   UNL A   1      46.616  23.467  27.277  1.00  0.00    -0.272 OA
ATOM      3  N   UNL A   1      44.578  23.012  27.856  1.00  0.00    -0.354 N 
ATOM      4  H   UNL A   1      45.041  22.407  28.479  1.00  0.00     0.163 HD
ENDROOT
BRANCH   1   5
ATOM      5  C   UNL A   1      44.990  24.571  25.848  1.00  0.00     0.144 C 
ATOM      6  C   UNL A   1      44.147  25.811  26.089  1.00  0.00     0.069 C 
ATOM      7  C   UNL A   1      46.303  25.198  25.345  1.00  0.00     0.198 C 
ATOM      8  C   UNL A   1      44.698  26.845  25.116  1.00  0.00     0.163 C 
ATOM      9  O   UNL A   1      45.979  26.412  24.666  1.00  0.00    -0.378 OA
BRANCH   5  10
ATOM     10  N   UNL A   1      44.381  23.718  24.792  1.00  0.00    -0.338 N 
ATOM     11  C   UNL A   1      44.948  22.766  23.993  1.00  0.00     0.246 C 
ATOM     12  O   UNL A   1      44.289  22.344  23.037  1.00  0.00    -0.272 OA
ATOM     13  H   UNL A   1      43.418  23.863  24.646  1.00  0.00     0.164 HD
BRANCH  11  14
ATOM     14  C   UNL A   1      46.346  22.188  24.281  1.00  0.00     0.260 C 
BRANCH  14  15
ATOM     15  O   UNL A   1      46.468  20.903  24.857  1.00  0.00    -0.366 OA
BRANCH  15  16
ATOM     16  C   UNL A   1      45.224  20.320  25.265  1.00  0.00     0.222 C 
BRANCH  16  17
ATOM     17  C   UNL A   1      44.813  19.072  24.462  1.00  0.00     0.287 C 
BRANCH  17  18
ATOM     18  N   UNL A   1      44.863  19.222  23.006  1.00  0.00    -0.356 N 
ATOM     19  H   UNL A   1      44.788  18.304  22.566  1.00  0.00     0.344 HD
ATOM     20  H   UNL A   1      45.745  19.657  22.739  1.00  0.00     0.344 HD
ATOM     21  H   UNL A   1      44.087  19.810  22.699  1.00  0.00     0.344 HD
ENDBRANCH  17  18
ENDBRANCH  16  17
ENDBRANCH  15  16
ENDBRANCH  14  15
ENDBRANCH  11  14
ENDBRANCH   5  10
ENDBRANCH   1   5
BRANCH   3  22
ATOM     22  C   UNL A   1      43.145  23.052  28.071  1.00  0.00     0.117 C 
BRANCH  22  23
ATOM     23  C   UNL A   1      42.444  21.982  27.247  1.00  0.00     0.042 C 
BRANCH  23  24
ATOM     24  C   UNL A   1      41.042  21.646  27.752  1.00  0.00     0.118 C 
BRANCH  24  25
ATOM     25  N   UNL A   1      40.036  21.712  26.701  1.00  0.00    -0.352 N 
ATOM     26  C   UNL A   1      39.205  22.748  26.350  1.00  0.00     0.251 C 
ATOM     27  H   UNL A   1      39.936  20.893  26.163  1.00  0.00     0.163 HD
ATOM     28  O   UNL A   1      38.269  22.554  25.577  1.00  0.00    -0.269 OA
BRANCH  26  29
ATOM     29  C   UNL A   1      39.426  24.089  26.925  1.00  0.00     0.039 A 
ATOM     30  C   UNL A   1      38.958  24.368  28.210  1.00  0.00     0.014 A 
ATOM     31  C   UNL A   1      40.110  25.064  26.197  1.00  0.00     0.014 A 
ATOM     32  C   UNL A   1      39.248  25.603  28.794  1.00  0.00     0.010 A 
ATOM     33  C   UNL A   1      40.487  26.249  26.817  1.00  0.00     0.010 A 
ATOM     34  C   UNL A   1      40.052  26.536  28.120  1.00  0.00    -0.014 A 
BRANCH  34  35
ATOM     35  C   UNL A   1      40.443  27.823  28.747  1.00  0.00     0.031 A 
ATOM     36  C   UNL A   1      41.821  27.984  29.335  1.00  0.00     0.074 A 
ATOM     37  C   UNL A   1      39.541  28.819  28.854  1.00  0.00     0.049 A 
ATOM     38  N   UNL A   1      42.325  28.996  29.992  1.00  0.00    -0.248 NA
ATOM     39  C   UNL A   1      42.742  26.844  29.192  1.00  0.00     0.031 C 
ATOM     40  C   UNL A   1      38.160  28.771  28.368  1.00  0.00     0.029 A 
ATOM     41  N   UNL A   1      39.650  30.067  29.416  1.00  0.00    -0.354 N 
ATOM     42  C   UNL A   1      43.607  28.605  30.360  1.00  0.00     0.074 A 
ATOM     43  C   UNL A   1      43.784  27.245  29.905  1.00  0.00     0.031 C 
ATOM     44  C   UNL A   1      37.562  29.946  28.622  1.00  0.00     0.029 A 
ATOM     45  C   UNL A   1      38.499  30.812  29.330  1.00  0.00     0.049 A 
ATOM     46  H   UNL A   1      40.476  30.396  29.841  1.00  0.00     0.167 HD
ATOM     47  C   UNL A   1      44.562  29.321  30.998  1.00  0.00     0.031 A 
ATOM     48  C   UNL A   1      38.226  32.052  29.779  1.00  0.00     0.031 A 
ATOM     49  C   UNL A   1      44.392  30.682  31.432  1.00  0.00     0.049 A 
ATOM     50  C   UNL A   1      39.303  32.823  30.493  1.00  0.00     0.074 A 
ATOM     51  C   UNL A   1      45.317  31.516  32.032  1.00  0.00     0.029 A 
ATOM     52  N   UNL A   1      43.216  31.405  31.313  1.00  0.00    -0.354 N 
ATOM     53  N   UNL A   1      40.534  32.465  30.765  1.00  0.00    -0.248 NA
ATOM     54  C   UNL A   1      38.953  34.176  30.950  1.00  0.00     0.031 C 
ATOM     55  C   UNL A   1      44.685  32.728  32.327  1.00  0.00     0.029 A 
ATOM     56  C   UNL A   1      43.384  32.668  31.852  1.00  0.00     0.049 A 
ATOM     57  H   UNL A   1      42.384  31.069  30.907  1.00  0.00     0.167 HD
ATOM     58  C   UNL A   1      41.115  33.558  31.397  1.00  0.00     0.074 A 
ATOM     59  C   UNL A   1      40.107  34.596  31.449  1.00  0.00     0.031 C 
ATOM     60  C   UNL A   1      42.370  33.690  31.891  1.00  0.00     0.031 A 
BRANCH  47  61
ATOM     61  C   UNL A   1      45.879  28.645  31.264  1.00  0.00    -0.014 A 
ATOM     62  C   UNL A   1      46.941  28.729  30.349  1.00  0.00     0.009 A 
ATOM     63  C   UNL A   1      46.074  27.946  32.467  1.00  0.00     0.009 A 
ATOM     64  C   UNL A   1      48.158  28.097  30.615  1.00  0.00     0.001 A 
ATOM     65  C   UNL A   1      47.302  27.343  32.744  1.00  0.00     0.001 A 
ATOM     66  C   UNL A   1      48.339  27.410  31.816  1.00  0.00     0.000 A 
ENDBRANCH  47  61
BRANCH  48  67
ATOM     67  C   UNL A   1      36.883  32.652  29.560  1.00  0.00    -0.014 A 
ATOM     68  C   UNL A   1      35.889  32.555  30.546  1.00  0.00     0.009 A 
ATOM     69  C   UNL A   1      36.577  33.307  28.356  1.00  0.00     0.009 A 
ATOM     70  C   UNL A   1      34.610  33.069  30.318  1.00  0.00     0.001 A 
ATOM     71  C   UNL A   1      35.309  33.849  28.143  1.00  0.00     0.001 A 
ATOM     72  C   UNL A   1      34.321  33.719  29.119  1.00  0.00     0.000 A 
ENDBRANCH  48  67
BRANCH  60  73
ATOM     73  C   UNL A   1      42.737  35.018  32.490  1.00  0.00    -0.014 A 
ATOM     74  C   UNL A   1      43.425  35.991  31.748  1.00  0.00     0.009 A 
ATOM     75  C   UNL A   1      42.346  35.315  33.805  1.00  0.00     0.009 A 
ATOM     76  C   UNL A   1      43.746  37.220  32.325  1.00  0.00     0.001 A 
ATOM     77  C   UNL A   1      42.639  36.557  34.368  1.00  0.00     0.001 A 
ATOM     78  C   UNL A   1      43.348  37.505  33.631  1.00  0.00     0.000 A 
ENDBRANCH  60  73
ENDBRANCH  34  35
ENDBRANCH  26  29
ENDBRANCH  24  25
ENDBRANCH  23  24
ENDBRANCH  22  23
ENDBRANCH   3  22
TORSDOF 16
ENDMDL
MODEL 2
REMARK VINA RESULT:      -9.2      3.761      7.366
REMARK SMILES [NH3+]CCOCC(=O)N[C@]1(C(=O)NCCCNC(=O)c2ccc(-c3c4nc(c(-c5ccccc5)c5ccc([nH]5)c(-c5ccccc5)c5nc(c(-c6ccccc6)c6ccc3[nH]6)C=C5)C=C4)cc2)CCOC1
REMARK SMILES IDX 10 1 11 2 12 3 9 5 67 6 70 7 68 8 69 9 8 10 6 11 7 12 5 14
REMARK SMILES IDX 4 15 3 16 2 17 1 18 13 22 14 23 15 24 16 25 17 26 18 28
REMARK SMILES IDX 19 29 20 30 66 31 21 32 65 33 22 34 23 35 24 36 59 37 25 38
REMARK SMILES IDX 64 39 58 40 60 41 26 42 63 43 57 44 56 45 27 47 49 48 34 49
REMARK SMILES IDX 48 50 35 51 38 52 47 53 61 54 36 55 37 56 46 58 62 59 39 60
REMARK SMILES IDX 28 61 29 62 33 63 30 64 32 65 31 66 50 67 51 68 55 69 52 70
REMARK SMILES IDX 54 71 53 72 40 73 41 74 45 75 42 76 44 77 43 78
REMARK H PARENT 12 4 8 13 1 19 1 20 1 21 16 27 60 46 38 57
REMARK Flexibility Score: inf
ROOT
ATOM      1  C   UNL A   1      34.428  21.390  26.544  1.00  0.00     0.248 C 
ATOM      2  O   UNL A   1      34.312  21.484  27.775  1.00  0.00    -0.272 OA
ATOM      3  N   UNL A   1      35.710  21.314  26.128  1.00  0.00    -0.354 N 
ATOM      4  H   UNL A   1      36.357  21.514  26.844  1.00  0.00     0.163 HD
ENDROOT
BRANCH   1   5
ATOM      5  C   UNL A   1      33.184  21.200  25.641  1.00  0.00     0.144 C 
ATOM      6  C   UNL A   1      33.194  21.522  24.157  1.00  0.00     0.069 C 
ATOM      7  C   UNL A   1      32.947  19.679  25.612  1.00  0.00     0.198 C 
ATOM      8  C   UNL A   1      32.321  20.447  23.524  1.00  0.00     0.163 C 
ATOM      9  O   UNL A   1      32.169  19.377  24.453  1.00  0.00    -0.378 OA
BRANCH   5  10
ATOM     10  N   UNL A   1      32.057  21.891  26.322  1.00  0.00    -0.338 N 
ATOM     11  C   UNL A   1      31.877  23.215  26.606  1.00  0.00     0.246 C 
ATOM     12  O   UNL A   1      30.962  23.525  27.375  1.00  0.00    -0.272 OA
ATOM     13  H   UNL A   1      31.324  21.301  26.613  1.00  0.00     0.164 HD
BRANCH  11  14
ATOM     14  C   UNL A   1      32.750  24.311  25.966  1.00  0.00     0.260 C 
BRANCH  14  15
ATOM     15  O   UNL A   1      32.237  25.078  24.895  1.00  0.00    -0.366 OA
BRANCH  15  16
ATOM     16  C   UNL A   1      32.133  26.480  25.174  1.00  0.00     0.222 C 
BRANCH  16  17
ATOM     17  C   UNL A   1      30.980  26.855  26.124  1.00  0.00     0.287 C 
BRANCH  17  18
ATOM     18  N   UNL A   1      31.388  27.483  27.383  1.00  0.00    -0.356 N 
ATOM     19  H   UNL A   1      30.673  28.149  27.678  1.00  0.00     0.344 HD
ATOM     20  H   UNL A   1      32.273  27.971  27.247  1.00  0.00     0.344 HD
ATOM     21  H   UNL A   1      31.502  26.766  28.099  1.00  0.00     0.344 HD
ENDBRANCH  17  18
ENDBRANCH  16  17
ENDBRANCH  15  16
ENDBRANCH  14  15
ENDBRANCH  11  14
ENDBRANCH   5  10
ENDBRANCH   1   5
BRANCH   3  22
ATOM     22  C   UNL A   1      36.348  21.006  24.863  1.00  0.00     0.117 C 
BRANCH  22  23
ATOM     23  C   UNL A   1      37.437  19.959  25.047  1.00  0.00     0.042 C 
BRANCH  23  24
ATOM     24  C   UNL A   1      38.737  20.526  25.610  1.00  0.00     0.118 C 
BRANCH  24  25
ATOM     25  N   UNL A   1      39.784  19.519  25.731  1.00  0.00    -0.352 N 
ATOM     26  C   UNL A   1      41.107  19.670  26.066  1.00  0.00     0.251 C 
ATOM     27  H   UNL A   1      39.500  18.594  25.546  1.00  0.00     0.163 HD
ATOM     28  O   UNL A   1      41.894  18.739  25.910  1.00  0.00    -0.269 OA
BRANCH  26  29
ATOM     29  C   UNL A   1      41.585  20.965  26.589  1.00  0.00     0.039 A 
ATOM     30  C   UNL A   1      42.100  21.913  25.703  1.00  0.00     0.014 A 
ATOM     31  C   UNL A   1      41.509  21.246  27.955  1.00  0.00     0.014 A 
ATOM     32  C   UNL A   1      42.465  23.173  26.180  1.00  0.00     0.010 A 
ATOM     33  C   UNL A   1      41.773  22.531  28.409  1.00  0.00     0.010 A 
ATOM     34  C   UNL A   1      42.263  23.508  27.529  1.00  0.00    -0.014 A 
BRANCH  34  35
ATOM     35  C   UNL A   1      42.566  24.865  28.048  1.00  0.00     0.031 A 
ATOM     36  C   UNL A   1      43.971  25.212  28.466  1.00  0.00     0.074 A 
ATOM     37  C   UNL A   1      41.571  25.758  28.214  1.00  0.00     0.049 A 
ATOM     38  N   UNL A   1      44.422  26.311  29.015  1.00  0.00    -0.248 NA
ATOM     39  C   UNL A   1      44.999  24.175  28.271  1.00  0.00     0.031 C 
ATOM     40  C   UNL A   1      40.160  25.529  27.892  1.00  0.00     0.029 A 
ATOM     41  N   UNL A   1      41.593  27.041  28.702  1.00  0.00    -0.354 N 
ATOM     42  C   UNL A   1      45.773  26.087  29.250  1.00  0.00     0.074 A 
ATOM     43  C   UNL A   1      46.059  24.731  28.840  1.00  0.00     0.031 C 
ATOM     44  C   UNL A   1      39.460  26.643  28.160  1.00  0.00     0.029 A 
ATOM     45  C   UNL A   1      40.360  27.647  28.715  1.00  0.00     0.049 A 
ATOM     46  H   UNL A   1      42.416  27.484  29.014  1.00  0.00     0.167 HD
ATOM     47  C   UNL A   1      46.702  26.941  29.741  1.00  0.00     0.031 A 
ATOM     48  C   UNL A   1      39.995  28.873  29.136  1.00  0.00     0.031 A 
ATOM     49  C   UNL A   1      46.422  28.297  30.130  1.00  0.00     0.049 A 
ATOM     50  C   UNL A   1      41.044  29.800  29.686  1.00  0.00     0.074 A 
ATOM     51  C   UNL A   1      47.303  29.263  30.581  1.00  0.00     0.029 A 
ATOM     52  N   UNL A   1      45.163  28.876  30.114  1.00  0.00    -0.354 N 
ATOM     53  N   UNL A   1      42.331  29.597  29.831  1.00  0.00    -0.248 NA
ATOM     54  C   UNL A   1      40.590  31.129  30.118  1.00  0.00     0.031 C 
ATOM     55  C   UNL A   1      46.568  30.411  30.891  1.00  0.00     0.029 A 
ATOM     56  C   UNL A   1      45.240  30.180  30.572  1.00  0.00     0.049 A 
ATOM     57  H   UNL A   1      44.336  28.427  29.822  1.00  0.00     0.167 HD
ATOM     58  C   UNL A   1      42.845  30.783  30.341  1.00  0.00     0.074 A 
ATOM     59  C   UNL A   1      41.734  31.704  30.461  1.00  0.00     0.031 C 
ATOM     60  C   UNL A   1      44.123  31.083  30.681  1.00  0.00     0.031 A 
BRANCH  47  61
ATOM     61  C   UNL A   1      48.110  26.432  29.884  1.00  0.00    -0.014 A 
ATOM     62  C   UNL A   1      49.034  26.535  28.832  1.00  0.00     0.009 A 
ATOM     63  C   UNL A   1      48.531  25.878  31.104  1.00  0.00     0.009 A 
ATOM     64  C   UNL A   1      50.339  26.060  28.985  1.00  0.00     0.001 A 
ATOM     65  C   UNL A   1      49.845  25.434  31.264  1.00  0.00     0.001 A 
ATOM     66  C   UNL A   1      50.744  25.516  30.203  1.00  0.00     0.000 A 
ENDBRANCH  47  61
BRANCH  48  67
ATOM     67  C   UNL A   1      38.574  29.306  29.046  1.00  0.00    -0.014 A 
ATOM     68  C   UNL A   1      38.086  29.914  27.878  1.00  0.00     0.009 A 
ATOM     69  C   UNL A   1      37.702  29.133  30.132  1.00  0.00     0.009 A 
ATOM     70  C   UNL A   1      36.767  30.370  27.814  1.00  0.00     0.001 A 
ATOM     71  C   UNL A   1      36.375  29.560  30.054  1.00  0.00     0.001 A 
ATOM     72  C   UNL A   1      35.912  30.190  28.900  1.00  0.00     0.000 A 
ENDBRANCH  48  67
BRANCH  60  73
ATOM     73  C   UNL A   1      44.394  32.477  31.173  1.00  0.00    -0.014 A 
ATOM     74  C   UNL A   1      44.639  33.533  30.282  1.00  0.00     0.009 A 
ATOM     75  C   UNL A   1      44.359  32.742  32.551  1.00  0.00     0.009 A 
ATOM     76  C   UNL A   1      44.880  34.820  30.764  1.00  0.00     0.001 A 
ATOM     77  C   UNL A   1      44.567  34.036  33.028  1.00  0.00     0.001 A 
ATOM     78  C   UNL A   1      44.837  35.072  32.135  1.00  0.00     0.000 A 
ENDBRANCH  60  73
ENDBRANCH  34  35
ENDBRANCH  26  29
ENDBRANCH  24  25
ENDBRANCH  23  24
ENDBRANCH  22  23
ENDBRANCH   3  22
TORSDOF 16
ENDMDL
MODEL 3
REMARK VINA RESULT:      -9.2      4.781     10.156
REMARK SMILES [NH3+]CCOCC(=O)N[C@]1(C(=O)NCCCNC(=O)c2ccc(-c3c4nc(c(-c5ccccc5)c5ccc([nH]5)c(-c5ccccc5)c5nc(c(-c6ccccc6)c6ccc3[nH]6)C=C5)C=C4)cc2)CCOC1
REMARK SMILES IDX 10 1 11 2 12 3 9 5 67 6 70 7 68 8 69 9 8 10 6 11 7 12 5 14
REMARK SMILES IDX 4 15 3 16 2 17 1 18 13 22 14 23 15 24 16 25 17 26 18 28
REMARK SMILES IDX 19 29 20 30 66 31 21 32 65 33 22 34 23 35 24 36 59 37 25 38
REMARK SMILES IDX 64 39 58 40 60 41 26 42 63 43 57 44 56 45 27 47 49 48 34 49
REMARK SMILES IDX 48 50 35 51 38 52 47 53 61 54 36 55 37 56 46 58 62 59 39 60
REMARK SMILES IDX 28 61 29 62 33 63 30 64 32 65 31 66 50 67 51 68 55 69 52 70
REMARK SMILES IDX 54 71 53 72 40 73 41 74 45 75 42 76 44 77 43 78
REMARK H PARENT 12 4 8 13 1 19 1 20 1 21 16 27 60 46 38 57
REMARK Flexibility Score: inf
ROOT
ATOM      1  C   UNL A   1      32.661  29.103  23.677  1.00  0.00     0.248 C 
ATOM      2  O   UNL A   1      33.694  29.327  23.028  1.00  0.00    -0.272 OA
ATOM      3  N   UNL A   1      32.626  29.738  24.868  1.00  0.00    -0.354 N 
ATOM      4  H   UNL A   1      33.489  30.142  25.112  1.00  0.00     0.163 HD
ENDROOT
BRANCH   1   5
ATOM      5  C   UNL A   1      31.487  28.310  23.052  1.00  0.00     0.144 C 
ATOM      6  C   UNL A   1      30.427  27.620  23.893  1.00  0.00     0.069 C 
ATOM      7  C   UNL A   1      30.641  29.370  22.321  1.00  0.00     0.198 C 
ATOM      8  C   UNL A   1      29.134  27.804  23.109  1.00  0.00     0.163 C 
ATOM      9  O   UNL A   1      29.325  28.841  22.150  1.00  0.00    -0.378 OA
BRANCH   5  10
ATOM     10  N   UNL A   1      32.087  27.360  22.078  1.00  0.00    -0.338 N 
ATOM     11  C   UNL A   1      32.815  26.223  22.290  1.00  0.00     0.246 C 
ATOM     12  O   UNL A   1      33.395  25.717  21.324  1.00  0.00    -0.272 OA
ATOM     13  H   UNL A   1      31.936  27.585  21.132  1.00  0.00     0.164 HD
BRANCH  11  14
ATOM     14  C   UNL A   1      32.888  25.549  23.673  1.00  0.00     0.260 C 
BRANCH  14  15
ATOM     15  O   UNL A   1      32.506  24.195  23.814  1.00  0.00    -0.366 OA
BRANCH  15  16
ATOM     16  C   UNL A   1      31.128  24.005  24.158  1.00  0.00     0.222 C 
BRANCH  16  17
ATOM     17  C   UNL A   1      30.876  23.759  25.658  1.00  0.00     0.287 C 
BRANCH  17  18
ATOM     18  N   UNL A   1      29.998  24.733  26.311  1.00  0.00    -0.356 N 
ATOM     19  H   UNL A   1      30.561  25.383  26.861  1.00  0.00     0.344 HD
ATOM     20  H   UNL A   1      29.347  24.245  26.924  1.00  0.00     0.344 HD
ATOM     21  H   UNL A   1      29.477  25.250  25.602  1.00  0.00     0.344 HD
ENDBRANCH  17  18
ENDBRANCH  16  17
ENDBRANCH  15  16
ENDBRANCH  14  15
ENDBRANCH  11  14
ENDBRANCH   5  10
ENDBRANCH   1   5
BRANCH   3  22
ATOM     22  C   UNL A   1      31.599  29.955  25.868  1.00  0.00     0.117 C 
BRANCH  22  23
ATOM     23  C   UNL A   1      31.454  31.438  26.180  1.00  0.00     0.042 C 
BRANCH  23  24
ATOM     24  C   UNL A   1      32.601  31.999  27.016  1.00  0.00     0.118 C 
BRANCH  24  25
ATOM     25  N   UNL A   1      32.382  33.383  27.415  1.00  0.00    -0.352 N 
ATOM     26  C   UNL A   1      33.092  34.162  28.296  1.00  0.00     0.251 C 
ATOM     27  H   UNL A   1      31.611  33.825  26.991  1.00  0.00     0.163 HD
ATOM     28  O   UNL A   1      32.638  35.239  28.673  1.00  0.00    -0.269 OA
BRANCH  26  29
ATOM     29  C   UNL A   1      34.393  33.686  28.807  1.00  0.00     0.039 A 
ATOM     30  C   UNL A   1      34.442  33.005  30.024  1.00  0.00     0.014 A 
ATOM     31  C   UNL A   1      35.561  33.901  28.072  1.00  0.00     0.014 A 
ATOM     32  C   UNL A   1      35.655  32.471  30.465  1.00  0.00     0.010 A 
ATOM     33  C   UNL A   1      36.741  33.281  28.459  1.00  0.00     0.010 A 
ATOM     34  C   UNL A   1      36.805  32.566  29.665  1.00  0.00    -0.014 A 
BRANCH  34  35
ATOM     35  C   UNL A   1      38.088  31.940  30.069  1.00  0.00     0.031 A 
ATOM     36  C   UNL A   1      39.022  32.673  30.996  1.00  0.00     0.074 A 
ATOM     37  C   UNL A   1      38.448  30.750  29.548  1.00  0.00     0.049 A 
ATOM     38  N   UNL A   1      40.218  32.331  31.403  1.00  0.00    -0.248 NA
ATOM     39  C   UNL A   1      38.564  33.976  31.508  1.00  0.00     0.031 C 
ATOM     40  C   UNL A   1      37.654  29.960  28.603  1.00  0.00     0.029 A 
ATOM     41  N   UNL A   1      39.580  29.998  29.736  1.00  0.00    -0.354 N 
ATOM     42  C   UNL A   1      40.661  33.384  32.194  1.00  0.00     0.074 A 
ATOM     43  C   UNL A   1      39.633  34.401  32.165  1.00  0.00     0.031 C 
ATOM     44  C   UNL A   1      38.308  28.823  28.320  1.00  0.00     0.029 A 
ATOM     45  C   UNL A   1      39.586  28.822  29.024  1.00  0.00     0.049 A 
ATOM     46  H   UNL A   1      40.320  30.275  30.324  1.00  0.00     0.167 HD
ATOM     47  C   UNL A   1      41.809  33.488  32.904  1.00  0.00     0.031 A 
ATOM     48  C   UNL A   1      40.520  27.855  28.942  1.00  0.00     0.031 A 
ATOM     49  C   UNL A   1      42.822  32.468  32.948  1.00  0.00     0.049 A 
ATOM     50  C   UNL A   1      41.791  27.999  29.733  1.00  0.00     0.074 A 
ATOM     51  C   UNL A   1      43.993  32.449  33.684  1.00  0.00     0.029 A 
ATOM     52  N   UNL A   1      42.782  31.287  32.225  1.00  0.00    -0.354 N 
ATOM     53  N   UNL A   1      42.160  28.968  30.535  1.00  0.00    -0.248 NA
ATOM     54  C   UNL A   1      42.769  26.908  29.615  1.00  0.00     0.031 C 
ATOM     55  C   UNL A   1      44.689  31.280  33.364  1.00  0.00     0.029 A 
ATOM     56  C   UNL A   1      43.920  30.542  32.477  1.00  0.00     0.049 A 
ATOM     57  H   UNL A   1      42.052  31.017  31.620  1.00  0.00     0.167 HD
ATOM     58  C   UNL A   1      43.397  28.589  31.041  1.00  0.00     0.074 A 
ATOM     59  C   UNL A   1      43.705  27.295  30.470  1.00  0.00     0.031 C 
ATOM     60  C   UNL A   1      44.207  29.253  31.902  1.00  0.00     0.031 A 
BRANCH  47  61
ATOM     61  C   UNL A   1      42.031  34.751  33.689  1.00  0.00    -0.014 A 
ATOM     62  C   UNL A   1      42.733  35.838  33.143  1.00  0.00     0.009 A 
ATOM     63  C   UNL A   1      41.494  34.872  34.982  1.00  0.00     0.009 A 
ATOM     64  C   UNL A   1      42.925  37.004  33.887  1.00  0.00     0.001 A 
ATOM     65  C   UNL A   1      41.659  36.051  35.710  1.00  0.00     0.001 A 
ATOM     66  C   UNL A   1      42.382  37.111  35.167  1.00  0.00     0.000 A 
ENDBRANCH  47  61
BRANCH  48  67
ATOM     67  C   UNL A   1      40.289  26.658  28.089  1.00  0.00    -0.014 A 
ATOM     68  C   UNL A   1      39.554  25.566  28.577  1.00  0.00     0.009 A 
ATOM     69  C   UNL A   1      40.819  26.589  26.791  1.00  0.00     0.009 A 
ATOM     70  C   UNL A   1      39.384  24.420  27.796  1.00  0.00     0.001 A 
ATOM     71  C   UNL A   1      40.621  25.456  26.001  1.00  0.00     0.001 A 
ATOM     72  C   UNL A   1      39.915  24.366  26.509  1.00  0.00     0.000 A 
ENDBRANCH  48  67
BRANCH  60  73
ATOM     73  C   UNL A   1      45.482  28.572  32.311  1.00  0.00    -0.014 A 
ATOM     74  C   UNL A   1      46.681  28.781  31.612  1.00  0.00     0.009 A 
ATOM     75  C   UNL A   1      45.490  27.742  33.443  1.00  0.00     0.009 A 
ATOM     76  C   UNL A   1      47.854  28.143  32.017  1.00  0.00     0.001 A 
ATOM     77  C   UNL A   1      46.671  27.132  33.866  1.00  0.00     0.001 A 
ATOM     78  C   UNL A   1      47.850  27.325  33.146  1.00  0.00     0.000 A 
ENDBRANCH  60  73
ENDBRANCH  34  35
ENDBRANCH  26  29
ENDBRANCH  24  25
ENDBRANCH  23  24
ENDBRANCH  22  23
ENDBRANCH   3  22
TORSDOF 16
ENDMDL
