MODEL 1
REMARK VINA RESULT:     -12.6      0.000      0.000
REMARK SMILES COc1ccc2c(c1)c(CC(=O)NCCCNC(=O)c1ccc(-c3c4nc(c(-c5ccccc5)c5ccc([nH]5)c(-c5ccccc5)c5nc(c(-c6ccccc6)c6ccc3[nH]6)C=C5)C=C4)cc1)c(C)n2C(=O)c1ccc(Cl)cc1
REMARK SMILES IDX 14 1 13 2 11 3 12 4 10 6 9 7 3 8 4 9 8 10 5 11 7 12 6 13
REMARK SMILES IDX 70 14 68 15 69 16 2 17 1 18 71 19 72 20 73 21 74 22 79 23
REMARK SMILES IDX 75 24 78 25 76 26 77 27 15 28 16 29 17 30 18 31 19 33 20 34
REMARK SMILES IDX 21 35 67 36 22 37 66 38 23 39 24 40 25 41 60 42 26 43 65 44
REMARK SMILES IDX 59 45 61 46 27 47 64 48 58 49 57 50 28 52 50 53 35 54 49 55
REMARK SMILES IDX 36 56 39 57 48 58 62 59 37 60 38 61 47 63 63 64 40 65 29 66
REMARK SMILES IDX 30 67 34 68 31 69 33 70 32 71 51 72 52 73 56 74 53 75 55 76
REMARK SMILES IDX 54 77 41 78 42 79 46 80 43 81 45 82 44 83
REMARK H PARENT 13 5 17 32 61 51 39 62
REMARK Flexibility Score: inf
ROOT
ATOM      1  C   UNL A   1      31.418  28.115  26.728  1.00  0.00     0.117 C 
ENDROOT
BRANCH   1   2
ATOM      2  N   UNL A   1      31.235  26.712  27.053  1.00  0.00    -0.356 N 
ATOM      3  C   UNL A   1      31.744  25.609  26.430  1.00  0.00     0.224 C 
ATOM      4  O   UNL A   1      31.502  24.503  26.922  1.00  0.00    -0.275 OA
ATOM      5  H   UNL A   1      30.665  26.531  27.835  1.00  0.00     0.163 HD
BRANCH   3   6
ATOM      6  C   UNL A   1      32.623  25.750  25.198  1.00  0.00     0.138 C 
BRANCH   6   7
ATOM      7  C   UNL A   1      33.028  24.432  24.599  1.00  0.00    -0.009 A 
ATOM      8  C   UNL A   1      36.733  23.570  24.982  1.00  0.00     0.119 A 
ATOM      9  C   UNL A   1      36.690  22.407  24.230  1.00  0.00     0.048 A 
ATOM     10  C   UNL A   1      35.561  24.305  25.175  1.00  0.00     0.057 A 
ATOM     11  C   UNL A   1      35.489  21.963  23.665  1.00  0.00     0.031 A 
ATOM     12  C   UNL A   1      34.333  23.870  24.624  1.00  0.00     0.008 A 
ATOM     13  C   UNL A   1      34.294  22.672  23.904  1.00  0.00     0.057 A 
ATOM     14  N   UNL A   1      32.950  22.410  23.577  1.00  0.00    -0.280 N 
ATOM     15  C   UNL A   1      32.224  23.577  23.851  1.00  0.00     0.028 A 
ATOM     16  C   UNL A   1      30.810  23.829  23.425  1.00  0.00     0.065 C 
BRANCH   8  17
ATOM     17  O   UNL A   1      37.848  24.076  25.591  1.00  0.00    -0.497 OA
ATOM     18  C   UNL A   1      38.508  23.206  26.504  1.00  0.00     0.278 C 
ENDBRANCH   8  17
BRANCH  14  19
ATOM     19  C   UNL A   1      32.425  21.182  23.080  1.00  0.00     0.262 C 
ATOM     20  O   UNL A   1      31.823  21.177  22.003  1.00  0.00    -0.268 OA
BRANCH  19  21
ATOM     21  C   UNL A   1      32.520  19.880  23.757  1.00  0.00     0.040 A 
ATOM     22  C   UNL A   1      32.630  19.804  25.150  1.00  0.00     0.015 A 
ATOM     23  C   UNL A   1      32.542  18.721  22.972  1.00  0.00     0.015 A 
ATOM     24  C   UNL A   1      32.859  18.564  25.750  1.00  0.00     0.021 A 
ATOM     25  C   UNL A   1      32.760  17.485  23.579  1.00  0.00     0.021 A 
ATOM     26  C   UNL A   1      32.940  17.414  24.962  1.00  0.00     0.041 A 
ATOM     27  Cl  UNL A   1      33.292  15.900  25.697  1.00  0.00    -0.084 Cl
ENDBRANCH  19  21
ENDBRANCH  14  19
ENDBRANCH   6   7
ENDBRANCH   3   6
ENDBRANCH   1   2
BRANCH   1  28
ATOM     28  C   UNL A   1      32.727  28.692  27.274  1.00  0.00     0.042 C 
BRANCH  28  29
ATOM     29  C   UNL A   1      33.242  29.905  26.501  1.00  0.00     0.118 C 
BRANCH  29  30
ATOM     30  N   UNL A   1      33.559  31.048  27.336  1.00  0.00    -0.352 N 
ATOM     31  C   UNL A   1      34.657  31.511  28.001  1.00  0.00     0.251 C 
ATOM     32  H   UNL A   1      32.783  31.643  27.454  1.00  0.00     0.163 HD
ATOM     33  O   UNL A   1      34.532  32.626  28.518  1.00  0.00    -0.269 OA
BRANCH  31  34
ATOM     34  C   UNL A   1      35.940  30.782  28.203  1.00  0.00     0.039 A 
ATOM     35  C   UNL A   1      36.172  29.432  27.948  1.00  0.00     0.014 A 
ATOM     36  C   UNL A   1      36.992  31.549  28.750  1.00  0.00     0.014 A 
ATOM     37  C   UNL A   1      37.392  28.852  28.308  1.00  0.00     0.010 A 
ATOM     38  C   UNL A   1      38.210  30.977  29.106  1.00  0.00     0.010 A 
ATOM     39  C   UNL A   1      38.397  29.614  28.920  1.00  0.00    -0.014 A 
BRANCH  39  40
ATOM     40  C   UNL A   1      39.689  28.980  29.198  1.00  0.00     0.031 A 
ATOM     41  C   UNL A   1      39.992  28.859  30.649  1.00  0.00     0.074 A 
ATOM     42  C   UNL A   1      40.512  28.440  28.272  1.00  0.00     0.049 A 
ATOM     43  N   UNL A   1      40.934  29.449  31.307  1.00  0.00    -0.248 NA
ATOM     44  C   UNL A   1      39.060  28.094  31.494  1.00  0.00     0.031 C 
ATOM     45  C   UNL A   1      40.235  28.213  26.851  1.00  0.00     0.029 A 
ATOM     46  N   UNL A   1      41.754  27.887  28.431  1.00  0.00    -0.354 N 
ATOM     47  C   UNL A   1      40.830  28.996  32.620  1.00  0.00     0.074 A 
ATOM     48  C   UNL A   1      39.582  28.284  32.707  1.00  0.00     0.031 C 
ATOM     49  C   UNL A   1      41.167  27.376  26.338  1.00  0.00     0.029 A 
ATOM     50  C   UNL A   1      42.188  27.133  27.343  1.00  0.00     0.049 A 
ATOM     51  H   UNL A   1      42.295  28.011  29.245  1.00  0.00     0.167 HD
ATOM     52  C   UNL A   1      41.892  29.049  33.469  1.00  0.00     0.031 A 
ATOM     53  C   UNL A   1      43.290  26.343  27.286  1.00  0.00     0.031 A 
ATOM     54  C   UNL A   1      42.922  29.917  32.963  1.00  0.00     0.049 A 
ATOM     55  C   UNL A   1      44.223  26.791  28.336  1.00  0.00     0.074 A 
ATOM     56  C   UNL A   1      43.063  31.271  32.755  1.00  0.00     0.029 A 
ATOM     57  N   UNL A   1      43.888  29.288  32.224  1.00  0.00    -0.354 N 
ATOM     58  N   UNL A   1      44.857  27.926  28.305  1.00  0.00    -0.248 NA
ATOM     59  C   UNL A   1      44.228  26.102  29.617  1.00  0.00     0.031 C 
ATOM     60  C   UNL A   1      43.921  31.392  31.625  1.00  0.00     0.029 A 
ATOM     61  C   UNL A   1      44.328  30.116  31.228  1.00  0.00     0.049 A 
ATOM     62  H   UNL A   1      44.218  28.374  32.384  1.00  0.00     0.167 HD
ATOM     63  C   UNL A   1      44.935  28.307  29.632  1.00  0.00     0.074 A 
ATOM     64  C   UNL A   1      44.700  27.083  30.389  1.00  0.00     0.031 C 
ATOM     65  C   UNL A   1      44.877  29.625  29.980  1.00  0.00     0.031 A 
BRANCH  52  66
ATOM     66  C   UNL A   1      42.208  27.978  34.493  1.00  0.00    -0.014 A 
ATOM     67  C   UNL A   1      41.802  28.040  35.838  1.00  0.00     0.009 A 
ATOM     68  C   UNL A   1      42.672  26.726  34.037  1.00  0.00     0.009 A 
ATOM     69  C   UNL A   1      41.825  26.920  36.676  1.00  0.00     0.001 A 
ATOM     70  C   UNL A   1      42.663  25.594  34.862  1.00  0.00     0.001 A 
ATOM     71  C   UNL A   1      42.233  25.690  36.181  1.00  0.00     0.000 A 
ENDBRANCH  52  66
BRANCH  53  72
ATOM     72  C   UNL A   1      43.507  25.048  26.599  1.00  0.00    -0.014 A 
ATOM     73  C   UNL A   1      44.455  24.956  25.567  1.00  0.00     0.009 A 
ATOM     74  C   UNL A   1      42.554  24.018  26.707  1.00  0.00     0.009 A 
ATOM     75  C   UNL A   1      44.405  23.916  24.630  1.00  0.00     0.001 A 
ATOM     76  C   UNL A   1      42.504  22.977  25.768  1.00  0.00     0.001 A 
ATOM     77  C   UNL A   1      43.416  22.941  24.717  1.00  0.00     0.000 A 
ENDBRANCH  53  72
BRANCH  65  78
ATOM     78  C   UNL A   1      45.201  30.657  28.927  1.00  0.00    -0.014 A 
ATOM     79  C   UNL A   1      44.131  31.158  28.169  1.00  0.00     0.009 A 
ATOM     80  C   UNL A   1      46.504  31.048  28.577  1.00  0.00     0.009 A 
ATOM     81  C   UNL A   1      44.350  32.004  27.082  1.00  0.00     0.001 A 
ATOM     82  C   UNL A   1      46.721  31.925  27.508  1.00  0.00     0.001 A 
ATOM     83  C   UNL A   1      45.645  32.391  26.754  1.00  0.00     0.000 A 
ENDBRANCH  65  78
ENDBRANCH  39  40
ENDBRANCH  31  34
ENDBRANCH  29  30
ENDBRANCH  28  29
ENDBRANCH   1  28
TORSDOF 14
ENDMDL
MODEL 2
REMARK VINA RESULT:     -12.5      4.200      7.685
REMARK SMILES COc1ccc2c(c1)c(CC(=O)NCCCNC(=O)c1ccc(-c3c4nc(c(-c5ccccc5)c5ccc([nH]5)c(-c5ccccc5)c5nc(c(-c6ccccc6)c6ccc3[nH]6)C=C5)C=C4)cc1)c(C)n2C(=O)c1ccc(Cl)cc1
REMARK SMILES IDX 14 1 13 2 11 3 12 4 10 6 9 7 3 8 4 9 8 10 5 11 7 12 6 13
REMARK SMILES IDX 70 14 68 15 69 16 2 17 1 18 71 19 72 20 73 21 74 22 79 23
REMARK SMILES IDX 75 24 78 25 76 26 77 27 15 28 16 29 17 30 18 31 19 33 20 34
REMARK SMILES IDX 21 35 67 36 22 37 66 38 23 39 24 40 25 41 60 42 26 43 65 44
REMARK SMILES IDX 59 45 61 46 27 47 64 48 58 49 57 50 28 52 50 53 35 54 49 55
REMARK SMILES IDX 36 56 39 57 48 58 62 59 37 60 38 61 47 63 63 64 40 65 29 66
REMARK SMILES IDX 30 67 34 68 31 69 33 70 32 71 51 72 52 73 56 74 53 75 55 76
REMARK SMILES IDX 54 77 41 78 42 79 46 80 43 81 45 82 44 83
REMARK H PARENT 13 5 17 32 61 51 39 62
REMARK Flexibility Score: inf
ROOT
ATOM      1  C   UNL A   1      37.730  33.934  33.280  1.00  0.00     0.117 C 
ENDROOT
BRANCH   1   2
ATOM      2  N   UNL A   1      36.645  34.878  33.084  1.00  0.00    -0.356 N 
ATOM      3  C   UNL A   1      35.313  34.637  32.903  1.00  0.00     0.224 C 
ATOM      4  O   UNL A   1      34.556  35.607  32.816  1.00  0.00    -0.275 OA
ATOM      5  H   UNL A   1      36.907  35.827  33.084  1.00  0.00     0.163 HD
BRANCH   3   6
ATOM      6  C   UNL A   1      34.781  33.213  32.863  1.00  0.00     0.138 C 
BRANCH   6   7
ATOM      7  C   UNL A   1      35.127  32.482  31.597  1.00  0.00    -0.009 A 
ATOM      8  C   UNL A   1      37.208  29.313  32.099  1.00  0.00     0.119 A 
ATOM      9  C   UNL A   1      37.389  29.044  30.752  1.00  0.00     0.048 A 
ATOM     10  C   UNL A   1      36.456  30.427  32.480  1.00  0.00     0.057 A 
ATOM     11  C   UNL A   1      36.827  29.872  29.773  1.00  0.00     0.031 A 
ATOM     12  C   UNL A   1      35.868  31.272  31.509  1.00  0.00     0.008 A 
ATOM     13  C   UNL A   1      36.021  30.964  30.154  1.00  0.00     0.057 A 
ATOM     14  N   UNL A   1      35.245  31.878  29.415  1.00  0.00    -0.280 N 
ATOM     15  C   UNL A   1      34.858  32.897  30.297  1.00  0.00     0.028 A 
ATOM     16  C   UNL A   1      34.233  34.195  29.888  1.00  0.00     0.065 C 
BRANCH   8  17
ATOM     17  O   UNL A   1      37.697  28.558  33.128  1.00  0.00    -0.497 OA
ATOM     18  C   UNL A   1      38.541  27.473  32.758  1.00  0.00     0.278 C 
ENDBRANCH   8  17
BRANCH  14  19
ATOM     19  C   UNL A   1      34.904  31.775  28.035  1.00  0.00     0.262 C 
ATOM     20  O   UNL A   1      35.358  32.602  27.240  1.00  0.00    -0.268 OA
BRANCH  19  21
ATOM     21  C   UNL A   1      34.019  30.756  27.452  1.00  0.00     0.040 A 
ATOM     22  C   UNL A   1      32.664  31.028  27.228  1.00  0.00     0.015 A 
ATOM     23  C   UNL A   1      34.554  29.495  27.166  1.00  0.00     0.015 A 
ATOM     24  C   UNL A   1      31.822  29.997  26.805  1.00  0.00     0.021 A 
ATOM     25  C   UNL A   1      33.708  28.473  26.733  1.00  0.00     0.021 A 
ATOM     26  C   UNL A   1      32.344  28.722  26.576  1.00  0.00     0.041 A 
ATOM     27  Cl  UNL A   1      31.292  27.439  26.124  1.00  0.00    -0.084 Cl
ENDBRANCH  19  21
ENDBRANCH  14  19
ENDBRANCH   6   7
ENDBRANCH   3   6
ENDBRANCH   1   2
BRANCH   1  28
ATOM     28  C   UNL A   1      38.934  34.545  34.002  1.00  0.00     0.042 C 
BRANCH  28  29
ATOM     29  C   UNL A   1      40.285  34.113  33.432  1.00  0.00     0.118 C 
BRANCH  29  30
ATOM     30  N   UNL A   1      40.510  34.533  32.062  1.00  0.00    -0.352 N 
ATOM     31  C   UNL A   1      40.838  33.927  30.884  1.00  0.00     0.251 C 
ATOM     32  H   UNL A   1      40.397  35.505  31.952  1.00  0.00     0.163 HD
ATOM     33  O   UNL A   1      40.816  34.657  29.888  1.00  0.00    -0.269 OA
BRANCH  31  34
ATOM     34  C   UNL A   1      41.268  32.511  30.709  1.00  0.00     0.039 A 
ATOM     35  C   UNL A   1      42.546  32.072  30.370  1.00  0.00     0.014 A 
ATOM     36  C   UNL A   1      40.249  31.546  30.861  1.00  0.00     0.014 A 
ATOM     37  C   UNL A   1      42.775  30.718  30.113  1.00  0.00     0.010 A 
ATOM     38  C   UNL A   1      40.472  30.196  30.610  1.00  0.00     0.010 A 
ATOM     39  C   UNL A   1      41.731  29.784  30.195  1.00  0.00    -0.014 A 
BRANCH  39  40
ATOM     40  C   UNL A   1      42.040  28.365  30.001  1.00  0.00     0.031 A 
ATOM     41  C   UNL A   1      42.789  27.759  31.134  1.00  0.00     0.074 A 
ATOM     42  C   UNL A   1      41.616  27.605  28.967  1.00  0.00     0.049 A 
ATOM     43  N   UNL A   1      43.997  27.301  31.122  1.00  0.00    -0.248 NA
ATOM     44  C   UNL A   1      42.170  27.783  32.470  1.00  0.00     0.031 C 
ATOM     45  C   UNL A   1      40.641  27.963  27.933  1.00  0.00     0.029 A 
ATOM     46  N   UNL A   1      41.903  26.299  28.673  1.00  0.00    -0.354 N 
ATOM     47  C   UNL A   1      44.237  26.812  32.405  1.00  0.00     0.074 A 
ATOM     48  C   UNL A   1      43.141  27.263  33.223  1.00  0.00     0.031 C 
ATOM     49  C   UNL A   1      40.249  26.846  27.276  1.00  0.00     0.029 A 
ATOM     50  C   UNL A   1      41.053  25.725  27.730  1.00  0.00     0.049 A 
ATOM     51  H   UNL A   1      42.646  25.808  29.093  1.00  0.00     0.167 HD
ATOM     52  C   UNL A   1      45.203  25.882  32.634  1.00  0.00     0.031 A 
ATOM     53  C   UNL A   1      40.995  24.416  27.375  1.00  0.00     0.031 A 
ATOM     54  C   UNL A   1      46.105  25.781  31.518  1.00  0.00     0.049 A 
ATOM     55  C   UNL A   1      42.281  23.792  27.738  1.00  0.00     0.074 A 
ATOM     56  C   UNL A   1      47.063  26.586  30.943  1.00  0.00     0.029 A 
ATOM     57  N   UNL A   1      45.775  24.819  30.601  1.00  0.00    -0.354 N 
ATOM     58  N   UNL A   1      43.408  24.055  27.143  1.00  0.00    -0.248 NA
ATOM     59  C   UNL A   1      42.388  23.078  29.001  1.00  0.00     0.031 C 
ATOM     60  C   UNL A   1      47.041  26.265  29.555  1.00  0.00     0.029 A 
ATOM     61  C   UNL A   1      46.125  25.232  29.345  1.00  0.00     0.049 A 
ATOM     62  H   UNL A   1      45.349  23.957  30.813  1.00  0.00     0.167 HD
ATOM     63  C   UNL A   1      44.352  23.962  28.148  1.00  0.00     0.074 A 
ATOM     64  C   UNL A   1      43.702  23.194  29.205  1.00  0.00     0.031 C 
ATOM     65  C   UNL A   1      45.448  24.774  28.148  1.00  0.00     0.031 A 
BRANCH  52  66
ATOM     66  C   UNL A   1      45.063  24.749  33.630  1.00  0.00    -0.014 A 
ATOM     67  C   UNL A   1      43.963  23.873  33.665  1.00  0.00     0.009 A 
ATOM     68  C   UNL A   1      46.199  24.358  34.369  1.00  0.00     0.009 A 
ATOM     69  C   UNL A   1      43.997  22.664  34.368  1.00  0.00     0.001 A 
ATOM     70  C   UNL A   1      46.250  23.131  35.043  1.00  0.00     0.001 A 
ATOM     71  C   UNL A   1      45.150  22.281  35.037  1.00  0.00     0.000 A 
ENDBRANCH  52  66
BRANCH  53  72
ATOM     72  C   UNL A   1      39.835  23.572  27.008  1.00  0.00    -0.014 A 
ATOM     73  C   UNL A   1      40.040  22.246  26.594  1.00  0.00     0.009 A 
ATOM     74  C   UNL A   1      38.589  24.161  26.723  1.00  0.00     0.009 A 
ATOM     75  C   UNL A   1      39.067  21.561  25.855  1.00  0.00     0.001 A 
ATOM     76  C   UNL A   1      37.616  23.475  25.982  1.00  0.00     0.001 A 
ATOM     77  C   UNL A   1      37.866  22.183  25.529  1.00  0.00     0.000 A 
ENDBRANCH  53  72
BRANCH  65  78
ATOM     78  C   UNL A   1      45.862  25.414  26.846  1.00  0.00    -0.014 A 
ATOM     79  C   UNL A   1      46.922  24.816  26.144  1.00  0.00     0.009 A 
ATOM     80  C   UNL A   1      45.346  26.628  26.361  1.00  0.00     0.009 A 
ATOM     81  C   UNL A   1      47.467  25.416  25.010  1.00  0.00     0.001 A 
ATOM     82  C   UNL A   1      45.870  27.213  25.202  1.00  0.00     0.001 A 
ATOM     83  C   UNL A   1      46.938  26.613  24.536  1.00  0.00     0.000 A 
ENDBRANCH  65  78
ENDBRANCH  39  40
ENDBRANCH  31  34
ENDBRANCH  29  30
ENDBRANCH  28  29
ENDBRANCH   1  28
TORSDOF 14
ENDMDL
MODEL 3
REMARK VINA RESULT:     -12.4      2.804      7.854
REMARK SMILES COc1ccc2c(c1)c(CC(=O)NCCCNC(=O)c1ccc(-c3c4nc(c(-c5ccccc5)c5ccc([nH]5)c(-c5ccccc5)c5nc(c(-c6ccccc6)c6ccc3[nH]6)C=C5)C=C4)cc1)c(C)n2C(=O)c1ccc(Cl)cc1
REMARK SMILES IDX 14 1 13 2 11 3 12 4 10 6 9 7 3 8 4 9 8 10 5 11 7 12 6 13
REMARK SMILES IDX 70 14 68 15 69 16 2 17 1 18 71 19 72 20 73 21 74 22 79 23
REMARK SMILES IDX 75 24 78 25 76 26 77 27 15 28 16 29 17 30 18 31 19 33 20 34
REMARK SMILES IDX 21 35 67 36 22 37 66 38 23 39 24 40 25 41 60 42 26 43 65 44
REMARK SMILES IDX 59 45 61 46 27 47 64 48 58 49 57 50 28 52 50 53 35 54 49 55
REMARK SMILES IDX 36 56 39 57 48 58 62 59 37 60 38 61 47 63 63 64 40 65 29 66
REMARK SMILES IDX 30 67 34 68 31 69 33 70 32 71 51 72 52 73 56 74 53 75 55 76
REMARK SMILES IDX 54 77 41 78 42 79 46 80 43 81 45 82 44 83
REMARK H PARENT 13 5 17 32 61 51 39 62
REMARK Flexibility Score: inf
ROOT
ATOM      1  C   UNL A   1      39.339  22.098  26.470  1.00  0.00     0.117 C 
ENDROOT
BRANCH   1   2
ATOM      2  N   UNL A   1      38.641  22.278  25.210  1.00  0.00    -0.356 N 
ATOM      3  C   UNL A   1      37.328  22.048  24.910  1.00  0.00     0.224 C 
ATOM      4  O   UNL A   1      36.935  22.332  23.776  1.00  0.00    -0.275 OA
ATOM      5  H   UNL A   1      39.191  22.616  24.467  1.00  0.00     0.163 HD
BRANCH   3   6
ATOM      6  C   UNL A   1      36.375  21.506  25.963  1.00  0.00     0.138 C 
BRANCH   6   7
ATOM      7  C   UNL A   1      34.943  21.465  25.509  1.00  0.00    -0.009 A 
ATOM      8  C   UNL A   1      33.838  18.130  24.001  1.00  0.00     0.119 A 
ATOM      9  C   UNL A   1      32.571  18.551  23.630  1.00  0.00     0.048 A 
ATOM     10  C   UNL A   1      34.695  19.023  24.646  1.00  0.00     0.057 A 
ATOM     11  C   UNL A   1      32.143  19.857  23.896  1.00  0.00     0.031 A 
ATOM     12  C   UNL A   1      34.281  20.344  24.937  1.00  0.00     0.008 A 
ATOM     13  C   UNL A   1      32.985  20.744  24.598  1.00  0.00     0.057 A 
ATOM     14  N   UNL A   1      32.789  22.044  25.101  1.00  0.00    -0.280 N 
ATOM     15  C   UNL A   1      34.046  22.528  25.491  1.00  0.00     0.028 A 
ATOM     16  C   UNL A   1      34.344  23.951  25.852  1.00  0.00     0.065 C 
BRANCH   8  17
ATOM     17  O   UNL A   1      34.342  16.874  23.805  1.00  0.00    -0.497 OA
ATOM     18  C   UNL A   1      34.755  16.179  24.977  1.00  0.00     0.278 C 
ENDBRANCH   8  17
BRANCH  14  19
ATOM     19  C   UNL A   1      31.545  22.729  25.211  1.00  0.00     0.262 C 
ATOM     20  O   UNL A   1      30.674  22.277  25.959  1.00  0.00    -0.268 OA
BRANCH  19  21
ATOM     21  C   UNL A   1      31.180  23.953  24.483  1.00  0.00     0.040 A 
ATOM     22  C   UNL A   1      31.564  24.134  23.149  1.00  0.00     0.015 A 
ATOM     23  C   UNL A   1      30.477  24.952  25.169  1.00  0.00     0.015 A 
ATOM     24  C   UNL A   1      31.324  25.364  22.531  1.00  0.00     0.021 A 
ATOM     25  C   UNL A   1      30.232  26.172  24.541  1.00  0.00     0.021 A 
ATOM     26  C   UNL A   1      30.676  26.381  23.234  1.00  0.00     0.041 A 
ATOM     27  Cl  UNL A   1      30.445  27.916  22.493  1.00  0.00    -0.084 Cl
ENDBRANCH  19  21
ENDBRANCH  14  19
ENDBRANCH   6   7
ENDBRANCH   3   6
ENDBRANCH   1   2
BRANCH   1  28
ATOM     28  C   UNL A   1      40.293  20.900  26.460  1.00  0.00     0.042 C 
BRANCH  28  29
ATOM     29  C   UNL A   1      41.745  21.260  26.772  1.00  0.00     0.118 C 
BRANCH  29  30
ATOM     30  N   UNL A   1      42.436  21.928  25.685  1.00  0.00    -0.352 N 
ATOM     31  C   UNL A   1      42.792  23.210  25.381  1.00  0.00     0.251 C 
ATOM     32  H   UNL A   1      42.720  21.294  24.987  1.00  0.00     0.163 HD
ATOM     33  O   UNL A   1      43.499  23.338  24.376  1.00  0.00    -0.269 OA
BRANCH  31  34
ATOM     34  C   UNL A   1      42.366  24.441  26.103  1.00  0.00     0.039 A 
ATOM     35  C   UNL A   1      41.331  25.298  25.735  1.00  0.00     0.014 A 
ATOM     36  C   UNL A   1      43.133  24.771  27.242  1.00  0.00     0.014 A 
ATOM     37  C   UNL A   1      41.125  26.489  26.437  1.00  0.00     0.010 A 
ATOM     38  C   UNL A   1      42.930  25.953  27.946  1.00  0.00     0.010 A 
ATOM     39  C   UNL A   1      41.947  26.836  27.519  1.00  0.00    -0.014 A 
BRANCH  39  40
ATOM     40  C   UNL A   1      41.637  28.052  28.276  1.00  0.00     0.031 A 
ATOM     41  C   UNL A   1      42.642  29.134  28.102  1.00  0.00     0.074 A 
ATOM     42  C   UNL A   1      40.508  28.265  28.987  1.00  0.00     0.049 A 
ATOM     43  N   UNL A   1      43.434  29.622  28.998  1.00  0.00    -0.248 NA
ATOM     44  C   UNL A   1      42.888  29.644  26.742  1.00  0.00     0.031 C 
ATOM     45  C   UNL A   1      39.301  27.434  29.023  1.00  0.00     0.029 A 
ATOM     46  N   UNL A   1      40.162  29.335  29.768  1.00  0.00    -0.354 N 
ATOM     47  C   UNL A   1      44.161  30.628  28.364  1.00  0.00     0.074 A 
ATOM     48  C   UNL A   1      43.890  30.499  26.956  1.00  0.00     0.031 C 
ATOM     49  C   UNL A   1      38.288  28.133  29.589  1.00  0.00     0.029 A 
ATOM     50  C   UNL A   1      38.809  29.391  30.095  1.00  0.00     0.049 A 
ATOM     51  H   UNL A   1      40.814  30.007  30.074  1.00  0.00     0.167 HD
ATOM     52  C   UNL A   1      44.746  31.629  29.076  1.00  0.00     0.031 A 
ATOM     53  C   UNL A   1      38.160  30.414  30.707  1.00  0.00     0.031 A 
ATOM     54  C   UNL A   1      44.816  31.301  30.476  1.00  0.00     0.049 A 
ATOM     55  C   UNL A   1      39.163  31.217  31.430  1.00  0.00     0.074 A 
ATOM     56  C   UNL A   1      45.506  30.393  31.248  1.00  0.00     0.029 A 
ATOM     57  N   UNL A   1      43.759  31.752  31.222  1.00  0.00    -0.354 N 
ATOM     58  N   UNL A   1      39.803  30.801  32.482  1.00  0.00    -0.248 NA
ATOM     59  C   UNL A   1      39.704  32.409  30.795  1.00  0.00     0.031 C 
ATOM     60  C   UNL A   1      44.638  30.085  32.335  1.00  0.00     0.029 A 
ATOM     61  C   UNL A   1      43.484  30.865  32.225  1.00  0.00     0.049 A 
ATOM     62  H   UNL A   1      43.270  32.591  31.061  1.00  0.00     0.167 HD
ATOM     63  C   UNL A   1      41.054  31.378  32.369  1.00  0.00     0.074 A 
ATOM     64  C   UNL A   1      40.876  32.480  31.429  1.00  0.00     0.031 C 
ATOM     65  C   UNL A   1      42.165  30.720  32.808  1.00  0.00     0.031 A 
BRANCH  52  66
ATOM     66  C   UNL A   1      44.818  33.067  28.607  1.00  0.00    -0.014 A 
ATOM     67  C   UNL A   1      45.932  33.616  27.947  1.00  0.00     0.009 A 
ATOM     68  C   UNL A   1      43.627  33.820  28.558  1.00  0.00     0.009 A 
ATOM     69  C   UNL A   1      45.862  34.829  27.252  1.00  0.00     0.001 A 
ATOM     70  C   UNL A   1      43.543  35.016  27.833  1.00  0.00     0.001 A 
ATOM     71  C   UNL A   1      44.660  35.517  27.174  1.00  0.00     0.000 A 
ENDBRANCH  52  66
BRANCH  53  72
ATOM     72  C   UNL A   1      36.790  30.940  30.503  1.00  0.00    -0.014 A 
ATOM     73  C   UNL A   1      36.374  31.322  29.217  1.00  0.00     0.009 A 
ATOM     74  C   UNL A   1      36.032  31.394  31.599  1.00  0.00     0.009 A 
ATOM     75  C   UNL A   1      35.290  32.190  29.037  1.00  0.00     0.001 A 
ATOM     76  C   UNL A   1      34.947  32.264  31.417  1.00  0.00     0.001 A 
ATOM     77  C   UNL A   1      34.592  32.679  30.137  1.00  0.00     0.000 A 
ENDBRANCH  53  72
BRANCH  65  78
ATOM     78  C   UNL A   1      41.986  29.612  33.817  1.00  0.00    -0.014 A 
ATOM     79  C   UNL A   1      42.163  29.942  35.171  1.00  0.00     0.009 A 
ATOM     80  C   UNL A   1      41.783  28.262  33.484  1.00  0.00     0.009 A 
ATOM     81  C   UNL A   1      42.160  28.959  36.160  1.00  0.00     0.001 A 
ATOM     82  C   UNL A   1      41.745  27.280  34.480  1.00  0.00     0.001 A 
ATOM     83  C   UNL A   1      41.946  27.628  35.815  1.00  0.00     0.000 A 
ENDBRANCH  65  78
ENDBRANCH  39  40
ENDBRANCH  31  34
ENDBRANCH  29  30
ENDBRANCH  28  29
ENDBRANCH   1  28
TORSDOF 14
ENDMDL
