MODEL 1
REMARK VINA RESULT:      -9.7      0.000      0.000
REMARK SMILES Cc1cccc(C[NH+]2CCC(OCC(=O)NCCCNC(=O)c3ccc(-c4c5nc(c(-c6ccccc6)c6ccc([nH]6)c(-c6ccccc6)c6nc(c(-c7ccccc7)c7ccc4[nH]7)C=C6)C=C5)cc3)CC2)n1
REMARK SMILES IDX 17 1 16 2 14 3 15 4 13 6 12 7 11 8 8 9 9 10 72 11 10 13
REMARK SMILES IDX 71 14 7 15 6 16 1 17 2 18 3 19 73 20 4 21 5 22 18 23 19 24
REMARK SMILES IDX 20 25 21 26 22 28 23 29 24 30 70 31 25 32 69 33 26 34 27 35
REMARK SMILES IDX 28 36 63 37 29 38 68 39 62 40 64 41 30 42 67 43 61 44 60 45
REMARK SMILES IDX 31 47 53 48 38 49 52 50 39 51 42 52 51 53 65 54 40 55 41 56
REMARK SMILES IDX 50 58 66 59 43 60 32 61 33 62 37 63 34 64 36 65 35 66 54 67
REMARK SMILES IDX 55 68 59 69 56 70 58 71 57 72 44 73 45 74 49 75 46 76 48 77
REMARK SMILES IDX 47 78
REMARK H PARENT 16 5 8 12 20 27 64 46 42 57
REMARK Flexibility Score: inf
ROOT
ATOM      1  C   UNL A   1      33.023  34.773  28.796  1.00  0.00     0.117 C 
ENDROOT
BRANCH   1   2
ATOM      2  N   UNL A   1      32.744  36.029  29.465  1.00  0.00    -0.354 N 
ATOM      3  C   UNL A   1      33.110  36.429  30.720  1.00  0.00     0.246 C 
ATOM      4  O   UNL A   1      32.926  37.606  31.037  1.00  0.00    -0.272 OA
ATOM      5  H   UNL A   1      32.219  36.681  28.947  1.00  0.00     0.163 HD
BRANCH   3   6
ATOM      6  C   UNL A   1      33.743  35.424  31.690  1.00  0.00     0.260 C 
BRANCH   6   7
ATOM      7  O   UNL A   1      34.715  34.531  31.175  1.00  0.00    -0.368 OA
BRANCH   7   8
ATOM      8  C   UNL A   1      35.713  34.035  32.076  1.00  0.00     0.130 C 
ATOM      9  N   UNL A   1      37.112  32.074  33.683  1.00  0.00    -0.330 N 
ATOM     10  C   UNL A   1      36.317  33.109  34.349  1.00  0.00     0.265 C 
ATOM     11  C   UNL A   1      37.705  32.571  32.436  1.00  0.00     0.265 C 
ATOM     12  H   UNL A   1      36.460  31.326  33.445  1.00  0.00     0.348 HD
ATOM     13  C   UNL A   1      35.175  33.579  33.437  1.00  0.00     0.093 C 
ATOM     14  C   UNL A   1      36.609  32.962  31.461  1.00  0.00     0.093 C 
BRANCH   9  15
ATOM     15  C   UNL A   1      38.127  31.453  34.564  1.00  0.00     0.319 C 
BRANCH  15  16
ATOM     16  C   UNL A   1      38.948  30.317  33.973  1.00  0.00     0.095 A 
ATOM     17  C   UNL A   1      42.443  29.225  34.278  1.00  0.00     0.067 C 
ATOM     18  C   UNL A   1      41.018  29.255  33.819  1.00  0.00     0.038 A 
ATOM     19  C   UNL A   1      40.476  28.227  33.060  1.00  0.00     0.023 A 
ATOM     20  N   UNL A   1      40.278  30.299  34.250  1.00  0.00    -0.252 NA
ATOM     21  C   UNL A   1      39.123  28.279  32.735  1.00  0.00     0.004 A 
ATOM     22  C   UNL A   1      38.342  29.330  33.204  1.00  0.00     0.030 A 
ENDBRANCH  15  16
ENDBRANCH   9  15
ENDBRANCH   7   8
ENDBRANCH   6   7
ENDBRANCH   3   6
ENDBRANCH   1   2
BRANCH   1  23
ATOM     23  C   UNL A   1      34.356  34.741  28.051  1.00  0.00     0.042 C 
BRANCH  23  24
ATOM     24  C   UNL A   1      35.072  33.390  28.035  1.00  0.00     0.118 C 
BRANCH  24  25
ATOM     25  N   UNL A   1      34.163  32.264  27.883  1.00  0.00    -0.352 N 
ATOM     26  C   UNL A   1      34.387  30.911  27.882  1.00  0.00     0.251 C 
ATOM     27  H   UNL A   1      33.219  32.518  27.761  1.00  0.00     0.163 HD
ATOM     28  O   UNL A   1      33.466  30.154  27.572  1.00  0.00    -0.269 OA
BRANCH  26  29
ATOM     29  C   UNL A   1      35.709  30.336  28.219  1.00  0.00     0.039 A 
ATOM     30  C   UNL A   1      36.678  30.267  27.211  1.00  0.00     0.014 A 
ATOM     31  C   UNL A   1      35.989  29.807  29.482  1.00  0.00     0.014 A 
ATOM     32  C   UNL A   1      37.943  29.739  27.487  1.00  0.00     0.010 A 
ATOM     33  C   UNL A   1      37.272  29.331  29.772  1.00  0.00     0.010 A 
ATOM     34  C   UNL A   1      38.265  29.301  28.780  1.00  0.00    -0.014 A 
BRANCH  34  35
ATOM     35  C   UNL A   1      39.643  28.856  29.117  1.00  0.00     0.031 A 
ATOM     36  C   UNL A   1      40.609  29.780  29.807  1.00  0.00     0.074 A 
ATOM     37  C   UNL A   1      40.047  27.625  28.745  1.00  0.00     0.049 A 
ATOM     38  N   UNL A   1      41.865  29.574  30.119  1.00  0.00    -0.248 NA
ATOM     39  C   UNL A   1      40.108  31.111  30.179  1.00  0.00     0.031 C 
ATOM     40  C   UNL A   1      39.223  26.637  28.045  1.00  0.00     0.029 A 
ATOM     41  N   UNL A   1      41.260  26.997  28.895  1.00  0.00    -0.354 N 
ATOM     42  C   UNL A   1      42.308  30.752  30.709  1.00  0.00     0.074 A 
ATOM     43  C   UNL A   1      41.196  31.678  30.683  1.00  0.00     0.031 C 
ATOM     44  C   UNL A   1      39.946  25.524  27.845  1.00  0.00     0.029 A 
ATOM     45  C   UNL A   1      41.294  25.731  28.363  1.00  0.00     0.049 A 
ATOM     46  H   UNL A   1      42.032  27.415  29.343  1.00  0.00     0.167 HD
ATOM     47  C   UNL A   1      43.526  31.033  31.233  1.00  0.00     0.031 A 
ATOM     48  C   UNL A   1      42.300  24.838  28.286  1.00  0.00     0.031 A 
ATOM     49  C   UNL A   1      44.631  30.111  31.275  1.00  0.00     0.049 A 
ATOM     50  C   UNL A   1      43.645  25.187  28.855  1.00  0.00     0.074 A 
ATOM     51  C   UNL A   1      45.880  30.292  31.846  1.00  0.00     0.029 A 
ATOM     52  N   UNL A   1      44.623  28.841  30.723  1.00  0.00    -0.354 N 
ATOM     53  N   UNL A   1      44.024  26.282  29.467  1.00  0.00    -0.248 NA
ATOM     54  C   UNL A   1      44.700  24.171  28.728  1.00  0.00     0.031 C 
ATOM     55  C   UNL A   1      46.645  29.146  31.597  1.00  0.00     0.029 A 
ATOM     56  C   UNL A   1      45.856  28.237  30.914  1.00  0.00     0.049 A 
ATOM     57  H   UNL A   1      43.857  28.428  30.263  1.00  0.00     0.167 HD
ATOM     58  C   UNL A   1      45.352  26.076  29.819  1.00  0.00     0.074 A 
ATOM     59  C   UNL A   1      45.708  24.748  29.367  1.00  0.00     0.031 C 
ATOM     60  C   UNL A   1      46.199  26.916  30.461  1.00  0.00     0.031 A 
BRANCH  47  61
ATOM     61  C   UNL A   1      43.739  32.407  31.803  1.00  0.00    -0.014 A 
ATOM     62  C   UNL A   1      44.193  33.463  30.999  1.00  0.00     0.009 A 
ATOM     63  C   UNL A   1      43.415  32.663  33.145  1.00  0.00     0.009 A 
ATOM     64  C   UNL A   1      44.340  34.745  31.535  1.00  0.00     0.001 A 
ATOM     65  C   UNL A   1      43.541  33.949  33.671  1.00  0.00     0.001 A 
ATOM     66  C   UNL A   1      44.009  34.987  32.868  1.00  0.00     0.000 A 
ENDBRANCH  47  61
BRANCH  48  67
ATOM     67  C   UNL A   1      42.079  23.519  27.640  1.00  0.00    -0.014 A 
ATOM     68  C   UNL A   1      42.482  23.302  26.313  1.00  0.00     0.009 A 
ATOM     69  C   UNL A   1      41.441  22.481  28.335  1.00  0.00     0.009 A 
ATOM     70  C   UNL A   1      42.225  22.081  25.687  1.00  0.00     0.001 A 
ATOM     71  C   UNL A   1      41.210  21.251  27.716  1.00  0.00     0.001 A 
ATOM     72  C   UNL A   1      41.592  21.056  26.389  1.00  0.00     0.000 A 
ENDBRANCH  48  67
BRANCH  60  73
ATOM     73  C   UNL A   1      47.587  26.410  30.737  1.00  0.00    -0.014 A 
ATOM     74  C   UNL A   1      47.917  25.834  31.974  1.00  0.00     0.009 A 
ATOM     75  C   UNL A   1      48.566  26.483  29.735  1.00  0.00     0.009 A 
ATOM     76  C   UNL A   1      49.213  25.371  32.211  1.00  0.00     0.001 A 
ATOM     77  C   UNL A   1      49.853  25.995  29.967  1.00  0.00     0.001 A 
ATOM     78  C   UNL A   1      50.177  25.447  31.207  1.00  0.00     0.000 A 
ENDBRANCH  60  73
ENDBRANCH  34  35
ENDBRANCH  26  29
ENDBRANCH  24  25
ENDBRANCH  23  24
ENDBRANCH   1  23
TORSDOF 14
ENDMDL
MODEL 2
REMARK VINA RESULT:      -9.4      3.611      6.504
REMARK SMILES Cc1cccc(C[NH+]2CCC(OCC(=O)NCCCNC(=O)c3ccc(-c4c5nc(c(-c6ccccc6)c6ccc([nH]6)c(-c6ccccc6)c6nc(c(-c7ccccc7)c7ccc4[nH]7)C=C6)C=C5)cc3)CC2)n1
REMARK SMILES IDX 17 1 16 2 14 3 15 4 13 6 12 7 11 8 8 9 9 10 72 11 10 13
REMARK SMILES IDX 71 14 7 15 6 16 1 17 2 18 3 19 73 20 4 21 5 22 18 23 19 24
REMARK SMILES IDX 20 25 21 26 22 28 23 29 24 30 70 31 25 32 69 33 26 34 27 35
REMARK SMILES IDX 28 36 63 37 29 38 68 39 62 40 64 41 30 42 67 43 61 44 60 45
REMARK SMILES IDX 31 47 53 48 38 49 52 50 39 51 42 52 51 53 65 54 40 55 41 56
REMARK SMILES IDX 50 58 66 59 43 60 32 61 33 62 37 63 34 64 36 65 35 66 54 67
REMARK SMILES IDX 55 68 59 69 56 70 58 71 57 72 44 73 45 74 49 75 46 76 48 77
REMARK SMILES IDX 47 78
REMARK H PARENT 16 5 8 12 20 27 64 46 42 57
REMARK Flexibility Score: inf
ROOT
ATOM      1  C   UNL A   1      31.770  27.896  25.703  1.00  0.00     0.117 C 
ENDROOT
BRANCH   1   2
ATOM      2  N   UNL A   1      31.296  28.992  24.880  1.00  0.00    -0.354 N 
ATOM      3  C   UNL A   1      30.446  28.954  23.811  1.00  0.00     0.246 C 
ATOM      4  O   UNL A   1      30.026  30.019  23.357  1.00  0.00    -0.272 OA
ATOM      5  H   UNL A   1      31.632  29.885  25.124  1.00  0.00     0.163 HD
BRANCH   3   6
ATOM      6  C   UNL A   1      30.029  27.604  23.213  1.00  0.00     0.260 C 
BRANCH   6   7
ATOM      7  O   UNL A   1      30.822  27.072  22.166  1.00  0.00    -0.368 OA
BRANCH   7   8
ATOM      8  C   UNL A   1      31.444  25.798  22.377  1.00  0.00     0.130 C 
ATOM      9  N   UNL A   1      33.096  23.829  23.711  1.00  0.00    -0.330 N 
ATOM     10  C   UNL A   1      33.543  24.391  22.433  1.00  0.00     0.265 C 
ATOM     11  C   UNL A   1      31.632  23.737  23.775  1.00  0.00     0.265 C 
ATOM     12  H   UNL A   1      33.401  24.485  24.430  1.00  0.00     0.348 HD
ATOM     13  C   UNL A   1      32.971  25.802  22.237  1.00  0.00     0.093 C 
ATOM     14  C   UNL A   1      31.022  25.123  23.680  1.00  0.00     0.093 C 
BRANCH   9  15
ATOM     15  C   UNL A   1      33.743  22.540  24.046  1.00  0.00     0.319 C 
BRANCH  15  16
ATOM     16  C   UNL A   1      35.116  22.609  24.696  1.00  0.00     0.095 A 
ATOM     17  C   UNL A   1      37.972  20.311  24.954  1.00  0.00     0.067 C 
ATOM     18  C   UNL A   1      37.138  21.540  25.149  1.00  0.00     0.038 A 
ATOM     19  C   UNL A   1      37.660  22.689  25.726  1.00  0.00     0.023 A 
ATOM     20  N   UNL A   1      35.879  21.486  24.664  1.00  0.00    -0.252 NA
ATOM     21  C   UNL A   1      36.855  23.822  25.803  1.00  0.00     0.004 A 
ATOM     22  C   UNL A   1      35.568  23.790  25.274  1.00  0.00     0.030 A 
ENDBRANCH  15  16
ENDBRANCH   9  15
ENDBRANCH   7   8
ENDBRANCH   6   7
ENDBRANCH   3   6
ENDBRANCH   1   2
BRANCH   1  23
ATOM     23  C   UNL A   1      32.553  28.332  26.939  1.00  0.00     0.042 C 
BRANCH  23  24
ATOM     24  C   UNL A   1      33.736  29.265  26.678  1.00  0.00     0.118 C 
BRANCH  24  25
ATOM     25  N   UNL A   1      33.699  30.474  27.489  1.00  0.00    -0.352 N 
ATOM     26  C   UNL A   1      34.586  30.979  28.405  1.00  0.00     0.251 C 
ATOM     27  H   UNL A   1      32.896  31.028  27.354  1.00  0.00     0.163 HD
ATOM     28  O   UNL A   1      34.252  31.949  29.086  1.00  0.00    -0.269 OA
BRANCH  26  29
ATOM     29  C   UNL A   1      35.922  30.376  28.616  1.00  0.00     0.039 A 
ATOM     30  C   UNL A   1      36.837  30.405  27.558  1.00  0.00     0.014 A 
ATOM     31  C   UNL A   1      36.265  29.730  29.807  1.00  0.00     0.014 A 
ATOM     32  C   UNL A   1      38.113  29.854  27.716  1.00  0.00     0.010 A 
ATOM     33  C   UNL A   1      37.559  29.230  29.984  1.00  0.00     0.010 A 
ATOM     34  C   UNL A   1      38.499  29.296  28.943  1.00  0.00    -0.014 A 
BRANCH  34  35
ATOM     35  C   UNL A   1      39.892  28.823  29.164  1.00  0.00     0.031 A 
ATOM     36  C   UNL A   1      40.935  29.732  29.752  1.00  0.00     0.074 A 
ATOM     37  C   UNL A   1      40.233  27.577  28.777  1.00  0.00     0.049 A 
ATOM     38  N   UNL A   1      42.209  29.500  29.956  1.00  0.00    -0.248 NA
ATOM     39  C   UNL A   1      40.499  31.080  30.147  1.00  0.00     0.031 C 
ATOM     40  C   UNL A   1      39.328  26.600  28.168  1.00  0.00     0.029 A 
ATOM     41  N   UNL A   1      41.440  26.923  28.829  1.00  0.00    -0.354 N 
ATOM     42  C   UNL A   1      42.729  30.675  30.486  1.00  0.00     0.074 A 
ATOM     43  C   UNL A   1      41.640  31.627  30.544  1.00  0.00     0.031 C 
ATOM     44  C   UNL A   1      40.005  25.467  27.922  1.00  0.00     0.029 A 
ATOM     45  C   UNL A   1      41.398  25.649  28.316  1.00  0.00     0.049 A 
ATOM     46  H   UNL A   1      42.257  27.327  29.201  1.00  0.00     0.167 HD
ATOM     47  C   UNL A   1      43.994  30.934  30.896  1.00  0.00     0.031 A 
ATOM     48  C   UNL A   1      42.372  24.731  28.165  1.00  0.00     0.031 A 
ATOM     49  C   UNL A   1      45.077  29.986  30.855  1.00  0.00     0.049 A 
ATOM     50  C   UNL A   1      43.770  25.055  28.608  1.00  0.00     0.074 A 
ATOM     51  C   UNL A   1      46.376  30.144  31.311  1.00  0.00     0.029 A 
ATOM     52  N   UNL A   1      44.992  28.710  30.326  1.00  0.00    -0.354 N 
ATOM     53  N   UNL A   1      44.227  26.149  29.167  1.00  0.00    -0.248 NA
ATOM     54  C   UNL A   1      44.786  24.012  28.403  1.00  0.00     0.031 C 
ATOM     55  C   UNL A   1      47.090  28.978  31.013  1.00  0.00     0.029 A 
ATOM     56  C   UNL A   1      46.223  28.078  30.417  1.00  0.00     0.049 A 
ATOM     57  H   UNL A   1      44.180  28.309  29.941  1.00  0.00     0.167 HD
ATOM     58  C   UNL A   1      45.576  25.916  29.404  1.00  0.00     0.074 A 
ATOM     59  C   UNL A   1      45.860  24.574  28.943  1.00  0.00     0.031 C 
ATOM     60  C   UNL A   1      46.495  26.744  29.955  1.00  0.00     0.031 A 
BRANCH  47  61
ATOM     61  C   UNL A   1      44.289  32.309  31.424  1.00  0.00    -0.014 A 
ATOM     62  C   UNL A   1      44.090  32.625  32.776  1.00  0.00     0.009 A 
ATOM     63  C   UNL A   1      44.838  33.280  30.572  1.00  0.00     0.009 A 
ATOM     64  C   UNL A   1      44.414  33.895  33.260  1.00  0.00     0.001 A 
ATOM     65  C   UNL A   1      45.183  34.540  31.062  1.00  0.00     0.001 A 
ATOM     66  C   UNL A   1      44.965  34.849  32.404  1.00  0.00     0.000 A 
ENDBRANCH  47  61
BRANCH  48  67
ATOM     67  C   UNL A   1      42.065  23.409  27.561  1.00  0.00    -0.014 A 
ATOM     68  C   UNL A   1      41.522  22.380  28.344  1.00  0.00     0.009 A 
ATOM     69  C   UNL A   1      42.337  23.162  26.206  1.00  0.00     0.009 A 
ATOM     70  C   UNL A   1      41.284  21.121  27.791  1.00  0.00     0.001 A 
ATOM     71  C   UNL A   1      42.072  21.910  25.649  1.00  0.00     0.001 A 
ATOM     72  C   UNL A   1      41.557  20.887  26.444  1.00  0.00     0.000 A 
ENDBRANCH  48  67
BRANCH  60  73
ATOM     73  C   UNL A   1      47.890  26.208  30.116  1.00  0.00    -0.014 A 
ATOM     74  C   UNL A   1      48.338  25.708  31.348  1.00  0.00     0.009 A 
ATOM     75  C   UNL A   1      48.754  26.177  29.012  1.00  0.00     0.009 A 
ATOM     76  C   UNL A   1      49.638  25.215  31.478  1.00  0.00     0.001 A 
ATOM     77  C   UNL A   1      50.044  25.660  29.138  1.00  0.00     0.001 A 
ATOM     78  C   UNL A   1      50.488  25.188  30.372  1.00  0.00     0.000 A 
ENDBRANCH  60  73
ENDBRANCH  34  35
ENDBRANCH  26  29
ENDBRANCH  24  25
ENDBRANCH  23  24
ENDBRANCH   1  23
TORSDOF 14
ENDMDL
MODEL 3
REMARK VINA RESULT:      -9.3      4.012      9.304
REMARK SMILES Cc1cccc(C[NH+]2CCC(OCC(=O)NCCCNC(=O)c3ccc(-c4c5nc(c(-c6ccccc6)c6ccc([nH]6)c(-c6ccccc6)c6nc(c(-c7ccccc7)c7ccc4[nH]7)C=C6)C=C5)cc3)CC2)n1
REMARK SMILES IDX 17 1 16 2 14 3 15 4 13 6 12 7 11 8 8 9 9 10 72 11 10 13
REMARK SMILES IDX 71 14 7 15 6 16 1 17 2 18 3 19 73 20 4 21 5 22 18 23 19 24
REMARK SMILES IDX 20 25 21 26 22 28 23 29 24 30 70 31 25 32 69 33 26 34 27 35
REMARK SMILES IDX 28 36 63 37 29 38 68 39 62 40 64 41 30 42 67 43 61 44 60 45
REMARK SMILES IDX 31 47 53 48 38 49 52 50 39 51 42 52 51 53 65 54 40 55 41 56
REMARK SMILES IDX 50 58 66 59 43 60 32 61 33 62 37 63 34 64 36 65 35 66 54 67
REMARK SMILES IDX 55 68 59 69 56 70 58 71 57 72 44 73 45 74 49 75 46 76 48 77
REMARK SMILES IDX 47 78
REMARK H PARENT 16 5 8 12 20 27 64 46 42 57
REMARK Flexibility Score: inf
ROOT
ATOM      1  C   UNL A   1      31.412  30.264  25.601  1.00  0.00     0.117 C 
ENDROOT
BRANCH   1   2
ATOM      2  N   UNL A   1      30.629  30.577  24.421  1.00  0.00    -0.354 N 
ATOM      3  C   UNL A   1      30.016  29.722  23.550  1.00  0.00     0.246 C 
ATOM      4  O   UNL A   1      29.247  30.192  22.708  1.00  0.00    -0.272 OA
ATOM      5  H   UNL A   1      30.526  31.535  24.219  1.00  0.00     0.163 HD
BRANCH   3   6
ATOM      6  C   UNL A   1      30.283  28.214  23.642  1.00  0.00     0.260 C 
BRANCH   6   7
ATOM      7  O   UNL A   1      30.823  27.568  22.502  1.00  0.00    -0.368 OA
BRANCH   7   8
ATOM      8  C   UNL A   1      31.301  26.226  22.657  1.00  0.00     0.130 C 
ATOM      9  N   UNL A   1      33.027  24.106  23.615  1.00  0.00    -0.330 N 
ATOM     10  C   UNL A   1      33.081  24.490  22.201  1.00  0.00     0.265 C 
ATOM     11  C   UNL A   1      31.675  24.269  24.164  1.00  0.00     0.265 C 
ATOM     12  H   UNL A   1      33.645  24.752  24.106  1.00  0.00     0.348 HD
ATOM     13  C   UNL A   1      32.673  25.960  22.027  1.00  0.00     0.093 C 
ATOM     14  C   UNL A   1      31.263  25.728  24.100  1.00  0.00     0.093 C 
BRANCH   9  15
ATOM     15  C   UNL A   1      33.568  22.754  23.879  1.00  0.00     0.319 C 
BRANCH  15  16
ATOM     16  C   UNL A   1      34.958  22.679  24.493  1.00  0.00     0.095 A 
ATOM     17  C   UNL A   1      37.486  20.035  24.845  1.00  0.00     0.067 C 
ATOM     18  C   UNL A   1      36.832  21.376  24.973  1.00  0.00     0.038 A 
ATOM     19  C   UNL A   1      37.521  22.479  25.457  1.00  0.00     0.023 A 
ATOM     20  N   UNL A   1      35.562  21.462  24.521  1.00  0.00    -0.252 NA
ATOM     21  C   UNL A   1      36.877  23.714  25.474  1.00  0.00     0.004 A 
ATOM     22  C   UNL A   1      35.583  23.822  24.977  1.00  0.00     0.030 A 
ENDBRANCH  15  16
ENDBRANCH   9  15
ENDBRANCH   7   8
ENDBRANCH   6   7
ENDBRANCH   3   6
ENDBRANCH   1   2
BRANCH   1  23
ATOM     23  C   UNL A   1      31.378  31.342  26.682  1.00  0.00     0.042 C 
BRANCH  23  24
ATOM     24  C   UNL A   1      32.653  32.174  26.826  1.00  0.00     0.118 C 
BRANCH  24  25
ATOM     25  N   UNL A   1      32.413  33.493  27.393  1.00  0.00    -0.352 N 
ATOM     26  C   UNL A   1      33.098  34.212  28.339  1.00  0.00     0.251 C 
ATOM     27  H   UNL A   1      31.619  33.951  27.033  1.00  0.00     0.163 HD
ATOM     28  O   UNL A   1      32.601  35.252  28.774  1.00  0.00    -0.269 OA
BRANCH  26  29
ATOM     29  C   UNL A   1      34.405  33.762  28.870  1.00  0.00     0.039 A 
ATOM     30  C   UNL A   1      34.414  32.968  30.022  1.00  0.00     0.014 A 
ATOM     31  C   UNL A   1      35.616  34.159  28.297  1.00  0.00     0.014 A 
ATOM     32  C   UNL A   1      35.625  32.514  30.554  1.00  0.00     0.010 A 
ATOM     33  C   UNL A   1      36.823  33.659  28.795  1.00  0.00     0.010 A 
ATOM     34  C   UNL A   1      36.839  32.823  29.923  1.00  0.00    -0.014 A 
BRANCH  34  35
ATOM     35  C   UNL A   1      38.122  32.243  30.403  1.00  0.00     0.031 A 
ATOM     36  C   UNL A   1      38.661  30.965  29.822  1.00  0.00     0.074 A 
ATOM     37  C   UNL A   1      38.778  32.845  31.416  1.00  0.00     0.049 A 
ATOM     38  N   UNL A   1      39.730  30.291  30.166  1.00  0.00    -0.248 NA
ATOM     39  C   UNL A   1      37.893  30.356  28.725  1.00  0.00     0.031 C 
ATOM     40  C   UNL A   1      38.354  34.073  32.090  1.00  0.00     0.029 A 
ATOM     41  N   UNL A   1      39.940  32.496  32.062  1.00  0.00    -0.354 N 
ATOM     42  C   UNL A   1      39.756  29.172  29.342  1.00  0.00     0.074 A 
ATOM     43  C   UNL A   1      38.579  29.242  28.502  1.00  0.00     0.031 C 
ATOM     44  C   UNL A   1      39.250  34.386  33.040  1.00  0.00     0.029 A 
ATOM     45  C   UNL A   1      40.289  33.361  33.070  1.00  0.00     0.049 A 
ATOM     46  H   UNL A   1      40.472  31.703  31.824  1.00  0.00     0.167 HD
ATOM     47  C   UNL A   1      40.680  28.182  29.282  1.00  0.00     0.031 A 
ATOM     48  C   UNL A   1      41.322  33.331  33.934  1.00  0.00     0.031 A 
ATOM     49  C   UNL A   1      41.860  28.115  30.104  1.00  0.00     0.049 A 
ATOM     50  C   UNL A   1      42.318  32.209  33.859  1.00  0.00     0.074 A 
ATOM     51  C   UNL A   1      42.882  27.181  30.065  1.00  0.00     0.029 A 
ATOM     52  N   UNL A   1      42.174  29.009  31.113  1.00  0.00    -0.354 N 
ATOM     53  N   UNL A   1      42.359  31.195  33.029  1.00  0.00    -0.248 NA
ATOM     54  C   UNL A   1      43.413  32.231  34.839  1.00  0.00     0.031 C 
ATOM     55  C   UNL A   1      43.793  27.485  31.084  1.00  0.00     0.029 A 
ATOM     56  C   UNL A   1      43.360  28.634  31.724  1.00  0.00     0.049 A 
ATOM     57  H   UNL A   1      41.635  29.795  31.361  1.00  0.00     0.167 HD
ATOM     58  C   UNL A   1      43.497  30.475  33.370  1.00  0.00     0.074 A 
ATOM     59  C   UNL A   1      44.125  31.175  34.470  1.00  0.00     0.031 C 
ATOM     60  C   UNL A   1      43.976  29.336  32.817  1.00  0.00     0.031 A 
BRANCH  47  61
ATOM     61  C   UNL A   1      40.452  27.074  28.294  1.00  0.00    -0.014 A 
ATOM     62  C   UNL A   1      40.986  27.136  26.998  1.00  0.00     0.009 A 
ATOM     63  C   UNL A   1      39.753  25.922  28.688  1.00  0.00     0.009 A 
ATOM     64  C   UNL A   1      40.804  26.074  26.108  1.00  0.00     0.001 A 
ATOM     65  C   UNL A   1      39.593  24.854  27.804  1.00  0.00     0.001 A 
ATOM     66  C   UNL A   1      40.113  24.933  26.513  1.00  0.00     0.000 A 
ENDBRANCH  47  61
BRANCH  48  67
ATOM     67  C   UNL A   1      41.472  34.399  34.956  1.00  0.00    -0.014 A 
ATOM     68  C   UNL A   1      40.882  34.258  36.221  1.00  0.00     0.009 A 
ATOM     69  C   UNL A   1      42.183  35.573  34.663  1.00  0.00     0.009 A 
ATOM     70  C   UNL A   1      40.976  35.285  37.163  1.00  0.00     0.001 A 
ATOM     71  C   UNL A   1      42.299  36.586  35.616  1.00  0.00     0.001 A 
ATOM     72  C   UNL A   1      41.686  36.446  36.861  1.00  0.00     0.000 A 
ENDBRANCH  48  67
BRANCH  60  73
ATOM     73  C   UNL A   1      45.259  28.790  33.378  1.00  0.00    -0.014 A 
ATOM     74  C   UNL A   1      46.503  29.198  32.873  1.00  0.00     0.009 A 
ATOM     75  C   UNL A   1      45.220  27.879  34.444  1.00  0.00     0.009 A 
ATOM     76  C   UNL A   1      47.685  28.678  33.407  1.00  0.00     0.001 A 
ATOM     77  C   UNL A   1      46.403  27.381  34.992  1.00  0.00     0.001 A 
ATOM     78  C   UNL A   1      47.634  27.775  34.468  1.00  0.00     0.000 A 
ENDBRANCH  60  73
ENDBRANCH  34  35
ENDBRANCH  26  29
ENDBRANCH  24  25
ENDBRANCH  23  24
ENDBRANCH   1  23
TORSDOF 14
ENDMDL
