MODEL 1
REMARK VINA RESULT:     -11.0      0.000      0.000
REMARK SMILES Cc1nn(C)c(=O)c(C(=O)N[C@H](C)CC(=O)NCCCNC(=O)c2ccc(-c3c4nc(c(-c5ccccc5)c5ccc([nH]5)c(-c5ccccc5)c5nc(c(-c6ccccc6)c6ccc3[nH]6)C=C5)C=C4)cc2)c1C
REMARK SMILES IDX 18 1 17 2 15 3 16 4 14 6 12 7 13 8 11 9 9 10 10 11 8 13 1 14
REMARK SMILES IDX 2 15 3 16 72 17 4 18 73 19 5 20 6 21 7 22 19 23 20 24 21 25
REMARK SMILES IDX 22 26 23 28 24 29 25 30 71 31 26 32 70 33 27 34 28 35 29 36
REMARK SMILES IDX 64 37 30 38 69 39 63 40 65 41 31 42 68 43 62 44 61 45 32 47
REMARK SMILES IDX 54 48 39 49 53 50 40 51 43 52 52 53 66 54 41 55 42 56 51 58
REMARK SMILES IDX 67 59 44 60 33 61 34 62 38 63 35 64 37 65 36 66 55 67 56 68
REMARK SMILES IDX 60 69 57 70 59 71 58 72 45 73 46 74 50 75 47 76 49 77 48 78
REMARK H PARENT 17 5 11 12 21 27 65 46 43 57
REMARK Flexibility Score: inf
ROOT
ATOM      1  C   UNL A   1      36.157  20.819  24.745  1.00  0.00     0.117 C 
ENDROOT
BRANCH   1   2
ATOM      2  N   UNL A   1      35.383  20.987  25.965  1.00  0.00    -0.356 N 
ATOM      3  C   UNL A   1      34.071  21.325  26.139  1.00  0.00     0.222 C 
ATOM      4  O   UNL A   1      33.657  21.463  27.291  1.00  0.00    -0.275 OA
ATOM      5  H   UNL A   1      35.884  20.832  26.798  1.00  0.00     0.163 HD
BRANCH   3   6
ATOM      6  C   UNL A   1      33.144  21.496  24.947  1.00  0.00     0.124 C 
BRANCH   6   7
ATOM      7  C   UNL A   1      32.452  22.867  24.930  1.00  0.00     0.088 C 
ATOM      8  C   UNL A   1      31.053  22.821  25.557  1.00  0.00     0.031 C 
BRANCH   7   9
ATOM      9  N   UNL A   1      33.264  23.921  25.548  1.00  0.00    -0.349 N 
ATOM     10  C   UNL A   1      33.360  25.245  25.197  1.00  0.00     0.257 C 
ATOM     11  O   UNL A   1      34.100  26.003  25.815  1.00  0.00    -0.269 OA
ATOM     12  H   UNL A   1      33.813  23.642  26.316  1.00  0.00     0.164 HD
BRANCH  10  13
ATOM     13  C   UNL A   1      32.583  25.713  24.024  1.00  0.00     0.111 A 
ATOM     14  C   UNL A   1      29.699  27.939  23.079  1.00  0.00     0.069 C 
ATOM     15  C   UNL A   1      30.791  26.896  22.975  1.00  0.00     0.062 A 
ATOM     16  N   UNL A   1      31.174  26.608  21.771  1.00  0.00    -0.175 NA
ATOM     17  C   UNL A   1      31.409  26.341  24.211  1.00  0.00    -0.010 A 
ATOM     18  N   UNL A   1      32.260  25.789  21.617  1.00  0.00    -0.232 N 
ATOM     19  C   UNL A   1      30.709  26.508  25.526  1.00  0.00     0.047 C 
ATOM     20  C   UNL A   1      32.594  25.438  20.247  1.00  0.00     0.178 C 
ATOM     21  C   UNL A   1      33.091  25.408  22.662  1.00  0.00     0.279 A 
ATOM     22  O   UNL A   1      34.176  24.855  22.504  1.00  0.00    -0.267 OA
ENDBRANCH  10  13
ENDBRANCH   7   9
ENDBRANCH   6   7
ENDBRANCH   3   6
ENDBRANCH   1   2
BRANCH   1  23
ATOM     23  C   UNL A   1      37.317  19.841  24.942  1.00  0.00     0.042 C 
BRANCH  23  24
ATOM     24  C   UNL A   1      38.556  20.474  25.571  1.00  0.00     0.118 C 
BRANCH  24  25
ATOM     25  N   UNL A   1      39.617  19.500  25.745  1.00  0.00    -0.352 N 
ATOM     26  C   UNL A   1      40.949  19.670  26.033  1.00  0.00     0.251 C 
ATOM     27  H   UNL A   1      39.337  18.562  25.639  1.00  0.00     0.163 HD
ATOM     28  O   UNL A   1      41.712  18.721  25.863  1.00  0.00    -0.269 OA
BRANCH  26  29
ATOM     29  C   UNL A   1      41.496  20.953  26.546  1.00  0.00     0.039 A 
ATOM     30  C   UNL A   1      41.359  21.229  27.913  1.00  0.00     0.014 A 
ATOM     31  C   UNL A   1      42.023  21.936  25.703  1.00  0.00     0.014 A 
ATOM     32  C   UNL A   1      41.756  22.468  28.431  1.00  0.00     0.010 A 
ATOM     33  C   UNL A   1      42.473  23.154  26.230  1.00  0.00     0.010 A 
ATOM     34  C   UNL A   1      42.323  23.442  27.595  1.00  0.00    -0.014 A 
BRANCH  34  35
ATOM     35  C   UNL A   1      42.710  24.775  28.130  1.00  0.00     0.031 A 
ATOM     36  C   UNL A   1      41.669  25.845  28.341  1.00  0.00     0.074 A 
ATOM     37  C   UNL A   1      43.996  25.038  28.430  1.00  0.00     0.049 A 
ATOM     38  N   UNL A   1      41.822  27.074  28.771  1.00  0.00    -0.248 NA
ATOM     39  C   UNL A   1      40.277  25.493  28.019  1.00  0.00     0.031 C 
ATOM     40  C   UNL A   1      45.110  24.099  28.287  1.00  0.00     0.029 A 
ATOM     41  N   UNL A   1      44.582  26.178  28.926  1.00  0.00    -0.354 N 
ATOM     42  C   UNL A   1      40.553  27.640  28.762  1.00  0.00     0.074 A 
ATOM     43  C   UNL A   1      39.647  26.635  28.248  1.00  0.00     0.031 C 
ATOM     44  C   UNL A   1      46.237  24.690  28.715  1.00  0.00     0.029 A 
ATOM     45  C   UNL A   1      45.936  26.058  29.128  1.00  0.00     0.049 A 
ATOM     46  H   UNL A   1      44.079  27.002  29.120  1.00  0.00     0.167 HD
ATOM     47  C   UNL A   1      40.169  28.877  29.161  1.00  0.00     0.031 A 
ATOM     48  C   UNL A   1      46.837  26.947  29.590  1.00  0.00     0.031 A 
ATOM     49  C   UNL A   1      41.054  29.881  29.688  1.00  0.00     0.049 A 
ATOM     50  C   UNL A   1      46.394  28.328  29.980  1.00  0.00     0.074 A 
ATOM     51  C   UNL A   1      40.741  31.150  30.145  1.00  0.00     0.029 A 
ATOM     52  N   UNL A   1      42.423  29.730  29.833  1.00  0.00    -0.354 N 
ATOM     53  N   UNL A   1      45.187  28.839  29.980  1.00  0.00    -0.248 NA
ATOM     54  C   UNL A   1      47.441  29.257  30.436  1.00  0.00     0.031 C 
ATOM     55  C   UNL A   1      41.928  31.783  30.528  1.00  0.00     0.029 A 
ATOM     56  C   UNL A   1      42.971  30.890  30.351  1.00  0.00     0.049 A 
ATOM     57  H   UNL A   1      42.930  28.918  29.601  1.00  0.00     0.167 HD
ATOM     58  C   UNL A   1      45.326  30.139  30.450  1.00  0.00     0.074 A 
ATOM     59  C   UNL A   1      46.731  30.336  30.739  1.00  0.00     0.031 C 
ATOM     60  C   UNL A   1      44.371  31.082  30.628  1.00  0.00     0.031 A 
BRANCH  47  61
ATOM     61  C   UNL A   1      38.711  29.221  29.043  1.00  0.00    -0.014 A 
ATOM     62  C   UNL A   1      37.850  29.110  30.146  1.00  0.00     0.009 A 
ATOM     63  C   UNL A   1      38.206  29.720  27.831  1.00  0.00     0.009 A 
ATOM     64  C   UNL A   1      36.506  29.467  30.031  1.00  0.00     0.001 A 
ATOM     65  C   UNL A   1      36.866  30.098  27.727  1.00  0.00     0.001 A 
ATOM     66  C   UNL A   1      36.016  29.966  28.824  1.00  0.00     0.000 A 
ENDBRANCH  47  61
BRANCH  48  67
ATOM     67  C   UNL A   1      48.261  26.549  29.724  1.00  0.00    -0.014 A 
ATOM     68  C   UNL A   1      48.714  25.927  30.898  1.00  0.00     0.009 A 
ATOM     69  C   UNL A   1      49.170  26.779  28.680  1.00  0.00     0.009 A 
ATOM     70  C   UNL A   1      50.054  25.556  31.028  1.00  0.00     0.001 A 
ATOM     71  C   UNL A   1      50.504  26.384  28.805  1.00  0.00     0.001 A 
ATOM     72  C   UNL A   1      50.945  25.779  29.980  1.00  0.00     0.000 A 
ENDBRANCH  48  67
BRANCH  60  73
ATOM     73  C   UNL A   1      44.802  32.413  31.172  1.00  0.00    -0.014 A 
ATOM     74  C   UNL A   1      44.863  32.645  32.555  1.00  0.00     0.009 A 
ATOM     75  C   UNL A   1      45.212  33.428  30.292  1.00  0.00     0.009 A 
ATOM     76  C   UNL A   1      45.309  33.874  33.044  1.00  0.00     0.001 A 
ATOM     77  C   UNL A   1      45.678  34.647  30.785  1.00  0.00     0.001 A 
ATOM     78  C   UNL A   1      45.722  34.871  32.160  1.00  0.00     0.000 A 
ENDBRANCH  60  73
ENDBRANCH  34  35
ENDBRANCH  26  29
ENDBRANCH  24  25
ENDBRANCH  23  24
ENDBRANCH   1  23
TORSDOF 13
ENDMDL
MODEL 2
REMARK VINA RESULT:     -10.8      0.341      6.024
REMARK SMILES Cc1nn(C)c(=O)c(C(=O)N[C@H](C)CC(=O)NCCCNC(=O)c2ccc(-c3c4nc(c(-c5ccccc5)c5ccc([nH]5)c(-c5ccccc5)c5nc(c(-c6ccccc6)c6ccc3[nH]6)C=C5)C=C4)cc2)c1C
REMARK SMILES IDX 18 1 17 2 15 3 16 4 14 6 12 7 13 8 11 9 9 10 10 11 8 13 1 14
REMARK SMILES IDX 2 15 3 16 72 17 4 18 73 19 5 20 6 21 7 22 19 23 20 24 21 25
REMARK SMILES IDX 22 26 23 28 24 29 25 30 71 31 26 32 70 33 27 34 28 35 29 36
REMARK SMILES IDX 64 37 30 38 69 39 63 40 65 41 31 42 68 43 62 44 61 45 32 47
REMARK SMILES IDX 54 48 39 49 53 50 40 51 43 52 52 53 66 54 41 55 42 56 51 58
REMARK SMILES IDX 67 59 44 60 33 61 34 62 38 63 35 64 37 65 36 66 55 67 56 68
REMARK SMILES IDX 60 69 57 70 59 71 58 72 45 73 46 74 50 75 47 76 49 77 48 78
REMARK H PARENT 17 5 11 12 21 27 65 46 43 57
REMARK Flexibility Score: inf
ROOT
ATOM      1  C   UNL A   1      35.975  20.768  24.811  1.00  0.00     0.117 C 
ENDROOT
BRANCH   1   2
ATOM      2  N   UNL A   1      35.363  21.062  26.097  1.00  0.00    -0.356 N 
ATOM      3  C   UNL A   1      34.096  21.472  26.398  1.00  0.00     0.222 C 
ATOM      4  O   UNL A   1      33.831  21.716  27.576  1.00  0.00    -0.275 OA
ATOM      5  H   UNL A   1      35.957  20.949  26.874  1.00  0.00     0.163 HD
BRANCH   3   6
ATOM      6  C   UNL A   1      33.036  21.594  25.315  1.00  0.00     0.124 C 
BRANCH   6   7
ATOM      7  C   UNL A   1      32.391  22.987  25.276  1.00  0.00     0.088 C 
ATOM      8  C   UNL A   1      31.013  23.009  25.949  1.00  0.00     0.031 C 
BRANCH   7   9
ATOM      9  N   UNL A   1      33.259  24.031  25.832  1.00  0.00    -0.349 N 
ATOM     10  C   UNL A   1      33.403  25.333  25.421  1.00  0.00     0.257 C 
ATOM     11  O   UNL A   1      34.186  26.085  25.992  1.00  0.00    -0.269 OA
ATOM     12  H   UNL A   1      33.810  23.763  26.602  1.00  0.00     0.164 HD
BRANCH  10  13
ATOM     13  C   UNL A   1      32.624  25.782  24.242  1.00  0.00     0.111 A 
ATOM     14  C   UNL A   1      29.760  28.019  23.263  1.00  0.00     0.069 C 
ATOM     15  C   UNL A   1      30.839  26.961  23.177  1.00  0.00     0.062 A 
ATOM     16  N   UNL A   1      31.211  26.640  21.978  1.00  0.00    -0.175 NA
ATOM     17  C   UNL A   1      31.458  26.429  24.421  1.00  0.00    -0.010 A 
ATOM     18  N   UNL A   1      32.286  25.805  21.836  1.00  0.00    -0.232 N 
ATOM     19  C   UNL A   1      30.769  26.635  25.736  1.00  0.00     0.047 C 
ATOM     20  C   UNL A   1      32.607  25.418  20.473  1.00  0.00     0.178 C 
ATOM     21  C   UNL A   1      33.119  25.439  22.885  1.00  0.00     0.279 A 
ATOM     22  O   UNL A   1      34.197  24.870  22.733  1.00  0.00    -0.267 OA
ENDBRANCH  10  13
ENDBRANCH   7   9
ENDBRANCH   6   7
ENDBRANCH   3   6
ENDBRANCH   1   2
BRANCH   1  23
ATOM     23  C   UNL A   1      37.159  19.808  24.956  1.00  0.00     0.042 C 
BRANCH  23  24
ATOM     24  C   UNL A   1      38.466  20.497  25.342  1.00  0.00     0.118 C 
BRANCH  24  25
ATOM     25  N   UNL A   1      39.519  19.531  25.592  1.00  0.00    -0.352 N 
ATOM     26  C   UNL A   1      40.826  19.711  25.972  1.00  0.00     0.251 C 
ATOM     27  H   UNL A   1      39.253  18.591  25.468  1.00  0.00     0.163 HD
ATOM     28  O   UNL A   1      41.606  18.767  25.857  1.00  0.00    -0.269 OA
BRANCH  26  29
ATOM     29  C   UNL A   1      41.327  20.999  26.519  1.00  0.00     0.039 A 
ATOM     30  C   UNL A   1      41.177  21.235  27.893  1.00  0.00     0.014 A 
ATOM     31  C   UNL A   1      41.822  22.021  25.703  1.00  0.00     0.014 A 
ATOM     32  C   UNL A   1      41.529  22.472  28.443  1.00  0.00     0.010 A 
ATOM     33  C   UNL A   1      42.227  23.239  26.263  1.00  0.00     0.010 A 
ATOM     34  C   UNL A   1      42.064  23.487  27.634  1.00  0.00    -0.014 A 
BRANCH  34  35
ATOM     35  C   UNL A   1      42.403  24.818  28.206  1.00  0.00     0.031 A 
ATOM     36  C   UNL A   1      43.824  25.146  28.589  1.00  0.00     0.074 A 
ATOM     37  C   UNL A   1      41.441  25.743  28.387  1.00  0.00     0.049 A 
ATOM     38  N   UNL A   1      44.303  26.241  29.126  1.00  0.00    -0.248 NA
ATOM     39  C   UNL A   1      44.836  24.106  28.345  1.00  0.00     0.031 C 
ATOM     40  C   UNL A   1      40.026  25.571  28.056  1.00  0.00     0.029 A 
ATOM     41  N   UNL A   1      41.513  27.019  28.892  1.00  0.00    -0.354 N 
ATOM     42  C   UNL A   1      45.665  26.018  29.292  1.00  0.00     0.074 A 
ATOM     43  C   UNL A   1      45.930  24.671  28.835  1.00  0.00     0.031 C 
ATOM     44  C   UNL A   1      39.370  26.708  28.336  1.00  0.00     0.029 A 
ATOM     45  C   UNL A   1      40.306  27.676  28.901  1.00  0.00     0.049 A 
ATOM     46  H   UNL A   1      42.350  27.424  29.217  1.00  0.00     0.167 HD
ATOM     47  C   UNL A   1      46.615  26.861  29.764  1.00  0.00     0.031 A 
ATOM     48  C   UNL A   1      39.986  28.917  29.318  1.00  0.00     0.031 A 
ATOM     49  C   UNL A   1      46.370  28.208  30.207  1.00  0.00     0.049 A 
ATOM     50  C   UNL A   1      41.049  29.815  29.883  1.00  0.00     0.074 A 
ATOM     51  C   UNL A   1      47.283  29.140  30.672  1.00  0.00     0.029 A 
ATOM     52  N   UNL A   1      45.127  28.815  30.239  1.00  0.00    -0.354 N 
ATOM     53  N   UNL A   1      42.334  29.593  30.015  1.00  0.00    -0.248 NA
ATOM     54  C   UNL A   1      40.616  31.140  30.355  1.00  0.00     0.031 C 
ATOM     55  C   UNL A   1      46.585  30.299  31.024  1.00  0.00     0.029 A 
ATOM     56  C   UNL A   1      45.245  30.102  30.735  1.00  0.00     0.049 A 
ATOM     57  H   UNL A   1      44.285  28.394  29.951  1.00  0.00     0.167 HD
ATOM     58  C   UNL A   1      42.864  30.752  30.569  1.00  0.00     0.074 A 
ATOM     59  C   UNL A   1      41.766  31.681  30.735  1.00  0.00     0.031 C 
ATOM     60  C   UNL A   1      44.148  31.018  30.905  1.00  0.00     0.031 A 
BRANCH  47  61
ATOM     61  C   UNL A   1      48.026  26.348  29.827  1.00  0.00    -0.014 A 
ATOM     62  C   UNL A   1      48.900  26.501  28.740  1.00  0.00     0.009 A 
ATOM     63  C   UNL A   1      48.505  25.762  31.009  1.00  0.00     0.009 A 
ATOM     64  C   UNL A   1      50.219  26.052  28.825  1.00  0.00     0.001 A 
ATOM     65  C   UNL A   1      49.831  25.334  31.099  1.00  0.00     0.001 A 
ATOM     66  C   UNL A   1      50.684  25.474  30.006  1.00  0.00     0.000 A 
ENDBRANCH  47  61
BRANCH  48  67
ATOM     67  C   UNL A   1      38.584  29.393  29.201  1.00  0.00    -0.014 A 
ATOM     68  C   UNL A   1      38.138  29.993  28.013  1.00  0.00     0.009 A 
ATOM     69  C   UNL A   1      37.686  29.243  30.269  1.00  0.00     0.009 A 
ATOM     70  C   UNL A   1      36.821  30.445  27.903  1.00  0.00     0.001 A 
ATOM     71  C   UNL A   1      36.364  29.675  30.145  1.00  0.00     0.001 A 
ATOM     72  C   UNL A   1      35.935  30.281  28.966  1.00  0.00     0.000 A 
ENDBRANCH  48  67
BRANCH  60  73
ATOM     73  C   UNL A   1      44.449  32.373  31.477  1.00  0.00    -0.014 A 
ATOM     74  C   UNL A   1      44.787  33.451  30.645  1.00  0.00     0.009 A 
ATOM     75  C   UNL A   1      44.331  32.590  32.860  1.00  0.00     0.009 A 
ATOM     76  C   UNL A   1      45.019  34.716  31.189  1.00  0.00     0.001 A 
ATOM     77  C   UNL A   1      44.542  33.860  33.398  1.00  0.00     0.001 A 
ATOM     78  C   UNL A   1      44.891  34.921  32.562  1.00  0.00     0.000 A 
ENDBRANCH  60  73
ENDBRANCH  34  35
ENDBRANCH  26  29
ENDBRANCH  24  25
ENDBRANCH  23  24
ENDBRANCH   1  23
TORSDOF 13
ENDMDL
MODEL 3
REMARK VINA RESULT:     -10.8      1.292      1.800
REMARK SMILES Cc1nn(C)c(=O)c(C(=O)N[C@H](C)CC(=O)NCCCNC(=O)c2ccc(-c3c4nc(c(-c5ccccc5)c5ccc([nH]5)c(-c5ccccc5)c5nc(c(-c6ccccc6)c6ccc3[nH]6)C=C5)C=C4)cc2)c1C
REMARK SMILES IDX 18 1 17 2 15 3 16 4 14 6 12 7 13 8 11 9 9 10 10 11 8 13 1 14
REMARK SMILES IDX 2 15 3 16 72 17 4 18 73 19 5 20 6 21 7 22 19 23 20 24 21 25
REMARK SMILES IDX 22 26 23 28 24 29 25 30 71 31 26 32 70 33 27 34 28 35 29 36
REMARK SMILES IDX 64 37 30 38 69 39 63 40 65 41 31 42 68 43 62 44 61 45 32 47
REMARK SMILES IDX 54 48 39 49 53 50 40 51 43 52 52 53 66 54 41 55 42 56 51 58
REMARK SMILES IDX 67 59 44 60 33 61 34 62 38 63 35 64 37 65 36 66 55 67 56 68
REMARK SMILES IDX 60 69 57 70 59 71 58 72 45 73 46 74 50 75 47 76 49 77 48 78
REMARK H PARENT 17 5 11 12 21 27 65 46 43 57
REMARK Flexibility Score: inf
ROOT
ATOM      1  C   UNL A   1      35.954  21.100  24.881  1.00  0.00     0.117 C 
ENDROOT
BRANCH   1   2
ATOM      2  N   UNL A   1      35.089  21.088  26.050  1.00  0.00    -0.356 N 
ATOM      3  C   UNL A   1      34.513  22.122  26.732  1.00  0.00     0.222 C 
ATOM      4  O   UNL A   1      33.859  21.856  27.740  1.00  0.00    -0.275 OA
ATOM      5  H   UNL A   1      34.887  20.194  26.407  1.00  0.00     0.163 HD
BRANCH   3   6
ATOM      6  C   UNL A   1      34.650  23.554  26.240  1.00  0.00     0.124 C 
BRANCH   6   7
ATOM      7  C   UNL A   1      33.395  24.047  25.503  1.00  0.00     0.088 C 
ATOM      8  C   UNL A   1      33.324  23.524  24.063  1.00  0.00     0.031 C 
BRANCH   7   9
ATOM      9  N   UNL A   1      32.155  23.746  26.227  1.00  0.00    -0.349 N 
ATOM     10  C   UNL A   1      31.040  24.532  26.380  1.00  0.00     0.257 C 
ATOM     11  O   UNL A   1      30.080  24.134  27.030  1.00  0.00    -0.269 OA
ATOM     12  H   UNL A   1      32.118  22.863  26.662  1.00  0.00     0.164 HD
BRANCH  10  13
ATOM     13  C   UNL A   1      31.056  25.887  25.777  1.00  0.00     0.111 A 
ATOM     14  C   UNL A   1      29.680  27.855  22.879  1.00  0.00     0.069 C 
ATOM     15  C   UNL A   1      30.522  27.483  24.082  1.00  0.00     0.062 A 
ATOM     16  N   UNL A   1      31.075  28.476  24.703  1.00  0.00    -0.175 NA
ATOM     17  C   UNL A   1      30.596  26.065  24.526  1.00  0.00    -0.010 A 
ATOM     18  N   UNL A   1      31.720  28.222  25.883  1.00  0.00    -0.232 N 
ATOM     19  C   UNL A   1      30.175  24.973  23.589  1.00  0.00     0.047 C 
ATOM     20  C   UNL A   1      32.388  29.358  26.493  1.00  0.00     0.178 C 
ATOM     21  C   UNL A   1      31.650  27.006  26.551  1.00  0.00     0.279 A 
ATOM     22  O   UNL A   1      32.045  26.837  27.702  1.00  0.00    -0.267 OA
ENDBRANCH  10  13
ENDBRANCH   7   9
ENDBRANCH   6   7
ENDBRANCH   3   6
ENDBRANCH   1   2
BRANCH   1  23
ATOM     23  C   UNL A   1      37.088  20.079  25.007  1.00  0.00     0.042 C 
BRANCH  23  24
ATOM     24  C   UNL A   1      38.441  20.701  25.347  1.00  0.00     0.118 C 
BRANCH  24  25
ATOM     25  N   UNL A   1      39.440  19.682  25.609  1.00  0.00    -0.352 N 
ATOM     26  C   UNL A   1      40.754  19.796  25.992  1.00  0.00     0.251 C 
ATOM     27  H   UNL A   1      39.125  18.756  25.493  1.00  0.00     0.163 HD
ATOM     28  O   UNL A   1      41.482  18.810  25.889  1.00  0.00    -0.269 OA
BRANCH  26  29
ATOM     29  C   UNL A   1      41.321  21.060  26.529  1.00  0.00     0.039 A 
ATOM     30  C   UNL A   1      41.163  21.326  27.896  1.00  0.00     0.014 A 
ATOM     31  C   UNL A   1      41.889  22.038  25.707  1.00  0.00     0.014 A 
ATOM     32  C   UNL A   1      41.579  22.549  28.434  1.00  0.00     0.010 A 
ATOM     33  C   UNL A   1      42.358  23.239  26.256  1.00  0.00     0.010 A 
ATOM     34  C   UNL A   1      42.187  23.517  27.620  1.00  0.00    -0.014 A 
BRANCH  34  35
ATOM     35  C   UNL A   1      42.595  24.835  28.177  1.00  0.00     0.031 A 
ATOM     36  C   UNL A   1      41.576  25.929  28.378  1.00  0.00     0.074 A 
ATOM     37  C   UNL A   1      43.881  25.064  28.506  1.00  0.00     0.049 A 
ATOM     38  N   UNL A   1      41.750  27.149  28.823  1.00  0.00    -0.248 NA
ATOM     39  C   UNL A   1      40.183  25.613  28.024  1.00  0.00     0.031 C 
ATOM     40  C   UNL A   1      44.974  24.099  28.375  1.00  0.00     0.029 A 
ATOM     41  N   UNL A   1      44.484  26.184  29.025  1.00  0.00    -0.354 N 
ATOM     42  C   UNL A   1      40.495  27.746  28.794  1.00  0.00     0.074 A 
ATOM     43  C   UNL A   1      39.576  26.769  28.252  1.00  0.00     0.031 C 
ATOM     44  C   UNL A   1      46.106  24.658  28.832  1.00  0.00     0.029 A 
ATOM     45  C   UNL A   1      45.830  26.029  29.253  1.00  0.00     0.049 A 
ATOM     46  H   UNL A   1      43.997  27.018  29.217  1.00  0.00     0.167 HD
ATOM     47  C   UNL A   1      40.133  28.987  29.198  1.00  0.00     0.031 A 
ATOM     48  C   UNL A   1      46.742  26.891  29.742  1.00  0.00     0.031 A 
ATOM     49  C   UNL A   1      41.032  29.964  29.754  1.00  0.00     0.049 A 
ATOM     50  C   UNL A   1      46.325  28.279  30.137  1.00  0.00     0.074 A 
ATOM     51  C   UNL A   1      40.740  31.236  30.217  1.00  0.00     0.029 A 
ATOM     52  N   UNL A   1      42.393  29.778  29.924  1.00  0.00    -0.354 N 
ATOM     53  N   UNL A   1      45.131  28.819  30.119  1.00  0.00    -0.248 NA
ATOM     54  C   UNL A   1      47.385  29.177  30.624  1.00  0.00     0.031 C 
ATOM     55  C   UNL A   1      41.933  31.836  30.630  1.00  0.00     0.029 A 
ATOM     56  C   UNL A   1      42.959  30.920  30.466  1.00  0.00     0.049 A 
ATOM     57  H   UNL A   1      42.884  28.957  29.695  1.00  0.00     0.167 HD
ATOM     58  C   UNL A   1      45.292  30.111  30.605  1.00  0.00     0.074 A 
ATOM     59  C   UNL A   1      46.695  30.270  30.923  1.00  0.00     0.031 C 
ATOM     60  C   UNL A   1      44.357  31.075  30.773  1.00  0.00     0.031 A 
BRANCH  47  61
ATOM     61  C   UNL A   1      38.686  29.368  29.054  1.00  0.00    -0.014 A 
ATOM     62  C   UNL A   1      38.173  29.803  27.823  1.00  0.00     0.009 A 
ATOM     63  C   UNL A   1      37.815  29.232  30.147  1.00  0.00     0.009 A 
ATOM     64  C   UNL A   1      36.820  30.121  27.695  1.00  0.00     0.001 A 
ATOM     65  C   UNL A   1      36.458  29.528  30.009  1.00  0.00     0.001 A 
ATOM     66  C   UNL A   1      35.963  29.978  28.786  1.00  0.00     0.000 A 
ENDBRANCH  47  61
BRANCH  48  67
ATOM     67  C   UNL A   1      48.154  26.457  29.901  1.00  0.00    -0.014 A 
ATOM     68  C   UNL A   1      48.573  25.837  31.088  1.00  0.00     0.009 A 
ATOM     69  C   UNL A   1      49.083  26.651  28.867  1.00  0.00     0.009 A 
ATOM     70  C   UNL A   1      49.901  25.432  31.241  1.00  0.00     0.001 A 
ATOM     71  C   UNL A   1      50.403  26.223  29.016  1.00  0.00     0.001 A 
ATOM     72  C   UNL A   1      50.812  25.620  30.204  1.00  0.00     0.000 A 
ENDBRANCH  48  67
BRANCH  60  73
ATOM     73  C   UNL A   1      44.808  32.390  31.339  1.00  0.00    -0.014 A 
ATOM     74  C   UNL A   1      44.852  32.604  32.725  1.00  0.00     0.009 A 
ATOM     75  C   UNL A   1      45.255  33.405  30.478  1.00  0.00     0.009 A 
ATOM     76  C   UNL A   1      45.318  33.817  33.236  1.00  0.00     0.001 A 
ATOM     77  C   UNL A   1      45.741  34.607  30.992  1.00  0.00     0.001 A 
ATOM     78  C   UNL A   1      45.767  34.814  32.371  1.00  0.00     0.000 A 
ENDBRANCH  60  73
ENDBRANCH  34  35
ENDBRANCH  26  29
ENDBRANCH  24  25
ENDBRANCH  23  24
ENDBRANCH   1  23
TORSDOF 13
ENDMDL
