MODEL 1
REMARK VINA RESULT:     -10.8      0.000      0.000
REMARK SMILES O=C(NCCCNC(=O)c1cc(Br)ccc1NC(=O)c1ccc(Br)s1)c1ccc(-c2c3nc(c(-c4ccccc4)c4ccc([nH]4)c(-c4ccccc4)c4nc(c(-c5ccccc5)c5ccc2[nH]5)C=C4)C=C3)cc1
REMARK SMILES IDX 5 1 4 2 3 3 1 4 2 5 26 7 27 8 73 9 28 10 72 11 29 12 30 13
REMARK SMILES IDX 31 14 66 15 32 16 71 17 65 18 67 19 33 20 70 21 64 22 63 23
REMARK SMILES IDX 34 25 56 26 41 27 55 28 42 29 45 30 54 31 68 32 43 33 44 34
REMARK SMILES IDX 53 36 69 37 46 38 35 39 36 40 40 41 37 42 39 43 38 44 57 45
REMARK SMILES IDX 58 46 62 47 59 48 61 49 60 50 47 51 48 52 52 53 49 54 51 55
REMARK SMILES IDX 50 56 6 57 7 58 8 59 9 61 10 62 11 63 16 64 12 65 15 66
REMARK SMILES IDX 13 67 14 68 17 69 18 70 19 72 20 73 21 74 25 75 22 76 23 77
REMARK SMILES IDX 24 78
REMARK H PARENT 3 6 67 24 45 35 7 60 17 71
REMARK Flexibility Score: inf
ROOT
ATOM      1  C   UNL A   1      35.458  23.440  25.843  1.00  0.00     0.042 C 
ENDROOT
BRANCH   1   2
ATOM      2  C   UNL A   1      36.797  23.719  25.173  1.00  0.00     0.118 C 
BRANCH   2   3
ATOM      3  N   UNL A   1      37.809  22.733  25.528  1.00  0.00    -0.352 N 
ATOM      4  O   UNL A   1      39.812  21.924  26.140  1.00  0.00    -0.269 OA
ATOM      5  C   UNL A   1      39.030  22.873  26.140  1.00  0.00     0.251 C 
ATOM      6  H   UNL A   1      37.578  21.805  25.290  1.00  0.00     0.163 HD
BRANCH   5   7
ATOM      7  C   UNL A   1      39.423  24.142  26.792  1.00  0.00     0.039 A 
ATOM      8  C   UNL A   1      39.163  24.375  28.143  1.00  0.00     0.014 A 
ATOM      9  C   UNL A   1      40.138  25.092  26.051  1.00  0.00     0.014 A 
ATOM     10  C   UNL A   1      39.490  25.601  28.714  1.00  0.00     0.010 A 
ATOM     11  C   UNL A   1      40.544  26.288  26.649  1.00  0.00     0.010 A 
ATOM     12  C   UNL A   1      40.199  26.565  27.980  1.00  0.00    -0.014 A 
BRANCH  12  13
ATOM     13  C   UNL A   1      40.625  27.818  28.650  1.00  0.00     0.031 A 
ATOM     14  C   UNL A   1      42.054  28.037  29.060  1.00  0.00     0.074 A 
ATOM     15  C   UNL A   1      39.709  28.786  28.856  1.00  0.00     0.049 A 
ATOM     16  N   UNL A   1      42.597  29.093  29.613  1.00  0.00    -0.248 NA
ATOM     17  C   UNL A   1      42.994  26.929  28.828  1.00  0.00     0.031 C 
ATOM     18  C   UNL A   1      38.288  28.690  28.514  1.00  0.00     0.029 A 
ATOM     19  N   UNL A   1      39.841  30.047  29.377  1.00  0.00    -0.354 N 
ATOM     20  C   UNL A   1      43.934  28.772  29.812  1.00  0.00     0.074 A 
ATOM     21  C   UNL A   1      44.117  27.417  29.340  1.00  0.00     0.031 C 
ATOM     22  C   UNL A   1      37.691  29.860  28.782  1.00  0.00     0.029 A 
ATOM     23  C   UNL A   1      38.672  30.769  29.364  1.00  0.00     0.049 A 
ATOM     24  H   UNL A   1      40.690  30.401  29.728  1.00  0.00     0.167 HD
ATOM     25  C   UNL A   1      44.919  29.541  30.337  1.00  0.00     0.031 A 
ATOM     26  C   UNL A   1      38.412  32.021  29.780  1.00  0.00     0.031 A 
ATOM     27  C   UNL A   1      44.741  30.893  30.798  1.00  0.00     0.049 A 
ATOM     28  C   UNL A   1      39.520  32.844  30.365  1.00  0.00     0.074 A 
ATOM     29  C   UNL A   1      45.689  31.759  31.316  1.00  0.00     0.029 A 
ATOM     30  N   UNL A   1      43.534  31.574  30.797  1.00  0.00    -0.354 N 
ATOM     31  N   UNL A   1      40.783  32.533  30.518  1.00  0.00    -0.248 NA
ATOM     32  C   UNL A   1      39.163  34.189  30.837  1.00  0.00     0.031 C 
ATOM     33  C   UNL A   1      45.048  32.953  31.663  1.00  0.00     0.029 A 
ATOM     34  C   UNL A   1      43.709  32.843  31.323  1.00  0.00     0.049 A 
ATOM     35  H   UNL A   1      42.680  31.211  30.471  1.00  0.00     0.167 HD
ATOM     36  C   UNL A   1      41.377  33.647  31.095  1.00  0.00     0.074 A 
ATOM     37  C   UNL A   1      40.339  34.647  31.243  1.00  0.00     0.031 C 
ATOM     38  C   UNL A   1      42.666  33.821  31.472  1.00  0.00     0.031 A 
BRANCH  25  39
ATOM     39  C   UNL A   1      46.284  28.928  30.460  1.00  0.00    -0.014 A 
ATOM     40  C   UNL A   1      47.226  29.036  29.425  1.00  0.00     0.009 A 
ATOM     41  C   UNL A   1      46.652  28.281  31.652  1.00  0.00     0.009 A 
ATOM     42  C   UNL A   1      48.502  28.487  29.573  1.00  0.00     0.001 A 
ATOM     43  C   UNL A   1      47.934  27.752  31.803  1.00  0.00     0.001 A 
ATOM     44  C   UNL A   1      48.856  27.849  30.762  1.00  0.00     0.000 A 
ENDBRANCH  25  39
BRANCH  26  45
ATOM     45  C   UNL A   1      37.037  32.567  29.659  1.00  0.00    -0.014 A 
ATOM     46  C   UNL A   1      36.081  32.320  30.654  1.00  0.00     0.009 A 
ATOM     47  C   UNL A   1      36.681  33.355  28.552  1.00  0.00     0.009 A 
ATOM     48  C   UNL A   1      34.789  32.838  30.536  1.00  0.00     0.001 A 
ATOM     49  C   UNL A   1      35.398  33.892  28.450  1.00  0.00     0.001 A 
ATOM     50  C   UNL A   1      34.451  33.628  29.438  1.00  0.00     0.000 A 
ENDBRANCH  26  45
BRANCH  38  51
ATOM     51  C   UNL A   1      43.022  35.151  32.066  1.00  0.00    -0.014 A 
ATOM     52  C   UNL A   1      42.811  35.413  33.428  1.00  0.00     0.009 A 
ATOM     53  C   UNL A   1      43.597  36.145  31.259  1.00  0.00     0.009 A 
ATOM     54  C   UNL A   1      43.140  36.659  33.965  1.00  0.00     0.001 A 
ATOM     55  C   UNL A   1      43.946  37.382  31.804  1.00  0.00     0.001 A 
ATOM     56  C   UNL A   1      43.710  37.640  33.153  1.00  0.00     0.000 A 
ENDBRANCH  38  51
ENDBRANCH  12  13
ENDBRANCH   5   7
ENDBRANCH   2   3
ENDBRANCH   1   2
BRANCH   1  57
ATOM     57  C   UNL A   1      34.493  24.617  25.798  1.00  0.00     0.118 C 
BRANCH  57  58
ATOM     58  N   UNL A   1      34.433  25.241  24.480  1.00  0.00    -0.352 N 
ATOM     59  C   UNL A   1      33.753  26.367  24.077  1.00  0.00     0.253 C 
ATOM     60  H   UNL A   1      34.953  24.790  23.776  1.00  0.00     0.163 HD
ATOM     61  O   UNL A   1      33.626  26.624  22.884  1.00  0.00    -0.269 OA
BRANCH  59  62
ATOM     62  C   UNL A   1      33.110  27.232  25.089  1.00  0.00     0.064 A 
ATOM     63  C   UNL A   1      33.875  28.266  25.652  1.00  0.00     0.031 A 
ATOM     64  C   UNL A   1      31.786  26.991  25.508  1.00  0.00     0.054 A 
ATOM     65  C   UNL A   1      33.389  28.954  26.753  1.00  0.00     0.018 A 
ATOM     66  C   UNL A   1      31.362  27.642  26.670  1.00  0.00     0.028 A 
ATOM     67  Br  UNL A   1      34.444  30.286  27.572  1.00  0.00    -0.051 Br
ATOM     68  C   UNL A   1      32.153  28.618  27.290  1.00  0.00     0.018 A 
BRANCH  64  69
ATOM     69  N   UNL A   1      30.973  26.104  24.762  1.00  0.00    -0.321 N 
ATOM     70  C   UNL A   1      30.010  26.288  23.787  1.00  0.00     0.265 C 
ATOM     71  H   UNL A   1      31.124  25.158  24.986  1.00  0.00     0.170 HD
ATOM     72  O   UNL A   1      29.354  25.303  23.445  1.00  0.00    -0.268 OA
BRANCH  70  73
ATOM     73  C   UNL A   1      29.837  27.584  23.167  1.00  0.00     0.093 A 
ATOM     74  C   UNL A   1      30.750  28.351  22.461  1.00  0.00     0.027 A 
ATOM     75  S   UNL A   1      28.305  28.348  23.251  1.00  0.00    -0.123 S 
ATOM     76  C   UNL A   1      30.215  29.627  22.103  1.00  0.00     0.028 A 
ATOM     77  C   UNL A   1      28.906  29.742  22.500  1.00  0.00     0.071 A 
ATOM     78  Br  UNL A   1      27.881  31.289  22.247  1.00  0.00    -0.039 Br
ENDBRANCH  70  73
ENDBRANCH  64  69
ENDBRANCH  59  62
ENDBRANCH  57  58
ENDBRANCH   1  57
TORSDOF 12
ENDMDL
MODEL 2
REMARK VINA RESULT:     -10.8      2.664      7.382
REMARK SMILES O=C(NCCCNC(=O)c1cc(Br)ccc1NC(=O)c1ccc(Br)s1)c1ccc(-c2c3nc(c(-c4ccccc4)c4ccc([nH]4)c(-c4ccccc4)c4nc(c(-c5ccccc5)c5ccc2[nH]5)C=C4)C=C3)cc1
REMARK SMILES IDX 5 1 4 2 3 3 1 4 2 5 26 7 27 8 73 9 28 10 72 11 29 12 30 13
REMARK SMILES IDX 31 14 66 15 32 16 71 17 65 18 67 19 33 20 70 21 64 22 63 23
REMARK SMILES IDX 34 25 56 26 41 27 55 28 42 29 45 30 54 31 68 32 43 33 44 34
REMARK SMILES IDX 53 36 69 37 46 38 35 39 36 40 40 41 37 42 39 43 38 44 57 45
REMARK SMILES IDX 58 46 62 47 59 48 61 49 60 50 47 51 48 52 52 53 49 54 51 55
REMARK SMILES IDX 50 56 6 57 7 58 8 59 9 61 10 62 11 63 16 64 12 65 15 66
REMARK SMILES IDX 13 67 14 68 17 69 18 70 19 72 20 73 21 74 25 75 22 76 23 77
REMARK SMILES IDX 24 78
REMARK H PARENT 3 6 67 24 45 35 7 60 17 71
REMARK Flexibility Score: inf
ROOT
ATOM      1  C   UNL A   1      34.050  28.232  26.065  1.00  0.00     0.042 C 
ENDROOT
BRANCH   1   2
ATOM      2  C   UNL A   1      33.599  28.505  27.495  1.00  0.00     0.118 C 
BRANCH   2   3
ATOM      3  N   UNL A   1      33.626  29.924  27.823  1.00  0.00    -0.352 N 
ATOM      4  O   UNL A   1      34.322  31.832  28.778  1.00  0.00    -0.269 OA
ATOM      5  C   UNL A   1      34.604  30.699  28.394  1.00  0.00     0.251 C 
ATOM      6  H   UNL A   1      32.802  30.412  27.595  1.00  0.00     0.163 HD
BRANCH   5   7
ATOM      7  C   UNL A   1      35.986  30.195  28.562  1.00  0.00     0.039 A 
ATOM      8  C   UNL A   1      36.925  30.294  27.535  1.00  0.00     0.014 A 
ATOM      9  C   UNL A   1      36.373  29.680  29.806  1.00  0.00     0.014 A 
ATOM     10  C   UNL A   1      38.198  29.758  27.700  1.00  0.00     0.010 A 
ATOM     11  C   UNL A   1      37.679  29.222  30.000  1.00  0.00     0.010 A 
ATOM     12  C   UNL A   1      38.596  29.231  28.939  1.00  0.00    -0.014 A 
BRANCH  12  13
ATOM     13  C   UNL A   1      39.993  28.764  29.113  1.00  0.00     0.031 A 
ATOM     14  C   UNL A   1      40.415  27.388  28.684  1.00  0.00     0.074 A 
ATOM     15  C   UNL A   1      40.899  29.615  29.636  1.00  0.00     0.049 A 
ATOM     16  N   UNL A   1      41.607  26.844  28.725  1.00  0.00    -0.248 NA
ATOM     17  C   UNL A   1      39.370  26.504  28.146  1.00  0.00     0.031 C 
ATOM     18  C   UNL A   1      40.611  30.973  30.102  1.00  0.00     0.029 A 
ATOM     19  N   UNL A   1      42.248  29.474  29.838  1.00  0.00    -0.354 N 
ATOM     20  C   UNL A   1      41.452  25.553  28.238  1.00  0.00     0.074 A 
ATOM     21  C   UNL A   1      40.049  25.386  27.925  1.00  0.00     0.031 C 
ATOM     22  C   UNL A   1      41.755  31.559  30.483  1.00  0.00     0.029 A 
ATOM     23  C   UNL A   1      42.847  30.603  30.341  1.00  0.00     0.049 A 
ATOM     24  H   UNL A   1      42.740  28.643  29.643  1.00  0.00     0.167 HD
ATOM     25  C   UNL A   1      42.395  24.596  28.063  1.00  0.00     0.031 A 
ATOM     26  C   UNL A   1      44.131  30.845  30.659  1.00  0.00     0.031 A 
ATOM     27  C   UNL A   1      43.793  24.763  28.364  1.00  0.00     0.049 A 
ATOM     28  C   UNL A   1      45.151  29.763  30.464  1.00  0.00     0.074 A 
ATOM     29  C   UNL A   1      44.826  23.859  28.190  1.00  0.00     0.029 A 
ATOM     30  N   UNL A   1      44.351  25.911  28.902  1.00  0.00    -0.354 N 
ATOM     31  N   UNL A   1      44.989  28.559  29.975  1.00  0.00    -0.248 NA
ATOM     32  C   UNL A   1      46.528  30.076  30.868  1.00  0.00     0.031 C 
ATOM     33  C   UNL A   1      46.006  24.447  28.658  1.00  0.00     0.029 A 
ATOM     34  C   UNL A   1      45.712  25.732  29.085  1.00  0.00     0.049 A 
ATOM     35  H   UNL A   1      43.856  26.732  29.122  1.00  0.00     0.167 HD
ATOM     36  C   UNL A   1      46.246  27.971  30.003  1.00  0.00     0.074 A 
ATOM     37  C   UNL A   1      47.162  28.959  30.536  1.00  0.00     0.031 C 
ATOM     38  C   UNL A   1      46.606  26.721  29.624  1.00  0.00     0.031 A 
BRANCH  25  39
ATOM     39  C   UNL A   1      41.942  23.265  27.536  1.00  0.00    -0.014 A 
ATOM     40  C   UNL A   1      41.992  22.970  26.165  1.00  0.00     0.009 A 
ATOM     41  C   UNL A   1      41.510  22.272  28.432  1.00  0.00     0.009 A 
ATOM     42  C   UNL A   1      41.597  21.714  25.699  1.00  0.00     0.001 A 
ATOM     43  C   UNL A   1      41.135  21.012  27.964  1.00  0.00     0.001 A 
ATOM     44  C   UNL A   1      41.173  20.736  26.598  1.00  0.00     0.000 A 
ENDBRANCH  25  39
BRANCH  26  45
ATOM     45  C   UNL A   1      44.519  32.171  31.203  1.00  0.00    -0.014 A 
ATOM     46  C   UNL A   1      44.989  33.181  30.352  1.00  0.00     0.009 A 
ATOM     47  C   UNL A   1      44.401  32.436  32.577  1.00  0.00     0.009 A 
ATOM     48  C   UNL A   1      45.351  34.427  30.868  1.00  0.00     0.001 A 
ATOM     49  C   UNL A   1      44.739  33.690  33.086  1.00  0.00     0.001 A 
ATOM     50  C   UNL A   1      45.220  34.682  32.233  1.00  0.00     0.000 A 
ENDBRANCH  26  45
BRANCH  38  51
ATOM     51  C   UNL A   1      48.057  26.365  29.761  1.00  0.00    -0.014 A 
ATOM     52  C   UNL A   1      48.560  25.839  30.960  1.00  0.00     0.009 A 
ATOM     53  C   UNL A   1      48.923  26.537  28.671  1.00  0.00     0.009 A 
ATOM     54  C   UNL A   1      49.914  25.519  31.075  1.00  0.00     0.001 A 
ATOM     55  C   UNL A   1      50.272  26.195  28.782  1.00  0.00     0.001 A 
ATOM     56  C   UNL A   1      50.767  25.695  29.985  1.00  0.00     0.000 A 
ENDBRANCH  38  51
ENDBRANCH  12  13
ENDBRANCH   5   7
ENDBRANCH   2   3
ENDBRANCH   1   2
BRANCH   1  57
ATOM     57  C   UNL A   1      33.599  29.291  25.068  1.00  0.00     0.118 C 
BRANCH  57  58
ATOM     58  N   UNL A   1      34.172  29.089  23.741  1.00  0.00    -0.352 N 
ATOM     59  C   UNL A   1      33.598  28.547  22.615  1.00  0.00     0.253 C 
ATOM     60  H   UNL A   1      35.106  29.384  23.636  1.00  0.00     0.163 HD
ATOM     61  O   UNL A   1      34.289  28.243  21.647  1.00  0.00    -0.269 OA
BRANCH  59  62
ATOM     62  C   UNL A   1      32.147  28.263  22.601  1.00  0.00     0.064 A 
ATOM     63  C   UNL A   1      31.263  29.353  22.614  1.00  0.00     0.031 A 
ATOM     64  C   UNL A   1      31.672  26.936  22.623  1.00  0.00     0.054 A 
ATOM     65  C   UNL A   1      29.910  29.134  22.824  1.00  0.00     0.018 A 
ATOM     66  C   UNL A   1      30.318  26.754  22.920  1.00  0.00     0.028 A 
ATOM     67  Br  UNL A   1      28.723  30.597  22.930  1.00  0.00    -0.051 Br
ATOM     68  C   UNL A   1      29.439  27.841  23.018  1.00  0.00     0.018 A 
BRANCH  64  69
ATOM     69  N   UNL A   1      32.571  25.872  22.372  1.00  0.00    -0.321 N 
ATOM     70  C   UNL A   1      33.042  24.824  23.140  1.00  0.00     0.265 C 
ATOM     71  H   UNL A   1      32.939  25.881  21.459  1.00  0.00     0.170 HD
ATOM     72  O   UNL A   1      33.961  24.148  22.674  1.00  0.00    -0.268 OA
BRANCH  70  73
ATOM     73  C   UNL A   1      32.427  24.517  24.413  1.00  0.00     0.093 A 
ATOM     74  C   UNL A   1      32.844  24.843  25.694  1.00  0.00     0.027 A 
ATOM     75  S   UNL A   1      30.951  23.644  24.436  1.00  0.00    -0.123 S 
ATOM     76  C   UNL A   1      32.010  24.257  26.695  1.00  0.00     0.028 A 
ATOM     77  C   UNL A   1      30.967  23.568  26.127  1.00  0.00     0.071 A 
ATOM     78  Br  UNL A   1      29.687  22.627  27.120  1.00  0.00    -0.039 Br
ENDBRANCH  70  73
ENDBRANCH  64  69
ENDBRANCH  59  62
ENDBRANCH  57  58
ENDBRANCH   1  57
TORSDOF 12
ENDMDL
MODEL 3
REMARK VINA RESULT:     -10.8      3.415      7.946
REMARK SMILES O=C(NCCCNC(=O)c1cc(Br)ccc1NC(=O)c1ccc(Br)s1)c1ccc(-c2c3nc(c(-c4ccccc4)c4ccc([nH]4)c(-c4ccccc4)c4nc(c(-c5ccccc5)c5ccc2[nH]5)C=C4)C=C3)cc1
REMARK SMILES IDX 5 1 4 2 3 3 1 4 2 5 26 7 27 8 73 9 28 10 72 11 29 12 30 13
REMARK SMILES IDX 31 14 66 15 32 16 71 17 65 18 67 19 33 20 70 21 64 22 63 23
REMARK SMILES IDX 34 25 56 26 41 27 55 28 42 29 45 30 54 31 68 32 43 33 44 34
REMARK SMILES IDX 53 36 69 37 46 38 35 39 36 40 40 41 37 42 39 43 38 44 57 45
REMARK SMILES IDX 58 46 62 47 59 48 61 49 60 50 47 51 48 52 52 53 49 54 51 55
REMARK SMILES IDX 50 56 6 57 7 58 8 59 9 61 10 62 11 63 16 64 12 65 15 66
REMARK SMILES IDX 13 67 14 68 17 69 18 70 19 72 20 73 21 74 25 75 22 76 23 77
REMARK SMILES IDX 24 78
REMARK H PARENT 3 6 67 24 45 35 7 60 17 71
REMARK Flexibility Score: inf
ROOT
ATOM      1  C   UNL A   1      34.220  27.894  26.041  1.00  0.00     0.042 C 
ENDROOT
BRANCH   1   2
ATOM      2  C   UNL A   1      33.440  28.330  27.274  1.00  0.00     0.118 C 
BRANCH   2   3
ATOM      3  N   UNL A   1      33.424  29.778  27.436  1.00  0.00    -0.352 N 
ATOM      4  O   UNL A   1      34.020  31.799  28.210  1.00  0.00    -0.269 OA
ATOM      5  C   UNL A   1      34.346  30.636  27.983  1.00  0.00     0.251 C 
ATOM      6  H   UNL A   1      32.613  30.219  27.092  1.00  0.00     0.163 HD
BRANCH   5   7
ATOM      7  C   UNL A   1      35.717  30.184  28.309  1.00  0.00     0.039 A 
ATOM      8  C   UNL A   1      36.763  30.320  27.396  1.00  0.00     0.014 A 
ATOM      9  C   UNL A   1      35.978  29.683  29.591  1.00  0.00     0.014 A 
ATOM     10  C   UNL A   1      38.028  29.833  27.707  1.00  0.00     0.010 A 
ATOM     11  C   UNL A   1      37.270  29.275  29.935  1.00  0.00     0.010 A 
ATOM     12  C   UNL A   1      38.301  29.320  28.986  1.00  0.00    -0.014 A 
BRANCH  12  13
ATOM     13  C   UNL A   1      39.687  28.907  29.321  1.00  0.00     0.031 A 
ATOM     14  C   UNL A   1      40.569  29.763  30.184  1.00  0.00     0.074 A 
ATOM     15  C   UNL A   1      40.137  27.721  28.864  1.00  0.00     0.049 A 
ATOM     16  N   UNL A   1      41.786  29.524  30.607  1.00  0.00    -0.248 NA
ATOM     17  C   UNL A   1      40.023  31.056  30.626  1.00  0.00     0.031 C 
ATOM     18  C   UNL A   1      39.380  26.804  28.007  1.00  0.00     0.029 A 
ATOM     19  N   UNL A   1      41.325  27.072  29.077  1.00  0.00    -0.354 N 
ATOM     20  C   UNL A   1      42.158  30.640  31.346  1.00  0.00     0.074 A 
ATOM     21  C   UNL A   1      41.046  31.565  31.299  1.00  0.00     0.031 C 
ATOM     22  C   UNL A   1      40.099  25.690  27.814  1.00  0.00     0.029 A 
ATOM     23  C   UNL A   1      41.386  25.834  28.485  1.00  0.00     0.049 A 
ATOM     24  H   UNL A   1      42.064  27.456  29.603  1.00  0.00     0.167 HD
ATOM     25  C   UNL A   1      43.318  30.868  32.007  1.00  0.00     0.031 A 
ATOM     26  C   UNL A   1      42.369  24.916  28.475  1.00  0.00     0.031 A 
ATOM     27  C   UNL A   1      44.420  29.944  32.063  1.00  0.00     0.049 A 
ATOM     28  C   UNL A   1      43.645  25.201  29.207  1.00  0.00     0.074 A 
ATOM     29  C   UNL A   1      45.623  30.078  32.735  1.00  0.00     0.029 A 
ATOM     30  N   UNL A   1      44.453  28.716  31.422  1.00  0.00    -0.354 N 
ATOM     31  N   UNL A   1      43.966  26.249  29.924  1.00  0.00    -0.248 NA
ATOM     32  C   UNL A   1      44.695  24.176  29.126  1.00  0.00     0.031 C 
ATOM     33  C   UNL A   1      46.401  28.945  32.470  1.00  0.00     0.029 A 
ATOM     34  C   UNL A   1      45.664  28.090  31.667  1.00  0.00     0.049 A 
ATOM     35  H   UNL A   1      43.725  28.344  30.875  1.00  0.00     0.167 HD
ATOM     36  C   UNL A   1      45.251  26.007  30.389  1.00  0.00     0.074 A 
ATOM     37  C   UNL A   1      45.641  24.704  29.890  1.00  0.00     0.031 C 
ATOM     38  C   UNL A   1      46.039  26.798  31.156  1.00  0.00     0.031 A 
BRANCH  25  39
ATOM     39  C   UNL A   1      43.465  32.185  32.712  1.00  0.00    -0.014 A 
ATOM     40  C   UNL A   1      43.973  33.313  32.049  1.00  0.00     0.009 A 
ATOM     41  C   UNL A   1      43.038  32.313  34.044  1.00  0.00     0.009 A 
ATOM     42  C   UNL A   1      44.071  34.537  32.713  1.00  0.00     0.001 A 
ATOM     43  C   UNL A   1      43.119  33.543  34.699  1.00  0.00     0.001 A 
ATOM     44  C   UNL A   1      43.641  34.652  34.035  1.00  0.00     0.000 A 
ENDBRANCH  25  39
BRANCH  26  45
ATOM     45  C   UNL A   1      42.179  23.641  27.738  1.00  0.00    -0.014 A 
ATOM     46  C   UNL A   1      41.614  22.527  28.373  1.00  0.00     0.009 A 
ATOM     47  C   UNL A   1      42.548  23.542  26.386  1.00  0.00     0.009 A 
ATOM     48  C   UNL A   1      41.437  21.331  27.674  1.00  0.00     0.001 A 
ATOM     49  C   UNL A   1      42.346  22.354  25.684  1.00  0.00     0.001 A 
ATOM     50  C   UNL A   1      41.798  21.248  26.329  1.00  0.00     0.000 A 
ENDBRANCH  26  45
BRANCH  38  51
ATOM     51  C   UNL A   1      47.393  26.262  31.512  1.00  0.00    -0.014 A 
ATOM     52  C   UNL A   1      47.604  25.575  32.717  1.00  0.00     0.009 A 
ATOM     53  C   UNL A   1      48.465  26.426  30.621  1.00  0.00     0.009 A 
ATOM     54  C   UNL A   1      48.872  25.088  33.038  1.00  0.00     0.001 A 
ATOM     55  C   UNL A   1      49.727  25.918  30.935  1.00  0.00     0.001 A 
ATOM     56  C   UNL A   1      49.931  25.258  32.145  1.00  0.00     0.000 A 
ENDBRANCH  38  51
ENDBRANCH  12  13
ENDBRANCH   5   7
ENDBRANCH   2   3
ENDBRANCH   1   2
BRANCH   1  57
ATOM     57  C   UNL A   1      33.592  26.720  25.302  1.00  0.00     0.118 C 
BRANCH  57  58
ATOM     58  N   UNL A   1      33.045  25.716  26.210  1.00  0.00    -0.352 N 
ATOM     59  C   UNL A   1      33.298  24.366  26.273  1.00  0.00     0.253 C 
ATOM     60  H   UNL A   1      32.401  26.054  26.873  1.00  0.00     0.163 HD
ATOM     61  O   UNL A   1      32.583  23.629  26.946  1.00  0.00    -0.269 OA
BRANCH  59  62
ATOM     62  C   UNL A   1      34.394  23.790  25.464  1.00  0.00     0.064 A 
ATOM     63  C   UNL A   1      35.657  23.666  26.064  1.00  0.00     0.031 A 
ATOM     64  C   UNL A   1      34.184  23.426  24.119  1.00  0.00     0.054 A 
ATOM     65  C   UNL A   1      36.756  23.342  25.282  1.00  0.00     0.018 A 
ATOM     66  C   UNL A   1      35.323  23.187  23.344  1.00  0.00     0.028 A 
ATOM     67  Br  UNL A   1      38.473  23.257  26.060  1.00  0.00    -0.051 Br
ATOM     68  C   UNL A   1      36.600  23.143  23.916  1.00  0.00     0.018 A 
BRANCH  64  69
ATOM     69  N   UNL A   1      32.862  23.341  23.621  1.00  0.00    -0.321 N 
ATOM     70  C   UNL A   1      31.995  22.288  23.398  1.00  0.00     0.265 C 
ATOM     71  H   UNL A   1      32.480  24.217  23.383  1.00  0.00     0.170 HD
ATOM     72  O   UNL A   1      30.951  22.532  22.790  1.00  0.00    -0.268 OA
BRANCH  70  73
ATOM     73  C   UNL A   1      32.297  20.971  23.915  1.00  0.00     0.093 A 
ATOM     74  C   UNL A   1      32.508  20.567  25.223  1.00  0.00     0.027 A 
ATOM     75  S   UNL A   1      32.408  19.654  22.824  1.00  0.00    -0.123 S 
ATOM     76  C   UNL A   1      32.889  19.192  25.305  1.00  0.00     0.028 A 
ATOM     77  C   UNL A   1      32.889  18.606  24.064  1.00  0.00     0.071 A 
ATOM     78  Br  UNL A   1      33.380  16.823  23.762  1.00  0.00    -0.039 Br
ENDBRANCH  70  73
ENDBRANCH  64  69
ENDBRANCH  59  62
ENDBRANCH  57  58
ENDBRANCH   1  57
TORSDOF 12
ENDMDL
