MODEL 1
REMARK VINA RESULT:     -13.0      0.000      0.000
REMARK SMILES O=C(NCCCNC(=O)c1ccc(-c2c3nc(c(-c4ccccc4)c4ccc([nH]4)c(-c4ccccc4)c4nc(c(-c5ccccc5)c5ccc2[nH]5)C=C4)C=C3)cc1)C1=Cc2cc(S(F)(F)(F)(F)F)cc(Br)c2O[C@@H]1C(F)(F)F
REMARK SMILES IDX 5 1 4 2 3 3 1 4 2 5 58 7 59 8 74 9 60 10 73 11 61 12 72 13
REMARK SMILES IDX 62 14 70 15 69 16 71 17 75 18 76 19 77 20 78 21 63 22 64 23
REMARK SMILES IDX 65 24 66 25 67 26 68 27 6 28 7 29 8 30 9 32 10 33 11 34
REMARK SMILES IDX 57 35 12 36 56 37 13 38 14 39 15 40 50 41 16 42 55 43 49 44
REMARK SMILES IDX 51 45 17 46 54 47 48 48 47 49 18 51 40 52 25 53 39 54 26 55
REMARK SMILES IDX 29 56 38 57 52 58 27 59 28 60 37 62 53 63 30 64 19 65 20 66
REMARK SMILES IDX 24 67 21 68 23 69 22 70 41 71 42 72 46 73 43 74 45 75 44 76
REMARK SMILES IDX 31 77 32 78 36 79 33 80 35 81 34 82
REMARK H PARENT 3 6 7 31 51 50 29 61
REMARK Flexibility Score: inf
ROOT
ATOM      1  C   UNL A   1      33.695  30.429  27.219  1.00  0.00     0.042 C 
ENDROOT
BRANCH   1   2
ATOM      2  C   UNL A   1      33.919  28.927  27.132  1.00  0.00     0.118 C 
BRANCH   2   3
ATOM      3  N   UNL A   1      32.731  28.225  27.640  1.00  0.00    -0.352 N 
ATOM      4  O   UNL A   1      30.653  27.184  27.149  1.00  0.00    -0.270 OA
ATOM      5  C   UNL A   1      31.680  27.791  26.710  1.00  0.00     0.251 C 
ATOM      6  H   UNL A   1      32.641  28.046  28.605  1.00  0.00     0.163 HD
BRANCH   5   7
ATOM      7  C   UNL A   1      31.820  28.069  25.222  1.00  0.00     0.067 C 
ATOM      8  C   UNL A   1      32.487  27.189  24.425  1.00  0.00     0.025 C 
ATOM      9  C   UNL A   1      31.215  29.328  24.623  1.00  0.00     0.314 C 
ATOM     10  C   UNL A   1      33.091  25.929  25.024  1.00  0.00     0.020 A 
ATOM     11  O   UNL A   1      31.144  25.660  26.359  1.00  0.00    -0.474 OA
ATOM     12  C   UNL A   1      34.381  25.581  24.656  1.00  0.00     0.036 A 
ATOM     13  C   UNL A   1      32.396  25.191  25.880  1.00  0.00     0.142 A 
ATOM     14  C   UNL A   1      34.748  24.267  25.029  1.00  0.00     0.109 A 
ATOM     15  C   UNL A   1      32.877  23.978  26.309  1.00  0.00     0.062 A 
ATOM     16  C   UNL A   1      34.120  23.543  25.937  1.00  0.00     0.044 A 
ATOM     17  Br  UNL A   1      31.767  22.854  27.469  1.00  0.00    -0.047 Br
BRANCH   9  18
ATOM     18  C   UNL A   1      30.194  28.946  23.564  1.00  0.00     0.429 C 
ATOM     19  F   UNL A   1      30.797  28.844  22.383  1.00  0.00    -0.167 F 
ATOM     20  F   UNL A   1      29.641  27.779  23.882  1.00  0.00    -0.167 F 
ATOM     21  F   UNL A   1      29.250  29.882  23.500  1.00  0.00    -0.167 F 
ENDBRANCH   9  18
BRANCH  14  22
ATOM     22  S   UNL A   1      36.177  23.525  24.202  1.00  0.00     0.310 S 
ATOM     23  F   UNL A   1      35.985  22.152  24.975  1.00  0.00    -0.094 F 
ATOM     24  F   UNL A   1      37.081  23.994  25.404  1.00  0.00    -0.094 F 
ATOM     25  F   UNL A   1      37.403  22.883  23.493  1.00  0.00    -0.094 F 
ATOM     26  F   UNL A   1      35.233  22.941  23.079  1.00  0.00    -0.094 F 
ATOM     27  F   UNL A   1      34.905  24.071  24.966  1.00  0.00    -0.094 F 
ENDBRANCH  14  22
ENDBRANCH   5   7
ENDBRANCH   2   3
ENDBRANCH   1   2
BRANCH   1  28
ATOM     28  C   UNL A   1      34.887  31.079  27.903  1.00  0.00     0.118 C 
BRANCH  28  29
ATOM     29  N   UNL A   1      34.463  31.648  29.190  1.00  0.00    -0.352 N 
ATOM     30  C   UNL A   1      35.402  31.690  30.321  1.00  0.00     0.251 C 
ATOM     31  H   UNL A   1      33.550  32.002  29.296  1.00  0.00     0.163 HD
ATOM     32  O   UNL A   1      35.035  32.182  31.434  1.00  0.00    -0.269 OA
BRANCH  30  33
ATOM     33  C   UNL A   1      36.811  31.144  30.160  1.00  0.00     0.039 A 
ATOM     34  C   UNL A   1      37.500  31.390  28.983  1.00  0.00     0.014 A 
ATOM     35  C   UNL A   1      37.292  30.315  31.079  1.00  0.00     0.014 A 
ATOM     36  C   UNL A   1      38.558  30.483  28.739  1.00  0.00     0.010 A 
ATOM     37  C   UNL A   1      38.410  29.559  30.823  1.00  0.00     0.010 A 
ATOM     38  C   UNL A   1      39.106  29.707  29.655  1.00  0.00    -0.014 A 
BRANCH  38  39
ATOM     39  C   UNL A   1      40.440  29.015  29.425  1.00  0.00     0.031 A 
ATOM     40  C   UNL A   1      40.462  27.677  29.027  1.00  0.00     0.074 A 
ATOM     41  C   UNL A   1      41.561  29.824  29.482  1.00  0.00     0.049 A 
ATOM     42  N   UNL A   1      41.514  26.969  28.611  1.00  0.00    -0.248 NA
ATOM     43  C   UNL A   1      39.278  26.806  28.999  1.00  0.00     0.031 C 
ATOM     44  C   UNL A   1      41.546  31.177  29.875  1.00  0.00     0.029 A 
ATOM     45  N   UNL A   1      42.862  29.488  29.180  1.00  0.00    -0.354 N 
ATOM     46  C   UNL A   1      41.139  25.727  28.297  1.00  0.00     0.074 A 
ATOM     47  C   UNL A   1      39.697  25.602  28.548  1.00  0.00     0.031 C 
ATOM     48  C   UNL A   1      42.821  31.646  29.822  1.00  0.00     0.029 A 
ATOM     49  C   UNL A   1      43.654  30.595  29.396  1.00  0.00     0.049 A 
ATOM     50  H   UNL A   1      43.173  28.608  28.866  1.00  0.00     0.167 HD
ATOM     51  C   UNL A   1      41.942  24.696  27.811  1.00  0.00     0.031 A 
ATOM     52  C   UNL A   1      45.026  30.701  29.235  1.00  0.00     0.031 A 
ATOM     53  C   UNL A   1      43.308  24.815  27.609  1.00  0.00     0.049 A 
ATOM     54  C   UNL A   1      45.840  29.651  28.803  1.00  0.00     0.074 A 
ATOM     55  C   UNL A   1      44.132  23.787  27.112  1.00  0.00     0.029 A 
ATOM     56  N   UNL A   1      44.104  25.914  27.846  1.00  0.00    -0.354 N 
ATOM     57  N   UNL A   1      45.459  28.422  28.451  1.00  0.00    -0.248 NA
ATOM     58  C   UNL A   1      47.299  29.742  28.660  1.00  0.00     0.031 C 
ATOM     59  C   UNL A   1      45.407  24.256  27.059  1.00  0.00     0.029 A 
ATOM     60  C   UNL A   1      45.401  25.585  27.524  1.00  0.00     0.049 A 
ATOM     61  H   UNL A   1      43.797  26.786  28.188  1.00  0.00     0.167 HD
ATOM     62  C   UNL A   1      46.517  27.702  28.076  1.00  0.00     0.074 A 
ATOM     63  C   UNL A   1      47.717  28.539  28.212  1.00  0.00     0.031 C 
ATOM     64  C   UNL A   1      46.530  26.383  27.621  1.00  0.00     0.031 A 
BRANCH  51  65
ATOM     65  C   UNL A   1      41.283  23.365  27.483  1.00  0.00    -0.014 A 
ATOM     66  C   UNL A   1      41.611  22.232  28.208  1.00  0.00     0.009 A 
ATOM     67  C   UNL A   1      40.391  23.320  26.501  1.00  0.00     0.009 A 
ATOM     68  C   UNL A   1      41.153  21.026  27.627  1.00  0.00     0.001 A 
ATOM     69  C   UNL A   1      39.882  22.118  26.073  1.00  0.00     0.001 A 
ATOM     70  C   UNL A   1      40.210  20.951  26.705  1.00  0.00     0.000 A 
ENDBRANCH  51  65
BRANCH  52  71
ATOM     71  C   UNL A   1      45.683  32.036  29.547  1.00  0.00    -0.014 A 
ATOM     72  C   UNL A   1      46.140  32.299  30.828  1.00  0.00     0.009 A 
ATOM     73  C   UNL A   1      45.801  32.933  28.576  1.00  0.00     0.009 A 
ATOM     74  C   UNL A   1      46.449  33.660  31.057  1.00  0.00     0.001 A 
ATOM     75  C   UNL A   1      46.239  34.206  28.849  1.00  0.00     0.001 A 
ATOM     76  C   UNL A   1      46.651  34.554  30.105  1.00  0.00     0.000 A 
ENDBRANCH  52  71
BRANCH  64  77
ATOM     77  C   UNL A   1      47.865  25.783  27.209  1.00  0.00    -0.014 A 
ATOM     78  C   UNL A   1      48.643  25.182  28.185  1.00  0.00     0.009 A 
ATOM     79  C   UNL A   1      48.336  25.990  25.984  1.00  0.00     0.009 A 
ATOM     80  C   UNL A   1      50.016  25.096  27.851  1.00  0.00     0.001 A 
ATOM     81  C   UNL A   1      49.658  25.755  25.693  1.00  0.00     0.001 A 
ATOM     82  C   UNL A   1      50.498  25.218  26.628  1.00  0.00     0.000 A 
ENDBRANCH  64  77
ENDBRANCH  38  39
ENDBRANCH  30  33
ENDBRANCH  28  29
ENDBRANCH   1  28
TORSDOF 12
ENDMDL
MODEL 2
REMARK VINA RESULT:     -12.9      2.801      3.600
REMARK SMILES O=C(NCCCNC(=O)c1ccc(-c2c3nc(c(-c4ccccc4)c4ccc([nH]4)c(-c4ccccc4)c4nc(c(-c5ccccc5)c5ccc2[nH]5)C=C4)C=C3)cc1)C1=Cc2cc(S(F)(F)(F)(F)F)cc(Br)c2O[C@@H]1C(F)(F)F
REMARK SMILES IDX 5 1 4 2 3 3 1 4 2 5 58 7 59 8 74 9 60 10 73 11 61 12 72 13
REMARK SMILES IDX 62 14 70 15 69 16 71 17 75 18 76 19 77 20 78 21 63 22 64 23
REMARK SMILES IDX 65 24 66 25 67 26 68 27 6 28 7 29 8 30 9 32 10 33 11 34
REMARK SMILES IDX 57 35 12 36 56 37 13 38 14 39 15 40 50 41 16 42 55 43 49 44
REMARK SMILES IDX 51 45 17 46 54 47 48 48 47 49 18 51 40 52 25 53 39 54 26 55
REMARK SMILES IDX 29 56 38 57 52 58 27 59 28 60 37 62 53 63 30 64 19 65 20 66
REMARK SMILES IDX 24 67 21 68 23 69 22 70 41 71 42 72 46 73 43 74 45 75 44 76
REMARK SMILES IDX 31 77 32 78 36 79 33 80 35 81 34 82
REMARK H PARENT 3 6 7 31 51 50 29 61
REMARK Flexibility Score: inf
ROOT
ATOM      1  C   UNL A   1      33.712  27.804  25.441  1.00  0.00     0.042 C 
ENDROOT
BRANCH   1   2
ATOM      2  C   UNL A   1      33.526  26.305  25.609  1.00  0.00     0.118 C 
BRANCH   2   3
ATOM      3  N   UNL A   1      33.941  25.618  24.377  1.00  0.00    -0.352 N 
ATOM      4  O   UNL A   1      33.488  23.923  22.775  1.00  0.00    -0.270 OA
ATOM      5  C   UNL A   1      33.130  24.517  23.840  1.00  0.00     0.251 C 
ATOM      6  H   UNL A   1      34.763  25.897  23.911  1.00  0.00     0.163 HD
BRANCH   5   7
ATOM      7  C   UNL A   1      31.861  24.087  24.560  1.00  0.00     0.067 C 
ATOM      8  C   UNL A   1      31.758  22.826  25.061  1.00  0.00     0.025 C 
ATOM      9  C   UNL A   1      30.709  25.065  24.720  1.00  0.00     0.314 C 
ATOM     10  C   UNL A   1      32.911  21.847  24.902  1.00  0.00     0.020 A 
ATOM     11  O   UNL A   1      34.435  23.603  25.394  1.00  0.00    -0.474 OA
ATOM     12  C   UNL A   1      32.623  20.553  24.499  1.00  0.00     0.036 A 
ATOM     13  C   UNL A   1      34.158  22.234  25.141  1.00  0.00     0.142 A 
ATOM     14  C   UNL A   1      33.702  19.652  24.655  1.00  0.00     0.109 A 
ATOM     15  C   UNL A   1      35.184  21.321  25.143  1.00  0.00     0.062 A 
ATOM     16  C   UNL A   1      34.962  20.012  24.812  1.00  0.00     0.044 A 
ATOM     17  Br  UNL A   1      36.992  21.901  25.628  1.00  0.00    -0.047 Br
BRANCH   9  18
ATOM     18  C   UNL A   1      30.427  25.280  26.198  1.00  0.00     0.429 C 
ATOM     19  F   UNL A   1      31.380  24.697  26.920  1.00  0.00    -0.167 F 
ATOM     20  F   UNL A   1      30.407  26.584  26.460  1.00  0.00    -0.167 F 
ATOM     21  F   UNL A   1      29.248  24.747  26.507  1.00  0.00    -0.167 F 
ENDBRANCH   9  18
BRANCH  14  22
ATOM     22  S   UNL A   1      33.328  17.881  24.638  1.00  0.00     0.310 S 
ATOM     23  F   UNL A   1      31.857  18.137  24.101  1.00  0.00    -0.094 F 
ATOM     24  F   UNL A   1      32.745  18.018  26.095  1.00  0.00    -0.094 F 
ATOM     25  F   UNL A   1      33.004  16.360  24.621  1.00  0.00    -0.094 F 
ATOM     26  F   UNL A   1      33.786  17.791  23.129  1.00  0.00    -0.094 F 
ATOM     27  F   UNL A   1      33.557  19.445  24.600  1.00  0.00    -0.094 F 
ENDBRANCH  14  22
ENDBRANCH   5   7
ENDBRANCH   2   3
ENDBRANCH   1   2
BRANCH   1  28
ATOM     28  C   UNL A   1      34.450  28.361  26.648  1.00  0.00     0.118 C 
BRANCH  28  29
ATOM     29  N   UNL A   1      33.844  29.640  27.045  1.00  0.00    -0.352 N 
ATOM     30  C   UNL A   1      34.608  30.593  27.863  1.00  0.00     0.251 C 
ATOM     31  H   UNL A   1      32.926  29.859  26.764  1.00  0.00     0.163 HD
ATOM     32  O   UNL A   1      34.084  31.699  28.207  1.00  0.00    -0.269 OA
BRANCH  30  33
ATOM     33  C   UNL A   1      36.025  30.256  28.298  1.00  0.00     0.039 A 
ATOM     34  C   UNL A   1      37.065  30.417  27.397  1.00  0.00     0.014 A 
ATOM     35  C   UNL A   1      36.217  29.669  29.475  1.00  0.00     0.014 A 
ATOM     36  C   UNL A   1      38.218  29.660  27.712  1.00  0.00     0.010 A 
ATOM     37  C   UNL A   1      37.417  29.067  29.767  1.00  0.00     0.010 A 
ATOM     38  C   UNL A   1      38.469  29.135  28.897  1.00  0.00    -0.014 A 
BRANCH  38  39
ATOM     39  C   UNL A   1      39.853  28.633  29.273  1.00  0.00     0.031 A 
ATOM     40  C   UNL A   1      40.265  27.368  28.852  1.00  0.00     0.074 A 
ATOM     41  C   UNL A   1      40.683  29.551  29.894  1.00  0.00     0.049 A 
ATOM     42  N   UNL A   1      41.489  26.842  28.933  1.00  0.00    -0.248 NA
ATOM     43  C   UNL A   1      39.377  26.379  28.225  1.00  0.00     0.031 C 
ATOM     44  C   UNL A   1      40.278  30.832  30.315  1.00  0.00     0.029 A 
ATOM     45  N   UNL A   1      42.016  29.405  30.213  1.00  0.00    -0.354 N 
ATOM     46  C   UNL A   1      41.499  25.615  28.407  1.00  0.00     0.074 A 
ATOM     47  C   UNL A   1      40.140  25.297  27.950  1.00  0.00     0.031 C 
ATOM     48  C   UNL A   1      41.346  31.446  30.889  1.00  0.00     0.029 A 
ATOM     49  C   UNL A   1      42.437  30.558  30.837  1.00  0.00     0.049 A 
ATOM     50  H   UNL A   1      42.570  28.613  30.028  1.00  0.00     0.167 HD
ATOM     51  C   UNL A   1      42.588  24.751  28.290  1.00  0.00     0.031 A 
ATOM     52  C   UNL A   1      43.697  30.839  31.340  1.00  0.00     0.031 A 
ATOM     53  C   UNL A   1      43.859  25.048  28.755  1.00  0.00     0.049 A 
ATOM     54  C   UNL A   1      44.774  29.951  31.276  1.00  0.00     0.074 A 
ATOM     55  C   UNL A   1      44.970  24.191  28.638  1.00  0.00     0.029 A 
ATOM     56  N   UNL A   1      44.275  26.192  29.400  1.00  0.00    -0.354 N 
ATOM     57  N   UNL A   1      44.793  28.741  30.714  1.00  0.00    -0.248 NA
ATOM     58  C   UNL A   1      46.104  30.224  31.834  1.00  0.00     0.031 C 
ATOM     59  C   UNL A   1      46.039  24.804  29.213  1.00  0.00     0.029 A 
ATOM     60  C   UNL A   1      45.612  26.055  29.700  1.00  0.00     0.049 A 
ATOM     61  H   UNL A   1      43.713  26.973  29.611  1.00  0.00     0.167 HD
ATOM     62  C   UNL A   1      46.006  28.198  30.833  1.00  0.00     0.074 A 
ATOM     63  C   UNL A   1      46.865  29.142  31.561  1.00  0.00     0.031 C 
ATOM     64  C   UNL A   1      46.433  26.957  30.359  1.00  0.00     0.031 A 
BRANCH  51  65
ATOM     65  C   UNL A   1      42.368  23.406  27.615  1.00  0.00    -0.014 A 
ATOM     66  C   UNL A   1      42.625  23.260  26.262  1.00  0.00     0.009 A 
ATOM     67  C   UNL A   1      41.935  22.388  28.348  1.00  0.00     0.009 A 
ATOM     68  C   UNL A   1      42.115  22.062  25.707  1.00  0.00     0.001 A 
ATOM     69  C   UNL A   1      41.582  21.200  27.755  1.00  0.00     0.001 A 
ATOM     70  C   UNL A   1      41.753  21.006  26.412  1.00  0.00     0.000 A 
ENDBRANCH  51  65
BRANCH  52  71
ATOM     71  C   UNL A   1      43.922  32.190  32.001  1.00  0.00    -0.014 A 
ATOM     72  C   UNL A   1      43.692  32.342  33.359  1.00  0.00     0.009 A 
ATOM     73  C   UNL A   1      44.331  33.207  31.254  1.00  0.00     0.009 A 
ATOM     74  C   UNL A   1      43.645  33.690  33.784  1.00  0.00     0.001 A 
ATOM     75  C   UNL A   1      44.390  34.477  31.774  1.00  0.00     0.001 A 
ATOM     76  C   UNL A   1      44.119  34.711  33.093  1.00  0.00     0.000 A 
ENDBRANCH  52  71
BRANCH  64  77
ATOM     77  C   UNL A   1      47.886  26.569  30.581  1.00  0.00    -0.014 A 
ATOM     78  C   UNL A   1      48.782  26.762  29.542  1.00  0.00     0.009 A 
ATOM     79  C   UNL A   1      48.237  25.908  31.678  1.00  0.00     0.009 A 
ATOM     80  C   UNL A   1      49.946  25.962  29.633  1.00  0.00     0.001 A 
ATOM     81  C   UNL A   1      49.447  25.262  31.749  1.00  0.00     0.001 A 
ATOM     82  C   UNL A   1      50.357  25.360  30.734  1.00  0.00     0.000 A 
ENDBRANCH  64  77
ENDBRANCH  38  39
ENDBRANCH  30  33
ENDBRANCH  28  29
ENDBRANCH   1  28
TORSDOF 12
ENDMDL
MODEL 3
REMARK VINA RESULT:     -12.8      4.745      9.537
REMARK SMILES O=C(NCCCNC(=O)c1ccc(-c2c3nc(c(-c4ccccc4)c4ccc([nH]4)c(-c4ccccc4)c4nc(c(-c5ccccc5)c5ccc2[nH]5)C=C4)C=C3)cc1)C1=Cc2cc(S(F)(F)(F)(F)F)cc(Br)c2O[C@@H]1C(F)(F)F
REMARK SMILES IDX 5 1 4 2 3 3 1 4 2 5 58 7 59 8 74 9 60 10 73 11 61 12 72 13
REMARK SMILES IDX 62 14 70 15 69 16 71 17 75 18 76 19 77 20 78 21 63 22 64 23
REMARK SMILES IDX 65 24 66 25 67 26 68 27 6 28 7 29 8 30 9 32 10 33 11 34
REMARK SMILES IDX 57 35 12 36 56 37 13 38 14 39 15 40 50 41 16 42 55 43 49 44
REMARK SMILES IDX 51 45 17 46 54 47 48 48 47 49 18 51 40 52 25 53 39 54 26 55
REMARK SMILES IDX 29 56 38 57 52 58 27 59 28 60 37 62 53 63 30 64 19 65 20 66
REMARK SMILES IDX 24 67 21 68 23 69 22 70 41 71 42 72 46 73 43 74 45 75 44 76
REMARK SMILES IDX 31 77 32 78 36 79 33 80 35 81 34 82
REMARK H PARENT 3 6 7 31 51 50 29 61
REMARK Flexibility Score: inf
ROOT
ATOM      1  C   UNL A   1      38.478  22.876  26.216  1.00  0.00     0.042 C 
ENDROOT
BRANCH   1   2
ATOM      2  C   UNL A   1      37.296  23.762  25.859  1.00  0.00     0.118 C 
BRANCH   2   3
ATOM      3  N   UNL A   1      37.065  23.710  24.408  1.00  0.00    -0.352 N 
ATOM      4  O   UNL A   1      35.738  22.891  22.616  1.00  0.00    -0.270 OA
ATOM      5  C   UNL A   1      35.938  22.936  23.871  1.00  0.00     0.251 C 
ATOM      6  H   UNL A   1      37.665  24.196  23.797  1.00  0.00     0.163 HD
BRANCH   5   7
ATOM      7  C   UNL A   1      35.011  22.186  24.815  1.00  0.00     0.067 C 
ATOM      8  C   UNL A   1      33.962  22.832  25.394  1.00  0.00     0.025 C 
ATOM      9  C   UNL A   1      35.256  20.716  25.112  1.00  0.00     0.314 C 
ATOM     10  C   UNL A   1      33.718  24.303  25.096  1.00  0.00     0.020 A 
ATOM     11  O   UNL A   1      34.235  23.900  22.811  1.00  0.00    -0.474 OA
ATOM     12  C   UNL A   1      33.432  25.149  26.155  1.00  0.00     0.036 A 
ATOM     13  C   UNL A   1      33.783  24.757  23.850  1.00  0.00     0.142 A 
ATOM     14  C   UNL A   1      32.943  26.416  25.761  1.00  0.00     0.109 A 
ATOM     15  C   UNL A   1      33.419  26.048  23.557  1.00  0.00     0.062 A 
ATOM     16  C   UNL A   1      33.068  26.923  24.548  1.00  0.00     0.044 A 
ATOM     17  Br  UNL A   1      33.401  26.646  21.690  1.00  0.00    -0.047 Br
BRANCH   9  18
ATOM     18  C   UNL A   1      34.044  19.904  24.684  1.00  0.00     0.429 C 
ATOM     19  F   UNL A   1      33.392  20.552  23.724  1.00  0.00    -0.167 F 
ATOM     20  F   UNL A   1      34.442  18.719  24.229  1.00  0.00    -0.167 F 
ATOM     21  F   UNL A   1      33.237  19.730  25.728  1.00  0.00    -0.167 F 
ENDBRANCH   9  18
BRANCH  14  22
ATOM     22  S   UNL A   1      32.084  27.412  27.005  1.00  0.00     0.310 S 
ATOM     23  F   UNL A   1      31.808  28.578  25.965  1.00  0.00    -0.094 F 
ATOM     24  F   UNL A   1      33.449  28.125  27.337  1.00  0.00    -0.094 F 
ATOM     25  F   UNL A   1      31.345  28.270  28.070  1.00  0.00    -0.094 F 
ATOM     26  F   UNL A   1      30.703  26.788  26.561  1.00  0.00    -0.094 F 
ATOM     27  F   UNL A   1      32.801  26.616  25.841  1.00  0.00    -0.094 F 
ENDBRANCH  14  22
ENDBRANCH   5   7
ENDBRANCH   2   3
ENDBRANCH   1   2
BRANCH   1  28
ATOM     28  C   UNL A   1      39.563  23.718  26.870  1.00  0.00     0.118 C 
BRANCH  28  29
ATOM     29  N   UNL A   1      40.562  24.098  25.861  1.00  0.00    -0.352 N 
ATOM     30  C   UNL A   1      41.195  25.424  25.917  1.00  0.00     0.251 C 
ATOM     31  H   UNL A   1      40.809  23.466  25.148  1.00  0.00     0.163 HD
ATOM     32  O   UNL A   1      42.060  25.753  25.045  1.00  0.00    -0.269 OA
BRANCH  30  33
ATOM     33  C   UNL A   1      40.815  26.403  27.016  1.00  0.00     0.039 A 
ATOM     34  C   UNL A   1      41.458  27.628  27.081  1.00  0.00     0.014 A 
ATOM     35  C   UNL A   1      39.993  26.004  27.981  1.00  0.00     0.014 A 
ATOM     36  C   UNL A   1      41.392  28.243  28.354  1.00  0.00     0.010 A 
ATOM     37  C   UNL A   1      39.876  26.727  29.143  1.00  0.00     0.010 A 
ATOM     38  C   UNL A   1      40.530  27.918  29.299  1.00  0.00    -0.014 A 
BRANCH  38  39
ATOM     39  C   UNL A   1      40.277  28.818  30.497  1.00  0.00     0.031 A 
ATOM     40  C   UNL A   1      41.111  28.730  31.613  1.00  0.00     0.074 A 
ATOM     41  C   UNL A   1      39.307  29.791  30.330  1.00  0.00     0.049 A 
ATOM     42  N   UNL A   1      41.152  29.550  32.665  1.00  0.00    -0.248 NA
ATOM     43  C   UNL A   1      42.118  27.677  31.808  1.00  0.00     0.031 C 
ATOM     44  C   UNL A   1      38.468  29.893  29.204  1.00  0.00     0.029 A 
ATOM     45  N   UNL A   1      38.979  30.814  31.193  1.00  0.00    -0.354 N 
ATOM     46  C   UNL A   1      42.094  29.153  33.523  1.00  0.00     0.074 A 
ATOM     47  C   UNL A   1      42.725  27.939  32.987  1.00  0.00     0.031 C 
ATOM     48  C   UNL A   1      37.638  30.953  29.390  1.00  0.00     0.029 A 
ATOM     49  C   UNL A   1      37.944  31.532  30.635  1.00  0.00     0.049 A 
ATOM     50  H   UNL A   1      39.409  30.999  32.060  1.00  0.00     0.167 HD
ATOM     51  C   UNL A   1      42.453  29.756  34.729  1.00  0.00     0.031 A 
ATOM     52  C   UNL A   1      37.292  32.633  31.167  1.00  0.00     0.031 A 
ATOM     53  C   UNL A   1      41.829  30.883  35.240  1.00  0.00     0.049 A 
ATOM     54  C   UNL A   1      37.611  33.203  32.402  1.00  0.00     0.074 A 
ATOM     55  C   UNL A   1      42.183  31.508  36.451  1.00  0.00     0.029 A 
ATOM     56  N   UNL A   1      40.779  31.587  34.694  1.00  0.00    -0.354 N 
ATOM     57  N   UNL A   1      38.580  32.829  33.240  1.00  0.00    -0.248 NA
ATOM     58  C   UNL A   1      36.906  34.348  32.990  1.00  0.00     0.031 C 
ATOM     59  C   UNL A   1      41.353  32.568  36.638  1.00  0.00     0.029 A 
ATOM     60  C   UNL A   1      40.465  32.622  35.546  1.00  0.00     0.049 A 
ATOM     61  H   UNL A   1      40.330  31.384  33.841  1.00  0.00     0.167 HD
ATOM     62  C   UNL A   1      38.592  33.624  34.312  1.00  0.00     0.074 A 
ATOM     63  C   UNL A   1      37.511  34.608  34.169  1.00  0.00     0.031 C 
ATOM     64  C   UNL A   1      39.465  33.571  35.399  1.00  0.00     0.031 A 
BRANCH  51  65
ATOM     65  C   UNL A   1      43.593  29.143  35.527  1.00  0.00    -0.014 A 
ATOM     66  C   UNL A   1      44.899  29.532  35.282  1.00  0.00     0.009 A 
ATOM     67  C   UNL A   1      43.306  28.241  36.458  1.00  0.00     0.009 A 
ATOM     68  C   UNL A   1      45.869  28.693  35.878  1.00  0.00     0.001 A 
ATOM     69  C   UNL A   1      44.309  27.554  37.099  1.00  0.00     0.001 A 
ATOM     70  C   UNL A   1      45.624  27.845  36.861  1.00  0.00     0.000 A 
ENDBRANCH  51  65
BRANCH  52  71
ATOM     71  C   UNL A   1      36.163  33.256  30.361  1.00  0.00    -0.014 A 
ATOM     72  C   UNL A   1      34.850  32.888  30.611  1.00  0.00     0.009 A 
ATOM     73  C   UNL A   1      36.462  34.143  29.422  1.00  0.00     0.009 A 
ATOM     74  C   UNL A   1      33.940  33.302  29.611  1.00  0.00     0.001 A 
ATOM     75  C   UNL A   1      35.494  34.608  28.564  1.00  0.00     0.001 A 
ATOM     76  C   UNL A   1      34.186  34.241  28.715  1.00  0.00     0.000 A 
ENDBRANCH  52  71
BRANCH  64  77
ATOM     77  C   UNL A   1      39.309  34.618  36.491  1.00  0.00    -0.014 A 
ATOM     78  C   UNL A   1      39.949  35.835  36.329  1.00  0.00     0.009 A 
ATOM     79  C   UNL A   1      38.718  34.298  37.637  1.00  0.00     0.009 A 
ATOM     80  C   UNL A   1      40.164  36.536  37.540  1.00  0.00     0.001 A 
ATOM     81  C   UNL A   1      38.858  35.100  38.744  1.00  0.00     0.001 A 
ATOM     82  C   UNL A   1      39.529  36.288  38.671  1.00  0.00     0.000 A 
ENDBRANCH  64  77
ENDBRANCH  38  39
ENDBRANCH  30  33
ENDBRANCH  28  29
ENDBRANCH   1  28
TORSDOF 12
ENDMDL
