MODEL 1
REMARK VINA RESULT:     -12.1      0.000      0.000
REMARK SMILES N#Cc1cccnc1N1CC[NH+]([C@@H](C(=O)NCCCNC(=O)c2ccc(-c3c4nc(c(-c5ccccc5)c5ccc([nH]5)c(-c5ccccc5)c5nc(c(-c6ccccc6)c6ccc3[nH]6)C=C5)C=C4)cc2)c2c[nH]c3cc(CO)ccc23)CC1
REMARK SMILES IDX 17 1 16 2 14 3 15 4 13 6 12 7 9 8 10 9 83 10 11 11 82 12
REMARK SMILES IDX 8 14 3 15 4 16 5 17 7 18 6 19 2 20 1 21 71 22 72 23 81 24
REMARK SMILES IDX 73 25 74 26 80 27 75 29 79 30 76 31 77 32 78 33 18 35 19 36
REMARK SMILES IDX 20 37 21 38 22 40 23 41 24 42 70 43 25 44 69 45 26 46 27 47
REMARK SMILES IDX 28 48 63 49 29 50 68 51 62 52 64 53 30 54 67 55 61 56 60 57
REMARK SMILES IDX 31 59 53 60 38 61 52 62 39 63 42 64 51 65 65 66 40 67 41 68
REMARK SMILES IDX 50 70 66 71 43 72 32 73 33 74 37 75 34 76 36 77 35 78 54 79
REMARK SMILES IDX 55 80 59 81 56 82 58 83 57 84 44 85 45 86 49 87 46 88 48 89
REMARK SMILES IDX 47 90
REMARK H PARENT 16 5 12 13 73 28 78 34 20 39 64 58 42 69
REMARK Flexibility Score: inf
ROOT
ATOM      1  C   UNL A   1      31.923  29.905  25.463  1.00  0.00     0.118 C 
ENDROOT
BRANCH   1   2
ATOM      2  N   UNL A   1      31.381  28.693  26.083  1.00  0.00    -0.351 N 
ATOM      3  C   UNL A   1      31.305  27.346  25.805  1.00  0.00     0.283 C 
ATOM      4  O   UNL A   1      30.849  26.697  26.756  1.00  0.00    -0.268 OA
ATOM      5  H   UNL A   1      30.950  28.900  26.942  1.00  0.00     0.163 HD
BRANCH   3   6
ATOM      6  C   UNL A   1      31.790  26.661  24.482  1.00  0.00     0.307 C 
BRANCH   6   7
ATOM      7  N   UNL A   1      33.286  26.403  24.328  1.00  0.00    -0.318 N 
ATOM      8  N   UNL A   1      34.024  23.529  24.423  1.00  0.00    -0.344 N 
ATOM      9  C   UNL A   1      33.653  24.269  25.634  1.00  0.00     0.179 C 
ATOM     10  C   UNL A   1      33.566  24.136  23.166  1.00  0.00     0.179 C 
ATOM     11  C   UNL A   1      34.026  25.740  25.424  1.00  0.00     0.284 C 
ATOM     12  C   UNL A   1      33.724  25.687  23.129  1.00  0.00     0.284 C 
ATOM     13  H   UNL A   1      33.519  27.395  24.299  1.00  0.00     0.349 HD
BRANCH   8  14
ATOM     14  C   UNL A   1      33.815  22.148  24.503  1.00  0.00     0.146 A 
ATOM     15  C   UNL A   1      34.869  21.272  24.777  1.00  0.00     0.095 A 
ATOM     16  C   UNL A   1      34.608  19.901  24.863  1.00  0.00     0.025 A 
ATOM     17  C   UNL A   1      33.322  19.427  24.623  1.00  0.00     0.022 A 
ATOM     18  N   UNL A   1      32.558  21.682  24.291  1.00  0.00    -0.238 NA
ATOM     19  C   UNL A   1      32.338  20.351  24.340  1.00  0.00     0.113 A 
BRANCH  15  20
ATOM     20  C   UNL A   1      36.210  21.750  24.972  1.00  0.00     0.103 C 
ATOM     21  N   UNL A   1      37.275  22.173  25.088  1.00  0.00    -0.192 NA
ENDBRANCH  15  20
ENDBRANCH   8  14
ENDBRANCH   6   7
BRANCH   6  22
ATOM     22  C   UNL A   1      31.280  27.325  23.154  1.00  0.00     0.044 A 
ATOM     23  C   UNL A   1      32.085  27.814  22.128  1.00  0.00     0.094 A 
ATOM     24  C   UNL A   1      30.020  27.965  22.859  1.00  0.00     0.009 A 
ATOM     25  N   UNL A   1      31.681  29.130  21.999  1.00  0.00    -0.361 N 
ATOM     26  C   UNL A   1      30.390  29.254  22.463  1.00  0.00     0.046 A 
ATOM     27  C   UNL A   1      28.657  27.732  23.104  1.00  0.00     0.011 A 
ATOM     28  H   UNL A   1      32.228  29.862  21.634  1.00  0.00     0.166 HD
ATOM     29  C   UNL A   1      29.577  30.374  22.701  1.00  0.00     0.032 A 
ATOM     30  C   UNL A   1      27.782  28.821  23.187  1.00  0.00     0.007 A 
ATOM     31  C   UNL A   1      28.272  30.132  23.159  1.00  0.00    -0.021 A 
BRANCH  31  32
ATOM     32  C   UNL A   1      27.415  31.258  23.680  1.00  0.00     0.191 C 
BRANCH  32  33
ATOM     33  O   UNL A   1      27.607  32.451  22.915  1.00  0.00    -0.392 OA
ATOM     34  H   UNL A   1      28.141  33.079  23.426  1.00  0.00     0.211 HD
ENDBRANCH  32  33
ENDBRANCH  31  32
ENDBRANCH   6  22
ENDBRANCH   3   6
ENDBRANCH   1   2
BRANCH   1  35
ATOM     35  C   UNL A   1      31.531  31.268  26.115  1.00  0.00     0.042 C 
BRANCH  35  36
ATOM     36  C   UNL A   1      32.265  31.714  27.399  1.00  0.00     0.118 C 
BRANCH  36  37
ATOM     37  N   UNL A   1      32.227  33.153  27.581  1.00  0.00    -0.352 N 
ATOM     38  C   UNL A   1      33.066  33.996  28.272  1.00  0.00     0.251 C 
ATOM     39  H   UNL A   1      31.473  33.603  27.136  1.00  0.00     0.163 HD
ATOM     40  O   UNL A   1      32.708  35.159  28.453  1.00  0.00    -0.269 OA
BRANCH  38  41
ATOM     41  C   UNL A   1      34.392  33.572  28.800  1.00  0.00     0.039 A 
ATOM     42  C   UNL A   1      35.517  33.736  27.977  1.00  0.00     0.014 A 
ATOM     43  C   UNL A   1      34.529  32.867  29.997  1.00  0.00     0.014 A 
ATOM     44  C   UNL A   1      36.768  33.227  28.360  1.00  0.00     0.010 A 
ATOM     45  C   UNL A   1      35.786  32.370  30.379  1.00  0.00     0.010 A 
ATOM     46  C   UNL A   1      36.927  32.547  29.576  1.00  0.00    -0.014 A 
BRANCH  46  47
ATOM     47  C   UNL A   1      38.263  32.020  29.999  1.00  0.00     0.031 A 
ATOM     48  C   UNL A   1      38.789  30.703  29.480  1.00  0.00     0.074 A 
ATOM     49  C   UNL A   1      39.016  32.709  30.884  1.00  0.00     0.049 A 
ATOM     50  N   UNL A   1      39.912  30.086  29.768  1.00  0.00    -0.248 NA
ATOM     51  C   UNL A   1      37.936  29.976  28.531  1.00  0.00     0.031 C 
ATOM     52  C   UNL A   1      38.643  33.983  31.499  1.00  0.00     0.029 A 
ATOM     53  N   UNL A   1      40.255  32.434  31.418  1.00  0.00    -0.354 N 
ATOM     54  C   UNL A   1      39.892  28.896  29.047  1.00  0.00     0.074 A 
ATOM     55  C   UNL A   1      38.625  28.858  28.347  1.00  0.00     0.031 C 
ATOM     56  C   UNL A   1      39.640  34.394  32.299  1.00  0.00     0.029 A 
ATOM     57  C   UNL A   1      40.707  33.398  32.291  1.00  0.00     0.049 A 
ATOM     58  H   UNL A   1      40.770  31.625  31.198  1.00  0.00     0.167 HD
ATOM     59  C   UNL A   1      40.842  27.932  28.956  1.00  0.00     0.031 A 
ATOM     60  C   UNL A   1      41.843  33.475  33.014  1.00  0.00     0.031 A 
ATOM     61  C   UNL A   1      42.112  27.959  29.636  1.00  0.00     0.049 A 
ATOM     62  C   UNL A   1      42.867  32.376  32.922  1.00  0.00     0.074 A 
ATOM     63  C   UNL A   1      43.151  27.044  29.558  1.00  0.00     0.029 A 
ATOM     64  N   UNL A   1      42.521  28.947  30.516  1.00  0.00    -0.354 N 
ATOM     65  N   UNL A   1      42.852  31.288  32.191  1.00  0.00    -0.248 NA
ATOM     66  C   UNL A   1      44.074  32.523  33.752  1.00  0.00     0.031 C 
ATOM     67  C   UNL A   1      44.161  27.448  30.437  1.00  0.00     0.029 A 
ATOM     68  C   UNL A   1      43.781  28.649  31.012  1.00  0.00     0.049 A 
ATOM     69  H   UNL A   1      41.994  29.743  30.755  1.00  0.00     0.167 HD
ATOM     70  C   UNL A   1      44.053  30.639  32.450  1.00  0.00     0.074 A 
ATOM     71  C   UNL A   1      44.782  31.461  33.392  1.00  0.00     0.031 C 
ATOM     72  C   UNL A   1      44.509  29.466  31.948  1.00  0.00     0.031 A 
BRANCH  59  73
ATOM     73  C   UNL A   1      40.537  26.736  28.090  1.00  0.00    -0.014 A 
ATOM     74  C   UNL A   1      41.008  26.653  26.770  1.00  0.00     0.009 A 
ATOM     75  C   UNL A   1      39.808  25.658  28.617  1.00  0.00     0.009 A 
ATOM     76  C   UNL A   1      40.719  25.535  25.984  1.00  0.00     0.001 A 
ATOM     77  C   UNL A   1      39.548  24.528  27.840  1.00  0.00     0.001 A 
ATOM     78  C   UNL A   1      39.992  24.472  26.520  1.00  0.00     0.000 A 
ENDBRANCH  59  73
BRANCH  60  79
ATOM     79  C   UNL A   1      42.087  34.648  33.899  1.00  0.00    -0.014 A 
ATOM     80  C   UNL A   1      41.683  34.624  35.243  1.00  0.00     0.009 A 
ATOM     81  C   UNL A   1      42.704  35.805  33.398  1.00  0.00     0.009 A 
ATOM     82  C   UNL A   1      41.869  35.742  36.060  1.00  0.00     0.001 A 
ATOM     83  C   UNL A   1      42.918  36.910  34.225  1.00  0.00     0.001 A 
ATOM     84  C   UNL A   1      42.490  36.882  35.552  1.00  0.00     0.000 A 
ENDBRANCH  60  79
BRANCH  72  85
ATOM     85  C   UNL A   1      45.881  29.014  32.371  1.00  0.00    -0.014 A 
ATOM     86  C   UNL A   1      47.037  29.462  31.711  1.00  0.00     0.009 A 
ATOM     87  C   UNL A   1      46.020  28.156  33.473  1.00  0.00     0.009 A 
ATOM     88  C   UNL A   1      48.300  29.033  32.128  1.00  0.00     0.001 A 
ATOM     89  C   UNL A   1      47.285  27.753  33.906  1.00  0.00     0.001 A 
ATOM     90  C   UNL A   1      48.423  28.184  33.227  1.00  0.00     0.000 A 
ENDBRANCH  72  85
ENDBRANCH  46  47
ENDBRANCH  38  41
ENDBRANCH  36  37
ENDBRANCH  35  36
ENDBRANCH   1  35
TORSDOF 16
ENDMDL
MODEL 2
REMARK VINA RESULT:     -12.1      0.238      5.594
REMARK SMILES N#Cc1cccnc1N1CC[NH+]([C@@H](C(=O)NCCCNC(=O)c2ccc(-c3c4nc(c(-c5ccccc5)c5ccc([nH]5)c(-c5ccccc5)c5nc(c(-c6ccccc6)c6ccc3[nH]6)C=C5)C=C4)cc2)c2c[nH]c3cc(CO)ccc23)CC1
REMARK SMILES IDX 17 1 16 2 14 3 15 4 13 6 12 7 9 8 10 9 83 10 11 11 82 12
REMARK SMILES IDX 8 14 3 15 4 16 5 17 7 18 6 19 2 20 1 21 71 22 72 23 81 24
REMARK SMILES IDX 73 25 74 26 80 27 75 29 79 30 76 31 77 32 78 33 18 35 19 36
REMARK SMILES IDX 20 37 21 38 22 40 23 41 24 42 70 43 25 44 69 45 26 46 27 47
REMARK SMILES IDX 28 48 63 49 29 50 68 51 62 52 64 53 30 54 67 55 61 56 60 57
REMARK SMILES IDX 31 59 53 60 38 61 52 62 39 63 42 64 51 65 65 66 40 67 41 68
REMARK SMILES IDX 50 70 66 71 43 72 32 73 33 74 37 75 34 76 36 77 35 78 54 79
REMARK SMILES IDX 55 80 59 81 56 82 58 83 57 84 44 85 45 86 49 87 46 88 48 89
REMARK SMILES IDX 47 90
REMARK H PARENT 16 5 12 13 73 28 78 34 20 39 64 58 42 69
REMARK Flexibility Score: inf
ROOT
ATOM      1  C   UNL A   1      31.917  30.039  25.416  1.00  0.00     0.118 C 
ENDROOT
BRANCH   1   2
ATOM      2  N   UNL A   1      31.400  28.836  26.074  1.00  0.00    -0.351 N 
ATOM      3  C   UNL A   1      31.333  27.482  25.830  1.00  0.00     0.283 C 
ATOM      4  O   UNL A   1      30.900  26.852  26.804  1.00  0.00    -0.268 OA
ATOM      5  H   UNL A   1      30.980  29.060  26.935  1.00  0.00     0.163 HD
BRANCH   3   6
ATOM      6  C   UNL A   1      31.803  26.771  24.516  1.00  0.00     0.307 C 
BRANCH   6   7
ATOM      7  N   UNL A   1      33.296  26.497  24.357  1.00  0.00    -0.318 N 
ATOM      8  N   UNL A   1      34.015  23.622  24.529  1.00  0.00    -0.344 N 
ATOM      9  C   UNL A   1      33.660  24.400  25.721  1.00  0.00     0.179 C 
ATOM     10  C   UNL A   1      33.550  24.196  23.260  1.00  0.00     0.179 C 
ATOM     11  C   UNL A   1      34.042  25.861  25.466  1.00  0.00     0.284 C 
ATOM     12  C   UNL A   1      33.719  25.744  23.175  1.00  0.00     0.284 C 
ATOM     13  H   UNL A   1      33.536  27.487  24.297  1.00  0.00     0.349 HD
BRANCH   8  14
ATOM     14  C   UNL A   1      33.798  22.246  24.651  1.00  0.00     0.146 A 
ATOM     15  C   UNL A   1      34.867  21.350  24.756  1.00  0.00     0.095 A 
ATOM     16  C   UNL A   1      34.598  19.985  24.892  1.00  0.00     0.025 A 
ATOM     17  C   UNL A   1      33.283  19.535  24.869  1.00  0.00     0.022 A 
ATOM     18  N   UNL A   1      32.515  21.802  24.651  1.00  0.00    -0.238 NA
ATOM     19  C   UNL A   1      32.283  20.475  24.744  1.00  0.00     0.113 A 
BRANCH  15  20
ATOM     20  C   UNL A   1      36.230  21.804  24.726  1.00  0.00     0.103 C 
ATOM     21  N   UNL A   1      37.321  22.172  24.761  1.00  0.00    -0.192 NA
ENDBRANCH  15  20
ENDBRANCH   8  14
ENDBRANCH   6   7
BRANCH   6  22
ATOM     22  C   UNL A   1      31.290  27.415  23.180  1.00  0.00     0.044 A 
ATOM     23  C   UNL A   1      32.092  27.915  22.158  1.00  0.00     0.094 A 
ATOM     24  C   UNL A   1      30.018  28.025  22.871  1.00  0.00     0.009 A 
ATOM     25  N   UNL A   1      31.661  29.221  22.017  1.00  0.00    -0.361 N 
ATOM     26  C   UNL A   1      30.364  29.320  22.470  1.00  0.00     0.046 A 
ATOM     27  C   UNL A   1      28.659  27.764  23.107  1.00  0.00     0.011 A 
ATOM     28  H   UNL A   1      32.195  29.963  21.652  1.00  0.00     0.166 HD
ATOM     29  C   UNL A   1      29.525  30.423  22.694  1.00  0.00     0.032 A 
ATOM     30  C   UNL A   1      27.760  28.834  23.176  1.00  0.00     0.007 A 
ATOM     31  C   UNL A   1      28.222  30.155  23.144  1.00  0.00    -0.021 A 
BRANCH  31  32
ATOM     32  C   UNL A   1      27.336  31.266  23.651  1.00  0.00     0.191 C 
BRANCH  32  33
ATOM     33  O   UNL A   1      27.716  32.526  23.092  1.00  0.00    -0.392 OA
ATOM     34  H   UNL A   1      26.921  33.012  22.820  1.00  0.00     0.211 HD
ENDBRANCH  32  33
ENDBRANCH  31  32
ENDBRANCH   6  22
ENDBRANCH   3   6
ENDBRANCH   1   2
BRANCH   1  35
ATOM     35  C   UNL A   1      31.541  31.412  26.054  1.00  0.00     0.042 C 
BRANCH  35  36
ATOM     36  C   UNL A   1      32.185  31.804  27.402  1.00  0.00     0.118 C 
BRANCH  36  37
ATOM     37  N   UNL A   1      32.188  33.240  27.612  1.00  0.00    -0.352 N 
ATOM     38  C   UNL A   1      33.054  34.047  28.313  1.00  0.00     0.251 C 
ATOM     39  H   UNL A   1      31.444  33.719  27.180  1.00  0.00     0.163 HD
ATOM     40  O   UNL A   1      32.730  35.215  28.518  1.00  0.00    -0.269 OA
BRANCH  38  41
ATOM     41  C   UNL A   1      34.371  33.576  28.823  1.00  0.00     0.039 A 
ATOM     42  C   UNL A   1      35.493  33.712  27.991  1.00  0.00     0.014 A 
ATOM     43  C   UNL A   1      34.498  32.857  30.012  1.00  0.00     0.014 A 
ATOM     44  C   UNL A   1      36.732  33.162  28.356  1.00  0.00     0.010 A 
ATOM     45  C   UNL A   1      35.743  32.316  30.378  1.00  0.00     0.010 A 
ATOM     46  C   UNL A   1      36.881  32.465  29.564  1.00  0.00    -0.014 A 
BRANCH  46  47
ATOM     47  C   UNL A   1      38.203  31.893  29.970  1.00  0.00     0.031 A 
ATOM     48  C   UNL A   1      39.120  32.629  30.918  1.00  0.00     0.074 A 
ATOM     49  C   UNL A   1      38.614  30.708  29.468  1.00  0.00     0.049 A 
ATOM     50  N   UNL A   1      40.314  32.291  31.349  1.00  0.00    -0.248 NA
ATOM     51  C   UNL A   1      38.646  33.921  31.432  1.00  0.00     0.031 C 
ATOM     52  C   UNL A   1      37.861  29.884  28.523  1.00  0.00     0.029 A 
ATOM     53  N   UNL A   1      39.769  29.990  29.684  1.00  0.00    -0.354 N 
ATOM     54  C   UNL A   1      40.735  33.330  32.171  1.00  0.00     0.074 A 
ATOM     55  C   UNL A   1      39.689  34.332  32.139  1.00  0.00     0.031 C 
ATOM     56  C   UNL A   1      38.554  28.763  28.267  1.00  0.00     0.029 A 
ATOM     57  C   UNL A   1      39.820  28.803  28.991  1.00  0.00     0.049 A 
ATOM     58  H   UNL A   1      40.491  30.297  30.279  1.00  0.00     0.167 HD
ATOM     59  C   UNL A   1      41.873  33.441  32.901  1.00  0.00     0.031 A 
ATOM     60  C   UNL A   1      40.777  27.853  28.931  1.00  0.00     0.031 A 
ATOM     61  C   UNL A   1      42.918  32.450  32.955  1.00  0.00     0.049 A 
ATOM     62  C   UNL A   1      42.045  28.013  29.725  1.00  0.00     0.074 A 
ATOM     63  C   UNL A   1      44.081  32.464  33.709  1.00  0.00     0.029 A 
ATOM     64  N   UNL A   1      42.931  31.270  32.228  1.00  0.00    -0.354 N 
ATOM     65  N   UNL A   1      42.396  28.979  30.538  1.00  0.00    -0.248 NA
ATOM     66  C   UNL A   1      43.047  26.943  29.596  1.00  0.00     0.031 C 
ATOM     67  C   UNL A   1      44.825  31.322  33.393  1.00  0.00     0.029 A 
ATOM     68  C   UNL A   1      44.095  30.565  32.493  1.00  0.00     0.049 A 
ATOM     69  H   UNL A   1      42.220  30.977  31.615  1.00  0.00     0.167 HD
ATOM     70  C   UNL A   1      43.642  28.619  31.039  1.00  0.00     0.074 A 
ATOM     71  C   UNL A   1      43.979  27.340  30.452  1.00  0.00     0.031 C 
ATOM     72  C   UNL A   1      44.432  29.292  31.911  1.00  0.00     0.031 A 
BRANCH  59  73
ATOM     73  C   UNL A   1      42.062  34.702  33.706  1.00  0.00    -0.014 A 
ATOM     74  C   UNL A   1      41.611  34.795  35.032  1.00  0.00     0.009 A 
ATOM     75  C   UNL A   1      42.743  35.794  33.144  1.00  0.00     0.009 A 
ATOM     76  C   UNL A   1      41.800  35.971  35.763  1.00  0.00     0.001 A 
ATOM     77  C   UNL A   1      42.958  36.956  33.888  1.00  0.00     0.001 A 
ATOM     78  C   UNL A   1      42.476  37.048  35.192  1.00  0.00     0.000 A 
ENDBRANCH  59  73
BRANCH  60  79
ATOM     79  C   UNL A   1      40.575  26.644  28.084  1.00  0.00    -0.014 A 
ATOM     80  C   UNL A   1      39.884  25.529  28.585  1.00  0.00     0.009 A 
ATOM     81  C   UNL A   1      41.090  26.591  26.780  1.00  0.00     0.009 A 
ATOM     82  C   UNL A   1      39.736  24.378  27.807  1.00  0.00     0.001 A 
ATOM     83  C   UNL A   1      40.913  25.451  25.993  1.00  0.00     0.001 A 
ATOM     84  C   UNL A   1      40.246  24.341  26.510  1.00  0.00     0.000 A 
ENDBRANCH  60  79
BRANCH  72  85
ATOM     85  C   UNL A   1      45.726  28.641  32.321  1.00  0.00    -0.014 A 
ATOM     86  C   UNL A   1      46.930  28.914  31.651  1.00  0.00     0.009 A 
ATOM     87  C   UNL A   1      45.747  27.770  33.422  1.00  0.00     0.009 A 
ATOM     88  C   UNL A   1      48.119  28.303  32.056  1.00  0.00     0.001 A 
ATOM     89  C   UNL A   1      46.943  27.184  33.843  1.00  0.00     0.001 A 
ATOM     90  C   UNL A   1      48.125  27.443  33.154  1.00  0.00     0.000 A 
ENDBRANCH  72  85
ENDBRANCH  46  47
ENDBRANCH  38  41
ENDBRANCH  36  37
ENDBRANCH  35  36
ENDBRANCH   1  35
TORSDOF 16
ENDMDL
MODEL 3
REMARK VINA RESULT:     -11.5      2.310      8.280
REMARK SMILES N#Cc1cccnc1N1CC[NH+]([C@@H](C(=O)NCCCNC(=O)c2ccc(-c3c4nc(c(-c5ccccc5)c5ccc([nH]5)c(-c5ccccc5)c5nc(c(-c6ccccc6)c6ccc3[nH]6)C=C5)C=C4)cc2)c2c[nH]c3cc(CO)ccc23)CC1
REMARK SMILES IDX 17 1 16 2 14 3 15 4 13 6 12 7 9 8 10 9 83 10 11 11 82 12
REMARK SMILES IDX 8 14 3 15 4 16 5 17 7 18 6 19 2 20 1 21 71 22 72 23 81 24
REMARK SMILES IDX 73 25 74 26 80 27 75 29 79 30 76 31 77 32 78 33 18 35 19 36
REMARK SMILES IDX 20 37 21 38 22 40 23 41 24 42 70 43 25 44 69 45 26 46 27 47
REMARK SMILES IDX 28 48 63 49 29 50 68 51 62 52 64 53 30 54 67 55 61 56 60 57
REMARK SMILES IDX 31 59 53 60 38 61 52 62 39 63 42 64 51 65 65 66 40 67 41 68
REMARK SMILES IDX 50 70 66 71 43 72 32 73 33 74 37 75 34 76 36 77 35 78 54 79
REMARK SMILES IDX 55 80 59 81 56 82 58 83 57 84 44 85 45 86 49 87 46 88 48 89
REMARK SMILES IDX 47 90
REMARK H PARENT 16 5 12 13 73 28 78 34 20 39 64 58 42 69
REMARK Flexibility Score: inf
ROOT
ATOM      1  C   UNL A   1      35.294  22.247  23.950  1.00  0.00     0.118 C 
ENDROOT
BRANCH   1   2
ATOM      2  N   UNL A   1      34.584  22.873  22.831  1.00  0.00    -0.351 N 
ATOM      3  C   UNL A   1      33.438  23.610  22.629  1.00  0.00     0.283 C 
ATOM      4  O   UNL A   1      33.354  24.034  21.468  1.00  0.00    -0.268 OA
ATOM      5  H   UNL A   1      35.061  22.724  21.984  1.00  0.00     0.163 HD
BRANCH   3   6
ATOM      6  C   UNL A   1      32.373  23.955  23.725  1.00  0.00     0.307 C 
BRANCH   6   7
ATOM      7  N   UNL A   1      32.784  24.928  24.826  1.00  0.00    -0.318 N 
ATOM      8  N   UNL A   1      31.536  27.611  24.587  1.00  0.00    -0.344 N 
ATOM      9  C   UNL A   1      32.629  27.189  23.705  1.00  0.00     0.179 C 
ATOM     10  C   UNL A   1      30.812  26.511  25.238  1.00  0.00     0.179 C 
ATOM     11  C   UNL A   1      33.491  26.177  24.468  1.00  0.00     0.284 C 
ATOM     12  C   UNL A   1      31.742  25.371  25.755  1.00  0.00     0.284 C 
ATOM     13  H   UNL A   1      33.434  24.269  25.254  1.00  0.00     0.349 HD
BRANCH   8  14
ATOM     14  C   UNL A   1      30.710  28.603  24.049  1.00  0.00     0.146 A 
ATOM     15  C   UNL A   1      30.728  29.909  24.547  1.00  0.00     0.095 A 
ATOM     16  C   UNL A   1      29.895  30.870  23.965  1.00  0.00     0.025 A 
ATOM     17  C   UNL A   1      29.028  30.503  22.942  1.00  0.00     0.022 A 
ATOM     18  N   UNL A   1      29.876  28.256  23.035  1.00  0.00    -0.238 NA
ATOM     19  C   UNL A   1      29.054  29.192  22.516  1.00  0.00     0.113 A 
BRANCH  15  20
ATOM     20  C   UNL A   1      31.583  30.282  25.641  1.00  0.00     0.103 C 
ATOM     21  N   UNL A   1      32.279  30.524  26.525  1.00  0.00    -0.192 NA
ENDBRANCH  15  20
ENDBRANCH   8  14
ENDBRANCH   6   7
BRANCH   6  22
ATOM     22  C   UNL A   1      31.685  22.721  24.408  1.00  0.00     0.044 A 
ATOM     23  C   UNL A   1      31.075  22.721  25.659  1.00  0.00     0.094 A 
ATOM     24  C   UNL A   1      31.874  21.308  24.181  1.00  0.00     0.009 A 
ATOM     25  N   UNL A   1      31.736  21.716  26.342  1.00  0.00    -0.361 N 
ATOM     26  C   UNL A   1      32.259  20.822  25.435  1.00  0.00     0.046 A 
ATOM     27  C   UNL A   1      32.019  20.445  23.082  1.00  0.00     0.011 A 
ATOM     28  H   UNL A   1      31.821  21.651  27.320  1.00  0.00     0.166 HD
ATOM     29  C   UNL A   1      33.133  19.733  25.581  1.00  0.00     0.032 A 
ATOM     30  C   UNL A   1      32.752  19.263  23.234  1.00  0.00     0.007 A 
ATOM     31  C   UNL A   1      33.444  19.003  24.423  1.00  0.00    -0.021 A 
BRANCH  31  32
ATOM     32  C   UNL A   1      34.558  17.985  24.427  1.00  0.00     0.191 C 
BRANCH  32  33
ATOM     33  O   UNL A   1      34.370  17.017  25.462  1.00  0.00    -0.392 OA
ATOM     34  H   UNL A   1      34.054  16.186  25.073  1.00  0.00     0.211 HD
ENDBRANCH  32  33
ENDBRANCH  31  32
ENDBRANCH   6  22
ENDBRANCH   3   6
ENDBRANCH   1   2
BRANCH   1  35
ATOM     35  C   UNL A   1      35.706  23.176  25.134  1.00  0.00     0.042 C 
BRANCH  35  36
ATOM     36  C   UNL A   1      37.150  23.723  25.181  1.00  0.00     0.118 C 
BRANCH  36  37
ATOM     37  N   UNL A   1      38.112  22.705  25.562  1.00  0.00    -0.352 N 
ATOM     38  C   UNL A   1      39.335  22.807  26.180  1.00  0.00     0.251 C 
ATOM     39  H   UNL A   1      37.843  21.784  25.340  1.00  0.00     0.163 HD
ATOM     40  O   UNL A   1      40.061  21.815  26.211  1.00  0.00    -0.269 OA
BRANCH  38  41
ATOM     41  C   UNL A   1      39.819  24.059  26.825  1.00  0.00     0.039 A 
ATOM     42  C   UNL A   1      39.438  24.312  28.151  1.00  0.00     0.014 A 
ATOM     43  C   UNL A   1      40.483  25.059  26.112  1.00  0.00     0.014 A 
ATOM     44  C   UNL A   1      39.742  25.537  28.766  1.00  0.00     0.010 A 
ATOM     45  C   UNL A   1      40.793  26.279  26.736  1.00  0.00     0.010 A 
ATOM     46  C   UNL A   1      40.439  26.537  28.072  1.00  0.00    -0.014 A 
BRANCH  46  47
ATOM     47  C   UNL A   1      40.784  27.837  28.729  1.00  0.00     0.031 A 
ATOM     48  C   UNL A   1      39.759  28.935  28.885  1.00  0.00     0.074 A 
ATOM     49  C   UNL A   1      42.040  28.063  29.173  1.00  0.00     0.049 A 
ATOM     50  N   UNL A   1      39.899  30.134  29.402  1.00  0.00    -0.248 NA
ATOM     51  C   UNL A   1      38.408  28.660  28.378  1.00  0.00     0.031 C 
ATOM     52  C   UNL A   1      43.152  27.117  29.075  1.00  0.00     0.029 A 
ATOM     53  N   UNL A   1      42.592  29.159  29.796  1.00  0.00    -0.354 N 
ATOM     54  C   UNL A   1      38.662  30.757  29.270  1.00  0.00     0.074 A 
ATOM     55  C   UNL A   1      37.799  29.820  28.581  1.00  0.00     0.031 C 
ATOM     56  C   UNL A   1      44.241  27.659  29.646  1.00  0.00     0.029 A 
ATOM     57  C   UNL A   1      43.922  29.004  30.112  1.00  0.00     0.049 A 
ATOM     58  H   UNL A   1      42.083  29.978  29.998  1.00  0.00     0.167 HD
ATOM     59  C   UNL A   1      38.268  31.984  29.695  1.00  0.00     0.031 A 
ATOM     60  C   UNL A   1      44.796  29.847  30.701  1.00  0.00     0.031 A 
ATOM     61  C   UNL A   1      39.109  32.924  30.392  1.00  0.00     0.049 A 
ATOM     62  C   UNL A   1      44.344  31.215  31.134  1.00  0.00     0.074 A 
ATOM     63  C   UNL A   1      38.773  34.169  30.900  1.00  0.00     0.029 A 
ATOM     64  N   UNL A   1      40.450  32.729  30.679  1.00  0.00    -0.354 N 
ATOM     65  N   UNL A   1      43.156  31.760  31.049  1.00  0.00    -0.248 NA
ATOM     66  C   UNL A   1      45.359  32.083  31.755  1.00  0.00     0.031 C 
ATOM     67  C   UNL A   1      39.924  34.750  31.441  1.00  0.00     0.029 A 
ATOM     68  C   UNL A   1      40.962  33.841  31.329  1.00  0.00     0.049 A 
ATOM     69  H   UNL A   1      40.964  31.920  30.455  1.00  0.00     0.167 HD
ATOM     70  C   UNL A   1      43.272  33.018  31.630  1.00  0.00     0.074 A 
ATOM     71  C   UNL A   1      44.642  33.150  32.078  1.00  0.00     0.031 C 
ATOM     72  C   UNL A   1      42.324  33.975  31.778  1.00  0.00     0.031 A 
BRANCH  59  73
ATOM     73  C   UNL A   1      36.848  32.397  29.403  1.00  0.00    -0.014 A 
ATOM     74  C   UNL A   1      35.816  32.163  30.326  1.00  0.00     0.009 A 
ATOM     75  C   UNL A   1      36.548  33.072  28.209  1.00  0.00     0.009 A 
ATOM     76  C   UNL A   1      34.507  32.557  30.040  1.00  0.00     0.001 A 
ATOM     77  C   UNL A   1      35.244  33.494  27.940  1.00  0.00     0.001 A 
ATOM     78  C   UNL A   1      34.223  33.225  28.850  1.00  0.00     0.000 A 
ENDBRANCH  59  73
BRANCH  60  79
ATOM     79  C   UNL A   1      46.206  29.421  30.926  1.00  0.00    -0.014 A 
ATOM     80  C   UNL A   1      46.583  28.815  32.135  1.00  0.00     0.009 A 
ATOM     81  C   UNL A   1      47.184  29.638  29.943  1.00  0.00     0.009 A 
ATOM     82  C   UNL A   1      47.915  28.459  32.364  1.00  0.00     0.001 A 
ATOM     83  C   UNL A   1      48.508  29.251  30.162  1.00  0.00     0.001 A 
ATOM     84  C   UNL A   1      48.875  28.672  31.377  1.00  0.00     0.000 A 
ENDBRANCH  60  79
BRANCH  72  85
ATOM     85  C   UNL A   1      42.718  35.240  32.492  1.00  0.00    -0.014 A 
ATOM     86  C   UNL A   1      42.472  35.415  33.863  1.00  0.00     0.009 A 
ATOM     87  C   UNL A   1      43.382  36.257  31.788  1.00  0.00     0.009 A 
ATOM     88  C   UNL A   1      42.854  36.596  34.504  1.00  0.00     0.001 A 
ATOM     89  C   UNL A   1      43.789  37.424  32.438  1.00  0.00     0.001 A 
ATOM     90  C   UNL A   1      43.516  37.596  33.793  1.00  0.00     0.000 A 
ENDBRANCH  72  85
ENDBRANCH  46  47
ENDBRANCH  38  41
ENDBRANCH  36  37
ENDBRANCH  35  36
ENDBRANCH   1  35
TORSDOF 16
ENDMDL
