MODEL 1
REMARK VINA RESULT:     -11.9      0.000      0.000
REMARK SMILES O=C(Nc1cccc(F)c1)N[C@@H]1C=C[C@@H](C(=O)NCCCNC(=O)c2ccc(-c3c4nc(c(-c5ccccc5)c5ccc([nH]5)c(-c5ccccc5)c5nc(c(-c6ccccc6)c6ccc3[nH]6)C=C5)C=C4)cc2)C1
REMARK SMILES IDX 20 1 19 2 18 3 16 4 17 5 15 7 12 8 13 9 73 10 14 11 11 12
REMARK SMILES IDX 1 13 2 14 3 15 4 18 5 19 10 20 6 21 8 22 7 23 9 24 21 25
REMARK SMILES IDX 22 26 23 27 24 29 25 30 26 31 72 32 27 33 71 34 28 35 29 36
REMARK SMILES IDX 30 37 65 38 31 39 70 40 64 41 66 42 32 43 69 44 63 45 62 46
REMARK SMILES IDX 33 48 55 49 40 50 54 51 41 52 44 53 53 54 67 55 42 56 43 57
REMARK SMILES IDX 52 59 68 60 45 61 34 62 35 63 39 64 36 65 38 66 37 67 56 68
REMARK SMILES IDX 57 69 61 70 58 71 60 72 59 73 46 74 47 75 51 76 48 77 50 78
REMARK SMILES IDX 49 79
REMARK H PARENT 18 6 3 16 11 17 22 28 66 47 44 58
REMARK Flexibility Score: inf
ROOT
ATOM      1  C   UNL A   1      37.523  19.978  24.907  1.00  0.00     0.042 C 
ENDROOT
BRANCH   1   2
ATOM      2  C   UNL A   1      36.306  20.891  25.007  1.00  0.00     0.117 C 
BRANCH   2   3
ATOM      3  N   UNL A   1      35.061  20.155  24.897  1.00  0.00    -0.356 N 
ATOM      4  C   UNL A   1      33.779  20.573  24.712  1.00  0.00     0.227 C 
ATOM      5  O   UNL A   1      32.916  19.692  24.647  1.00  0.00    -0.274 OA
ATOM      6  H   UNL A   1      35.162  19.178  24.969  1.00  0.00     0.163 HD
BRANCH   4   7
ATOM      7  C   UNL A   1      33.397  22.047  24.594  1.00  0.00     0.103 C 
ATOM      8  C   UNL A   1      32.298  23.452  22.919  1.00  0.00     0.107 C 
ATOM      9  C   UNL A   1      31.375  23.115  24.039  1.00  0.00    -0.006 C 
ATOM     10  C   UNL A   1      33.566  22.630  23.185  1.00  0.00     0.047 C 
ATOM     11  C   UNL A   1      31.966  22.331  24.949  1.00  0.00    -0.016 C 
BRANCH   8  12
ATOM     12  N   UNL A   1      32.493  24.879  22.842  1.00  0.00    -0.332 N 
ATOM     13  O   UNL A   1      33.279  25.044  20.693  1.00  0.00    -0.248 OA
ATOM     14  C   UNL A   1      32.966  25.563  21.759  1.00  0.00     0.319 C 
ATOM     15  N   UNL A   1      32.935  26.926  21.856  1.00  0.00    -0.308 N 
ATOM     16  H   UNL A   1      32.960  27.404  20.996  1.00  0.00     0.171 HD
ATOM     17  H   UNL A   1      32.265  25.407  23.641  1.00  0.00     0.165 HD
BRANCH  15  18
ATOM     18  C   UNL A   1      32.872  27.750  22.989  1.00  0.00     0.045 A 
ATOM     19  C   UNL A   1      33.941  27.882  23.883  1.00  0.00     0.026 A 
ATOM     20  C   UNL A   1      31.706  28.486  23.196  1.00  0.00     0.065 A 
ATOM     21  C   UNL A   1      33.824  28.698  25.010  1.00  0.00     0.005 A 
ATOM     22  C   UNL A   1      31.591  29.276  24.333  1.00  0.00     0.125 A 
ATOM     23  C   UNL A   1      32.635  29.386  25.244  1.00  0.00     0.039 A 
ATOM     24  F   UNL A   1      30.447  29.934  24.561  1.00  0.00    -0.207 F 
ENDBRANCH  15  18
ENDBRANCH   8  12
ENDBRANCH   4   7
ENDBRANCH   2   3
ENDBRANCH   1   2
BRANCH   1  25
ATOM     25  C   UNL A   1      38.730  20.477  25.690  1.00  0.00     0.118 C 
BRANCH  25  26
ATOM     26  N   UNL A   1      39.797  19.486  25.759  1.00  0.00    -0.352 N 
ATOM     27  C   UNL A   1      41.129  19.643  26.047  1.00  0.00     0.251 C 
ATOM     28  H   UNL A   1      39.518  18.561  25.568  1.00  0.00     0.163 HD
ATOM     29  O   UNL A   1      41.911  18.716  25.848  1.00  0.00    -0.269 OA
BRANCH  27  30
ATOM     30  C   UNL A   1      41.631  20.930  26.572  1.00  0.00     0.039 A 
ATOM     31  C   UNL A   1      42.187  21.852  25.681  1.00  0.00     0.014 A 
ATOM     32  C   UNL A   1      41.557  21.228  27.935  1.00  0.00     0.014 A 
ATOM     33  C   UNL A   1      42.589  23.106  26.146  1.00  0.00     0.010 A 
ATOM     34  C   UNL A   1      41.877  22.505  28.381  1.00  0.00     0.010 A 
ATOM     35  C   UNL A   1      42.391  23.459  27.491  1.00  0.00    -0.014 A 
BRANCH  35  36
ATOM     36  C   UNL A   1      42.686  24.827  27.984  1.00  0.00     0.031 A 
ATOM     37  C   UNL A   1      44.075  25.191  28.428  1.00  0.00     0.074 A 
ATOM     38  C   UNL A   1      41.682  25.718  28.109  1.00  0.00     0.049 A 
ATOM     39  N   UNL A   1      44.502  26.302  28.974  1.00  0.00    -0.248 NA
ATOM     40  C   UNL A   1      45.117  24.165  28.259  1.00  0.00     0.031 C 
ATOM     41  C   UNL A   1      40.284  25.478  27.744  1.00  0.00     0.029 A 
ATOM     42  N   UNL A   1      41.681  27.003  28.593  1.00  0.00    -0.354 N 
ATOM     43  C   UNL A   1      45.853  26.102  29.228  1.00  0.00     0.074 A 
ATOM     44  C   UNL A   1      46.165  24.749  28.823  1.00  0.00     0.031 C 
ATOM     45  C   UNL A   1      39.568  26.586  27.993  1.00  0.00     0.029 A 
ATOM     46  C   UNL A   1      40.440  27.593  28.586  1.00  0.00     0.049 A 
ATOM     47  H   UNL A   1      42.493  27.457  28.915  1.00  0.00     0.167 HD
ATOM     48  C   UNL A   1      46.757  26.972  29.739  1.00  0.00     0.031 A 
ATOM     49  C   UNL A   1      40.043  28.803  29.023  1.00  0.00     0.031 A 
ATOM     50  C   UNL A   1      46.445  28.317  30.142  1.00  0.00     0.049 A 
ATOM     51  C   UNL A   1      41.058  29.733  29.629  1.00  0.00     0.074 A 
ATOM     52  C   UNL A   1      47.303  29.293  30.618  1.00  0.00     0.029 A 
ATOM     53  N   UNL A   1      45.175  28.872  30.126  1.00  0.00    -0.354 N 
ATOM     54  N   UNL A   1      42.346  29.555  29.795  1.00  0.00    -0.248 NA
ATOM     55  C   UNL A   1      40.563  31.033  30.106  1.00  0.00     0.031 C 
ATOM     56  C   UNL A   1      46.541  30.417  30.951  1.00  0.00     0.029 A 
ATOM     57  C   UNL A   1      45.220  30.166  30.620  1.00  0.00     0.049 A 
ATOM     58  H   UNL A   1      44.363  28.416  29.810  1.00  0.00     0.167 HD
ATOM     59  C   UNL A   1      42.819  30.725  30.372  1.00  0.00     0.074 A 
ATOM     60  C   UNL A   1      41.684  31.614  30.510  1.00  0.00     0.031 C 
ATOM     61  C   UNL A   1      44.081  31.037  30.754  1.00  0.00     0.031 A 
BRANCH  48  62
ATOM     62  C   UNL A   1      48.171  26.487  29.905  1.00  0.00    -0.014 A 
ATOM     63  C   UNL A   1      49.130  26.673  28.897  1.00  0.00     0.009 A 
ATOM     64  C   UNL A   1      48.562  25.872  31.106  1.00  0.00     0.009 A 
ATOM     65  C   UNL A   1      50.440  26.221  29.073  1.00  0.00     0.001 A 
ATOM     66  C   UNL A   1      49.879  25.450  31.291  1.00  0.00     0.001 A 
ATOM     67  C   UNL A   1      50.814  25.615  30.271  1.00  0.00     0.000 A 
ENDBRANCH  48  62
BRANCH  49  68
ATOM     68  C   UNL A   1      38.617  29.205  28.912  1.00  0.00    -0.014 A 
ATOM     69  C   UNL A   1      37.752  29.080  30.011  1.00  0.00     0.009 A 
ATOM     70  C   UNL A   1      38.106  29.706  27.703  1.00  0.00     0.009 A 
ATOM     71  C   UNL A   1      36.404  29.424  29.895  1.00  0.00     0.001 A 
ATOM     72  C   UNL A   1      36.764  30.080  27.600  1.00  0.00     0.001 A 
ATOM     73  C   UNL A   1      35.912  29.928  28.692  1.00  0.00     0.000 A 
ENDBRANCH  49  68
BRANCH  61  74
ATOM     74  C   UNL A   1      44.311  32.405  31.333  1.00  0.00    -0.014 A 
ATOM     75  C   UNL A   1      44.595  33.506  30.509  1.00  0.00     0.009 A 
ATOM     76  C   UNL A   1      44.184  32.604  32.717  1.00  0.00     0.009 A 
ATOM     77  C   UNL A   1      44.773  34.775  31.066  1.00  0.00     0.001 A 
ATOM     78  C   UNL A   1      44.331  33.879  33.265  1.00  0.00     0.001 A 
ATOM     79  C   UNL A   1      44.632  34.961  32.441  1.00  0.00     0.000 A 
ENDBRANCH  61  74
ENDBRANCH  35  36
ENDBRANCH  27  30
ENDBRANCH  25  26
ENDBRANCH   1  25
TORSDOF 12
ENDMDL
MODEL 2
REMARK VINA RESULT:     -11.8      0.420      6.019
REMARK SMILES O=C(Nc1cccc(F)c1)N[C@@H]1C=C[C@@H](C(=O)NCCCNC(=O)c2ccc(-c3c4nc(c(-c5ccccc5)c5ccc([nH]5)c(-c5ccccc5)c5nc(c(-c6ccccc6)c6ccc3[nH]6)C=C5)C=C4)cc2)C1
REMARK SMILES IDX 20 1 19 2 18 3 16 4 17 5 15 7 12 8 13 9 73 10 14 11 11 12
REMARK SMILES IDX 1 13 2 14 3 15 4 18 5 19 10 20 6 21 8 22 7 23 9 24 21 25
REMARK SMILES IDX 22 26 23 27 24 29 25 30 26 31 72 32 27 33 71 34 28 35 29 36
REMARK SMILES IDX 30 37 65 38 31 39 70 40 64 41 66 42 32 43 69 44 63 45 62 46
REMARK SMILES IDX 33 48 55 49 40 50 54 51 41 52 44 53 53 54 67 55 42 56 43 57
REMARK SMILES IDX 52 59 68 60 45 61 34 62 35 63 39 64 36 65 38 66 37 67 56 68
REMARK SMILES IDX 57 69 61 70 58 71 60 72 59 73 46 74 47 75 51 76 48 77 50 78
REMARK SMILES IDX 49 79
REMARK H PARENT 18 6 3 16 11 17 22 28 66 47 44 58
REMARK Flexibility Score: inf
ROOT
ATOM      1  C   UNL A   1      37.394  20.349  24.916  1.00  0.00     0.042 C 
ENDROOT
BRANCH   1   2
ATOM      2  C   UNL A   1      36.117  21.066  25.341  1.00  0.00     0.117 C 
BRANCH   2   3
ATOM      3  N   UNL A   1      34.929  20.301  25.016  1.00  0.00    -0.356 N 
ATOM      4  C   UNL A   1      33.679  20.691  24.642  1.00  0.00     0.227 C 
ATOM      5  O   UNL A   1      32.865  19.791  24.416  1.00  0.00    -0.274 OA
ATOM      6  H   UNL A   1      35.047  19.325  25.075  1.00  0.00     0.163 HD
BRANCH   4   7
ATOM      7  C   UNL A   1      33.275  22.158  24.506  1.00  0.00     0.103 C 
ATOM      8  C   UNL A   1      32.253  23.550  22.772  1.00  0.00     0.107 C 
ATOM      9  C   UNL A   1      31.270  23.187  23.831  1.00  0.00    -0.006 C 
ATOM     10  C   UNL A   1      33.518  22.752  23.113  1.00  0.00     0.047 C 
ATOM     11  C   UNL A   1      31.819  22.411  24.773  1.00  0.00    -0.016 C 
BRANCH   8  12
ATOM     12  N   UNL A   1      32.423  24.980  22.713  1.00  0.00    -0.332 N 
ATOM     13  O   UNL A   1      33.201  25.186  20.564  1.00  0.00    -0.248 OA
ATOM     14  C   UNL A   1      32.882  25.686  21.637  1.00  0.00     0.319 C 
ATOM     15  N   UNL A   1      32.827  27.047  21.752  1.00  0.00    -0.308 N 
ATOM     16  H   UNL A   1      32.842  27.536  20.897  1.00  0.00     0.171 HD
ATOM     17  H   UNL A   1      32.188  25.494  23.519  1.00  0.00     0.165 HD
BRANCH  15  18
ATOM     18  C   UNL A   1      32.753  27.856  22.895  1.00  0.00     0.045 A 
ATOM     19  C   UNL A   1      33.816  27.980  23.798  1.00  0.00     0.026 A 
ATOM     20  C   UNL A   1      31.582  28.583  23.104  1.00  0.00     0.065 A 
ATOM     21  C   UNL A   1      33.687  28.781  24.934  1.00  0.00     0.005 A 
ATOM     22  C   UNL A   1      31.456  29.357  24.251  1.00  0.00     0.125 A 
ATOM     23  C   UNL A   1      32.494  29.459  25.170  1.00  0.00     0.039 A 
ATOM     24  F   UNL A   1      30.307  30.006  24.481  1.00  0.00    -0.207 F 
ENDBRANCH  15  18
ENDBRANCH   8  12
ENDBRANCH   4   7
ENDBRANCH   2   3
ENDBRANCH   1   2
BRANCH   1  25
ATOM     25  C   UNL A   1      38.617  20.738  25.736  1.00  0.00     0.118 C 
BRANCH  25  26
ATOM     26  N   UNL A   1      39.640  19.699  25.737  1.00  0.00    -0.352 N 
ATOM     27  C   UNL A   1      40.981  19.781  26.014  1.00  0.00     0.251 C 
ATOM     28  H   UNL A   1      39.318  18.799  25.502  1.00  0.00     0.163 HD
ATOM     29  O   UNL A   1      41.718  18.833  25.755  1.00  0.00    -0.269 OA
BRANCH  27  30
ATOM     30  C   UNL A   1      41.546  21.015  26.598  1.00  0.00     0.039 A 
ATOM     31  C   UNL A   1      42.116  21.967  25.749  1.00  0.00     0.014 A 
ATOM     32  C   UNL A   1      41.518  21.234  27.978  1.00  0.00     0.014 A 
ATOM     33  C   UNL A   1      42.579  23.174  26.275  1.00  0.00     0.010 A 
ATOM     34  C   UNL A   1      41.900  22.470  28.489  1.00  0.00     0.010 A 
ATOM     35  C   UNL A   1      42.428  23.455  27.643  1.00  0.00    -0.014 A 
BRANCH  35  36
ATOM     36  C   UNL A   1      42.789  24.779  28.206  1.00  0.00     0.031 A 
ATOM     37  C   UNL A   1      41.734  25.832  28.405  1.00  0.00     0.074 A 
ATOM     38  C   UNL A   1      44.082  25.062  28.460  1.00  0.00     0.049 A 
ATOM     39  N   UNL A   1      41.872  27.075  28.794  1.00  0.00    -0.248 NA
ATOM     40  C   UNL A   1      40.346  25.447  28.105  1.00  0.00     0.031 C 
ATOM     41  C   UNL A   1      45.204  24.139  28.280  1.00  0.00     0.029 A 
ATOM     42  N   UNL A   1      44.673  26.216  28.914  1.00  0.00    -0.354 N 
ATOM     43  C   UNL A   1      40.596  27.622  28.768  1.00  0.00     0.074 A 
ATOM     44  C   UNL A   1      39.704  26.593  28.281  1.00  0.00     0.031 C 
ATOM     45  C   UNL A   1      46.342  24.752  28.641  1.00  0.00     0.029 A 
ATOM     46  C   UNL A   1      46.040  26.127  29.026  1.00  0.00     0.049 A 
ATOM     47  H   UNL A   1      44.165  27.029  29.136  1.00  0.00     0.167 HD
ATOM     48  C   UNL A   1      40.199  28.864  29.134  1.00  0.00     0.031 A 
ATOM     49  C   UNL A   1      46.951  27.052  29.381  1.00  0.00     0.031 A 
ATOM     50  C   UNL A   1      41.088  29.886  29.619  1.00  0.00     0.049 A 
ATOM     51  C   UNL A   1      46.489  28.438  29.737  1.00  0.00     0.074 A 
ATOM     52  C   UNL A   1      40.774  31.157  30.067  1.00  0.00     0.029 A 
ATOM     53  N   UNL A   1      42.465  29.757  29.709  1.00  0.00    -0.354 N 
ATOM     54  N   UNL A   1      45.270  28.917  29.778  1.00  0.00    -0.248 NA
ATOM     55  C   UNL A   1      47.531  29.410  30.099  1.00  0.00     0.031 C 
ATOM     56  C   UNL A   1      41.968  31.820  30.367  1.00  0.00     0.029 A 
ATOM     57  C   UNL A   1      43.020  30.940  30.170  1.00  0.00     0.049 A 
ATOM     58  H   UNL A   1      42.973  28.946  29.480  1.00  0.00     0.167 HD
ATOM     59  C   UNL A   1      45.395  30.236  30.192  1.00  0.00     0.074 A 
ATOM     60  C   UNL A   1      46.807  30.476  30.408  1.00  0.00     0.031 C 
ATOM     61  C   UNL A   1      44.427  31.166  30.377  1.00  0.00     0.031 A 
BRANCH  48  62
ATOM     62  C   UNL A   1      38.736  29.192  29.008  1.00  0.00    -0.014 A 
ATOM     63  C   UNL A   1      37.862  29.060  30.098  1.00  0.00     0.009 A 
ATOM     64  C   UNL A   1      38.233  29.681  27.792  1.00  0.00     0.009 A 
ATOM     65  C   UNL A   1      36.508  29.375  29.962  1.00  0.00     0.001 A 
ATOM     66  C   UNL A   1      36.886  30.025  27.667  1.00  0.00     0.001 A 
ATOM     67  C   UNL A   1      36.023  29.862  28.749  1.00  0.00     0.000 A 
ENDBRANCH  48  62
BRANCH  49  68
ATOM     68  C   UNL A   1      48.395  26.701  29.411  1.00  0.00    -0.014 A 
ATOM     69  C   UNL A   1      49.204  26.909  28.283  1.00  0.00     0.009 A 
ATOM     70  C   UNL A   1      48.975  26.147  30.565  1.00  0.00     0.009 A 
ATOM     71  C   UNL A   1      50.553  26.547  28.299  1.00  0.00     0.001 A 
ATOM     72  C   UNL A   1      50.331  25.816  30.589  1.00  0.00     0.001 A 
ATOM     73  C   UNL A   1      51.116  26.006  29.454  1.00  0.00     0.000 A 
ENDBRANCH  49  68
BRANCH  61  74
ATOM     74  C   UNL A   1      44.854  32.523  30.862  1.00  0.00    -0.014 A 
ATOM     75  C   UNL A   1      45.140  33.561  29.961  1.00  0.00     0.009 A 
ATOM     76  C   UNL A   1      44.914  32.781  32.241  1.00  0.00     0.009 A 
ATOM     77  C   UNL A   1      45.503  34.824  30.434  1.00  0.00     0.001 A 
ATOM     78  C   UNL A   1      45.247  34.053  32.709  1.00  0.00     0.001 A 
ATOM     79  C   UNL A   1      45.548  35.070  31.806  1.00  0.00     0.000 A 
ENDBRANCH  61  74
ENDBRANCH  35  36
ENDBRANCH  27  30
ENDBRANCH  25  26
ENDBRANCH   1  25
TORSDOF 12
ENDMDL
MODEL 3
REMARK VINA RESULT:     -11.6      1.373      6.118
REMARK SMILES O=C(Nc1cccc(F)c1)N[C@@H]1C=C[C@@H](C(=O)NCCCNC(=O)c2ccc(-c3c4nc(c(-c5ccccc5)c5ccc([nH]5)c(-c5ccccc5)c5nc(c(-c6ccccc6)c6ccc3[nH]6)C=C5)C=C4)cc2)C1
REMARK SMILES IDX 20 1 19 2 18 3 16 4 17 5 15 7 12 8 13 9 73 10 14 11 11 12
REMARK SMILES IDX 1 13 2 14 3 15 4 18 5 19 10 20 6 21 8 22 7 23 9 24 21 25
REMARK SMILES IDX 22 26 23 27 24 29 25 30 26 31 72 32 27 33 71 34 28 35 29 36
REMARK SMILES IDX 30 37 65 38 31 39 70 40 64 41 66 42 32 43 69 44 63 45 62 46
REMARK SMILES IDX 33 48 55 49 40 50 54 51 41 52 44 53 53 54 67 55 42 56 43 57
REMARK SMILES IDX 52 59 68 60 45 61 34 62 35 63 39 64 36 65 38 66 37 67 56 68
REMARK SMILES IDX 57 69 61 70 58 71 60 72 59 73 46 74 47 75 51 76 48 77 50 78
REMARK SMILES IDX 49 79
REMARK H PARENT 18 6 3 16 11 17 22 28 66 47 44 58
REMARK Flexibility Score: inf
ROOT
ATOM      1  C   UNL A   1      37.824  20.012  24.883  1.00  0.00     0.042 C 
ENDROOT
BRANCH   1   2
ATOM      2  C   UNL A   1      36.565  20.822  25.171  1.00  0.00     0.117 C 
BRANCH   2   3
ATOM      3  N   UNL A   1      35.357  20.058  24.926  1.00  0.00    -0.356 N 
ATOM      4  C   UNL A   1      34.062  20.445  24.762  1.00  0.00     0.227 C 
ATOM      5  O   UNL A   1      33.241  19.548  24.552  1.00  0.00    -0.274 OA
ATOM      6  H   UNL A   1      35.499  19.085  24.867  1.00  0.00     0.163 HD
BRANCH   4   7
ATOM      7  C   UNL A   1      33.618  21.905  24.834  1.00  0.00     0.103 C 
ATOM      8  C   UNL A   1      32.725  23.554  23.262  1.00  0.00     0.107 C 
ATOM      9  C   UNL A   1      31.654  22.994  24.134  1.00  0.00    -0.006 C 
ATOM     10  C   UNL A   1      33.979  22.735  23.596  1.00  0.00     0.047 C 
ATOM     11  C   UNL A   1      32.134  22.078  24.984  1.00  0.00    -0.016 C 
BRANCH   8  12
ATOM     12  N   UNL A   1      32.846  24.976  23.466  1.00  0.00    -0.332 N 
ATOM     13  O   UNL A   1      33.600  25.597  21.390  1.00  0.00    -0.248 OA
ATOM     14  C   UNL A   1      33.272  25.882  22.537  1.00  0.00     0.319 C 
ATOM     15  N   UNL A   1      33.172  27.197  22.898  1.00  0.00    -0.308 N 
ATOM     16  H   UNL A   1      33.163  27.834  22.147  1.00  0.00     0.171 HD
ATOM     17  H   UNL A   1      32.599  25.326  24.352  1.00  0.00     0.165 HD
BRANCH  15  18
ATOM     18  C   UNL A   1      33.078  27.780  24.169  1.00  0.00     0.045 A 
ATOM     19  C   UNL A   1      33.849  27.346  25.254  1.00  0.00     0.026 A 
ATOM     20  C   UNL A   1      32.204  28.855  24.330  1.00  0.00     0.065 A 
ATOM     21  C   UNL A   1      33.705  27.944  26.507  1.00  0.00     0.005 A 
ATOM     22  C   UNL A   1      32.051  29.427  25.588  1.00  0.00     0.125 A 
ATOM     23  C   UNL A   1      32.788  28.979  26.678  1.00  0.00     0.039 A 
ATOM     24  F   UNL A   1      31.167  30.418  25.754  1.00  0.00    -0.207 F 
ENDBRANCH  15  18
ENDBRANCH   8  12
ENDBRANCH   4   7
ENDBRANCH   2   3
ENDBRANCH   1   2
BRANCH   1  25
ATOM     25  C   UNL A   1      38.999  20.363  25.785  1.00  0.00     0.118 C 
BRANCH  25  26
ATOM     26  N   UNL A   1      39.974  19.283  25.874  1.00  0.00    -0.352 N 
ATOM     27  C   UNL A   1      41.328  19.332  26.093  1.00  0.00     0.251 C 
ATOM     28  H   UNL A   1      39.604  18.378  25.759  1.00  0.00     0.163 HD
ATOM     29  O   UNL A   1      42.012  18.326  25.923  1.00  0.00    -0.269 OA
BRANCH  27  30
ATOM     30  C   UNL A   1      41.970  20.597  26.507  1.00  0.00     0.039 A 
ATOM     31  C   UNL A   1      42.525  21.426  25.529  1.00  0.00     0.014 A 
ATOM     32  C   UNL A   1      42.027  20.966  27.854  1.00  0.00     0.014 A 
ATOM     33  C   UNL A   1      43.060  22.663  25.893  1.00  0.00     0.010 A 
ATOM     34  C   UNL A   1      42.482  22.233  28.204  1.00  0.00     0.010 A 
ATOM     35  C   UNL A   1      42.997  23.097  27.227  1.00  0.00    -0.014 A 
BRANCH  35  36
ATOM     36  C   UNL A   1      43.437  24.458  27.621  1.00  0.00     0.031 A 
ATOM     37  C   UNL A   1      42.423  25.514  27.962  1.00  0.00     0.074 A 
ATOM     38  C   UNL A   1      44.749  24.766  27.589  1.00  0.00     0.049 A 
ATOM     39  N   UNL A   1      42.611  26.781  28.235  1.00  0.00    -0.248 NA
ATOM     40  C   UNL A   1      41.011  25.100  27.974  1.00  0.00     0.031 C 
ATOM     41  C   UNL A   1      45.830  23.841  27.244  1.00  0.00     0.029 A 
ATOM     42  N   UNL A   1      45.395  25.952  27.840  1.00  0.00    -0.354 N 
ATOM     43  C   UNL A   1      41.345  27.316  28.434  1.00  0.00     0.074 A 
ATOM     44  C   UNL A   1      40.394  26.251  28.204  1.00  0.00     0.031 C 
ATOM     45  C   UNL A   1      47.005  24.485  27.328  1.00  0.00     0.029 A 
ATOM     46  C   UNL A   1      46.758  25.880  27.678  1.00  0.00     0.049 A 
ATOM     47  H   UNL A   1      44.927  26.774  28.109  1.00  0.00     0.167 HD
ATOM     48  C   UNL A   1      41.005  28.577  28.793  1.00  0.00     0.031 A 
ATOM     49  C   UNL A   1      47.704  26.833  27.782  1.00  0.00     0.031 A 
ATOM     50  C   UNL A   1      41.952  29.634  29.022  1.00  0.00     0.049 A 
ATOM     51  C   UNL A   1      47.295  28.236  28.136  1.00  0.00     0.074 A 
ATOM     52  C   UNL A   1      41.709  30.931  29.443  1.00  0.00     0.029 A 
ATOM     53  N   UNL A   1      43.322  29.522  28.839  1.00  0.00    -0.354 N 
ATOM     54  N   UNL A   1      46.099  28.708  28.392  1.00  0.00    -0.248 NA
ATOM     55  C   UNL A   1      48.369  29.237  28.217  1.00  0.00     0.031 C 
ATOM     56  C   UNL A   1      42.925  31.620  29.452  1.00  0.00     0.029 A 
ATOM     57  C   UNL A   1      43.934  30.737  29.103  1.00  0.00     0.049 A 
ATOM     58  H   UNL A   1      43.790  28.701  28.564  1.00  0.00     0.167 HD
ATOM     59  C   UNL A   1      46.279  30.052  28.688  1.00  0.00     0.074 A 
ATOM     60  C   UNL A   1      47.699  30.317  28.598  1.00  0.00     0.031 C 
ATOM     61  C   UNL A   1      45.349  30.985  29.006  1.00  0.00     0.031 A 
BRANCH  48  62
ATOM     62  C   UNL A   1      39.540  28.885  28.945  1.00  0.00    -0.014 A 
ATOM     63  C   UNL A   1      38.783  29.381  27.871  1.00  0.00     0.009 A 
ATOM     64  C   UNL A   1      38.898  28.636  30.168  1.00  0.00     0.009 A 
ATOM     65  C   UNL A   1      37.424  29.656  28.031  1.00  0.00     0.001 A 
ATOM     66  C   UNL A   1      37.532  28.882  30.316  1.00  0.00     0.001 A 
ATOM     67  C   UNL A   1      36.799  29.401  29.251  1.00  0.00     0.000 A 
ENDBRANCH  48  62
BRANCH  49  68
ATOM     68  C   UNL A   1      49.131  26.495  27.541  1.00  0.00    -0.014 A 
ATOM     69  C   UNL A   1      49.697  26.656  26.267  1.00  0.00     0.009 A 
ATOM     70  C   UNL A   1      49.936  26.000  28.581  1.00  0.00     0.009 A 
ATOM     71  C   UNL A   1      51.029  26.306  26.033  1.00  0.00     0.001 A 
ATOM     72  C   UNL A   1      51.276  25.680  28.351  1.00  0.00     0.001 A 
ATOM     73  C   UNL A   1      51.818  25.824  27.076  1.00  0.00     0.000 A 
ENDBRANCH  49  68
BRANCH  61  74
ATOM     74  C   UNL A   1      45.838  32.374  29.307  1.00  0.00    -0.014 A 
ATOM     75  C   UNL A   1      45.918  33.352  28.303  1.00  0.00     0.009 A 
ATOM     76  C   UNL A   1      46.166  32.725  30.627  1.00  0.00     0.009 A 
ATOM     77  C   UNL A   1      46.343  34.646  28.611  1.00  0.00     0.001 A 
ATOM     78  C   UNL A   1      46.560  34.027  30.936  1.00  0.00     0.001 A 
ATOM     79  C   UNL A   1      46.655  34.984  29.928  1.00  0.00     0.000 A 
ENDBRANCH  61  74
ENDBRANCH  35  36
ENDBRANCH  27  30
ENDBRANCH  25  26
ENDBRANCH   1  25
TORSDOF 12
ENDMDL
