MODEL 1
REMARK VINA RESULT:     -12.0      0.000      0.000
REMARK SMILES O=C(COCC(=O)N1CCC([NH+]2CCN(c3ccc(F)cc3)CC2)CC1)NCCCNC(=O)c1ccc(-c2c3nc(c(-c4ccccc4)c4ccc([nH]4)c(-c4ccccc4)c4nc(c(-c5ccccc5)c5ccc2[nH]5)C=C4)C=C3)cc1
REMARK SMILES IDX 1 1 2 2 27 3 3 5 4 6 5 7 6 8 7 9 8 10 9 11 26 12 10 13 25 14
REMARK SMILES IDX 11 15 12 16 13 17 24 18 14 20 23 21 15 22 16 23 17 24 22 25
REMARK SMILES IDX 18 26 21 27 19 28 20 29 28 30 29 31 30 32 31 33 32 34 33 36
REMARK SMILES IDX 34 37 35 38 81 39 36 40 80 41 37 42 38 43 39 44 74 45 40 46
REMARK SMILES IDX 79 47 73 48 75 49 41 50 78 51 72 52 71 53 42 55 64 56 49 57
REMARK SMILES IDX 63 58 50 59 53 60 62 61 76 62 51 63 52 64 61 66 77 67 54 68
REMARK SMILES IDX 43 69 44 70 48 71 45 72 47 73 46 74 65 75 66 76 70 77 67 78
REMARK SMILES IDX 69 79 68 80 55 81 56 82 60 83 57 84 59 85 58 86
REMARK H PARENT 27 4 12 19 31 35 75 54 53 65
REMARK Flexibility Score: inf
ROOT
ATOM      1  O   UNL A   1      35.769  32.522  28.034  1.00  0.00    -0.272 OA
ATOM      2  C   UNL A   1      34.545  32.457  28.094  1.00  0.00     0.246 C 
ATOM      3  N   UNL A   1      33.730  33.553  28.287  1.00  0.00    -0.354 N 
ATOM      4  H   UNL A   1      32.755  33.439  28.215  1.00  0.00     0.163 HD
ENDROOT
BRANCH   2   5
ATOM      5  C   UNL A   1      33.784  31.137  27.907  1.00  0.00     0.260 C 
BRANCH   5   6
ATOM      6  O   UNL A   1      33.604  30.691  26.569  1.00  0.00    -0.362 OA
BRANCH   6   7
ATOM      7  C   UNL A   1      32.495  29.833  26.391  1.00  0.00     0.260 C 
BRANCH   7   8
ATOM      8  C   UNL A   1      32.310  28.936  25.147  1.00  0.00     0.248 C 
ATOM      9  O   UNL A   1      31.739  29.389  24.151  1.00  0.00    -0.272 OA
ATOM     10  N   UNL A   1      32.928  27.695  25.135  1.00  0.00    -0.340 N 
ATOM     11  C   UNL A   1      33.178  27.046  23.859  1.00  0.00     0.125 C 
ATOM     12  C   UNL A   1      33.039  26.811  26.287  1.00  0.00     0.125 C 
ATOM     13  C   UNL A   1      32.187  25.914  23.620  1.00  0.00     0.086 C 
ATOM     14  C   UNL A   1      32.005  25.686  26.149  1.00  0.00     0.086 C 
ATOM     15  C   UNL A   1      32.160  24.929  24.803  1.00  0.00     0.187 C 
BRANCH  15  16
ATOM     16  N   UNL A   1      31.226  23.793  24.690  1.00  0.00    -0.329 N 
ATOM     17  C   UNL A   1      31.083  23.130  23.380  1.00  0.00     0.284 C 
ATOM     18  C   UNL A   1      31.351  22.767  25.750  1.00  0.00     0.284 C 
ATOM     19  H   UNL A   1      30.359  24.313  24.823  1.00  0.00     0.348 HD
ATOM     20  C   UNL A   1      32.104  22.019  23.049  1.00  0.00     0.178 C 
ATOM     21  C   UNL A   1      32.317  21.581  25.493  1.00  0.00     0.178 C 
ATOM     22  N   UNL A   1      32.161  21.038  24.136  1.00  0.00    -0.360 N 
BRANCH  22  23
ATOM     23  C   UNL A   1      32.722  19.792  23.890  1.00  0.00     0.037 A 
ATOM     24  C   UNL A   1      33.856  19.393  24.616  1.00  0.00     0.029 A 
ATOM     25  C   UNL A   1      32.191  18.891  22.954  1.00  0.00     0.029 A 
ATOM     26  C   UNL A   1      34.426  18.131  24.436  1.00  0.00     0.041 A 
ATOM     27  C   UNL A   1      32.765  17.631  22.759  1.00  0.00     0.041 A 
ATOM     28  C   UNL A   1      33.872  17.260  23.509  1.00  0.00     0.123 A 
ATOM     29  F   UNL A   1      34.411  16.046  23.338  1.00  0.00    -0.207 F 
ENDBRANCH  22  23
ENDBRANCH  15  16
ENDBRANCH   7   8
ENDBRANCH   6   7
ENDBRANCH   5   6
ENDBRANCH   2   5
BRANCH   3  30
ATOM     30  C   UNL A   1      34.259  34.865  28.593  1.00  0.00     0.117 C 
BRANCH  30  31
ATOM     31  C   UNL A   1      33.174  35.918  28.785  1.00  0.00     0.042 C 
BRANCH  31  32
ATOM     32  C   UNL A   1      33.365  36.813  30.007  1.00  0.00     0.118 C 
BRANCH  32  33
ATOM     33  N   UNL A   1      32.408  36.543  31.070  1.00  0.00    -0.352 N 
ATOM     34  C   UNL A   1      32.471  35.695  32.144  1.00  0.00     0.251 C 
ATOM     35  H   UNL A   1      31.573  37.060  31.007  1.00  0.00     0.163 HD
ATOM     36  O   UNL A   1      31.465  35.548  32.841  1.00  0.00    -0.269 OA
BRANCH  34  37
ATOM     37  C   UNL A   1      33.703  34.945  32.484  1.00  0.00     0.039 A 
ATOM     38  C   UNL A   1      34.936  35.580  32.291  1.00  0.00     0.014 A 
ATOM     39  C   UNL A   1      33.673  33.616  32.914  1.00  0.00     0.014 A 
ATOM     40  C   UNL A   1      36.127  34.900  32.559  1.00  0.00     0.010 A 
ATOM     41  C   UNL A   1      34.861  32.961  33.249  1.00  0.00     0.010 A 
ATOM     42  C   UNL A   1      36.100  33.589  33.058  1.00  0.00    -0.014 A 
BRANCH  42  43
ATOM     43  C   UNL A   1      37.364  32.860  33.345  1.00  0.00     0.031 A 
ATOM     44  C   UNL A   1      38.122  33.122  34.620  1.00  0.00     0.074 A 
ATOM     45  C   UNL A   1      37.847  31.977  32.451  1.00  0.00     0.049 A 
ATOM     46  N   UNL A   1      39.235  32.578  35.046  1.00  0.00    -0.248 NA
ATOM     47  C   UNL A   1      37.569  34.142  35.526  1.00  0.00     0.031 C 
ATOM     48  C   UNL A   1      37.237  31.656  31.160  1.00  0.00     0.029 A 
ATOM     49  N   UNL A   1      38.966  31.182  32.498  1.00  0.00    -0.354 N 
ATOM     50  C   UNL A   1      39.523  33.201  36.254  1.00  0.00     0.074 A 
ATOM     51  C   UNL A   1      38.496  34.195  36.471  1.00  0.00     0.031 C 
ATOM     52  C   UNL A   1      37.971  30.710  30.552  1.00  0.00     0.029 A 
ATOM     53  C   UNL A   1      39.115  30.376  31.395  1.00  0.00     0.049 A 
ATOM     54  H   UNL A   1      39.601  31.189  33.249  1.00  0.00     0.167 HD
ATOM     55  C   UNL A   1      40.538  32.957  37.118  1.00  0.00     0.031 A 
ATOM     56  C   UNL A   1      40.059  29.465  31.099  1.00  0.00     0.031 A 
ATOM     57  C   UNL A   1      41.554  31.958  36.919  1.00  0.00     0.049 A 
ATOM     58  C   UNL A   1      41.163  29.195  32.083  1.00  0.00     0.074 A 
ATOM     59  C   UNL A   1      42.596  31.606  37.760  1.00  0.00     0.029 A 
ATOM     60  N   UNL A   1      41.653  31.148  35.799  1.00  0.00    -0.354 N 
ATOM     61  N   UNL A   1      41.383  29.750  33.250  1.00  0.00    -0.248 NA
ATOM     62  C   UNL A   1      42.136  28.157  31.716  1.00  0.00     0.031 C 
ATOM     63  C   UNL A   1      43.346  30.604  37.133  1.00  0.00     0.029 A 
ATOM     64  C   UNL A   1      42.743  30.303  35.923  1.00  0.00     0.049 A 
ATOM     65  H   UNL A   1      41.039  31.170  35.030  1.00  0.00     0.167 HD
ATOM     66  C   UNL A   1      42.497  29.104  33.771  1.00  0.00     0.074 A 
ATOM     67  C   UNL A   1      42.899  28.109  32.797  1.00  0.00     0.031 C 
ATOM     68  C   UNL A   1      43.128  29.313  34.952  1.00  0.00     0.031 A 
BRANCH  55  69
ATOM     69  C   UNL A   1      40.597  33.795  38.365  1.00  0.00    -0.014 A 
ATOM     70  C   UNL A   1      41.305  35.007  38.391  1.00  0.00     0.009 A 
ATOM     71  C   UNL A   1      39.914  33.382  39.518  1.00  0.00     0.009 A 
ATOM     72  C   UNL A   1      41.361  35.769  39.560  1.00  0.00     0.001 A 
ATOM     73  C   UNL A   1      39.948  34.159  40.678  1.00  0.00     0.001 A 
ATOM     74  C   UNL A   1      40.679  35.346  40.701  1.00  0.00     0.000 A 
ENDBRANCH  55  69
BRANCH  56  75
ATOM     75  C   UNL A   1      39.982  28.701  29.827  1.00  0.00    -0.014 A 
ATOM     76  C   UNL A   1      40.485  29.250  28.638  1.00  0.00     0.009 A 
ATOM     77  C   UNL A   1      39.398  27.426  29.794  1.00  0.00     0.009 A 
ATOM     78  C   UNL A   1      40.379  28.549  27.435  1.00  0.00     0.001 A 
ATOM     79  C   UNL A   1      39.316  26.716  28.595  1.00  0.00     0.001 A 
ATOM     80  C   UNL A   1      39.798  27.281  27.415  1.00  0.00     0.000 A 
ENDBRANCH  56  75
BRANCH  68  81
ATOM     81  C   UNL A   1      44.289  28.417  35.277  1.00  0.00    -0.014 A 
ATOM     82  C   UNL A   1      44.115  27.223  35.994  1.00  0.00     0.009 A 
ATOM     83  C   UNL A   1      45.575  28.765  34.837  1.00  0.00     0.009 A 
ATOM     84  C   UNL A   1      45.213  26.416  36.297  1.00  0.00     0.001 A 
ATOM     85  C   UNL A   1      46.667  27.943  35.119  1.00  0.00     0.001 A 
ATOM     86  C   UNL A   1      46.487  26.775  35.857  1.00  0.00     0.000 A 
ENDBRANCH  68  81
ENDBRANCH  42  43
ENDBRANCH  34  37
ENDBRANCH  32  33
ENDBRANCH  31  32
ENDBRANCH  30  31
ENDBRANCH   3  30
TORSDOF 15
ENDMDL
MODEL 2
REMARK VINA RESULT:     -11.9      0.438      5.734
REMARK SMILES O=C(COCC(=O)N1CCC([NH+]2CCN(c3ccc(F)cc3)CC2)CC1)NCCCNC(=O)c1ccc(-c2c3nc(c(-c4ccccc4)c4ccc([nH]4)c(-c4ccccc4)c4nc(c(-c5ccccc5)c5ccc2[nH]5)C=C4)C=C3)cc1
REMARK SMILES IDX 1 1 2 2 27 3 3 5 4 6 5 7 6 8 7 9 8 10 9 11 26 12 10 13 25 14
REMARK SMILES IDX 11 15 12 16 13 17 24 18 14 20 23 21 15 22 16 23 17 24 22 25
REMARK SMILES IDX 18 26 21 27 19 28 20 29 28 30 29 31 30 32 31 33 32 34 33 36
REMARK SMILES IDX 34 37 35 38 81 39 36 40 80 41 37 42 38 43 39 44 74 45 40 46
REMARK SMILES IDX 79 47 73 48 75 49 41 50 78 51 72 52 71 53 42 55 64 56 49 57
REMARK SMILES IDX 63 58 50 59 53 60 62 61 76 62 51 63 52 64 61 66 77 67 54 68
REMARK SMILES IDX 43 69 44 70 48 71 45 72 47 73 46 74 65 75 66 76 70 77 67 78
REMARK SMILES IDX 69 79 68 80 55 81 56 82 60 83 57 84 59 85 58 86
REMARK H PARENT 27 4 12 19 31 35 75 54 53 65
REMARK Flexibility Score: inf
ROOT
ATOM      1  O   UNL A   1      35.642  32.453  28.095  1.00  0.00    -0.272 OA
ATOM      2  C   UNL A   1      34.415  32.424  28.129  1.00  0.00     0.246 C 
ATOM      3  N   UNL A   1      33.629  33.545  28.295  1.00  0.00    -0.354 N 
ATOM      4  H   UNL A   1      32.652  33.458  28.203  1.00  0.00     0.163 HD
ENDROOT
BRANCH   2   5
ATOM      5  C   UNL A   1      33.621  31.125  27.937  1.00  0.00     0.260 C 
BRANCH   5   6
ATOM      6  O   UNL A   1      33.469  30.664  26.601  1.00  0.00    -0.362 OA
BRANCH   6   7
ATOM      7  C   UNL A   1      32.378  29.784  26.413  1.00  0.00     0.260 C 
BRANCH   7   8
ATOM      8  C   UNL A   1      32.199  28.917  25.148  1.00  0.00     0.248 C 
ATOM      9  O   UNL A   1      31.618  29.387  24.166  1.00  0.00    -0.272 OA
ATOM     10  N   UNL A   1      32.831  27.684  25.104  1.00  0.00    -0.340 N 
ATOM     11  C   UNL A   1      33.084  27.069  23.811  1.00  0.00     0.125 C 
ATOM     12  C   UNL A   1      32.958  26.773  26.233  1.00  0.00     0.125 C 
ATOM     13  C   UNL A   1      32.105  25.931  23.548  1.00  0.00     0.086 C 
ATOM     14  C   UNL A   1      31.936  25.640  26.072  1.00  0.00     0.086 C 
ATOM     15  C   UNL A   1      32.095  24.917  24.707  1.00  0.00     0.187 C 
BRANCH  15  16
ATOM     16  N   UNL A   1      31.174  23.773  24.569  1.00  0.00    -0.329 N 
ATOM     17  C   UNL A   1      31.081  23.101  23.260  1.00  0.00     0.284 C 
ATOM     18  C   UNL A   1      31.269  22.756  25.641  1.00  0.00     0.284 C 
ATOM     19  H   UNL A   1      30.298  24.287  24.669  1.00  0.00     0.348 HD
ATOM     20  C   UNL A   1      32.121  21.996  22.973  1.00  0.00     0.178 C 
ATOM     21  C   UNL A   1      32.253  21.576  25.426  1.00  0.00     0.178 C 
ATOM     22  N   UNL A   1      32.148  21.022  24.068  1.00  0.00    -0.360 N 
BRANCH  22  23
ATOM     23  C   UNL A   1      32.726  19.779  23.851  1.00  0.00     0.037 A 
ATOM     24  C   UNL A   1      33.836  19.393  24.619  1.00  0.00     0.029 A 
ATOM     25  C   UNL A   1      32.235  18.868  22.902  1.00  0.00     0.029 A 
ATOM     26  C   UNL A   1      34.421  18.134  24.468  1.00  0.00     0.041 A 
ATOM     27  C   UNL A   1      32.825  17.611  22.737  1.00  0.00     0.041 A 
ATOM     28  C   UNL A   1      33.908  17.253  23.528  1.00  0.00     0.123 A 
ATOM     29  F   UNL A   1      34.461  16.042  23.384  1.00  0.00    -0.207 F 
ENDBRANCH  22  23
ENDBRANCH  15  16
ENDBRANCH   7   8
ENDBRANCH   6   7
ENDBRANCH   5   6
ENDBRANCH   2   5
BRANCH   3  30
ATOM     30  C   UNL A   1      34.189  34.844  28.601  1.00  0.00     0.117 C 
BRANCH  30  31
ATOM     31  C   UNL A   1      33.130  35.923  28.791  1.00  0.00     0.042 C 
BRANCH  31  32
ATOM     32  C   UNL A   1      33.310  36.778  30.043  1.00  0.00     0.118 C 
BRANCH  32  33
ATOM     33  N   UNL A   1      32.378  36.439  31.108  1.00  0.00    -0.352 N 
ATOM     34  C   UNL A   1      32.502  35.588  32.174  1.00  0.00     0.251 C 
ATOM     35  H   UNL A   1      31.511  36.901  31.052  1.00  0.00     0.163 HD
ATOM     36  O   UNL A   1      31.511  35.370  32.875  1.00  0.00    -0.269 OA
BRANCH  34  37
ATOM     37  C   UNL A   1      33.781  34.917  32.503  1.00  0.00     0.039 A 
ATOM     38  C   UNL A   1      33.734  33.597  32.966  1.00  0.00     0.014 A 
ATOM     39  C   UNL A   1      35.010  35.579  32.436  1.00  0.00     0.014 A 
ATOM     40  C   UNL A   1      34.911  32.935  33.327  1.00  0.00     0.010 A 
ATOM     41  C   UNL A   1      36.192  34.895  32.729  1.00  0.00     0.010 A 
ATOM     42  C   UNL A   1      36.154  33.573  33.194  1.00  0.00    -0.014 A 
BRANCH  42  43
ATOM     43  C   UNL A   1      37.410  32.874  33.576  1.00  0.00     0.031 A 
ATOM     44  C   UNL A   1      38.053  31.892  32.632  1.00  0.00     0.074 A 
ATOM     45  C   UNL A   1      37.964  33.102  34.782  1.00  0.00     0.049 A 
ATOM     46  N   UNL A   1      39.152  31.195  32.788  1.00  0.00    -0.248 NA
ATOM     47  C   UNL A   1      37.363  31.646  31.356  1.00  0.00     0.031 C 
ATOM     48  C   UNL A   1      37.426  33.996  35.808  1.00  0.00     0.029 A 
ATOM     49  N   UNL A   1      39.111  32.598  35.346  1.00  0.00    -0.354 N 
ATOM     50  C   UNL A   1      39.272  30.417  31.643  1.00  0.00     0.074 A 
ATOM     51  C   UNL A   1      38.113  30.693  30.822  1.00  0.00     0.031 C 
ATOM     52  C   UNL A   1      38.258  34.003  36.863  1.00  0.00     0.029 A 
ATOM     53  C   UNL A   1      39.371  33.096  36.600  1.00  0.00     0.049 A 
ATOM     54  H   UNL A   1      39.691  31.944  34.895  1.00  0.00     0.167 HD
ATOM     55  C   UNL A   1      40.265  29.566  31.292  1.00  0.00     0.031 A 
ATOM     56  C   UNL A   1      40.395  32.859  37.439  1.00  0.00     0.031 A 
ATOM     57  C   UNL A   1      41.430  29.299  32.093  1.00  0.00     0.049 A 
ATOM     58  C   UNL A   1      41.497  31.926  37.019  1.00  0.00     0.074 A 
ATOM     59  C   UNL A   1      42.513  28.488  31.800  1.00  0.00     0.029 A 
ATOM     60  N   UNL A   1      41.665  29.843  33.346  1.00  0.00    -0.354 N 
ATOM     61  N   UNL A   1      41.626  31.249  35.904  1.00  0.00    -0.248 NA
ATOM     62  C   UNL A   1      42.606  31.745  37.966  1.00  0.00     0.031 C 
ATOM     63  C   UNL A   1      43.388  28.514  32.891  1.00  0.00     0.029 A 
ATOM     64  C   UNL A   1      42.871  29.378  33.842  1.00  0.00     0.049 A 
ATOM     65  H   UNL A   1      41.064  30.467  33.812  1.00  0.00     0.167 HD
ATOM     66  C   UNL A   1      42.845  30.590  36.002  1.00  0.00     0.074 A 
ATOM     67  C   UNL A   1      43.421  30.959  37.279  1.00  0.00     0.031 C 
ATOM     68  C   UNL A   1      43.436  29.758  35.111  1.00  0.00     0.031 A 
BRANCH  55  69
ATOM     69  C   UNL A   1      40.128  28.855  29.973  1.00  0.00    -0.014 A 
ATOM     70  C   UNL A   1      39.526  27.590  29.891  1.00  0.00     0.009 A 
ATOM     71  C   UNL A   1      40.582  29.469  28.797  1.00  0.00     0.009 A 
ATOM     72  C   UNL A   1      39.418  26.937  28.661  1.00  0.00     0.001 A 
ATOM     73  C   UNL A   1      40.448  28.827  27.565  1.00  0.00     0.001 A 
ATOM     74  C   UNL A   1      39.874  27.558  27.499  1.00  0.00     0.000 A 
ENDBRANCH  55  69
BRANCH  56  75
ATOM     75  C   UNL A   1      40.455  33.548  38.754  1.00  0.00    -0.014 A 
ATOM     76  C   UNL A   1      39.830  32.987  39.878  1.00  0.00     0.009 A 
ATOM     77  C   UNL A   1      41.126  34.773  38.888  1.00  0.00     0.009 A 
ATOM     78  C   UNL A   1      39.852  33.653  41.105  1.00  0.00     0.001 A 
ATOM     79  C   UNL A   1      41.168  35.424  40.122  1.00  0.00     0.001 A 
ATOM     80  C   UNL A   1      40.524  34.869  41.227  1.00  0.00     0.000 A 
ENDBRANCH  56  75
BRANCH  68  81
ATOM     81  C   UNL A   1      44.797  29.228  35.466  1.00  0.00    -0.014 A 
ATOM     82  C   UNL A   1      44.952  28.060  36.229  1.00  0.00     0.009 A 
ATOM     83  C   UNL A   1      45.941  29.899  35.008  1.00  0.00     0.009 A 
ATOM     84  C   UNL A   1      46.227  27.598  36.559  1.00  0.00     0.001 A 
ATOM     85  C   UNL A   1      47.215  29.419  35.317  1.00  0.00     0.001 A 
ATOM     86  C   UNL A   1      47.357  28.275  36.100  1.00  0.00     0.000 A 
ENDBRANCH  68  81
ENDBRANCH  42  43
ENDBRANCH  34  37
ENDBRANCH  32  33
ENDBRANCH  31  32
ENDBRANCH  30  31
ENDBRANCH   3  30
TORSDOF 15
ENDMDL
MODEL 3
REMARK VINA RESULT:     -11.6      2.219      6.430
REMARK SMILES O=C(COCC(=O)N1CCC([NH+]2CCN(c3ccc(F)cc3)CC2)CC1)NCCCNC(=O)c1ccc(-c2c3nc(c(-c4ccccc4)c4ccc([nH]4)c(-c4ccccc4)c4nc(c(-c5ccccc5)c5ccc2[nH]5)C=C4)C=C3)cc1
REMARK SMILES IDX 1 1 2 2 27 3 3 5 4 6 5 7 6 8 7 9 8 10 9 11 26 12 10 13 25 14
REMARK SMILES IDX 11 15 12 16 13 17 24 18 14 20 23 21 15 22 16 23 17 24 22 25
REMARK SMILES IDX 18 26 21 27 19 28 20 29 28 30 29 31 30 32 31 33 32 34 33 36
REMARK SMILES IDX 34 37 35 38 81 39 36 40 80 41 37 42 38 43 39 44 74 45 40 46
REMARK SMILES IDX 79 47 73 48 75 49 41 50 78 51 72 52 71 53 42 55 64 56 49 57
REMARK SMILES IDX 63 58 50 59 53 60 62 61 76 62 51 63 52 64 61 66 77 67 54 68
REMARK SMILES IDX 43 69 44 70 48 71 45 72 47 73 46 74 65 75 66 76 70 77 67 78
REMARK SMILES IDX 69 79 68 80 55 81 56 82 60 83 57 84 59 85 58 86
REMARK H PARENT 27 4 12 19 31 35 75 54 53 65
REMARK Flexibility Score: inf
ROOT
ATOM      1  O   UNL A   1      32.251  29.550  23.414  1.00  0.00    -0.272 OA
ATOM      2  C   UNL A   1      31.063  29.799  23.596  1.00  0.00     0.246 C 
ATOM      3  N   UNL A   1      30.572  30.381  24.746  1.00  0.00    -0.354 N 
ATOM      4  H   UNL A   1      29.625  30.650  24.775  1.00  0.00     0.163 HD
ENDROOT
BRANCH   2   5
ATOM      5  C   UNL A   1      29.996  29.530  22.526  1.00  0.00     0.260 C 
BRANCH   5   6
ATOM      6  O   UNL A   1      30.050  28.266  21.878  1.00  0.00    -0.362 OA
BRANCH   6   7
ATOM      7  C   UNL A   1      30.183  27.169  22.761  1.00  0.00     0.260 C 
BRANCH   7   8
ATOM      8  C   UNL A   1      31.460  26.307  22.851  1.00  0.00     0.248 C 
ATOM      9  O   UNL A   1      31.806  25.629  21.879  1.00  0.00    -0.272 OA
ATOM     10  N   UNL A   1      32.262  26.438  23.974  1.00  0.00    -0.340 N 
ATOM     11  C   UNL A   1      33.656  26.032  23.894  1.00  0.00     0.125 C 
ATOM     12  C   UNL A   1      31.769  26.616  25.332  1.00  0.00     0.125 C 
ATOM     13  C   UNL A   1      33.877  24.701  24.601  1.00  0.00     0.086 C 
ATOM     14  C   UNL A   1      31.888  25.281  26.080  1.00  0.00     0.086 C 
ATOM     15  C   UNL A   1      33.340  24.732  26.043  1.00  0.00     0.187 C 
BRANCH  15  16
ATOM     16  N   UNL A   1      33.488  23.491  26.826  1.00  0.00    -0.329 N 
ATOM     17  C   UNL A   1      32.382  22.515  26.810  1.00  0.00     0.284 C 
ATOM     18  C   UNL A   1      34.774  22.781  26.643  1.00  0.00     0.284 C 
ATOM     19  H   UNL A   1      33.463  23.909  27.756  1.00  0.00     0.348 HD
ATOM     20  C   UNL A   1      32.368  21.501  25.646  1.00  0.00     0.178 C 
ATOM     21  C   UNL A   1      34.849  21.705  25.527  1.00  0.00     0.178 C 
ATOM     22  N   UNL A   1      33.667  20.831  25.536  1.00  0.00    -0.360 N 
BRANCH  22  23
ATOM     23  C   UNL A   1      33.757  19.647  24.816  1.00  0.00     0.037 A 
ATOM     24  C   UNL A   1      34.946  18.903  24.861  1.00  0.00     0.029 A 
ATOM     25  C   UNL A   1      32.694  19.141  24.052  1.00  0.00     0.029 A 
ATOM     26  C   UNL A   1      35.065  17.684  24.191  1.00  0.00     0.041 A 
ATOM     27  C   UNL A   1      32.810  17.927  23.368  1.00  0.00     0.041 A 
ATOM     28  C   UNL A   1      33.993  17.206  23.451  1.00  0.00     0.123 A 
ATOM     29  F   UNL A   1      34.101  16.033  22.813  1.00  0.00    -0.207 F 
ENDBRANCH  22  23
ENDBRANCH  15  16
ENDBRANCH   7   8
ENDBRANCH   6   7
ENDBRANCH   5   6
ENDBRANCH   2   5
BRANCH   3  30
ATOM     30  C   UNL A   1      31.399  30.611  25.911  1.00  0.00     0.117 C 
BRANCH  30  31
ATOM     31  C   UNL A   1      31.345  32.050  26.410  1.00  0.00     0.042 C 
BRANCH  31  32
ATOM     32  C   UNL A   1      32.615  32.528  27.111  1.00  0.00     0.118 C 
BRANCH  32  33
ATOM     33  N   UNL A   1      32.477  33.849  27.707  1.00  0.00    -0.352 N 
ATOM     34  C   UNL A   1      33.211  34.480  28.676  1.00  0.00     0.251 C 
ATOM     35  H   UNL A   1      31.729  34.380  27.351  1.00  0.00     0.163 HD
ATOM     36  O   UNL A   1      32.813  35.563  29.109  1.00  0.00    -0.269 OA
BRANCH  34  37
ATOM     37  C   UNL A   1      34.458  33.896  29.224  1.00  0.00     0.039 A 
ATOM     38  C   UNL A   1      35.667  34.212  28.594  1.00  0.00     0.014 A 
ATOM     39  C   UNL A   1      34.453  32.993  30.291  1.00  0.00     0.014 A 
ATOM     40  C   UNL A   1      36.865  33.654  29.049  1.00  0.00     0.010 A 
ATOM     41  C   UNL A   1      35.658  32.492  30.790  1.00  0.00     0.010 A 
ATOM     42  C   UNL A   1      36.874  32.802  30.164  1.00  0.00    -0.014 A 
BRANCH  42  43
ATOM     43  C   UNL A   1      38.145  32.206  30.653  1.00  0.00     0.031 A 
ATOM     44  C   UNL A   1      38.668  30.927  30.055  1.00  0.00     0.074 A 
ATOM     45  C   UNL A   1      38.823  32.800  31.654  1.00  0.00     0.049 A 
ATOM     46  N   UNL A   1      39.759  30.263  30.347  1.00  0.00    -0.248 NA
ATOM     47  C   UNL A   1      37.848  30.298  29.007  1.00  0.00     0.031 C 
ATOM     48  C   UNL A   1      38.411  34.020  32.351  1.00  0.00     0.029 A 
ATOM     49  N   UNL A   1      40.008  32.456  32.256  1.00  0.00    -0.354 N 
ATOM     50  C   UNL A   1      39.746  29.137  29.535  1.00  0.00     0.074 A 
ATOM     51  C   UNL A   1      38.518  29.180  28.772  1.00  0.00     0.031 C 
ATOM     52  C   UNL A   1      39.345  34.340  33.263  1.00  0.00     0.029 A 
ATOM     53  C   UNL A   1      40.404  33.336  33.233  1.00  0.00     0.049 A 
ATOM     54  H   UNL A   1      40.525  31.656  32.010  1.00  0.00     0.167 HD
ATOM     55  C   UNL A   1      40.679  28.161  29.415  1.00  0.00     0.031 A 
ATOM     56  C   UNL A   1      41.501  33.342  34.012  1.00  0.00     0.031 A 
ATOM     57  C   UNL A   1      41.912  28.120  30.155  1.00  0.00     0.049 A 
ATOM     58  C   UNL A   1      42.534  32.262  33.846  1.00  0.00     0.074 A 
ATOM     59  C   UNL A   1      42.941  27.197  30.068  1.00  0.00     0.029 A 
ATOM     60  N   UNL A   1      42.284  29.044  31.118  1.00  0.00    -0.354 N 
ATOM     61  N   UNL A   1      42.534  31.239  33.027  1.00  0.00    -0.248 NA
ATOM     62  C   UNL A   1      43.728  32.353  34.698  1.00  0.00     0.031 C 
ATOM     63  C   UNL A   1      43.922  27.545  31.004  1.00  0.00     0.029 A 
ATOM     64  C   UNL A   1      43.523  28.710  31.639  1.00  0.00     0.049 A 
ATOM     65  H   UNL A   1      41.747  29.823  31.390  1.00  0.00     0.167 HD
ATOM     66  C   UNL A   1      43.742  30.585  33.241  1.00  0.00     0.074 A 
ATOM     67  C   UNL A   1      44.451  31.335  34.257  1.00  0.00     0.031 C 
ATOM     68  C   UNL A   1      44.221  29.467  32.644  1.00  0.00     0.031 A 
BRANCH  55  69
ATOM     69  C   UNL A   1      40.395  27.053  28.440  1.00  0.00    -0.014 A 
ATOM     70  C   UNL A   1      40.876  27.104  27.122  1.00  0.00     0.009 A 
ATOM     71  C   UNL A   1      39.659  25.931  28.851  1.00  0.00     0.009 A 
ATOM     72  C   UNL A   1      40.593  26.073  26.224  1.00  0.00     0.001 A 
ATOM     73  C   UNL A   1      39.401  24.888  27.959  1.00  0.00     0.001 A 
ATOM     74  C   UNL A   1      39.859  24.964  26.645  1.00  0.00     0.000 A 
ENDBRANCH  55  69
BRANCH  56  75
ATOM     75  C   UNL A   1      41.708  34.435  34.998  1.00  0.00    -0.014 A 
ATOM     76  C   UNL A   1      42.370  35.614  34.622  1.00  0.00     0.009 A 
ATOM     77  C   UNL A   1      41.254  34.300  36.318  1.00  0.00     0.009 A 
ATOM     78  C   UNL A   1      42.599  36.625  35.557  1.00  0.00     0.001 A 
ATOM     79  C   UNL A   1      41.462  35.324  37.244  1.00  0.00     0.001 A 
ATOM     80  C   UNL A   1      42.142  36.481  36.866  1.00  0.00     0.000 A 
ENDBRANCH  56  75
BRANCH  68  81
ATOM     81  C   UNL A   1      45.597  29.014  33.042  1.00  0.00    -0.014 A 
ATOM     82  C   UNL A   1      45.795  28.110  34.097  1.00  0.00     0.009 A 
ATOM     83  C   UNL A   1      46.712  29.486  32.332  1.00  0.00     0.009 A 
ATOM     84  C   UNL A   1      47.085  27.718  34.458  1.00  0.00     0.001 A 
ATOM     85  C   UNL A   1      47.999  29.071  32.677  1.00  0.00     0.001 A 
ATOM     86  C   UNL A   1      48.186  28.196  33.745  1.00  0.00     0.000 A 
ENDBRANCH  68  81
ENDBRANCH  42  43
ENDBRANCH  34  37
ENDBRANCH  32  33
ENDBRANCH  31  32
ENDBRANCH  30  31
ENDBRANCH   3  30
TORSDOF 15
ENDMDL
