MODEL 1
REMARK VINA RESULT:     -11.6      0.000      0.000
REMARK SMILES Cc1cc(Cl)c2c(c1)C=C(C(=O)NCCCNC(=O)c1ccc(-c3c4nc(c(-c5ccccc5)c5ccc([nH]5)c(-c5ccccc5)c5nc(c(-c6ccccc6)c6ccc3[nH]6)C=C5)C=C4)cc1)[C@@H](C(F)(F)F)O2
REMARK SMILES IDX 15 1 14 2 13 3 11 4 12 5 10 7 1 8 2 9 3 10 8 11 4 12 7 13
REMARK SMILES IDX 5 14 6 15 9 16 73 17 68 18 69 19 70 20 71 21 72 22 16 23
REMARK SMILES IDX 17 24 18 25 19 27 20 28 21 29 67 30 22 31 66 32 23 33 24 34
REMARK SMILES IDX 25 35 60 36 26 37 65 38 59 39 61 40 27 41 64 42 58 43 57 44
REMARK SMILES IDX 28 46 50 47 35 48 49 49 36 50 39 51 48 52 62 53 37 54 38 55
REMARK SMILES IDX 47 57 63 58 40 59 29 60 30 61 34 62 31 63 33 64 32 65 51 66
REMARK SMILES IDX 52 67 56 68 53 69 55 70 54 71 41 72 42 73 46 74 43 75 45 76
REMARK SMILES IDX 44 77
REMARK H PARENT 13 6 17 26 61 45 39 56
REMARK Flexibility Score: inf
ROOT
ATOM      1  C   UNL A   1      34.026  28.354  25.835  1.00  0.00     0.042 C 
ENDROOT
BRANCH   1   2
ATOM      2  C   UNL A   1      32.926  27.826  24.928  1.00  0.00     0.118 C 
BRANCH   2   3
ATOM      3  N   UNL A   1      31.873  27.163  25.681  1.00  0.00    -0.352 N 
ATOM      4  C   UNL A   1      31.570  25.900  26.062  1.00  0.00     0.251 C 
ATOM      5  O   UNL A   1      30.533  25.786  26.724  1.00  0.00    -0.270 OA
ATOM      6  H   UNL A   1      31.199  27.806  26.001  1.00  0.00     0.163 HD
BRANCH   4   7
ATOM      7  C   UNL A   1      32.378  24.689  25.735  1.00  0.00     0.067 C 
ATOM      8  C   UNL A   1      38.213  22.606  25.866  1.00  0.00     0.044 C 
ATOM      9  C   UNL A   1      36.726  22.551  25.669  1.00  0.00    -0.049 A 
ATOM     10  C   UNL A   1      36.127  21.349  25.270  1.00  0.00     0.028 A 
ATOM     11  C   UNL A   1      35.921  23.670  25.917  1.00  0.00     0.015 A 
ATOM     12  C   UNL A   1      34.744  21.270  25.121  1.00  0.00     0.084 A 
ATOM     13  C   UNL A   1      34.531  23.596  25.762  1.00  0.00     0.019 A 
ATOM     14  Cl  UNL A   1      34.048  19.765  24.634  1.00  0.00    -0.080 Cl
ATOM     15  C   UNL A   1      33.945  22.393  25.362  1.00  0.00     0.146 A 
ATOM     16  C   UNL A   1      33.682  24.744  26.060  1.00  0.00     0.025 C 
ATOM     17  O   UNL A   1      32.589  22.254  25.253  1.00  0.00    -0.474 OA
ATOM     18  C   UNL A   1      31.822  23.469  25.062  1.00  0.00     0.314 C 
BRANCH  18  19
ATOM     19  C   UNL A   1      31.570  23.683  23.557  1.00  0.00     0.429 C 
ATOM     20  F   UNL A   1      31.995  22.606  22.849  1.00  0.00    -0.167 F 
ATOM     21  F   UNL A   1      30.255  23.835  23.265  1.00  0.00    -0.167 F 
ATOM     22  F   UNL A   1      32.205  24.770  23.070  1.00  0.00    -0.167 F 
ENDBRANCH  18  19
ENDBRANCH   4   7
ENDBRANCH   2   3
ENDBRANCH   1   2
BRANCH   1  23
ATOM     23  C   UNL A   1      33.524  28.613  27.249  1.00  0.00     0.118 C 
BRANCH  23  24
ATOM     24  N   UNL A   1      33.561  30.036  27.584  1.00  0.00    -0.352 N 
ATOM     25  C   UNL A   1      34.511  30.763  28.253  1.00  0.00     0.251 C 
ATOM     26  H   UNL A   1      32.780  30.553  27.281  1.00  0.00     0.163 HD
ATOM     27  O   UNL A   1      34.236  31.881  28.685  1.00  0.00    -0.269 OA
BRANCH  25  28
ATOM     28  C   UNL A   1      35.859  30.203  28.456  1.00  0.00     0.039 A 
ATOM     29  C   UNL A   1      36.786  30.246  27.412  1.00  0.00     0.014 A 
ATOM     30  C   UNL A   1      36.197  29.612  29.675  1.00  0.00     0.014 A 
ATOM     31  C   UNL A   1      38.075  29.753  27.618  1.00  0.00     0.010 A 
ATOM     32  C   UNL A   1      37.506  29.220  29.913  1.00  0.00     0.010 A 
ATOM     33  C   UNL A   1      38.453  29.269  28.882  1.00  0.00    -0.014 A 
BRANCH  33  34
ATOM     34  C   UNL A   1      39.826  28.778  29.140  1.00  0.00     0.031 A 
ATOM     35  C   UNL A   1      40.826  29.678  29.813  1.00  0.00     0.074 A 
ATOM     36  C   UNL A   1      40.183  27.548  28.724  1.00  0.00     0.049 A 
ATOM     37  N   UNL A   1      42.087  29.452  30.079  1.00  0.00    -0.248 NA
ATOM     38  C   UNL A   1      40.359  31.017  30.216  1.00  0.00     0.031 C 
ATOM     39  C   UNL A   1      39.308  26.601  28.026  1.00  0.00     0.029 A 
ATOM     40  N   UNL A   1      41.376  26.880  28.829  1.00  0.00    -0.354 N 
ATOM     41  C   UNL A   1      42.560  30.617  30.669  1.00  0.00     0.074 A 
ATOM     42  C   UNL A   1      41.475  31.572  30.665  1.00  0.00     0.031 C 
ATOM     43  C   UNL A   1      39.983  25.461  27.804  1.00  0.00     0.029 A 
ATOM     44  C   UNL A   1      41.346  25.611  28.301  1.00  0.00     0.049 A 
ATOM     45  H   UNL A   1      42.179  27.272  29.244  1.00  0.00     0.167 HD
ATOM     46  C   UNL A   1      43.781  30.859  31.195  1.00  0.00     0.031 A 
ATOM     47  C   UNL A   1      42.311  24.676  28.227  1.00  0.00     0.031 A 
ATOM     48  C   UNL A   1      44.849  29.899  31.220  1.00  0.00     0.049 A 
ATOM     49  C   UNL A   1      43.668  24.981  28.801  1.00  0.00     0.074 A 
ATOM     50  C   UNL A   1      46.107  30.030  31.778  1.00  0.00     0.029 A 
ATOM     51  N   UNL A   1      44.780  28.629  30.670  1.00  0.00    -0.354 N 
ATOM     52  N   UNL A   1      44.079  26.066  29.412  1.00  0.00    -0.248 NA
ATOM     53  C   UNL A   1      44.691  23.932  28.683  1.00  0.00     0.031 C 
ATOM     54  C   UNL A   1      46.820  28.857  31.518  1.00  0.00     0.029 A 
ATOM     55  C   UNL A   1      45.983  27.975  30.852  1.00  0.00     0.049 A 
ATOM     56  H   UNL A   1      43.992  28.250  30.218  1.00  0.00     0.167 HD
ATOM     57  C   UNL A   1      45.398  25.821  29.772  1.00  0.00     0.074 A 
ATOM     58  C   UNL A   1      45.711  24.478  29.328  1.00  0.00     0.031 C 
ATOM     59  C   UNL A   1      46.273  26.636  30.409  1.00  0.00     0.031 A 
BRANCH  46  60
ATOM     60  C   UNL A   1      44.030  32.209  31.807  1.00  0.00    -0.014 A 
ATOM     61  C   UNL A   1      43.790  32.437  33.171  1.00  0.00     0.009 A 
ATOM     62  C   UNL A   1      44.589  33.237  31.033  1.00  0.00     0.009 A 
ATOM     63  C   UNL A   1      44.091  33.675  33.745  1.00  0.00     0.001 A 
ATOM     64  C   UNL A   1      44.914  34.464  31.615  1.00  0.00     0.001 A 
ATOM     65  C   UNL A   1      44.661  34.682  32.968  1.00  0.00     0.000 A 
ENDBRANCH  46  60
BRANCH  47  66
ATOM     66  C   UNL A   1      42.025  23.355  27.606  1.00  0.00    -0.014 A 
ATOM     67  C   UNL A   1      42.336  23.119  26.257  1.00  0.00     0.009 A 
ATOM     68  C   UNL A   1      41.442  22.321  28.355  1.00  0.00     0.009 A 
ATOM     69  C   UNL A   1      42.046  21.887  25.667  1.00  0.00     0.001 A 
ATOM     70  C   UNL A   1      41.181  21.079  27.770  1.00  0.00     0.001 A 
ATOM     71  C   UNL A   1      41.473  20.867  26.424  1.00  0.00     0.000 A 
ENDBRANCH  47  66
BRANCH  59  72
ATOM     72  C   UNL A   1      47.647  26.101  30.689  1.00  0.00    -0.014 A 
ATOM     73  C   UNL A   1      48.648  26.130  29.708  1.00  0.00     0.009 A 
ATOM     74  C   UNL A   1      47.968  25.654  31.980  1.00  0.00     0.009 A 
ATOM     75  C   UNL A   1      49.942  25.704  30.010  1.00  0.00     0.001 A 
ATOM     76  C   UNL A   1      49.271  25.258  32.288  1.00  0.00     0.001 A 
ATOM     77  C   UNL A   1      50.254  25.278  31.301  1.00  0.00     0.000 A 
ENDBRANCH  59  72
ENDBRANCH  33  34
ENDBRANCH  25  28
ENDBRANCH  23  24
ENDBRANCH   1  23
TORSDOF 11
ENDMDL
MODEL 2
REMARK VINA RESULT:     -11.5      2.685      7.648
REMARK SMILES Cc1cc(Cl)c2c(c1)C=C(C(=O)NCCCNC(=O)c1ccc(-c3c4nc(c(-c5ccccc5)c5ccc([nH]5)c(-c5ccccc5)c5nc(c(-c6ccccc6)c6ccc3[nH]6)C=C5)C=C4)cc1)[C@@H](C(F)(F)F)O2
REMARK SMILES IDX 15 1 14 2 13 3 11 4 12 5 10 7 1 8 2 9 3 10 8 11 4 12 7 13
REMARK SMILES IDX 5 14 6 15 9 16 73 17 68 18 69 19 70 20 71 21 72 22 16 23
REMARK SMILES IDX 17 24 18 25 19 27 20 28 21 29 67 30 22 31 66 32 23 33 24 34
REMARK SMILES IDX 25 35 60 36 26 37 65 38 59 39 61 40 27 41 64 42 58 43 57 44
REMARK SMILES IDX 28 46 50 47 35 48 49 49 36 50 39 51 48 52 62 53 37 54 38 55
REMARK SMILES IDX 47 57 63 58 40 59 29 60 30 61 34 62 31 63 33 64 32 65 51 66
REMARK SMILES IDX 52 67 56 68 53 69 55 70 54 71 41 72 42 73 46 74 43 75 45 76
REMARK SMILES IDX 44 77
REMARK H PARENT 13 6 17 26 61 45 39 56
REMARK Flexibility Score: inf
ROOT
ATOM      1  C   UNL A   1      35.805  23.598  26.010  1.00  0.00     0.042 C 
ENDROOT
BRANCH   1   2
ATOM      2  C   UNL A   1      34.548  22.944  25.458  1.00  0.00     0.118 C 
BRANCH   2   3
ATOM      3  N   UNL A   1      34.431  23.120  24.019  1.00  0.00    -0.352 N 
ATOM      4  C   UNL A   1      33.930  24.046  23.170  1.00  0.00     0.251 C 
ATOM      5  O   UNL A   1      34.053  23.781  21.971  1.00  0.00    -0.270 OA
ATOM      6  H   UNL A   1      34.824  22.360  23.531  1.00  0.00     0.163 HD
BRANCH   4   7
ATOM      7  C   UNL A   1      33.260  25.314  23.584  1.00  0.00     0.067 C 
ATOM      8  C   UNL A   1      34.032  30.168  27.358  1.00  0.00     0.044 C 
ATOM      9  C   UNL A   1      33.384  29.328  26.297  1.00  0.00    -0.049 A 
ATOM     10  C   UNL A   1      32.223  29.789  25.664  1.00  0.00     0.028 A 
ATOM     11  C   UNL A   1      33.944  28.106  25.899  1.00  0.00     0.015 A 
ATOM     12  C   UNL A   1      31.632  29.039  24.649  1.00  0.00     0.084 A 
ATOM     13  C   UNL A   1      33.349  27.348  24.883  1.00  0.00     0.019 A 
ATOM     14  Cl  UNL A   1      30.205  29.652  23.892  1.00  0.00    -0.080 Cl
ATOM     15  C   UNL A   1      32.190  27.817  24.261  1.00  0.00     0.146 A 
ATOM     16  C   UNL A   1      33.949  26.097  24.434  1.00  0.00     0.025 C 
ATOM     17  O   UNL A   1      31.605  27.141  23.226  1.00  0.00    -0.474 OA
ATOM     18  C   UNL A   1      31.891  25.724  23.128  1.00  0.00     0.314 C 
BRANCH  18  19
ATOM     19  C   UNL A   1      30.769  24.927  23.822  1.00  0.00     0.429 C 
ATOM     20  F   UNL A   1      30.430  23.843  23.080  1.00  0.00    -0.167 F 
ATOM     21  F   UNL A   1      31.140  24.455  25.037  1.00  0.00    -0.167 F 
ATOM     22  F   UNL A   1      29.650  25.659  24.013  1.00  0.00    -0.167 F 
ENDBRANCH  18  19
ENDBRANCH   4   7
ENDBRANCH   2   3
ENDBRANCH   1   2
BRANCH   1  23
ATOM     23  C   UNL A   1      36.970  23.508  25.035  1.00  0.00     0.118 C 
BRANCH  23  24
ATOM     24  N   UNL A   1      37.982  22.555  25.488  1.00  0.00    -0.352 N 
ATOM     25  C   UNL A   1      39.181  22.769  26.118  1.00  0.00     0.251 C 
ATOM     26  H   UNL A   1      37.769  21.610  25.313  1.00  0.00     0.163 HD
ATOM     27  O   UNL A   1      40.019  21.872  26.164  1.00  0.00    -0.269 OA
BRANCH  25  28
ATOM     28  C   UNL A   1      39.463  24.077  26.737  1.00  0.00     0.039 A 
ATOM     29  C   UNL A   1      39.032  24.327  28.042  1.00  0.00     0.014 A 
ATOM     30  C   UNL A   1      40.135  25.065  26.015  1.00  0.00     0.014 A 
ATOM     31  C   UNL A   1      39.336  25.549  28.642  1.00  0.00     0.010 A 
ATOM     32  C   UNL A   1      40.528  26.235  26.646  1.00  0.00     0.010 A 
ATOM     33  C   UNL A   1      40.117  26.498  27.960  1.00  0.00    -0.014 A 
BRANCH  33  34
ATOM     34  C   UNL A   1      40.489  27.786  28.587  1.00  0.00     0.031 A 
ATOM     35  C   UNL A   1      41.882  27.982  29.118  1.00  0.00     0.074 A 
ATOM     36  C   UNL A   1      39.561  28.753  28.725  1.00  0.00     0.049 A 
ATOM     37  N   UNL A   1      42.386  29.015  29.745  1.00  0.00    -0.248 NA
ATOM     38  C   UNL A   1      42.830  26.865  28.947  1.00  0.00     0.031 C 
ATOM     39  C   UNL A   1      38.167  28.661  28.283  1.00  0.00     0.029 A 
ATOM     40  N   UNL A   1      39.652  30.007  29.274  1.00  0.00    -0.354 N 
ATOM     41  C   UNL A   1      43.696  28.667  30.049  1.00  0.00     0.074 A 
ATOM     42  C   UNL A   1      43.895  27.308  29.598  1.00  0.00     0.031 C 
ATOM     43  C   UNL A   1      37.546  29.823  28.541  1.00  0.00     0.029 A 
ATOM     44  C   UNL A   1      38.481  30.724  29.205  1.00  0.00     0.049 A 
ATOM     45  H   UNL A   1      40.477  30.359  29.679  1.00  0.00     0.167 HD
ATOM     46  C   UNL A   1      44.657  29.423  30.624  1.00  0.00     0.031 A 
ATOM     47  C   UNL A   1      38.196  31.969  29.630  1.00  0.00     0.031 A 
ATOM     48  C   UNL A   1      44.462  30.782  31.048  1.00  0.00     0.049 A 
ATOM     49  C   UNL A   1      39.279  32.780  30.288  1.00  0.00     0.074 A 
ATOM     50  C   UNL A   1      45.389  31.651  31.594  1.00  0.00     0.029 A 
ATOM     51  N   UNL A   1      43.262  31.468  30.966  1.00  0.00    -0.354 N 
ATOM     52  N   UNL A   1      40.531  32.458  30.509  1.00  0.00    -0.248 NA
ATOM     53  C   UNL A   1      38.914  34.128  30.747  1.00  0.00     0.031 C 
ATOM     54  C   UNL A   1      44.735  32.848  31.893  1.00  0.00     0.029 A 
ATOM     55  C   UNL A   1      43.417  32.743  31.476  1.00  0.00     0.049 A 
ATOM     56  H   UNL A   1      42.424  31.103  30.599  1.00  0.00     0.167 HD
ATOM     57  C   UNL A   1      41.107  33.569  31.109  1.00  0.00     0.074 A 
ATOM     58  C   UNL A   1      40.075  34.580  31.200  1.00  0.00     0.031 C 
ATOM     59  C   UNL A   1      42.378  33.736  31.551  1.00  0.00     0.031 A 
BRANCH  46  60
ATOM     60  C   UNL A   1      46.016  28.811  30.814  1.00  0.00    -0.014 A 
ATOM     61  C   UNL A   1      46.338  28.122  31.994  1.00  0.00     0.009 A 
ATOM     62  C   UNL A   1      46.955  28.851  29.772  1.00  0.00     0.009 A 
ATOM     63  C   UNL A   1      47.579  27.497  32.132  1.00  0.00     0.001 A 
ATOM     64  C   UNL A   1      48.184  28.202  29.902  1.00  0.00     0.001 A 
ATOM     65  C   UNL A   1      48.496  27.530  31.082  1.00  0.00     0.000 A 
ENDBRANCH  46  60
BRANCH  47  66
ATOM     66  C   UNL A   1      36.836  32.534  29.429  1.00  0.00    -0.014 A 
ATOM     67  C   UNL A   1      35.862  32.422  30.434  1.00  0.00     0.009 A 
ATOM     68  C   UNL A   1      36.500  33.190  28.234  1.00  0.00     0.009 A 
ATOM     69  C   UNL A   1      34.577  32.932  30.237  1.00  0.00     0.001 A 
ATOM     70  C   UNL A   1      35.223  33.726  28.051  1.00  0.00     0.001 A 
ATOM     71  C   UNL A   1      34.260  33.587  29.048  1.00  0.00     0.000 A 
ENDBRANCH  47  66
BRANCH  59  72
ATOM     72  C   UNL A   1      42.738  35.064  32.152  1.00  0.00    -0.014 A 
ATOM     73  C   UNL A   1      42.480  35.341  33.502  1.00  0.00     0.009 A 
ATOM     74  C   UNL A   1      43.432  36.010  31.381  1.00  0.00     0.009 A 
ATOM     75  C   UNL A   1      42.894  36.548  34.065  1.00  0.00     0.001 A 
ATOM     76  C   UNL A   1      43.872  37.204  31.954  1.00  0.00     0.001 A 
ATOM     77  C   UNL A   1      43.599  37.474  33.294  1.00  0.00     0.000 A 
ENDBRANCH  59  72
ENDBRANCH  33  34
ENDBRANCH  25  28
ENDBRANCH  23  24
ENDBRANCH   1  23
TORSDOF 11
ENDMDL
MODEL 3
REMARK VINA RESULT:     -11.5      2.268      7.331
REMARK SMILES Cc1cc(Cl)c2c(c1)C=C(C(=O)NCCCNC(=O)c1ccc(-c3c4nc(c(-c5ccccc5)c5ccc([nH]5)c(-c5ccccc5)c5nc(c(-c6ccccc6)c6ccc3[nH]6)C=C5)C=C4)cc1)[C@@H](C(F)(F)F)O2
REMARK SMILES IDX 15 1 14 2 13 3 11 4 12 5 10 7 1 8 2 9 3 10 8 11 4 12 7 13
REMARK SMILES IDX 5 14 6 15 9 16 73 17 68 18 69 19 70 20 71 21 72 22 16 23
REMARK SMILES IDX 17 24 18 25 19 27 20 28 21 29 67 30 22 31 66 32 23 33 24 34
REMARK SMILES IDX 25 35 60 36 26 37 65 38 59 39 61 40 27 41 64 42 58 43 57 44
REMARK SMILES IDX 28 46 50 47 35 48 49 49 36 50 39 51 48 52 62 53 37 54 38 55
REMARK SMILES IDX 47 57 63 58 40 59 29 60 30 61 34 62 31 63 33 64 32 65 51 66
REMARK SMILES IDX 52 67 56 68 53 69 55 70 54 71 41 72 42 73 46 74 43 75 45 76
REMARK SMILES IDX 44 77
REMARK H PARENT 13 6 17 26 61 45 39 56
REMARK Flexibility Score: inf
ROOT
ATOM      1  C   UNL A   1      37.650  19.528  25.008  1.00  0.00     0.042 C 
ENDROOT
BRANCH   1   2
ATOM      2  C   UNL A   1      36.524  20.489  24.661  1.00  0.00     0.118 C 
BRANCH   2   3
ATOM      3  N   UNL A   1      35.604  20.673  25.773  1.00  0.00    -0.352 N 
ATOM      4  C   UNL A   1      34.642  21.554  26.129  1.00  0.00     0.251 C 
ATOM      5  O   UNL A   1      34.085  21.318  27.205  1.00  0.00    -0.270 OA
ATOM      6  H   UNL A   1      35.711  19.964  26.448  1.00  0.00     0.163 HD
BRANCH   4   7
ATOM      7  C   UNL A   1      34.237  22.750  25.332  1.00  0.00     0.067 C 
ATOM      8  C   UNL A   1      33.685  28.904  25.813  1.00  0.00     0.044 C 
ATOM      9  C   UNL A   1      33.672  27.559  25.146  1.00  0.00    -0.049 A 
ATOM     10  C   UNL A   1      33.367  27.468  23.782  1.00  0.00     0.028 A 
ATOM     11  C   UNL A   1      34.000  26.396  25.855  1.00  0.00     0.015 A 
ATOM     12  C   UNL A   1      33.389  26.233  23.139  1.00  0.00     0.084 A 
ATOM     13  C   UNL A   1      34.018  25.152  25.213  1.00  0.00     0.019 A 
ATOM     14  Cl  UNL A   1      33.013  26.170  21.453  1.00  0.00    -0.080 Cl
ATOM     15  C   UNL A   1      33.710  25.074  23.852  1.00  0.00     0.146 A 
ATOM     16  C   UNL A   1      34.400  23.943  25.933  1.00  0.00     0.025 C 
ATOM     17  O   UNL A   1      33.769  23.891  23.168  1.00  0.00    -0.474 OA
ATOM     18  C   UNL A   1      33.655  22.677  23.952  1.00  0.00     0.314 C 
BRANCH  18  19
ATOM     19  C   UNL A   1      32.189  22.202  23.948  1.00  0.00     0.429 C 
ATOM     20  F   UNL A   1      32.131  20.849  23.875  1.00  0.00    -0.167 F 
ATOM     21  F   UNL A   1      31.526  22.551  25.077  1.00  0.00    -0.167 F 
ATOM     22  F   UNL A   1      31.482  22.699  22.911  1.00  0.00    -0.167 F 
ENDBRANCH  18  19
ENDBRANCH   4   7
ENDBRANCH   2   3
ENDBRANCH   1   2
BRANCH   1  23
ATOM     23  C   UNL A   1      38.890  20.258  25.505  1.00  0.00     0.118 C 
BRANCH  23  24
ATOM     24  N   UNL A   1      40.002  19.337  25.739  1.00  0.00    -0.352 N 
ATOM     25  C   UNL A   1      41.303  19.591  26.086  1.00  0.00     0.251 C 
ATOM     26  H   UNL A   1      39.780  18.384  25.630  1.00  0.00     0.163 HD
ATOM     27  O   UNL A   1      42.154  18.713  25.960  1.00  0.00    -0.269 OA
BRANCH  25  28
ATOM     28  C   UNL A   1      41.681  20.917  26.608  1.00  0.00     0.039 A 
ATOM     29  C   UNL A   1      42.167  21.888  25.731  1.00  0.00     0.014 A 
ATOM     30  C   UNL A   1      41.577  21.189  27.974  1.00  0.00     0.014 A 
ATOM     31  C   UNL A   1      42.485  23.156  26.219  1.00  0.00     0.010 A 
ATOM     32  C   UNL A   1      41.792  22.477  28.440  1.00  0.00     0.010 A 
ATOM     33  C   UNL A   1      42.266  23.469  27.571  1.00  0.00    -0.014 A 
BRANCH  33  34
ATOM     34  C   UNL A   1      42.556  24.818  28.107  1.00  0.00     0.031 A 
ATOM     35  C   UNL A   1      43.957  25.167  28.529  1.00  0.00     0.074 A 
ATOM     36  C   UNL A   1      41.554  25.704  28.261  1.00  0.00     0.049 A 
ATOM     37  N   UNL A   1      44.402  26.273  29.069  1.00  0.00    -0.248 NA
ATOM     38  C   UNL A   1      44.991  24.131  28.349  1.00  0.00     0.031 C 
ATOM     39  C   UNL A   1      40.148  25.463  27.922  1.00  0.00     0.029 A 
ATOM     40  N   UNL A   1      41.563  26.990  28.741  1.00  0.00    -0.354 N 
ATOM     41  C   UNL A   1      45.756  26.061  29.298  1.00  0.00     0.074 A 
ATOM     42  C   UNL A   1      46.051  24.703  28.901  1.00  0.00     0.031 C 
ATOM     43  C   UNL A   1      39.440  26.578  28.165  1.00  0.00     0.029 A 
ATOM     44  C   UNL A   1      40.329  27.594  28.718  1.00  0.00     0.049 A 
ATOM     45  H   UNL A   1      42.376  27.436  29.070  1.00  0.00     0.167 HD
ATOM     46  C   UNL A   1      46.677  26.930  29.767  1.00  0.00     0.031 A 
ATOM     47  C   UNL A   1      39.957  28.830  29.101  1.00  0.00     0.031 A 
ATOM     48  C   UNL A   1      46.385  28.288  30.137  1.00  0.00     0.049 A 
ATOM     49  C   UNL A   1      41.001  29.770  29.641  1.00  0.00     0.074 A 
ATOM     50  C   UNL A   1      47.260  29.265  30.574  1.00  0.00     0.029 A 
ATOM     51  N   UNL A   1      45.123  28.859  30.105  1.00  0.00    -0.354 N 
ATOM     52  N   UNL A   1      42.289  29.574  29.791  1.00  0.00    -0.248 NA
ATOM     53  C   UNL A   1      40.542  31.103  30.058  1.00  0.00     0.031 C 
ATOM     54  C   UNL A   1      46.519  30.413  30.859  1.00  0.00     0.029 A 
ATOM     55  C   UNL A   1      45.192  30.169  30.540  1.00  0.00     0.049 A 
ATOM     56  H   UNL A   1      44.302  28.400  29.816  1.00  0.00     0.167 HD
ATOM     57  C   UNL A   1      42.797  30.763  30.295  1.00  0.00     0.074 A 
ATOM     58  C   UNL A   1      41.683  31.682  30.407  1.00  0.00     0.031 C 
ATOM     59  C   UNL A   1      44.072  31.067  30.638  1.00  0.00     0.031 A 
BRANCH  46  60
ATOM     60  C   UNL A   1      48.097  26.454  29.893  1.00  0.00    -0.014 A 
ATOM     61  C   UNL A   1      48.551  25.843  31.072  1.00  0.00     0.009 A 
ATOM     62  C   UNL A   1      48.964  26.540  28.793  1.00  0.00     0.009 A 
ATOM     63  C   UNL A   1      49.852  25.341  31.153  1.00  0.00     0.001 A 
ATOM     64  C   UNL A   1      50.255  26.012  28.868  1.00  0.00     0.001 A 
ATOM     65  C   UNL A   1      50.698  25.418  30.047  1.00  0.00     0.000 A 
ENDBRANCH  46  60
BRANCH  47  66
ATOM     66  C   UNL A   1      38.540  29.260  28.967  1.00  0.00    -0.014 A 
ATOM     67  C   UNL A   1      37.667  29.188  30.064  1.00  0.00     0.009 A 
ATOM     68  C   UNL A   1      38.049  29.745  27.744  1.00  0.00     0.009 A 
ATOM     69  C   UNL A   1      36.330  29.568  29.933  1.00  0.00     0.001 A 
ATOM     70  C   UNL A   1      36.719  30.155  27.625  1.00  0.00     0.001 A 
ATOM     71  C   UNL A   1      35.858  30.056  28.716  1.00  0.00     0.000 A 
ENDBRANCH  47  66
BRANCH  59  72
ATOM     72  C   UNL A   1      44.345  32.453  31.147  1.00  0.00    -0.014 A 
ATOM     73  C   UNL A   1      44.329  32.735  32.520  1.00  0.00     0.009 A 
ATOM     74  C   UNL A   1      44.720  33.463  30.246  1.00  0.00     0.009 A 
ATOM     75  C   UNL A   1      44.664  34.009  32.981  1.00  0.00     0.001 A 
ATOM     76  C   UNL A   1      45.086  34.726  30.712  1.00  0.00     0.001 A 
ATOM     77  C   UNL A   1      45.052  34.999  32.078  1.00  0.00     0.000 A 
ENDBRANCH  59  72
ENDBRANCH  33  34
ENDBRANCH  25  28
ENDBRANCH  23  24
ENDBRANCH   1  23
TORSDOF 11
ENDMDL
