MODEL 1
REMARK VINA RESULT:     -11.4      0.000      0.000
REMARK SMILES Cc1ccc(OCCn2ccnc2)c(/C=C/C(=O)NCCCNC(=O)c2ccc(-c3c4nc(c(-c5ccccc5)c5ccc([nH]5)c(-c5ccccc5)c5nc(c(-c6ccccc6)c6ccc3[nH]6)C=C5)C=C4)cc2)n1
REMARK SMILES IDX 17 1 18 2 19 3 16 5 15 6 14 7 1 8 2 9 3 10 74 11 4 12 5 13
REMARK SMILES IDX 6 14 7 15 8 16 9 17 10 18 13 19 11 20 12 21 20 22 21 23
REMARK SMILES IDX 22 24 23 25 24 26 25 28 26 29 27 30 73 31 28 32 72 33 29 34
REMARK SMILES IDX 30 35 31 36 66 37 32 38 71 39 65 40 67 41 33 42 70 43 64 44
REMARK SMILES IDX 63 45 34 47 56 48 41 49 55 50 42 51 45 52 54 53 68 54 43 55
REMARK SMILES IDX 44 56 53 58 69 59 46 60 35 61 36 62 40 63 37 64 39 65 38 66
REMARK SMILES IDX 57 67 58 68 62 69 59 70 61 71 60 72 47 73 48 74 52 75 49 76
REMARK SMILES IDX 51 77 50 78
REMARK H PARENT 19 4 23 27 67 46 45 57
REMARK Flexibility Score: inf
ROOT
ATOM      1  C   UNL A   1      37.192  23.044  25.359  1.00  0.00     0.244 C 
ATOM      2  O   UNL A   1      37.924  24.029  25.460  1.00  0.00    -0.270 OA
ATOM      3  N   UNL A   1      37.701  21.904  24.812  1.00  0.00    -0.352 N 
ATOM      4  H   UNL A   1      38.602  22.004  24.429  1.00  0.00     0.163 HD
ENDROOT
BRANCH   1   5
ATOM      5  C   UNL A   1      35.806  23.117  25.883  1.00  0.00     0.073 C 
ATOM      6  C   UNL A   1      34.719  23.352  25.137  1.00  0.00     0.038 C 
BRANCH   6   7
ATOM      7  C   UNL A   1      33.342  23.514  25.610  1.00  0.00     0.105 A 
ATOM      8  C   UNL A   1      31.126  26.377  26.198  1.00  0.00     0.067 C 
ATOM      9  C   UNL A   1      31.584  24.966  25.993  1.00  0.00     0.038 A 
ATOM     10  C   UNL A   1      30.695  23.905  26.107  1.00  0.00     0.027 A 
ATOM     11  N   UNL A   1      32.889  24.787  25.691  1.00  0.00    -0.250 NA
ATOM     12  C   UNL A   1      31.185  22.601  26.043  1.00  0.00     0.050 A 
ATOM     13  C   UNL A   1      32.547  22.388  25.882  1.00  0.00     0.145 A 
BRANCH  13  14
ATOM     14  O   UNL A   1      33.167  21.170  26.004  1.00  0.00    -0.489 OA
BRANCH  14  15
ATOM     15  C   UNL A   1      33.272  20.325  24.848  1.00  0.00     0.251 C 
BRANCH  15  16
ATOM     16  C   UNL A   1      32.299  19.133  24.829  1.00  0.00     0.164 C 
BRANCH  16  17
ATOM     17  N   UNL A   1      32.940  17.841  24.700  1.00  0.00    -0.334 N 
ATOM     18  C   UNL A   1      32.797  16.780  25.551  1.00  0.00     0.107 A 
ATOM     19  C   UNL A   1      33.773  17.449  23.690  1.00  0.00     0.199 A 
ATOM     20  C   UNL A   1      33.473  15.748  24.946  1.00  0.00     0.130 A 
ATOM     21  N   UNL A   1      34.081  16.176  23.792  1.00  0.00    -0.245 NA
ENDBRANCH  16  17
ENDBRANCH  15  16
ENDBRANCH  14  15
ENDBRANCH  13  14
ENDBRANCH   6   7
ENDBRANCH   1   5
BRANCH   3  22
ATOM     22  C   UNL A   1      37.141  20.565  24.695  1.00  0.00     0.118 C 
BRANCH  22  23
ATOM     23  C   UNL A   1      38.156  19.466  25.049  1.00  0.00     0.042 C 
BRANCH  23  24
ATOM     24  C   UNL A   1      39.396  20.020  25.714  1.00  0.00     0.118 C 
BRANCH  24  25
ATOM     25  N   UNL A   1      40.466  19.020  25.849  1.00  0.00    -0.352 N 
ATOM     26  C   UNL A   1      41.825  19.222  26.060  1.00  0.00     0.251 C 
ATOM     27  H   UNL A   1      40.181  18.081  25.779  1.00  0.00     0.163 HD
ATOM     28  O   UNL A   1      42.640  18.349  25.844  1.00  0.00    -0.269 OA
BRANCH  26  29
ATOM     29  C   UNL A   1      42.244  20.538  26.574  1.00  0.00     0.039 A 
ATOM     30  C   UNL A   1      42.974  21.468  25.828  1.00  0.00     0.014 A 
ATOM     31  C   UNL A   1      41.787  20.848  27.842  1.00  0.00     0.014 A 
ATOM     32  C   UNL A   1      43.169  22.741  26.365  1.00  0.00     0.010 A 
ATOM     33  C   UNL A   1      41.683  22.155  28.189  1.00  0.00     0.010 A 
ATOM     34  C   UNL A   1      42.508  23.069  27.553  1.00  0.00    -0.014 A 
BRANCH  34  35
ATOM     35  C   UNL A   1      42.593  24.362  28.214  1.00  0.00     0.031 A 
ATOM     36  C   UNL A   1      41.435  25.264  27.995  1.00  0.00     0.074 A 
ATOM     37  C   UNL A   1      43.475  24.530  29.230  1.00  0.00     0.049 A 
ATOM     38  N   UNL A   1      41.439  26.449  27.484  1.00  0.00    -0.248 NA
ATOM     39  C   UNL A   1      40.087  24.743  28.286  1.00  0.00     0.031 C 
ATOM     40  C   UNL A   1      44.431  23.551  29.784  1.00  0.00     0.029 A 
ATOM     41  N   UNL A   1      43.569  25.550  30.117  1.00  0.00    -0.354 N 
ATOM     42  C   UNL A   1      40.126  26.903  27.566  1.00  0.00     0.074 A 
ATOM     43  C   UNL A   1      39.316  25.754  27.882  1.00  0.00     0.031 C 
ATOM     44  C   UNL A   1      44.778  23.912  31.038  1.00  0.00     0.029 A 
ATOM     45  C   UNL A   1      44.233  25.229  31.298  1.00  0.00     0.049 A 
ATOM     46  H   UNL A   1      43.199  26.445  29.942  1.00  0.00     0.167 HD
ATOM     47  C   UNL A   1      39.829  28.231  27.633  1.00  0.00     0.031 A 
ATOM     48  C   UNL A   1      44.289  25.978  32.425  1.00  0.00     0.031 A 
ATOM     49  C   UNL A   1      40.964  29.050  27.296  1.00  0.00     0.049 A 
ATOM     50  C   UNL A   1      43.911  27.358  32.044  1.00  0.00     0.074 A 
ATOM     51  C   UNL A   1      41.767  29.191  26.182  1.00  0.00     0.029 A 
ATOM     52  N   UNL A   1      41.678  29.587  28.342  1.00  0.00    -0.354 N 
ATOM     53  N   UNL A   1      44.617  28.094  31.232  1.00  0.00    -0.248 NA
ATOM     54  C   UNL A   1      42.511  27.735  32.166  1.00  0.00     0.031 C 
ATOM     55  C   UNL A   1      43.089  29.328  26.704  1.00  0.00     0.029 A 
ATOM     56  C   UNL A   1      43.006  29.342  28.098  1.00  0.00     0.049 A 
ATOM     57  H   UNL A   1      41.305  30.060  29.121  1.00  0.00     0.167 HD
ATOM     58  C   UNL A   1      43.684  28.721  30.418  1.00  0.00     0.074 A 
ATOM     59  C   UNL A   1      42.404  28.540  31.105  1.00  0.00     0.031 C 
ATOM     60  C   UNL A   1      43.982  29.062  29.129  1.00  0.00     0.031 A 
BRANCH  47  61
ATOM     61  C   UNL A   1      38.654  28.783  28.397  1.00  0.00    -0.014 A 
ATOM     62  C   UNL A   1      37.821  29.726  27.772  1.00  0.00     0.009 A 
ATOM     63  C   UNL A   1      38.500  28.625  29.789  1.00  0.00     0.009 A 
ATOM     64  C   UNL A   1      36.927  30.510  28.513  1.00  0.00     0.001 A 
ATOM     65  C   UNL A   1      37.578  29.373  30.524  1.00  0.00     0.001 A 
ATOM     66  C   UNL A   1      36.810  30.337  29.888  1.00  0.00     0.000 A 
ENDBRANCH  47  61
BRANCH  48  67
ATOM     67  C   UNL A   1      44.341  25.516  33.830  1.00  0.00    -0.014 A 
ATOM     68  C   UNL A   1      43.504  24.488  34.290  1.00  0.00     0.009 A 
ATOM     69  C   UNL A   1      45.406  25.912  34.664  1.00  0.00     0.009 A 
ATOM     70  C   UNL A   1      43.744  23.859  35.521  1.00  0.00     0.001 A 
ATOM     71  C   UNL A   1      45.646  25.284  35.892  1.00  0.00     0.001 A 
ATOM     72  C   UNL A   1      44.822  24.247  36.314  1.00  0.00     0.000 A 
ENDBRANCH  48  67
BRANCH  60  73
ATOM     73  C   UNL A   1      45.411  28.880  28.663  1.00  0.00    -0.014 A 
ATOM     74  C   UNL A   1      45.910  27.656  28.180  1.00  0.00     0.009 A 
ATOM     75  C   UNL A   1      46.226  30.014  28.546  1.00  0.00     0.009 A 
ATOM     76  C   UNL A   1      47.191  27.565  27.624  1.00  0.00     0.001 A 
ATOM     77  C   UNL A   1      47.499  29.927  27.975  1.00  0.00     0.001 A 
ATOM     78  C   UNL A   1      47.984  28.703  27.517  1.00  0.00     0.000 A 
ENDBRANCH  60  73
ENDBRANCH  34  35
ENDBRANCH  26  29
ENDBRANCH  24  25
ENDBRANCH  23  24
ENDBRANCH  22  23
ENDBRANCH   3  22
TORSDOF 15
ENDMDL
MODEL 2
REMARK VINA RESULT:     -11.4      4.645      9.737
REMARK SMILES Cc1ccc(OCCn2ccnc2)c(/C=C/C(=O)NCCCNC(=O)c2ccc(-c3c4nc(c(-c5ccccc5)c5ccc([nH]5)c(-c5ccccc5)c5nc(c(-c6ccccc6)c6ccc3[nH]6)C=C5)C=C4)cc2)n1
REMARK SMILES IDX 17 1 18 2 19 3 16 5 15 6 14 7 1 8 2 9 3 10 74 11 4 12 5 13
REMARK SMILES IDX 6 14 7 15 8 16 9 17 10 18 13 19 11 20 12 21 20 22 21 23
REMARK SMILES IDX 22 24 23 25 24 26 25 28 26 29 27 30 73 31 28 32 72 33 29 34
REMARK SMILES IDX 30 35 31 36 66 37 32 38 71 39 65 40 67 41 33 42 70 43 64 44
REMARK SMILES IDX 63 45 34 47 56 48 41 49 55 50 42 51 45 52 54 53 68 54 43 55
REMARK SMILES IDX 44 56 53 58 69 59 46 60 35 61 36 62 40 63 37 64 39 65 38 66
REMARK SMILES IDX 57 67 58 68 62 69 59 70 61 71 60 72 47 73 48 74 52 75 49 76
REMARK SMILES IDX 51 77 50 78
REMARK H PARENT 19 4 23 27 67 46 45 57
REMARK Flexibility Score: inf
ROOT
ATOM      1  C   UNL A   1      31.921  28.342  27.198  1.00  0.00     0.244 C 
ATOM      2  O   UNL A   1      31.647  27.767  28.251  1.00  0.00    -0.270 OA
ATOM      3  N   UNL A   1      31.484  29.621  27.017  1.00  0.00    -0.352 N 
ATOM      4  H   UNL A   1      30.873  29.945  27.718  1.00  0.00     0.163 HD
ENDROOT
BRANCH   1   5
ATOM      5  C   UNL A   1      32.756  27.644  26.190  1.00  0.00     0.073 C 
ATOM      6  C   UNL A   1      32.767  26.320  25.990  1.00  0.00     0.038 C 
BRANCH   6   7
ATOM      7  C   UNL A   1      33.627  25.572  25.069  1.00  0.00     0.105 A 
ATOM      8  C   UNL A   1      36.528  23.363  25.452  1.00  0.00     0.067 C 
ATOM      9  C   UNL A   1      35.352  24.052  24.833  1.00  0.00     0.038 A 
ATOM     10  C   UNL A   1      35.035  23.857  23.495  1.00  0.00     0.027 A 
ATOM     11  N   UNL A   1      34.626  24.858  25.638  1.00  0.00    -0.250 NA
ATOM     12  C   UNL A   1      34.018  24.618  22.922  1.00  0.00     0.050 A 
ATOM     13  C   UNL A   1      33.353  25.564  23.691  1.00  0.00     0.145 A 
BRANCH  13  14
ATOM     14  O   UNL A   1      32.482  26.502  23.197  1.00  0.00    -0.489 OA
BRANCH  14  15
ATOM     15  C   UNL A   1      31.189  26.077  22.740  1.00  0.00     0.251 C 
BRANCH  15  16
ATOM     16  C   UNL A   1      30.005  26.612  23.564  1.00  0.00     0.164 C 
BRANCH  16  17
ATOM     17  N   UNL A   1      29.464  27.868  23.087  1.00  0.00    -0.334 N 
ATOM     18  C   UNL A   1      30.169  28.877  22.491  1.00  0.00     0.107 A 
ATOM     19  C   UNL A   1      28.152  28.248  23.124  1.00  0.00     0.199 A 
ATOM     20  C   UNL A   1      29.218  29.784  22.092  1.00  0.00     0.130 A 
ATOM     21  N   UNL A   1      27.968  29.387  22.495  1.00  0.00    -0.245 NA
ENDBRANCH  16  17
ENDBRANCH  15  16
ENDBRANCH  14  15
ENDBRANCH  13  14
ENDBRANCH   6   7
ENDBRANCH   1   5
BRANCH   3  22
ATOM     22  C   UNL A   1      31.765  30.590  25.967  1.00  0.00     0.118 C 
BRANCH  22  23
ATOM     23  C   UNL A   1      31.450  32.033  26.393  1.00  0.00     0.042 C 
BRANCH  23  24
ATOM     24  C   UNL A   1      32.469  32.580  27.368  1.00  0.00     0.118 C 
BRANCH  24  25
ATOM     25  N   UNL A   1      32.302  34.019  27.619  1.00  0.00    -0.352 N 
ATOM     26  C   UNL A   1      32.962  34.824  28.541  1.00  0.00     0.251 C 
ATOM     27  H   UNL A   1      31.633  34.474  27.060  1.00  0.00     0.163 HD
ATOM     28  O   UNL A   1      32.526  35.909  28.866  1.00  0.00    -0.269 OA
BRANCH  26  29
ATOM     29  C   UNL A   1      34.227  34.318  29.101  1.00  0.00     0.039 A 
ATOM     30  C   UNL A   1      34.347  33.777  30.385  1.00  0.00     0.014 A 
ATOM     31  C   UNL A   1      35.303  34.328  28.232  1.00  0.00     0.014 A 
ATOM     32  C   UNL A   1      35.558  33.182  30.742  1.00  0.00     0.010 A 
ATOM     33  C   UNL A   1      36.323  33.463  28.458  1.00  0.00     0.010 A 
ATOM     34  C   UNL A   1      36.540  33.030  29.756  1.00  0.00    -0.014 A 
BRANCH  34  35
ATOM     35  C   UNL A   1      37.835  32.406  29.973  1.00  0.00     0.031 A 
ATOM     36  C   UNL A   1      37.923  30.976  29.588  1.00  0.00     0.074 A 
ATOM     37  C   UNL A   1      38.928  33.191  30.143  1.00  0.00     0.049 A 
ATOM     38  N   UNL A   1      38.237  29.972  30.336  1.00  0.00    -0.248 NA
ATOM     39  C   UNL A   1      37.510  30.599  28.224  1.00  0.00     0.031 C 
ATOM     40  C   UNL A   1      39.002  34.665  30.166  1.00  0.00     0.029 A 
ATOM     41  N   UNL A   1      40.237  32.842  30.136  1.00  0.00    -0.354 N 
ATOM     42  C   UNL A   1      38.251  28.862  29.496  1.00  0.00     0.074 A 
ATOM     43  C   UNL A   1      37.614  29.270  28.270  1.00  0.00     0.031 C 
ATOM     44  C   UNL A   1      40.263  35.062  29.888  1.00  0.00     0.029 A 
ATOM     45  C   UNL A   1      41.112  33.890  29.864  1.00  0.00     0.049 A 
ATOM     46  H   UNL A   1      40.546  31.924  30.310  1.00  0.00     0.167 HD
ATOM     47  C   UNL A   1      39.020  27.770  29.764  1.00  0.00     0.031 A 
ATOM     48  C   UNL A   1      42.436  33.790  29.590  1.00  0.00     0.031 A 
ATOM     49  C   UNL A   1      39.525  27.789  31.113  1.00  0.00     0.049 A 
ATOM     50  C   UNL A   1      42.873  32.455  30.062  1.00  0.00     0.074 A 
ATOM     51  C   UNL A   1      38.949  27.808  32.368  1.00  0.00     0.029 A 
ATOM     52  N   UNL A   1      40.819  28.220  31.289  1.00  0.00    -0.354 N 
ATOM     53  N   UNL A   1      42.858  32.101  31.317  1.00  0.00    -0.248 NA
ATOM     54  C   UNL A   1      42.851  31.359  29.105  1.00  0.00     0.031 C 
ATOM     55  C   UNL A   1      39.751  28.718  33.121  1.00  0.00     0.029 A 
ATOM     56  C   UNL A   1      40.808  29.138  32.310  1.00  0.00     0.049 A 
ATOM     57  H   UNL A   1      41.607  27.926  30.778  1.00  0.00     0.167 HD
ATOM     58  C   UNL A   1      42.382  30.798  31.312  1.00  0.00     0.074 A 
ATOM     59  C   UNL A   1      42.490  30.361  29.919  1.00  0.00     0.031 C 
ATOM     60  C   UNL A   1      41.668  30.300  32.366  1.00  0.00     0.031 A 
BRANCH  47  61
ATOM     61  C   UNL A   1      39.650  26.914  28.697  1.00  0.00    -0.014 A 
ATOM     62  C   UNL A   1      40.470  27.525  27.733  1.00  0.00     0.009 A 
ATOM     63  C   UNL A   1      39.249  25.588  28.439  1.00  0.00     0.009 A 
ATOM     64  C   UNL A   1      40.815  26.863  26.548  1.00  0.00     0.001 A 
ATOM     65  C   UNL A   1      39.628  24.910  27.279  1.00  0.00     0.001 A 
ATOM     66  C   UNL A   1      40.390  25.558  26.319  1.00  0.00     0.000 A 
ENDBRANCH  47  61
BRANCH  48  67
ATOM     67  C   UNL A   1      43.251  34.631  28.686  1.00  0.00    -0.014 A 
ATOM     68  C   UNL A   1      42.686  35.248  27.560  1.00  0.00     0.009 A 
ATOM     69  C   UNL A   1      44.540  35.043  29.078  1.00  0.00     0.009 A 
ATOM     70  C   UNL A   1      43.372  36.262  26.873  1.00  0.00     0.001 A 
ATOM     71  C   UNL A   1      45.225  36.055  28.392  1.00  0.00     0.001 A 
ATOM     72  C   UNL A   1      44.633  36.674  27.298  1.00  0.00     0.000 A 
ENDBRANCH  48  67
BRANCH  60  73
ATOM     73  C   UNL A   1      41.550  31.158  33.606  1.00  0.00    -0.014 A 
ATOM     74  C   UNL A   1      40.561  32.148  33.762  1.00  0.00     0.009 A 
ATOM     75  C   UNL A   1      42.346  30.846  34.716  1.00  0.00     0.009 A 
ATOM     76  C   UNL A   1      40.393  32.820  34.979  1.00  0.00     0.001 A 
ATOM     77  C   UNL A   1      42.168  31.503  35.936  1.00  0.00     0.001 A 
ATOM     78  C   UNL A   1      41.195  32.493  36.068  1.00  0.00     0.000 A 
ENDBRANCH  60  73
ENDBRANCH  34  35
ENDBRANCH  26  29
ENDBRANCH  24  25
ENDBRANCH  23  24
ENDBRANCH  22  23
ENDBRANCH   3  22
TORSDOF 15
ENDMDL
MODEL 3
REMARK VINA RESULT:     -11.1      3.427      8.196
REMARK SMILES Cc1ccc(OCCn2ccnc2)c(/C=C/C(=O)NCCCNC(=O)c2ccc(-c3c4nc(c(-c5ccccc5)c5ccc([nH]5)c(-c5ccccc5)c5nc(c(-c6ccccc6)c6ccc3[nH]6)C=C5)C=C4)cc2)n1
REMARK SMILES IDX 17 1 18 2 19 3 16 5 15 6 14 7 1 8 2 9 3 10 74 11 4 12 5 13
REMARK SMILES IDX 6 14 7 15 8 16 9 17 10 18 13 19 11 20 12 21 20 22 21 23
REMARK SMILES IDX 22 24 23 25 24 26 25 28 26 29 27 30 73 31 28 32 72 33 29 34
REMARK SMILES IDX 30 35 31 36 66 37 32 38 71 39 65 40 67 41 33 42 70 43 64 44
REMARK SMILES IDX 63 45 34 47 56 48 41 49 55 50 42 51 45 52 54 53 68 54 43 55
REMARK SMILES IDX 44 56 53 58 69 59 46 60 35 61 36 62 40 63 37 64 39 65 38 66
REMARK SMILES IDX 57 67 58 68 62 69 59 70 61 71 60 72 47 73 48 74 52 75 49 76
REMARK SMILES IDX 51 77 50 78
REMARK H PARENT 19 4 23 27 67 46 45 57
REMARK Flexibility Score: inf
ROOT
ATOM      1  C   UNL A   1      32.087  28.152  27.170  1.00  0.00     0.244 C 
ATOM      2  O   UNL A   1      31.236  27.535  27.810  1.00  0.00    -0.270 OA
ATOM      3  N   UNL A   1      32.244  29.486  27.404  1.00  0.00    -0.352 N 
ATOM      4  H   UNL A   1      31.565  29.876  28.002  1.00  0.00     0.163 HD
ENDROOT
BRANCH   1   5
ATOM      5  C   UNL A   1      32.944  27.415  26.209  1.00  0.00     0.073 C 
ATOM      6  C   UNL A   1      32.890  26.094  25.994  1.00  0.00     0.038 C 
BRANCH   6   7
ATOM      7  C   UNL A   1      33.762  25.305  25.121  1.00  0.00     0.105 A 
ATOM      8  C   UNL A   1      37.045  23.713  25.493  1.00  0.00     0.067 C 
ATOM      9  C   UNL A   1      35.699  24.057  24.934  1.00  0.00     0.038 A 
ATOM     10  C   UNL A   1      35.274  23.525  23.724  1.00  0.00     0.027 A 
ATOM     11  N   UNL A   1      34.934  24.898  25.664  1.00  0.00    -0.250 NA
ATOM     12  C   UNL A   1      34.076  23.973  23.171  1.00  0.00     0.050 A 
ATOM     13  C   UNL A   1      33.340  24.950  23.829  1.00  0.00     0.145 A 
BRANCH  13  14
ATOM     14  O   UNL A   1      32.261  25.609  23.295  1.00  0.00    -0.489 OA
BRANCH  14  15
ATOM     15  C   UNL A   1      32.484  26.596  22.277  1.00  0.00     0.251 C 
BRANCH  15  16
ATOM     16  C   UNL A   1      32.223  28.047  22.718  1.00  0.00     0.164 C 
BRANCH  16  17
ATOM     17  N   UNL A   1      30.837  28.459  22.631  1.00  0.00    -0.334 N 
ATOM     18  C   UNL A   1      29.764  27.798  23.162  1.00  0.00     0.107 A 
ATOM     19  C   UNL A   1      30.367  29.593  22.032  1.00  0.00     0.199 A 
ATOM     20  C   UNL A   1      28.694  28.633  22.949  1.00  0.00     0.130 A 
ATOM     21  N   UNL A   1      29.079  29.743  22.240  1.00  0.00    -0.245 NA
ENDBRANCH  16  17
ENDBRANCH  15  16
ENDBRANCH  14  15
ENDBRANCH  13  14
ENDBRANCH   6   7
ENDBRANCH   1   5
BRANCH   3  22
ATOM     22  C   UNL A   1      33.240  30.433  26.923  1.00  0.00     0.118 C 
BRANCH  22  23
ATOM     23  C   UNL A   1      34.596  30.276  27.630  1.00  0.00     0.042 C 
BRANCH  23  24
ATOM     24  C   UNL A   1      35.311  31.598  27.802  1.00  0.00     0.118 C 
BRANCH  24  25
ATOM     25  N   UNL A   1      34.956  32.279  29.056  1.00  0.00    -0.352 N 
ATOM     26  C   UNL A   1      35.337  31.965  30.356  1.00  0.00     0.251 C 
ATOM     27  H   UNL A   1      34.368  33.062  28.963  1.00  0.00     0.163 HD
ATOM     28  O   UNL A   1      34.739  32.401  31.318  1.00  0.00    -0.269 OA
BRANCH  26  29
ATOM     29  C   UNL A   1      36.510  31.090  30.527  1.00  0.00     0.039 A 
ATOM     30  C   UNL A   1      36.431  29.700  30.659  1.00  0.00     0.014 A 
ATOM     31  C   UNL A   1      37.735  31.727  30.459  1.00  0.00     0.014 A 
ATOM     32  C   UNL A   1      37.618  28.966  30.649  1.00  0.00     0.010 A 
ATOM     33  C   UNL A   1      38.824  30.998  30.108  1.00  0.00     0.010 A 
ATOM     34  C   UNL A   1      38.812  29.637  30.367  1.00  0.00    -0.014 A 
BRANCH  34  35
ATOM     35  C   UNL A   1      40.118  29.001  30.296  1.00  0.00     0.031 A 
ATOM     36  C   UNL A   1      40.779  28.761  31.603  1.00  0.00     0.074 A 
ATOM     37  C   UNL A   1      40.481  28.357  29.159  1.00  0.00     0.049 A 
ATOM     38  N   UNL A   1      41.927  29.195  32.002  1.00  0.00    -0.248 NA
ATOM     39  C   UNL A   1      40.024  28.031  32.637  1.00  0.00     0.031 C 
ATOM     40  C   UNL A   1      39.716  28.215  27.904  1.00  0.00     0.029 A 
ATOM     41  N   UNL A   1      41.527  27.523  28.948  1.00  0.00    -0.354 N 
ATOM     42  C   UNL A   1      42.129  28.636  33.260  1.00  0.00     0.074 A 
ATOM     43  C   UNL A   1      40.858  28.097  33.675  1.00  0.00     0.031 C 
ATOM     44  C   UNL A   1      40.175  27.153  27.208  1.00  0.00     0.029 A 
ATOM     45  C   UNL A   1      41.374  26.667  27.861  1.00  0.00     0.049 A 
ATOM     46  H   UNL A   1      42.331  27.521  29.517  1.00  0.00     0.167 HD
ATOM     47  C   UNL A   1      43.378  28.418  33.756  1.00  0.00     0.031 A 
ATOM     48  C   UNL A   1      42.155  25.605  27.550  1.00  0.00     0.031 A 
ATOM     49  C   UNL A   1      44.386  29.104  32.989  1.00  0.00     0.049 A 
ATOM     50  C   UNL A   1      43.427  25.775  28.289  1.00  0.00     0.074 A 
ATOM     51  C   UNL A   1      44.639  30.424  32.674  1.00  0.00     0.029 A 
ATOM     52  N   UNL A   1      45.080  28.359  32.064  1.00  0.00    -0.354 N 
ATOM     53  N   UNL A   1      44.256  26.756  28.067  1.00  0.00    -0.248 NA
ATOM     54  C   UNL A   1      43.537  25.151  29.598  1.00  0.00     0.031 C 
ATOM     55  C   UNL A   1      45.039  30.400  31.304  1.00  0.00     0.029 A 
ATOM     56  C   UNL A   1      45.081  29.066  30.888  1.00  0.00     0.049 A 
ATOM     57  H   UNL A   1      45.499  27.481  32.217  1.00  0.00     0.167 HD
ATOM     58  C   UNL A   1      44.671  27.162  29.328  1.00  0.00     0.074 A 
ATOM     59  C   UNL A   1      44.275  26.074  30.223  1.00  0.00     0.031 C 
ATOM     60  C   UNL A   1      45.021  28.460  29.576  1.00  0.00     0.031 A 
BRANCH  47  61
ATOM     61  C   UNL A   1      43.724  27.267  34.664  1.00  0.00    -0.014 A 
ATOM     62  C   UNL A   1      43.598  25.955  34.174  1.00  0.00     0.009 A 
ATOM     63  C   UNL A   1      43.898  27.410  36.055  1.00  0.00     0.009 A 
ATOM     64  C   UNL A   1      43.585  24.854  35.040  1.00  0.00     0.001 A 
ATOM     65  C   UNL A   1      43.931  26.312  36.916  1.00  0.00     0.001 A 
ATOM     66  C   UNL A   1      43.746  25.034  36.411  1.00  0.00     0.000 A 
ENDBRANCH  47  61
BRANCH  48  67
ATOM     67  C   UNL A   1      41.756  24.327  26.918  1.00  0.00    -0.014 A 
ATOM     68  C   UNL A   1      42.617  23.646  26.045  1.00  0.00     0.009 A 
ATOM     69  C   UNL A   1      40.617  23.637  27.380  1.00  0.00     0.009 A 
ATOM     70  C   UNL A   1      42.367  22.316  25.676  1.00  0.00     0.001 A 
ATOM     71  C   UNL A   1      40.367  22.310  27.012  1.00  0.00     0.001 A 
ATOM     72  C   UNL A   1      41.251  21.644  26.170  1.00  0.00     0.000 A 
ENDBRANCH  48  67
BRANCH  60  73
ATOM     73  C   UNL A   1      45.097  29.407  28.398  1.00  0.00    -0.014 A 
ATOM     74  C   UNL A   1      43.984  30.124  27.918  1.00  0.00     0.009 A 
ATOM     75  C   UNL A   1      46.356  29.717  27.868  1.00  0.00     0.009 A 
ATOM     76  C   UNL A   1      44.124  31.098  26.923  1.00  0.00     0.001 A 
ATOM     77  C   UNL A   1      46.500  30.702  26.887  1.00  0.00     0.001 A 
ATOM     78  C   UNL A   1      45.384  31.391  26.411  1.00  0.00     0.000 A 
ENDBRANCH  60  73
ENDBRANCH  34  35
ENDBRANCH  26  29
ENDBRANCH  24  25
ENDBRANCH  23  24
ENDBRANCH  22  23
ENDBRANCH   3  22
TORSDOF 15
ENDMDL
