MODEL 1
REMARK VINA RESULT:     -10.7      0.000      0.000
REMARK SMILES COCCC(=O)N1Cc2ccccc2C[C@H]1C(=O)NCCCNC(=O)c1ccc(-c2c3nc(c(-c4ccccc4)c4ccc([nH]4)c(-c4ccccc4)c4nc(c(-c5ccccc5)c5ccc2[nH]5)C=C4)C=C3)cc1
REMARK SMILES IDX 20 1 19 2 17 3 18 4 16 6 7 7 8 8 9 9 15 10 10 11 14 12 11 13
REMARK SMILES IDX 13 14 12 15 5 16 6 17 4 18 3 19 2 20 1 21 21 22 22 23 23 24
REMARK SMILES IDX 24 25 25 27 26 28 27 29 73 30 28 31 72 32 29 33 30 34 31 35
REMARK SMILES IDX 66 36 32 37 71 38 65 39 67 40 33 41 70 42 64 43 63 44 34 46
REMARK SMILES IDX 56 47 41 48 55 49 42 50 45 51 54 52 68 53 43 54 44 55 53 57
REMARK SMILES IDX 69 58 46 59 35 60 36 61 40 62 37 63 39 64 38 65 57 66 58 67
REMARK SMILES IDX 62 68 59 69 61 70 60 71 47 72 48 73 52 74 49 75 51 76 50 77
REMARK H PARENT 19 5 23 26 67 45 45 56
REMARK Flexibility Score: inf
ROOT
ATOM      1  C   UNL A   1      32.704  27.609  24.606  1.00  0.00     0.117 C 
ENDROOT
BRANCH   1   2
ATOM      2  N   UNL A   1      33.168  27.206  23.293  1.00  0.00    -0.354 N 
ATOM      3  C   UNL A   1      33.562  25.991  22.827  1.00  0.00     0.243 C 
ATOM      4  O   UNL A   1      33.682  25.885  21.602  1.00  0.00    -0.273 OA
ATOM      5  H   UNL A   1      33.203  27.932  22.630  1.00  0.00     0.163 HD
BRANCH   3   6
ATOM      6  C   UNL A   1      33.627  24.755  23.738  1.00  0.00     0.179 C 
ATOM      7  N   UNL A   1      32.497  23.781  23.715  1.00  0.00    -0.326 N 
ATOM      8  C   UNL A   1      32.812  22.349  23.624  1.00  0.00     0.156 C 
ATOM      9  C   UNL A   1      34.158  21.943  24.162  1.00  0.00    -0.025 A 
ATOM     10  C   UNL A   1      35.022  24.159  23.430  1.00  0.00     0.071 C 
ATOM     11  C   UNL A   1      34.370  20.652  24.665  1.00  0.00     0.006 A 
ATOM     12  C   UNL A   1      35.246  22.814  24.045  1.00  0.00    -0.040 A 
ATOM     13  C   UNL A   1      35.649  20.237  25.037  1.00  0.00     0.000 A 
ATOM     14  C   UNL A   1      36.531  22.389  24.400  1.00  0.00     0.004 A 
ATOM     15  C   UNL A   1      36.730  21.104  24.899  1.00  0.00     0.000 A 
BRANCH   7  16
ATOM     16  C   UNL A   1      31.218  24.092  24.186  1.00  0.00     0.225 C 
ATOM     17  O   UNL A   1      30.268  24.290  23.423  1.00  0.00    -0.275 OA
BRANCH  16  18
ATOM     18  C   UNL A   1      30.999  24.343  25.664  1.00  0.00     0.128 C 
BRANCH  18  19
ATOM     19  C   UNL A   1      30.543  23.107  26.410  1.00  0.00     0.169 C 
BRANCH  19  20
ATOM     20  O   UNL A   1      31.284  23.007  27.621  1.00  0.00    -0.384 OA
ATOM     21  C   UNL A   1      32.669  22.787  27.405  1.00  0.00     0.194 C 
ENDBRANCH  19  20
ENDBRANCH  18  19
ENDBRANCH  16  18
ENDBRANCH   7  16
ENDBRANCH   3   6
ENDBRANCH   1   2
BRANCH   1  22
ATOM     22  C   UNL A   1      33.835  27.998  25.546  1.00  0.00     0.042 C 
BRANCH  22  23
ATOM     23  C   UNL A   1      33.366  28.395  26.940  1.00  0.00     0.118 C 
BRANCH  23  24
ATOM     24  N   UNL A   1      33.374  29.838  27.135  1.00  0.00    -0.352 N 
ATOM     25  C   UNL A   1      34.266  30.644  27.790  1.00  0.00     0.251 C 
ATOM     26  H   UNL A   1      32.612  30.311  26.729  1.00  0.00     0.163 HD
ATOM     27  O   UNL A   1      33.948  31.797  28.066  1.00  0.00    -0.269 OA
BRANCH  25  28
ATOM     28  C   UNL A   1      35.602  30.140  28.166  1.00  0.00     0.039 A 
ATOM     29  C   UNL A   1      35.801  29.671  29.467  1.00  0.00     0.014 A 
ATOM     30  C   UNL A   1      36.671  30.189  27.269  1.00  0.00     0.014 A 
ATOM     31  C   UNL A   1      37.065  29.223  29.854  1.00  0.00     0.010 A 
ATOM     32  C   UNL A   1      37.904  29.656  27.624  1.00  0.00     0.010 A 
ATOM     33  C   UNL A   1      38.122  29.197  28.930  1.00  0.00    -0.014 A 
BRANCH  33  34
ATOM     34  C   UNL A   1      39.474  28.744  29.334  1.00  0.00     0.031 A 
ATOM     35  C   UNL A   1      40.308  29.589  30.259  1.00  0.00     0.074 A 
ATOM     36  C   UNL A   1      39.966  27.592  28.840  1.00  0.00     0.049 A 
ATOM     37  N   UNL A   1      41.505  29.357  30.736  1.00  0.00    -0.248 NA
ATOM     38  C   UNL A   1      39.736  30.879  30.681  1.00  0.00     0.031 C 
ATOM     39  C   UNL A   1      39.276  26.709  27.898  1.00  0.00     0.029 A 
ATOM     40  N   UNL A   1      41.161  26.962  29.076  1.00  0.00    -0.354 N 
ATOM     41  C   UNL A   1      41.835  30.479  31.487  1.00  0.00     0.074 A 
ATOM     42  C   UNL A   1      40.739  31.412  31.360  1.00  0.00     0.031 C 
ATOM     43  C   UNL A   1      40.039  25.627  27.674  1.00  0.00     0.029 A 
ATOM     44  C   UNL A   1      41.280  25.755  28.432  1.00  0.00     0.049 A 
ATOM     45  H   UNL A   1      41.866  27.338  29.651  1.00  0.00     0.167 HD
ATOM     46  C   UNL A   1      42.940  30.705  32.235  1.00  0.00     0.031 A 
ATOM     47  C   UNL A   1      42.270  24.846  28.465  1.00  0.00     0.031 A 
ATOM     48  C   UNL A   1      44.019  29.765  32.383  1.00  0.00     0.049 A 
ATOM     49  C   UNL A   1      43.474  25.104  29.326  1.00  0.00     0.074 A 
ATOM     50  C   UNL A   1      45.151  29.865  33.173  1.00  0.00     0.029 A 
ATOM     51  N   UNL A   1      44.095  28.548  31.725  1.00  0.00    -0.354 N 
ATOM     52  N   UNL A   1      43.736  26.134  30.094  1.00  0.00    -0.248 NA
ATOM     53  C   UNL A   1      44.507  24.059  29.341  1.00  0.00     0.031 C 
ATOM     54  C   UNL A   1      45.932  28.724  32.960  1.00  0.00     0.029 A 
ATOM     55  C   UNL A   1      45.262  27.892  32.077  1.00  0.00     0.049 A 
ATOM     56  H   UNL A   1      43.418  28.200  31.100  1.00  0.00     0.167 HD
ATOM     57  C   UNL A   1      44.948  25.848  30.709  1.00  0.00     0.074 A 
ATOM     58  C   UNL A   1      45.359  24.542  30.234  1.00  0.00     0.031 C 
ATOM     59  C   UNL A   1      45.653  26.594  31.593  1.00  0.00     0.031 A 
BRANCH  46  60
ATOM     60  C   UNL A   1      43.034  32.031  32.941  1.00  0.00    -0.014 A 
ATOM     61  C   UNL A   1      42.521  32.207  34.237  1.00  0.00     0.009 A 
ATOM     62  C   UNL A   1      43.648  33.118  32.301  1.00  0.00     0.009 A 
ATOM     63  C   UNL A   1      42.578  33.457  34.857  1.00  0.00     0.001 A 
ATOM     64  C   UNL A   1      43.730  34.359  32.936  1.00  0.00     0.001 A 
ATOM     65  C   UNL A   1      43.184  34.531  34.207  1.00  0.00     0.000 A 
ENDBRANCH  46  60
BRANCH  47  66
ATOM     66  C   UNL A   1      42.138  23.575  27.708  1.00  0.00    -0.014 A 
ATOM     67  C   UNL A   1      42.603  23.491  26.386  1.00  0.00     0.009 A 
ATOM     68  C   UNL A   1      41.556  22.443  28.298  1.00  0.00     0.009 A 
ATOM     69  C   UNL A   1      42.463  22.306  25.661  1.00  0.00     0.001 A 
ATOM     70  C   UNL A   1      41.441  21.252  27.578  1.00  0.00     0.001 A 
ATOM     71  C   UNL A   1      41.888  21.186  26.258  1.00  0.00     0.000 A 
ENDBRANCH  47  66
BRANCH  59  72
ATOM     72  C   UNL A   1      46.920  25.993  32.132  1.00  0.00    -0.014 A 
ATOM     73  C   UNL A   1      46.926  25.233  33.312  1.00  0.00     0.009 A 
ATOM     74  C   UNL A   1      48.124  26.178  31.435  1.00  0.00     0.009 A 
ATOM     75  C   UNL A   1      48.122  24.710  33.807  1.00  0.00     0.001 A 
ATOM     76  C   UNL A   1      49.312  25.628  31.916  1.00  0.00     0.001 A 
ATOM     77  C   UNL A   1      49.312  24.904  33.107  1.00  0.00     0.000 A 
ENDBRANCH  59  72
ENDBRANCH  33  34
ENDBRANCH  25  28
ENDBRANCH  23  24
ENDBRANCH  22  23
ENDBRANCH   1  22
TORSDOF 14
ENDMDL
MODEL 2
REMARK VINA RESULT:     -10.7      4.897     10.660
REMARK SMILES COCCC(=O)N1Cc2ccccc2C[C@H]1C(=O)NCCCNC(=O)c1ccc(-c2c3nc(c(-c4ccccc4)c4ccc([nH]4)c(-c4ccccc4)c4nc(c(-c5ccccc5)c5ccc2[nH]5)C=C4)C=C3)cc1
REMARK SMILES IDX 20 1 19 2 17 3 18 4 16 6 7 7 8 8 9 9 15 10 10 11 14 12 11 13
REMARK SMILES IDX 13 14 12 15 5 16 6 17 4 18 3 19 2 20 1 21 21 22 22 23 23 24
REMARK SMILES IDX 24 25 25 27 26 28 27 29 73 30 28 31 72 32 29 33 30 34 31 35
REMARK SMILES IDX 66 36 32 37 71 38 65 39 67 40 33 41 70 42 64 43 63 44 34 46
REMARK SMILES IDX 56 47 41 48 55 49 42 50 45 51 54 52 68 53 43 54 44 55 53 57
REMARK SMILES IDX 69 58 46 59 35 60 36 61 40 62 37 63 39 64 38 65 57 66 58 67
REMARK SMILES IDX 62 68 59 69 61 70 60 71 47 72 48 73 52 74 49 75 51 76 50 77
REMARK H PARENT 19 5 23 26 67 45 45 56
REMARK Flexibility Score: inf
ROOT
ATOM      1  C   UNL A   1      45.599  22.036  25.056  1.00  0.00     0.117 C 
ENDROOT
BRANCH   1   2
ATOM      2  N   UNL A   1      46.391  22.849  24.155  1.00  0.00    -0.354 N 
ATOM      3  C   UNL A   1      46.807  24.139  24.260  1.00  0.00     0.243 C 
ATOM      4  O   UNL A   1      47.669  24.506  23.455  1.00  0.00    -0.273 OA
ATOM      5  H   UNL A   1      46.675  22.391  23.332  1.00  0.00     0.163 HD
BRANCH   3   6
ATOM      6  C   UNL A   1      46.407  25.026  25.451  1.00  0.00     0.179 C 
ATOM      7  N   UNL A   1      47.462  25.821  26.144  1.00  0.00    -0.326 N 
ATOM      8  C   UNL A   1      47.191  27.235  26.435  1.00  0.00     0.156 C 
ATOM      9  C   UNL A   1      45.739  27.604  26.580  1.00  0.00    -0.025 A 
ATOM     10  C   UNL A   1      45.215  25.845  24.900  1.00  0.00     0.071 C 
ATOM     11  C   UNL A   1      45.351  28.687  27.380  1.00  0.00     0.006 A 
ATOM     12  C   UNL A   1      44.774  26.945  25.813  1.00  0.00    -0.040 A 
ATOM     13  C   UNL A   1      44.021  29.108  27.406  1.00  0.00     0.000 A 
ATOM     14  C   UNL A   1      43.444  27.382  25.825  1.00  0.00     0.004 A 
ATOM     15  C   UNL A   1      43.070  28.459  26.623  1.00  0.00     0.000 A 
BRANCH   7  16
ATOM     16  C   UNL A   1      48.486  25.233  26.893  1.00  0.00     0.225 C 
ATOM     17  O   UNL A   1      48.317  24.186  27.525  1.00  0.00    -0.275 OA
BRANCH  16  18
ATOM     18  C   UNL A   1      49.805  25.959  27.069  1.00  0.00     0.128 C 
BRANCH  18  19
ATOM     19  C   UNL A   1      50.761  25.729  25.918  1.00  0.00     0.169 C 
BRANCH  19  20
ATOM     20  O   UNL A   1      51.696  24.725  26.297  1.00  0.00    -0.384 OA
ATOM     21  C   UNL A   1      52.919  24.811  25.583  1.00  0.00     0.194 C 
ENDBRANCH  19  20
ENDBRANCH  18  19
ENDBRANCH  16  18
ENDBRANCH   7  16
ENDBRANCH   3   6
ENDBRANCH   1   2
BRANCH   1  22
ATOM     22  C   UNL A   1      45.001  20.809  24.384  1.00  0.00     0.042 C 
BRANCH  22  23
ATOM     23  C   UNL A   1      44.537  19.737  25.362  1.00  0.00     0.118 C 
BRANCH  23  24
ATOM     24  N   UNL A   1      43.107  19.481  25.263  1.00  0.00    -0.352 N 
ATOM     25  C   UNL A   1      42.047  20.095  25.876  1.00  0.00     0.251 C 
ATOM     26  H   UNL A   1      42.863  18.746  24.656  1.00  0.00     0.163 HD
ATOM     27  O   UNL A   1      40.946  19.553  25.862  1.00  0.00    -0.269 OA
BRANCH  25  28
ATOM     28  C   UNL A   1      42.218  21.397  26.550  1.00  0.00     0.039 A 
ATOM     29  C   UNL A   1      42.249  21.432  27.946  1.00  0.00     0.014 A 
ATOM     30  C   UNL A   1      42.279  22.586  25.819  1.00  0.00     0.014 A 
ATOM     31  C   UNL A   1      42.374  22.656  28.605  1.00  0.00     0.010 A 
ATOM     32  C   UNL A   1      42.499  23.794  26.471  1.00  0.00     0.010 A 
ATOM     33  C   UNL A   1      42.516  23.845  27.871  1.00  0.00    -0.014 A 
BRANCH  33  34
ATOM     34  C   UNL A   1      42.628  25.153  28.558  1.00  0.00     0.031 A 
ATOM     35  C   UNL A   1      43.933  25.569  29.181  1.00  0.00     0.074 A 
ATOM     36  C   UNL A   1      41.547  25.951  28.652  1.00  0.00     0.049 A 
ATOM     37  N   UNL A   1      44.232  26.677  29.811  1.00  0.00    -0.248 NA
ATOM     38  C   UNL A   1      45.042  24.602  29.115  1.00  0.00     0.031 C 
ATOM     39  C   UNL A   1      40.214  25.639  28.133  1.00  0.00     0.029 A 
ATOM     40  N   UNL A   1      41.407  27.195  29.211  1.00  0.00    -0.354 N 
ATOM     41  C   UNL A   1      45.547  26.527  30.237  1.00  0.00     0.074 A 
ATOM     42  C   UNL A   1      45.971  25.203  29.841  1.00  0.00     0.031 C 
ATOM     43  C   UNL A   1      39.403  26.686  28.353  1.00  0.00     0.029 A 
ATOM     44  C   UNL A   1      40.150  27.726  29.054  1.00  0.00     0.049 A 
ATOM     45  H   UNL A   1      42.135  27.662  29.679  1.00  0.00     0.167 HD
ATOM     46  C   UNL A   1      46.339  27.417  30.878  1.00  0.00     0.031 A 
ATOM     47  C   UNL A   1      39.662  28.925  29.417  1.00  0.00     0.031 A 
ATOM     48  C   UNL A   1      45.925  28.744  31.247  1.00  0.00     0.049 A 
ATOM     49  C   UNL A   1      40.568  29.910  30.101  1.00  0.00     0.074 A 
ATOM     50  C   UNL A   1      46.671  29.750  31.836  1.00  0.00     0.029 A 
ATOM     51  N   UNL A   1      44.649  29.248  31.058  1.00  0.00    -0.354 N 
ATOM     52  N   UNL A   1      41.832  29.782  30.425  1.00  0.00    -0.248 NA
ATOM     53  C   UNL A   1      39.982  31.212  30.446  1.00  0.00     0.031 C 
ATOM     54  C   UNL A   1      45.832  30.851  32.040  1.00  0.00     0.029 A 
ATOM     55  C   UNL A   1      44.578  30.548  31.532  1.00  0.00     0.049 A 
ATOM     56  H   UNL A   1      43.902  28.757  30.645  1.00  0.00     0.167 HD
ATOM     57  C   UNL A   1      42.203  31.000  30.982  1.00  0.00     0.074 A 
ATOM     58  C   UNL A   1      41.032  31.853  30.938  1.00  0.00     0.031 C 
ATOM     59  C   UNL A   1      43.405  31.379  31.480  1.00  0.00     0.031 A 
BRANCH  46  60
ATOM     60  C   UNL A   1      47.733  26.970  31.228  1.00  0.00    -0.014 A 
ATOM     61  C   UNL A   1      48.814  27.208  30.363  1.00  0.00     0.009 A 
ATOM     62  C   UNL A   1      47.967  26.305  32.440  1.00  0.00     0.009 A 
ATOM     63  C   UNL A   1      50.093  26.747  30.685  1.00  0.00     0.001 A 
ATOM     64  C   UNL A   1      49.253  25.871  32.772  1.00  0.00     0.001 A 
ATOM     65  C   UNL A   1      50.310  26.081  31.890  1.00  0.00     0.000 A 
ENDBRANCH  46  60
BRANCH  47  66
ATOM     66  C   UNL A   1      38.261  29.289  29.084  1.00  0.00    -0.014 A 
ATOM     67  C   UNL A   1      37.928  29.686  27.779  1.00  0.00     0.009 A 
ATOM     68  C   UNL A   1      37.253  29.236  30.058  1.00  0.00     0.009 A 
ATOM     69  C   UNL A   1      36.617  30.049  27.463  1.00  0.00     0.001 A 
ATOM     70  C   UNL A   1      35.937  29.576  29.732  1.00  0.00     0.001 A 
ATOM     71  C   UNL A   1      35.623  29.989  28.438  1.00  0.00     0.000 A 
ENDBRANCH  47  66
BRANCH  59  72
ATOM     72  C   UNL A   1      43.519  32.793  31.975  1.00  0.00    -0.014 A 
ATOM     73  C   UNL A   1      43.879  33.843  31.116  1.00  0.00     0.009 A 
ATOM     74  C   UNL A   1      43.247  33.077  33.323  1.00  0.00     0.009 A 
ATOM     75  C   UNL A   1      44.007  35.143  31.608  1.00  0.00     0.001 A 
ATOM     76  C   UNL A   1      43.346  34.382  33.805  1.00  0.00     0.001 A 
ATOM     77  C   UNL A   1      43.737  35.412  32.950  1.00  0.00     0.000 A 
ENDBRANCH  59  72
ENDBRANCH  33  34
ENDBRANCH  25  28
ENDBRANCH  23  24
ENDBRANCH  22  23
ENDBRANCH   1  22
TORSDOF 14
ENDMDL
MODEL 3
REMARK VINA RESULT:     -10.6      2.574      7.363
REMARK SMILES COCCC(=O)N1Cc2ccccc2C[C@H]1C(=O)NCCCNC(=O)c1ccc(-c2c3nc(c(-c4ccccc4)c4ccc([nH]4)c(-c4ccccc4)c4nc(c(-c5ccccc5)c5ccc2[nH]5)C=C4)C=C3)cc1
REMARK SMILES IDX 20 1 19 2 17 3 18 4 16 6 7 7 8 8 9 9 15 10 10 11 14 12 11 13
REMARK SMILES IDX 13 14 12 15 5 16 6 17 4 18 3 19 2 20 1 21 21 22 22 23 23 24
REMARK SMILES IDX 24 25 25 27 26 28 27 29 73 30 28 31 72 32 29 33 30 34 31 35
REMARK SMILES IDX 66 36 32 37 71 38 65 39 67 40 33 41 70 42 64 43 63 44 34 46
REMARK SMILES IDX 56 47 41 48 55 49 42 50 45 51 54 52 68 53 43 54 44 55 53 57
REMARK SMILES IDX 69 58 46 59 35 60 36 61 40 62 37 63 39 64 38 65 57 66 58 67
REMARK SMILES IDX 62 68 59 69 61 70 60 71 47 72 48 73 52 74 49 75 51 76 50 77
REMARK H PARENT 19 5 23 26 67 45 45 56
REMARK Flexibility Score: inf
ROOT
ATOM      1  C   UNL A   1      34.921  23.335  23.927  1.00  0.00     0.117 C 
ENDROOT
BRANCH   1   2
ATOM      2  N   UNL A   1      33.969  23.111  24.996  1.00  0.00    -0.354 N 
ATOM      3  C   UNL A   1      33.052  23.944  25.555  1.00  0.00     0.243 C 
ATOM      4  O   UNL A   1      32.209  23.420  26.290  1.00  0.00    -0.273 OA
ATOM      5  H   UNL A   1      33.991  22.205  25.380  1.00  0.00     0.163 HD
BRANCH   3   6
ATOM      6  C   UNL A   1      32.919  25.413  25.120  1.00  0.00     0.179 C 
ATOM      7  N   UNL A   1      31.627  25.879  24.538  1.00  0.00    -0.326 N 
ATOM      8  C   UNL A   1      31.052  27.136  25.032  1.00  0.00     0.156 C 
ATOM      9  C   UNL A   1      32.037  28.127  25.593  1.00  0.00    -0.025 A 
ATOM     10  C   UNL A   1      33.407  26.197  26.363  1.00  0.00     0.071 C 
ATOM     11  C   UNL A   1      31.767  29.502  25.563  1.00  0.00     0.006 A 
ATOM     12  C   UNL A   1      33.174  27.672  26.266  1.00  0.00    -0.040 A 
ATOM     13  C   UNL A   1      32.617  30.405  26.202  1.00  0.00     0.000 A 
ATOM     14  C   UNL A   1      34.015  28.578  26.924  1.00  0.00     0.004 A 
ATOM     15  C   UNL A   1      33.737  29.942  26.887  1.00  0.00     0.000 A 
BRANCH   7  16
ATOM     16  C   UNL A   1      31.154  25.442  23.297  1.00  0.00     0.225 C 
ATOM     17  O   UNL A   1      30.615  24.340  23.150  1.00  0.00    -0.275 OA
BRANCH  16  18
ATOM     18  C   UNL A   1      31.429  26.263  22.053  1.00  0.00     0.128 C 
BRANCH  18  19
ATOM     19  C   UNL A   1      32.904  26.367  21.731  1.00  0.00     0.169 C 
BRANCH  19  20
ATOM     20  O   UNL A   1      33.237  25.353  20.789  1.00  0.00    -0.384 OA
ATOM     21  C   UNL A   1      32.495  25.453  19.584  1.00  0.00     0.194 C 
ENDBRANCH  19  20
ENDBRANCH  18  19
ENDBRANCH  16  18
ENDBRANCH   7  16
ENDBRANCH   3   6
ENDBRANCH   1   2
BRANCH   1  22
ATOM     22  C   UNL A   1      36.309  23.702  24.429  1.00  0.00     0.042 C 
BRANCH  22  23
ATOM     23  C   UNL A   1      36.552  23.337  25.888  1.00  0.00     0.118 C 
BRANCH  23  24
ATOM     24  N   UNL A   1      37.691  22.445  26.052  1.00  0.00    -0.352 N 
ATOM     25  C   UNL A   1      38.998  22.715  26.357  1.00  0.00     0.251 C 
ATOM     26  H   UNL A   1      37.487  21.491  25.922  1.00  0.00     0.163 HD
ATOM     27  O   UNL A   1      39.850  21.849  26.184  1.00  0.00    -0.269 OA
BRANCH  25  28
ATOM     28  C   UNL A   1      39.389  24.035  26.891  1.00  0.00     0.039 A 
ATOM     29  C   UNL A   1      40.034  24.939  26.042  1.00  0.00     0.014 A 
ATOM     30  C   UNL A   1      39.186  24.360  28.234  1.00  0.00     0.014 A 
ATOM     31  C   UNL A   1      40.445  26.177  26.535  1.00  0.00     0.010 A 
ATOM     32  C   UNL A   1      39.509  25.629  28.700  1.00  0.00     0.010 A 
ATOM     33  C   UNL A   1      40.170  26.539  27.864  1.00  0.00    -0.014 A 
BRANCH  33  34
ATOM     34  C   UNL A   1      40.619  27.843  28.407  1.00  0.00     0.031 A 
ATOM     35  C   UNL A   1      39.622  28.944  28.649  1.00  0.00     0.074 A 
ATOM     36  C   UNL A   1      41.928  28.049  28.647  1.00  0.00     0.049 A 
ATOM     37  N   UNL A   1      39.818  30.145  29.130  1.00  0.00    -0.248 NA
ATOM     38  C   UNL A   1      38.224  28.670  28.274  1.00  0.00     0.031 C 
ATOM     39  C   UNL A   1      42.999  27.079  28.408  1.00  0.00     0.029 A 
ATOM     40  N   UNL A   1      42.576  29.144  29.159  1.00  0.00    -0.354 N 
ATOM     41  C   UNL A   1      38.579  30.775  29.088  1.00  0.00     0.074 A 
ATOM     42  C   UNL A   1      37.651  29.844  28.488  1.00  0.00     0.031 C 
ATOM     43  C   UNL A   1      44.164  27.604  28.819  1.00  0.00     0.029 A 
ATOM     44  C   UNL A   1      43.927  28.954  29.321  1.00  0.00     0.049 A 
ATOM     45  H   UNL A   1      42.118  29.985  29.388  1.00  0.00     0.167 HD
ATOM     46  C   UNL A   1      38.237  32.007  29.531  1.00  0.00     0.031 A 
ATOM     47  C   UNL A   1      44.863  29.770  29.835  1.00  0.00     0.031 A 
ATOM     48  C   UNL A   1      39.156  32.923  30.153  1.00  0.00     0.049 A 
ATOM     49  C   UNL A   1      44.456  31.122  30.348  1.00  0.00     0.074 A 
ATOM     50  C   UNL A   1      38.899  34.167  30.702  1.00  0.00     0.029 A 
ATOM     51  N   UNL A   1      40.512  32.687  30.311  1.00  0.00    -0.354 N 
ATOM     52  N   UNL A   1      43.266  31.673  30.375  1.00  0.00    -0.248 NA
ATOM     53  C   UNL A   1      45.522  31.954  30.923  1.00  0.00     0.031 C 
ATOM     54  C   UNL A   1      40.110  34.701  31.155  1.00  0.00     0.029 A 
ATOM     55  C   UNL A   1      41.111  33.769  30.935  1.00  0.00     0.049 A 
ATOM     56  H   UNL A   1      40.981  31.870  30.024  1.00  0.00     0.167 HD
ATOM     57  C   UNL A   1      43.433  32.902  31.000  1.00  0.00     0.074 A 
ATOM     58  C   UNL A   1      44.837  33.007  31.346  1.00  0.00     0.031 C 
ATOM     59  C   UNL A   1      42.508  33.855  31.269  1.00  0.00     0.031 A 
BRANCH  46  60
ATOM     60  C   UNL A   1      36.807  32.433  29.344  1.00  0.00    -0.014 A 
ATOM     61  C   UNL A   1      36.372  33.023  28.144  1.00  0.00     0.009 A 
ATOM     62  C   UNL A   1      35.881  32.241  30.380  1.00  0.00     0.009 A 
ATOM     63  C   UNL A   1      35.050  33.452  28.006  1.00  0.00     0.001 A 
ATOM     64  C   UNL A   1      34.553  32.644  30.226  1.00  0.00     0.001 A 
ATOM     65  C   UNL A   1      34.142  33.261  29.046  1.00  0.00     0.000 A 
ENDBRANCH  46  60
BRANCH  47  66
ATOM     66  C   UNL A   1      46.270  29.307  29.950  1.00  0.00    -0.014 A 
ATOM     67  C   UNL A   1      46.698  28.635  31.105  1.00  0.00     0.009 A 
ATOM     68  C   UNL A   1      47.187  29.527  28.911  1.00  0.00     0.009 A 
ATOM     69  C   UNL A   1      48.023  28.214  31.230  1.00  0.00     0.001 A 
ATOM     70  C   UNL A   1      48.506  29.083  29.028  1.00  0.00     0.001 A 
ATOM     71  C   UNL A   1      48.925  28.434  30.190  1.00  0.00     0.000 A 
ENDBRANCH  47  66
BRANCH  59  72
ATOM     72  C   UNL A   1      42.982  35.072  32.010  1.00  0.00    -0.014 A 
ATOM     73  C   UNL A   1      42.889  35.161  33.408  1.00  0.00     0.009 A 
ATOM     74  C   UNL A   1      43.546  36.141  31.296  1.00  0.00     0.009 A 
ATOM     75  C   UNL A   1      43.310  36.316  34.070  1.00  0.00     0.001 A 
ATOM     76  C   UNL A   1      43.994  37.280  31.962  1.00  0.00     0.001 A 
ATOM     77  C   UNL A   1      43.866  37.372  33.348  1.00  0.00     0.000 A 
ENDBRANCH  59  72
ENDBRANCH  33  34
ENDBRANCH  25  28
ENDBRANCH  23  24
ENDBRANCH  22  23
ENDBRANCH   1  22
TORSDOF 14
ENDMDL
