MODEL 1
REMARK VINA RESULT:     -10.6      0.000      0.000
REMARK SMILES O=C(NCCCNC(=O)c1ccc(C[NH2+][C@@H]2CCCC[C@H]2O)nc1)c1ccc(-c2c3nc(c(-c4ccccc4)c4ccc([nH]4)c(-c4ccccc4)c4nc(c(-c5ccccc5)c5ccc2[nH]5)C=C4)C=C3)cc1
REMARK SMILES IDX 6 1 5 2 4 3 3 4 1 5 2 6 25 8 26 9 72 10 27 11 71 12 28 13
REMARK SMILES IDX 29 14 30 15 65 16 31 17 70 18 64 19 66 20 32 21 69 22 63 23
REMARK SMILES IDX 62 24 33 26 55 27 40 28 54 29 41 30 44 31 53 32 67 33 42 34
REMARK SMILES IDX 43 35 52 37 68 38 45 39 34 40 35 41 39 42 36 43 38 44 37 45
REMARK SMILES IDX 56 46 57 47 61 48 58 49 60 50 59 51 46 52 47 53 51 54 48 55
REMARK SMILES IDX 50 56 49 57 7 58 8 59 9 61 10 62 11 63 24 64 12 65 23 66
REMARK SMILES IDX 13 67 14 68 15 69 16 72 17 73 21 74 18 75 20 76 19 77 22 78
REMARK H PARENT 3 7 66 25 44 36 7 60 15 70 15 71 22 79
REMARK Flexibility Score: inf
ROOT
ATOM      1  C   UNL A   1      33.189  28.973  24.663  1.00  0.00     0.118 C 
ENDROOT
BRANCH   1   2
ATOM      2  C   UNL A   1      32.815  28.294  25.973  1.00  0.00     0.042 C 
BRANCH   2   3
ATOM      3  C   UNL A   1      33.800  28.564  27.102  1.00  0.00     0.118 C 
BRANCH   3   4
ATOM      4  N   UNL A   1      33.714  29.931  27.604  1.00  0.00    -0.352 N 
ATOM      5  O   UNL A   1      34.257  31.740  28.823  1.00  0.00    -0.269 OA
ATOM      6  C   UNL A   1      34.614  30.677  28.323  1.00  0.00     0.251 C 
ATOM      7  H   UNL A   1      32.872  30.394  27.392  1.00  0.00     0.163 HD
BRANCH   6   8
ATOM      8  C   UNL A   1      36.002  30.205  28.512  1.00  0.00     0.039 A 
ATOM      9  C   UNL A   1      36.941  30.312  27.485  1.00  0.00     0.014 A 
ATOM     10  C   UNL A   1      36.384  29.687  29.754  1.00  0.00     0.014 A 
ATOM     11  C   UNL A   1      38.206  29.761  27.643  1.00  0.00     0.010 A 
ATOM     12  C   UNL A   1      37.689  29.226  29.945  1.00  0.00     0.010 A 
ATOM     13  C   UNL A   1      38.602  29.232  28.881  1.00  0.00    -0.014 A 
BRANCH  13  14
ATOM     14  C   UNL A   1      40.000  28.761  29.049  1.00  0.00     0.031 A 
ATOM     15  C   UNL A   1      40.410  27.373  28.645  1.00  0.00     0.074 A 
ATOM     16  C   UNL A   1      40.913  29.621  29.540  1.00  0.00     0.049 A 
ATOM     17  N   UNL A   1      41.597  26.821  28.695  1.00  0.00    -0.248 NA
ATOM     18  C   UNL A   1      39.358  26.487  28.124  1.00  0.00     0.031 C 
ATOM     19  C   UNL A   1      40.634  30.995  29.969  1.00  0.00     0.029 A 
ATOM     20  N   UNL A   1      42.263  29.481  29.738  1.00  0.00    -0.354 N 
ATOM     21  C   UNL A   1      41.433  25.523  28.229  1.00  0.00     0.074 A 
ATOM     22  C   UNL A   1      40.027  25.359  27.926  1.00  0.00     0.031 C 
ATOM     23  C   UNL A   1      41.783  31.587  30.325  1.00  0.00     0.029 A 
ATOM     24  C   UNL A   1      42.867  30.618  30.215  1.00  0.00     0.049 A 
ATOM     25  H   UNL A   1      42.751  28.646  29.555  1.00  0.00     0.167 HD
ATOM     26  C   UNL A   1      42.370  24.558  28.064  1.00  0.00     0.031 A 
ATOM     27  C   UNL A   1      44.148  30.856  30.544  1.00  0.00     0.031 A 
ATOM     28  C   UNL A   1      43.767  24.723  28.370  1.00  0.00     0.049 A 
ATOM     29  C   UNL A   1      45.155  29.757  30.389  1.00  0.00     0.074 A 
ATOM     30  C   UNL A   1      44.798  23.811  28.215  1.00  0.00     0.029 A 
ATOM     31  N   UNL A   1      44.331  25.876  28.895  1.00  0.00    -0.354 N 
ATOM     32  N   UNL A   1      44.987  28.544  29.921  1.00  0.00    -0.248 NA
ATOM     33  C   UNL A   1      46.530  30.059  30.810  1.00  0.00     0.031 C 
ATOM     34  C   UNL A   1      45.975  24.395  28.694  1.00  0.00     0.029 A 
ATOM     35  C   UNL A   1      45.689  25.690  29.095  1.00  0.00     0.049 A 
ATOM     36  H   UNL A   1      43.839  26.705  29.097  1.00  0.00     0.167 HD
ATOM     37  C   UNL A   1      46.235  27.943  29.974  1.00  0.00     0.074 A 
ATOM     38  C   UNL A   1      47.156  28.932  30.500  1.00  0.00     0.031 C 
ATOM     39  C   UNL A   1      46.587  26.682  29.625  1.00  0.00     0.031 A 
BRANCH  26  40
ATOM     40  C   UNL A   1      41.908  23.222  27.550  1.00  0.00    -0.014 A 
ATOM     41  C   UNL A   1      41.435  22.229  28.422  1.00  0.00     0.009 A 
ATOM     42  C   UNL A   1      41.900  22.972  26.168  1.00  0.00     0.009 A 
ATOM     43  C   UNL A   1      40.993  21.002  27.922  1.00  0.00     0.001 A 
ATOM     44  C   UNL A   1      41.434  21.754  25.671  1.00  0.00     0.001 A 
ATOM     45  C   UNL A   1      40.988  20.767  26.548  1.00  0.00     0.000 A 
ENDBRANCH  26  40
BRANCH  27  46
ATOM     46  C   UNL A   1      44.542  32.188  31.071  1.00  0.00    -0.014 A 
ATOM     47  C   UNL A   1      44.963  33.205  30.202  1.00  0.00     0.009 A 
ATOM     48  C   UNL A   1      44.485  32.451  32.449  1.00  0.00     0.009 A 
ATOM     49  C   UNL A   1      45.341  34.452  30.706  1.00  0.00     0.001 A 
ATOM     50  C   UNL A   1      44.834  33.708  32.946  1.00  0.00     0.001 A 
ATOM     51  C   UNL A   1      45.270  34.704  32.075  1.00  0.00     0.000 A 
ENDBRANCH  27  46
BRANCH  39  52
ATOM     52  C   UNL A   1      48.036  26.317  29.775  1.00  0.00    -0.014 A 
ATOM     53  C   UNL A   1      48.533  25.790  30.977  1.00  0.00     0.009 A 
ATOM     54  C   UNL A   1      48.912  26.486  28.690  1.00  0.00     0.009 A 
ATOM     55  C   UNL A   1      49.887  25.472  31.100  1.00  0.00     0.001 A 
ATOM     56  C   UNL A   1      50.259  26.141  28.808  1.00  0.00     0.001 A 
ATOM     57  C   UNL A   1      50.747  25.645  30.015  1.00  0.00     0.000 A 
ENDBRANCH  39  52
ENDBRANCH  13  14
ENDBRANCH   6   8
ENDBRANCH   3   4
ENDBRANCH   2   3
ENDBRANCH   1   2
BRANCH   1  58
ATOM     58  N   UNL A   1      32.043  29.125  23.779  1.00  0.00    -0.352 N 
ATOM     59  C   UNL A   1      31.542  28.246  22.852  1.00  0.00     0.252 C 
ATOM     60  H   UNL A   1      31.557  29.978  23.858  1.00  0.00     0.163 HD
ATOM     61  O   UNL A   1      30.717  28.617  22.023  1.00  0.00    -0.269 OA
BRANCH  59  62
ATOM     62  C   UNL A   1      32.017  26.859  22.842  1.00  0.00     0.058 A 
ATOM     63  C   UNL A   1      31.374  25.854  23.563  1.00  0.00     0.017 A 
ATOM     64  C   UNL A   1      33.136  26.534  22.097  1.00  0.00     0.125 A 
ATOM     65  C   UNL A   1      31.921  24.575  23.577  1.00  0.00     0.030 A 
ATOM     66  N   UNL A   1      33.692  25.301  22.103  1.00  0.00    -0.255 NA
ATOM     67  C   UNL A   1      33.089  24.339  22.852  1.00  0.00     0.094 A 
BRANCH  67  68
ATOM     68  C   UNL A   1      33.711  22.956  22.839  1.00  0.00     0.318 C 
BRANCH  68  69
ATOM     69  N   UNL A   1      35.027  22.967  23.479  1.00  0.00    -0.337 N 
ATOM     70  H   UNL A   1      35.518  23.810  23.184  1.00  0.00     0.346 HD
ATOM     71  H   UNL A   1      35.501  22.111  23.187  1.00  0.00     0.346 HD
BRANCH  69  72
ATOM     72  C   UNL A   1      34.982  22.947  24.948  1.00  0.00     0.211 C 
ATOM     73  C   UNL A   1      35.923  23.986  25.595  1.00  0.00     0.068 C 
ATOM     74  C   UNL A   1      35.383  21.531  25.446  1.00  0.00     0.172 C 
ATOM     75  C   UNL A   1      37.396  23.699  25.302  1.00  0.00     0.006 C 
ATOM     76  C   UNL A   1      36.860  21.223  25.167  1.00  0.00     0.038 C 
ATOM     77  C   UNL A   1      37.790  22.292  25.742  1.00  0.00     0.003 C 
BRANCH  74  78
ATOM     78  O   UNL A   1      35.118  21.429  26.847  1.00  0.00    -0.387 OA
ATOM     79  H   UNL A   1      34.578  20.641  27.018  1.00  0.00     0.211 HD
ENDBRANCH  74  78
ENDBRANCH  69  72
ENDBRANCH  68  69
ENDBRANCH  67  68
ENDBRANCH  59  62
ENDBRANCH   1  58
TORSDOF 14
ENDMDL
MODEL 2
REMARK VINA RESULT:     -10.5      1.656      7.766
REMARK SMILES O=C(NCCCNC(=O)c1ccc(C[NH2+][C@@H]2CCCC[C@H]2O)nc1)c1ccc(-c2c3nc(c(-c4ccccc4)c4ccc([nH]4)c(-c4ccccc4)c4nc(c(-c5ccccc5)c5ccc2[nH]5)C=C4)C=C3)cc1
REMARK SMILES IDX 6 1 5 2 4 3 3 4 1 5 2 6 25 8 26 9 72 10 27 11 71 12 28 13
REMARK SMILES IDX 29 14 30 15 65 16 31 17 70 18 64 19 66 20 32 21 69 22 63 23
REMARK SMILES IDX 62 24 33 26 55 27 40 28 54 29 41 30 44 31 53 32 67 33 42 34
REMARK SMILES IDX 43 35 52 37 68 38 45 39 34 40 35 41 39 42 36 43 38 44 37 45
REMARK SMILES IDX 56 46 57 47 61 48 58 49 60 50 59 51 46 52 47 53 51 54 48 55
REMARK SMILES IDX 50 56 49 57 7 58 8 59 9 61 10 62 11 63 24 64 12 65 23 66
REMARK SMILES IDX 13 67 14 68 15 69 16 72 17 73 21 74 18 75 20 76 19 77 22 78
REMARK H PARENT 3 7 66 25 44 36 7 60 15 70 15 71 22 79
REMARK Flexibility Score: inf
ROOT
ATOM      1  C   UNL A   1      36.083  20.344  24.901  1.00  0.00     0.118 C 
ENDROOT
BRANCH   1   2
ATOM      2  C   UNL A   1      37.332  19.476  24.948  1.00  0.00     0.042 C 
BRANCH   2   3
ATOM      3  C   UNL A   1      38.540  20.179  25.551  1.00  0.00     0.118 C 
BRANCH   3   4
ATOM      4  N   UNL A   1      39.696  19.299  25.673  1.00  0.00    -0.352 N 
ATOM      5  O   UNL A   1      41.859  18.716  25.863  1.00  0.00    -0.269 OA
ATOM      6  C   UNL A   1      40.994  19.572  26.025  1.00  0.00     0.251 C 
ATOM      7  H   UNL A   1      39.515  18.353  25.468  1.00  0.00     0.163 HD
BRANCH   6   8
ATOM      8  C   UNL A   1      41.360  20.892  26.582  1.00  0.00     0.039 A 
ATOM      9  C   UNL A   1      41.233  21.153  27.946  1.00  0.00     0.014 A 
ATOM     10  C   UNL A   1      41.884  21.871  25.731  1.00  0.00     0.014 A 
ATOM     11  C   UNL A   1      41.475  22.432  28.433  1.00  0.00     0.010 A 
ATOM     12  C   UNL A   1      42.225  23.127  26.240  1.00  0.00     0.010 A 
ATOM     13  C   UNL A   1      41.995  23.427  27.590  1.00  0.00    -0.014 A 
BRANCH  13  14
ATOM     14  C   UNL A   1      42.354  24.745  28.169  1.00  0.00     0.031 A 
ATOM     15  C   UNL A   1      43.773  25.073  28.543  1.00  0.00     0.074 A 
ATOM     16  C   UNL A   1      41.385  25.668  28.319  1.00  0.00     0.049 A 
ATOM     17  N   UNL A   1      44.257  26.190  29.026  1.00  0.00    -0.248 NA
ATOM     18  C   UNL A   1      44.777  24.015  28.358  1.00  0.00     0.031 C 
ATOM     19  C   UNL A   1      39.970  25.466  27.993  1.00  0.00     0.029 A 
ATOM     20  N   UNL A   1      41.440  26.966  28.758  1.00  0.00    -0.354 N 
ATOM     21  C   UNL A   1      45.614  25.966  29.218  1.00  0.00     0.074 A 
ATOM     22  C   UNL A   1      45.874  24.597  28.825  1.00  0.00     0.031 C 
ATOM     23  C   UNL A   1      39.304  26.613  28.189  1.00  0.00     0.029 A 
ATOM     24  C   UNL A   1      40.228  27.609  28.717  1.00  0.00     0.049 A 
ATOM     25  H   UNL A   1      42.270  27.394  29.070  1.00  0.00     0.167 HD
ATOM     26  C   UNL A   1      46.558  26.824  29.674  1.00  0.00     0.031 A 
ATOM     27  C   UNL A   1      39.888  28.859  29.078  1.00  0.00     0.031 A 
ATOM     28  C   UNL A   1      46.295  28.184  30.068  1.00  0.00     0.049 A 
ATOM     29  C   UNL A   1      40.946  29.773  29.619  1.00  0.00     0.074 A 
ATOM     30  C   UNL A   1      47.190  29.138  30.523  1.00  0.00     0.029 A 
ATOM     31  N   UNL A   1      45.045  28.783  30.056  1.00  0.00    -0.354 N 
ATOM     32  N   UNL A   1      42.229  29.552  29.768  1.00  0.00    -0.248 NA
ATOM     33  C   UNL A   1      40.508  31.109  30.044  1.00  0.00     0.031 C 
ATOM     34  C   UNL A   1      46.473  30.298  30.834  1.00  0.00     0.029 A 
ATOM     35  C   UNL A   1      45.140  30.086  30.520  1.00  0.00     0.049 A 
ATOM     36  H   UNL A   1      44.212  28.348  29.762  1.00  0.00     0.167 HD
ATOM     37  C   UNL A   1      42.756  30.725  30.287  1.00  0.00     0.074 A 
ATOM     38  C   UNL A   1      41.657  31.662  30.406  1.00  0.00     0.031 C 
ATOM     39  C   UNL A   1      44.035  31.000  30.639  1.00  0.00     0.031 A 
BRANCH  26  40
ATOM     40  C   UNL A   1      47.965  26.307  29.799  1.00  0.00    -0.014 A 
ATOM     41  C   UNL A   1      48.867  26.381  28.726  1.00  0.00     0.009 A 
ATOM     42  C   UNL A   1      48.409  25.784  31.024  1.00  0.00     0.009 A 
ATOM     43  C   UNL A   1      50.176  25.913  28.870  1.00  0.00     0.001 A 
ATOM     44  C   UNL A   1      49.724  25.341  31.172  1.00  0.00     0.001 A 
ATOM     45  C   UNL A   1      50.604  25.398  30.093  1.00  0.00     0.000 A 
ENDBRANCH  26  40
BRANCH  27  46
ATOM     46  C   UNL A   1      38.477  29.306  28.958  1.00  0.00    -0.014 A 
ATOM     47  C   UNL A   1      37.974  29.762  27.730  1.00  0.00     0.009 A 
ATOM     48  C   UNL A   1      37.621  29.267  30.070  1.00  0.00     0.009 A 
ATOM     49  C   UNL A   1      36.648  30.190  27.626  1.00  0.00     0.001 A 
ATOM     50  C   UNL A   1      36.289  29.666  29.956  1.00  0.00     0.001 A 
ATOM     51  C   UNL A   1      35.807  30.136  28.736  1.00  0.00     0.000 A 
ENDBRANCH  27  46
BRANCH  39  52
ATOM     52  C   UNL A   1      44.313  32.382  31.158  1.00  0.00    -0.014 A 
ATOM     53  C   UNL A   1      44.634  33.435  30.287  1.00  0.00     0.009 A 
ATOM     54  C   UNL A   1      44.230  32.637  32.536  1.00  0.00     0.009 A 
ATOM     55  C   UNL A   1      44.903  34.709  30.793  1.00  0.00     0.001 A 
ATOM     56  C   UNL A   1      44.472  33.917  33.035  1.00  0.00     0.001 A 
ATOM     57  C   UNL A   1      44.819  34.949  32.164  1.00  0.00     0.000 A 
ENDBRANCH  39  52
ENDBRANCH  13  14
ENDBRANCH   6   8
ENDBRANCH   3   4
ENDBRANCH   2   3
ENDBRANCH   1   2
BRANCH   1  58
ATOM     58  N   UNL A   1      34.865  19.559  25.041  1.00  0.00    -0.352 N 
ATOM     59  C   UNL A   1      33.560  19.981  25.067  1.00  0.00     0.252 C 
ATOM     60  H   UNL A   1      34.996  18.587  25.128  1.00  0.00     0.163 HD
ATOM     61  O   UNL A   1      32.666  19.223  25.429  1.00  0.00    -0.269 OA
BRANCH  59  62
ATOM     62  C   UNL A   1      33.239  21.359  24.680  1.00  0.00     0.058 A 
ATOM     63  C   UNL A   1      32.939  21.704  23.363  1.00  0.00     0.017 A 
ATOM     64  C   UNL A   1      33.233  22.348  25.647  1.00  0.00     0.125 A 
ATOM     65  C   UNL A   1      32.723  23.041  23.047  1.00  0.00     0.030 A 
ATOM     66  N   UNL A   1      33.037  23.655  25.362  1.00  0.00    -0.255 NA
ATOM     67  C   UNL A   1      32.797  23.990  24.065  1.00  0.00     0.094 A 
BRANCH  67  68
ATOM     68  C   UNL A   1      32.561  25.457  23.759  1.00  0.00     0.318 C 
BRANCH  68  69
ATOM     69  N   UNL A   1      32.535  26.251  24.987  1.00  0.00    -0.337 N 
ATOM     70  H   UNL A   1      32.836  25.656  25.759  1.00  0.00     0.346 HD
ATOM     71  H   UNL A   1      31.579  26.588  25.098  1.00  0.00     0.346 HD
BRANCH  69  72
ATOM     72  C   UNL A   1      33.401  27.439  24.955  1.00  0.00     0.211 C 
ATOM     73  C   UNL A   1      33.923  27.845  26.350  1.00  0.00     0.068 C 
ATOM     74  C   UNL A   1      32.602  28.629  24.354  1.00  0.00     0.172 C 
ATOM     75  C   UNL A   1      32.797  28.278  27.289  1.00  0.00     0.006 C 
ATOM     76  C   UNL A   1      31.469  29.084  25.283  1.00  0.00     0.038 C 
ATOM     77  C   UNL A   1      31.974  29.414  26.688  1.00  0.00     0.003 C 
BRANCH  74  78
ATOM     78  O   UNL A   1      33.494  29.717  24.099  1.00  0.00    -0.387 OA
ATOM     79  H   UNL A   1      33.763  29.705  23.168  1.00  0.00     0.211 HD
ENDBRANCH  74  78
ENDBRANCH  69  72
ENDBRANCH  68  69
ENDBRANCH  67  68
ENDBRANCH  59  62
ENDBRANCH   1  58
TORSDOF 14
ENDMDL
MODEL 3
REMARK VINA RESULT:     -10.5      1.946      2.694
REMARK SMILES O=C(NCCCNC(=O)c1ccc(C[NH2+][C@@H]2CCCC[C@H]2O)nc1)c1ccc(-c2c3nc(c(-c4ccccc4)c4ccc([nH]4)c(-c4ccccc4)c4nc(c(-c5ccccc5)c5ccc2[nH]5)C=C4)C=C3)cc1
REMARK SMILES IDX 6 1 5 2 4 3 3 4 1 5 2 6 25 8 26 9 72 10 27 11 71 12 28 13
REMARK SMILES IDX 29 14 30 15 65 16 31 17 70 18 64 19 66 20 32 21 69 22 63 23
REMARK SMILES IDX 62 24 33 26 55 27 40 28 54 29 41 30 44 31 53 32 67 33 42 34
REMARK SMILES IDX 43 35 52 37 68 38 45 39 34 40 35 41 39 42 36 43 38 44 37 45
REMARK SMILES IDX 56 46 57 47 61 48 58 49 60 50 59 51 46 52 47 53 51 54 48 55
REMARK SMILES IDX 50 56 49 57 7 58 8 59 9 61 10 62 11 63 24 64 12 65 23 66
REMARK SMILES IDX 13 67 14 68 15 69 16 72 17 73 21 74 18 75 20 76 19 77 22 78
REMARK H PARENT 3 7 66 25 44 36 7 60 15 70 15 71 22 79
REMARK Flexibility Score: inf
ROOT
ATOM      1  C   UNL A   1      32.942  27.065  25.012  1.00  0.00     0.118 C 
ENDROOT
BRANCH   1   2
ATOM      2  C   UNL A   1      33.871  28.141  25.555  1.00  0.00     0.042 C 
BRANCH   2   3
ATOM      3  C   UNL A   1      33.731  28.368  27.054  1.00  0.00     0.118 C 
BRANCH   3   4
ATOM      4  N   UNL A   1      33.668  29.782  27.402  1.00  0.00    -0.352 N 
ATOM      5  O   UNL A   1      34.234  31.702  28.426  1.00  0.00    -0.269 OA
ATOM      6  C   UNL A   1      34.575  30.584  28.051  1.00  0.00     0.251 C 
ATOM      7  H   UNL A   1      32.840  30.237  27.127  1.00  0.00     0.163 HD
BRANCH   6   8
ATOM      8  C   UNL A   1      35.949  30.106  28.313  1.00  0.00     0.039 A 
ATOM      9  C   UNL A   1      36.286  29.533  29.539  1.00  0.00     0.014 A 
ATOM     10  C   UNL A   1      36.907  30.192  27.297  1.00  0.00     0.014 A 
ATOM     11  C   UNL A   1      37.607  29.195  29.807  1.00  0.00     0.010 A 
ATOM     12  C   UNL A   1      38.213  29.755  27.532  1.00  0.00     0.010 A 
ATOM     13  C   UNL A   1      38.580  29.281  28.800  1.00  0.00    -0.014 A 
BRANCH  13  14
ATOM     14  C   UNL A   1      39.955  28.798  29.083  1.00  0.00     0.031 A 
ATOM     15  C   UNL A   1      40.401  27.424  28.668  1.00  0.00     0.074 A 
ATOM     16  C   UNL A   1      40.818  29.635  29.691  1.00  0.00     0.049 A 
ATOM     17  N   UNL A   1      41.577  26.865  28.810  1.00  0.00    -0.248 NA
ATOM     18  C   UNL A   1      39.403  26.562  28.016  1.00  0.00     0.031 C 
ATOM     19  C   UNL A   1      40.500  30.993  30.142  1.00  0.00     0.029 A 
ATOM     20  N   UNL A   1      42.143  29.481  30.011  1.00  0.00    -0.354 N 
ATOM     21  C   UNL A   1      41.457  25.586  28.283  1.00  0.00     0.074 A 
ATOM     22  C   UNL A   1      40.087  25.439  27.841  1.00  0.00     0.031 C 
ATOM     23  C   UNL A   1      41.611  31.566  30.628  1.00  0.00     0.029 A 
ATOM     24  C   UNL A   1      42.699  30.597  30.586  1.00  0.00     0.049 A 
ATOM     25  H   UNL A   1      42.645  28.651  29.844  1.00  0.00     0.167 HD
ATOM     26  C   UNL A   1      42.405  24.623  28.171  1.00  0.00     0.031 A 
ATOM     27  C   UNL A   1      43.944  30.817  31.044  1.00  0.00     0.031 A 
ATOM     28  C   UNL A   1      43.767  24.771  28.615  1.00  0.00     0.049 A 
ATOM     29  C   UNL A   1      44.960  29.720  30.945  1.00  0.00     0.074 A 
ATOM     30  C   UNL A   1      44.806  23.860  28.526  1.00  0.00     0.029 A 
ATOM     31  N   UNL A   1      44.279  25.901  29.235  1.00  0.00    -0.354 N 
ATOM     32  N   UNL A   1      44.836  28.526  30.418  1.00  0.00    -0.248 NA
ATOM     33  C   UNL A   1      46.288  29.999  31.506  1.00  0.00     0.031 C 
ATOM     34  C   UNL A   1      45.933  24.421  29.136  1.00  0.00     0.029 A 
ATOM     35  C   UNL A   1      45.612  25.701  29.556  1.00  0.00     0.049 A 
ATOM     36  H   UNL A   1      43.770  26.724  29.420  1.00  0.00     0.167 HD
ATOM     37  C   UNL A   1      46.073  27.917  30.568  1.00  0.00     0.074 A 
ATOM     38  C   UNL A   1      46.940  28.882  31.215  1.00  0.00     0.031 C 
ATOM     39  C   UNL A   1      46.456  26.669  30.206  1.00  0.00     0.031 A 
BRANCH  26  40
ATOM     40  C   UNL A   1      41.993  23.310  27.566  1.00  0.00    -0.014 A 
ATOM     41  C   UNL A   1      42.223  23.026  26.211  1.00  0.00     0.009 A 
ATOM     42  C   UNL A   1      41.412  22.321  28.377  1.00  0.00     0.009 A 
ATOM     43  C   UNL A   1      41.850  21.792  25.674  1.00  0.00     0.001 A 
ATOM     44  C   UNL A   1      41.063  21.079  27.842  1.00  0.00     0.001 A 
ATOM     45  C   UNL A   1      41.275  20.818  26.490  1.00  0.00     0.000 A 
ENDBRANCH  26  40
BRANCH  27  46
ATOM     46  C   UNL A   1      44.286  32.126  31.656  1.00  0.00    -0.014 A 
ATOM     47  C   UNL A   1      44.113  32.340  33.031  1.00  0.00     0.009 A 
ATOM     48  C   UNL A   1      44.802  33.166  30.866  1.00  0.00     0.009 A 
ATOM     49  C   UNL A   1      44.428  33.578  33.598  1.00  0.00     0.001 A 
ATOM     50  C   UNL A   1      45.145  34.391  31.441  1.00  0.00     0.001 A 
ATOM     51  C   UNL A   1      44.949  34.598  32.804  1.00  0.00     0.000 A 
ENDBRANCH  27  46
BRANCH  39  52
ATOM     52  C   UNL A   1      47.883  26.293  30.480  1.00  0.00    -0.014 A 
ATOM     53  C   UNL A   1      48.284  25.831  31.743  1.00  0.00     0.009 A 
ATOM     54  C   UNL A   1      48.836  26.383  29.452  1.00  0.00     0.009 A 
ATOM     55  C   UNL A   1      49.621  25.501  31.981  1.00  0.00     0.001 A 
ATOM     56  C   UNL A   1      50.164  26.026  29.685  1.00  0.00     0.001 A 
ATOM     57  C   UNL A   1      50.557  25.596  30.952  1.00  0.00     0.000 A 
ENDBRANCH  39  52
ENDBRANCH  13  14
ENDBRANCH   6   8
ENDBRANCH   3   4
ENDBRANCH   2   3
ENDBRANCH   1   2
BRANCH   1  58
ATOM     58  N   UNL A   1      33.112  26.868  23.580  1.00  0.00    -0.352 N 
ATOM     59  C   UNL A   1      33.547  25.756  22.905  1.00  0.00     0.252 C 
ATOM     60  H   UNL A   1      32.880  27.641  23.016  1.00  0.00     0.163 HD
ATOM     61  O   UNL A   1      33.859  25.828  21.720  1.00  0.00    -0.269 OA
BRANCH  59  62
ATOM     62  C   UNL A   1      33.659  24.478  23.615  1.00  0.00     0.058 A 
ATOM     63  C   UNL A   1      34.884  23.991  24.068  1.00  0.00     0.017 A 
ATOM     64  C   UNL A   1      32.518  23.731  23.844  1.00  0.00     0.125 A 
ATOM     65  C   UNL A   1      34.935  22.735  24.664  1.00  0.00     0.030 A 
ATOM     66  N   UNL A   1      32.543  22.502  24.410  1.00  0.00    -0.255 NA
ATOM     67  C   UNL A   1      33.751  22.012  24.802  1.00  0.00     0.094 A 
BRANCH  67  68
ATOM     68  C   UNL A   1      33.766  20.641  25.451  1.00  0.00     0.318 C 
BRANCH  68  69
ATOM     69  N   UNL A   1      33.979  19.591  24.454  1.00  0.00    -0.337 N 
ATOM     70  H   UNL A   1      34.644  18.919  24.835  1.00  0.00     0.346 HD
ATOM     71  H   UNL A   1      34.324  20.053  23.612  1.00  0.00     0.346 HD
BRANCH  69  72
ATOM     72  C   UNL A   1      32.758  18.868  24.070  1.00  0.00     0.211 C 
ATOM     73  C   UNL A   1      32.254  17.909  25.170  1.00  0.00     0.068 C 
ATOM     74  C   UNL A   1      33.041  18.048  22.782  1.00  0.00     0.172 C 
ATOM     75  C   UNL A   1      33.240  16.774  25.448  1.00  0.00     0.006 C 
ATOM     76  C   UNL A   1      34.025  16.899  23.039  1.00  0.00     0.038 C 
ATOM     77  C   UNL A   1      33.564  15.991  24.180  1.00  0.00     0.003 C 
BRANCH  74  78
ATOM     78  O   UNL A   1      31.810  17.532  22.268  1.00  0.00    -0.387 OA
ATOM     79  H   UNL A   1      31.100  17.692  22.909  1.00  0.00     0.211 HD
ENDBRANCH  74  78
ENDBRANCH  69  72
ENDBRANCH  68  69
ENDBRANCH  67  68
ENDBRANCH  59  62
ENDBRANCH   1  58
TORSDOF 14
ENDMDL
