MODEL 1
REMARK VINA RESULT:     -12.9      0.000      0.000
REMARK SMILES C[C@H]1CCc2sc3ncn4nc(/C=C\C(=O)NCCCNC(=O)c5ccc(-c6c7nc(c(-c8ccccc8)c8ccc([nH]8)c(-c8ccccc8)c8nc(c(-c9ccccc9)c9ccc6[nH]9)C=C8)C=C7)cc5)nc4c3c2C1
REMARK SMILES IDX 19 1 18 2 17 3 15 4 16 5 14 7 13 8 12 9 1 10 2 11 3 12 76 13
REMARK SMILES IDX 4 14 75 15 5 16 74 17 6 18 7 19 73 20 8 21 10 22 72 23 9 24
REMARK SMILES IDX 11 25 20 26 21 27 22 28 23 30 24 31 25 32 71 33 26 34 70 35
REMARK SMILES IDX 27 36 28 37 29 38 64 39 30 40 69 41 63 42 65 43 31 44 68 45
REMARK SMILES IDX 62 46 61 47 32 49 54 50 39 51 53 52 40 53 43 54 52 55 66 56
REMARK SMILES IDX 41 57 42 58 51 60 67 61 44 62 33 63 34 64 38 65 35 66 37 67
REMARK SMILES IDX 36 68 55 69 56 70 60 71 57 72 59 73 58 74 45 75 46 76 50 77
REMARK SMILES IDX 47 78 49 79 48 80
REMARK H PARENT 17 6 21 29 65 48 43 59
REMARK Flexibility Score: inf
ROOT
ATOM      1  C   UNL A   1      37.461  21.495  24.735  1.00  0.00     0.042 C 
ENDROOT
BRANCH   1   2
ATOM      2  C   UNL A   1      36.281  20.791  25.377  1.00  0.00     0.118 C 
BRANCH   2   3
ATOM      3  N   UNL A   1      35.583  21.470  26.444  1.00  0.00    -0.352 N 
ATOM      4  C   UNL A   1      34.267  21.419  26.794  1.00  0.00     0.244 C 
ATOM      5  O   UNL A   1      33.918  21.894  27.876  1.00  0.00    -0.270 OA
ATOM      6  H   UNL A   1      36.141  22.056  27.003  1.00  0.00     0.163 HD
BRANCH   4   7
ATOM      7  C   UNL A   1      33.216  20.999  25.838  1.00  0.00     0.075 C 
ATOM      8  C   UNL A   1      32.784  21.522  24.679  1.00  0.00     0.057 C 
BRANCH   8   9
ATOM      9  C   UNL A   1      33.183  22.716  24.009  1.00  0.00     0.175 A 
ATOM     10  C   UNL A   1      34.091  28.645  27.487  1.00  0.00     0.008 C 
ATOM     11  C   UNL A   1      32.678  28.240  27.076  1.00  0.00    -0.009 C 
ATOM     12  C   UNL A   1      31.960  29.412  26.384  1.00  0.00     0.009 C 
ATOM     13  C   UNL A   1      32.680  26.947  26.224  1.00  0.00     0.041 C 
ATOM     14  C   UNL A   1      32.443  29.720  24.962  1.00  0.00     0.047 C 
ATOM     15  C   UNL A   1      32.929  27.206  24.766  1.00  0.00    -0.020 A 
ATOM     16  C   UNL A   1      32.801  28.472  24.220  1.00  0.00     0.011 A 
ATOM     17  C   UNL A   1      33.190  26.267  23.730  1.00  0.00     0.060 A 
ATOM     18  S   UNL A   1      33.080  28.512  22.534  1.00  0.00    -0.120 S 
ATOM     19  C   UNL A   1      33.193  26.810  22.451  1.00  0.00     0.129 A 
ATOM     20  C   UNL A   1      33.317  24.795  23.735  1.00  0.00     0.168 A 
ATOM     21  N   UNL A   1      33.222  26.147  21.246  1.00  0.00    -0.225 NA
ATOM     22  N   UNL A   1      33.294  24.166  22.523  1.00  0.00    -0.201 N 
ATOM     23  N   UNL A   1      33.305  23.908  24.701  1.00  0.00    -0.207 NA
ATOM     24  C   UNL A   1      33.219  24.841  21.307  1.00  0.00     0.227 A 
ATOM     25  N   UNL A   1      33.214  22.830  22.668  1.00  0.00    -0.145 NA
ENDBRANCH   8   9
ENDBRANCH   4   7
ENDBRANCH   2   3
ENDBRANCH   1   2
BRANCH   1  26
ATOM     26  C   UNL A   1      38.671  21.583  25.670  1.00  0.00     0.118 C 
BRANCH  26  27
ATOM     27  N   UNL A   1      39.462  20.343  25.793  1.00  0.00    -0.352 N 
ATOM     28  C   UNL A   1      40.841  20.196  25.842  1.00  0.00     0.251 C 
ATOM     29  H   UNL A   1      38.941  19.509  25.846  1.00  0.00     0.163 HD
ATOM     30  O   UNL A   1      41.366  19.174  25.389  1.00  0.00    -0.269 OA
BRANCH  28  31
ATOM     31  C   UNL A   1      41.676  21.265  26.419  1.00  0.00     0.039 A 
ATOM     32  C   UNL A   1      42.139  22.363  25.687  1.00  0.00     0.014 A 
ATOM     33  C   UNL A   1      41.937  21.186  27.778  1.00  0.00     0.014 A 
ATOM     34  C   UNL A   1      42.696  23.439  26.378  1.00  0.00     0.010 A 
ATOM     35  C   UNL A   1      42.284  22.302  28.481  1.00  0.00     0.010 A 
ATOM     36  C   UNL A   1      42.693  23.423  27.784  1.00  0.00    -0.014 A 
BRANCH  36  37
ATOM     37  C   UNL A   1      42.758  24.652  28.556  1.00  0.00     0.031 A 
ATOM     38  C   UNL A   1      41.558  25.496  28.308  1.00  0.00     0.074 A 
ATOM     39  C   UNL A   1      43.553  24.856  29.625  1.00  0.00     0.049 A 
ATOM     40  N   UNL A   1      41.495  26.548  27.566  1.00  0.00    -0.248 NA
ATOM     41  C   UNL A   1      40.239  24.974  28.716  1.00  0.00     0.031 C 
ATOM     42  C   UNL A   1      44.494  23.943  30.281  1.00  0.00     0.029 A 
ATOM     43  N   UNL A   1      43.573  25.932  30.447  1.00  0.00    -0.354 N 
ATOM     44  C   UNL A   1      40.168  26.950  27.599  1.00  0.00     0.074 A 
ATOM     45  C   UNL A   1      39.421  25.818  28.085  1.00  0.00     0.031 C 
ATOM     46  C   UNL A   1      44.798  24.418  31.514  1.00  0.00     0.029 A 
ATOM     47  C   UNL A   1      44.205  25.734  31.665  1.00  0.00     0.049 A 
ATOM     48  H   UNL A   1      43.167  26.794  30.196  1.00  0.00     0.167 HD
ATOM     49  C   UNL A   1      39.829  28.266  27.517  1.00  0.00     0.031 A 
ATOM     50  C   UNL A   1      44.176  26.589  32.720  1.00  0.00     0.031 A 
ATOM     51  C   UNL A   1      40.969  29.072  27.147  1.00  0.00     0.049 A 
ATOM     52  C   UNL A   1      43.755  27.915  32.190  1.00  0.00     0.074 A 
ATOM     53  C   UNL A   1      41.837  29.079  26.071  1.00  0.00     0.029 A 
ATOM     54  N   UNL A   1      41.635  29.708  28.173  1.00  0.00    -0.354 N 
ATOM     55  N   UNL A   1      44.470  28.606  31.348  1.00  0.00    -0.248 NA
ATOM     56  C   UNL A   1      42.331  28.223  32.199  1.00  0.00     0.031 C 
ATOM     57  C   UNL A   1      43.130  29.252  26.651  1.00  0.00     0.029 A 
ATOM     58  C   UNL A   1      42.974  29.446  28.025  1.00  0.00     0.049 A 
ATOM     59  H   UNL A   1      41.223  30.252  28.884  1.00  0.00     0.167 HD
ATOM     60  C   UNL A   1      43.555  29.100  30.426  1.00  0.00     0.074 A 
ATOM     61  C   UNL A   1      42.245  28.902  31.050  1.00  0.00     0.031 C 
ATOM     62  C   UNL A   1      43.908  29.333  29.127  1.00  0.00     0.031 A 
BRANCH  49  63
ATOM     63  C   UNL A   1      38.617  28.863  28.183  1.00  0.00    -0.014 A 
ATOM     64  C   UNL A   1      37.920  29.883  27.514  1.00  0.00     0.009 A 
ATOM     65  C   UNL A   1      38.281  28.650  29.533  1.00  0.00     0.009 A 
ATOM     66  C   UNL A   1      36.991  30.688  28.182  1.00  0.00     0.001 A 
ATOM     67  C   UNL A   1      37.324  29.424  30.193  1.00  0.00     0.001 A 
ATOM     68  C   UNL A   1      36.698  30.463  29.523  1.00  0.00     0.000 A 
ENDBRANCH  49  63
BRANCH  50  69
ATOM     69  C   UNL A   1      44.147  26.275  34.169  1.00  0.00    -0.014 A 
ATOM     70  C   UNL A   1      43.047  25.611  34.739  1.00  0.00     0.009 A 
ATOM     71  C   UNL A   1      45.322  26.365  34.941  1.00  0.00     0.009 A 
ATOM     72  C   UNL A   1      43.136  25.020  36.008  1.00  0.00     0.001 A 
ATOM     73  C   UNL A   1      45.409  25.775  36.209  1.00  0.00     0.001 A 
ATOM     74  C   UNL A   1      44.322  25.086  36.735  1.00  0.00     0.000 A 
ENDBRANCH  50  69
BRANCH  62  75
ATOM     75  C   UNL A   1      45.369  29.226  28.747  1.00  0.00    -0.014 A 
ATOM     76  C   UNL A   1      45.994  28.017  28.386  1.00  0.00     0.009 A 
ATOM     77  C   UNL A   1      46.087  30.417  28.565  1.00  0.00     0.009 A 
ATOM     78  C   UNL A   1      47.298  28.005  27.871  1.00  0.00     0.001 A 
ATOM     79  C   UNL A   1      47.379  30.408  28.034  1.00  0.00     0.001 A 
ATOM     80  C   UNL A   1      47.986  29.202  27.689  1.00  0.00     0.000 A 
ENDBRANCH  62  75
ENDBRANCH  36  37
ENDBRANCH  28  31
ENDBRANCH  26  27
ENDBRANCH   1  26
TORSDOF 11
ENDMDL
MODEL 2
REMARK VINA RESULT:     -12.9      1.998      5.763
REMARK SMILES C[C@H]1CCc2sc3ncn4nc(/C=C\C(=O)NCCCNC(=O)c5ccc(-c6c7nc(c(-c8ccccc8)c8ccc([nH]8)c(-c8ccccc8)c8nc(c(-c9ccccc9)c9ccc6[nH]9)C=C8)C=C7)cc5)nc4c3c2C1
REMARK SMILES IDX 19 1 18 2 17 3 15 4 16 5 14 7 13 8 12 9 1 10 2 11 3 12 76 13
REMARK SMILES IDX 4 14 75 15 5 16 74 17 6 18 7 19 73 20 8 21 10 22 72 23 9 24
REMARK SMILES IDX 11 25 20 26 21 27 22 28 23 30 24 31 25 32 71 33 26 34 70 35
REMARK SMILES IDX 27 36 28 37 29 38 64 39 30 40 69 41 63 42 65 43 31 44 68 45
REMARK SMILES IDX 62 46 61 47 32 49 54 50 39 51 53 52 40 53 43 54 52 55 66 56
REMARK SMILES IDX 41 57 42 58 51 60 67 61 44 62 33 63 34 64 38 65 35 66 37 67
REMARK SMILES IDX 36 68 55 69 56 70 60 71 57 72 59 73 58 74 45 75 46 76 50 77
REMARK SMILES IDX 47 78 49 79 48 80
REMARK H PARENT 17 6 21 29 65 48 43 59
REMARK Flexibility Score: inf
ROOT
ATOM      1  C   UNL A   1      40.931  20.254  25.991  1.00  0.00     0.042 C 
ENDROOT
BRANCH   1   2
ATOM      2  C   UNL A   1      40.042  21.161  26.819  1.00  0.00     0.118 C 
BRANCH   2   3
ATOM      3  N   UNL A   1      39.309  22.203  26.137  1.00  0.00    -0.352 N 
ATOM      4  C   UNL A   1      38.080  22.162  25.549  1.00  0.00     0.244 C 
ATOM      5  O   UNL A   1      37.538  23.219  25.223  1.00  0.00    -0.270 OA
ATOM      6  H   UNL A   1      39.765  23.074  26.090  1.00  0.00     0.163 HD
BRANCH   4   7
ATOM      7  C   UNL A   1      37.466  20.889  25.105  1.00  0.00     0.075 C 
ATOM      8  C   UNL A   1      36.189  20.488  24.995  1.00  0.00     0.057 C 
BRANCH   8   9
ATOM      9  C   UNL A   1      34.984  21.172  25.332  1.00  0.00     0.175 A 
ATOM     10  C   UNL A   1      32.220  25.878  21.055  1.00  0.00     0.008 C 
ATOM     11  C   UNL A   1      33.358  26.301  21.979  1.00  0.00    -0.009 C 
ATOM     12  C   UNL A   1      32.993  27.594  22.729  1.00  0.00     0.009 C 
ATOM     13  C   UNL A   1      33.778  25.152  22.929  1.00  0.00     0.041 C 
ATOM     14  C   UNL A   1      31.954  27.428  23.844  1.00  0.00     0.047 C 
ATOM     15  C   UNL A   1      32.929  25.073  24.165  1.00  0.00    -0.020 A 
ATOM     16  C   UNL A   1      32.121  26.126  24.562  1.00  0.00     0.011 A 
ATOM     17  C   UNL A   1      32.891  24.049  25.152  1.00  0.00     0.060 A 
ATOM     18  S   UNL A   1      31.291  25.827  26.025  1.00  0.00    -0.120 S 
ATOM     19  C   UNL A   1      32.130  24.360  26.272  1.00  0.00     0.129 A 
ATOM     20  C   UNL A   1      33.622  22.772  25.284  1.00  0.00     0.168 A 
ATOM     21  N   UNL A   1      32.052  23.676  27.464  1.00  0.00    -0.225 NA
ATOM     22  N   UNL A   1      33.561  22.144  26.495  1.00  0.00    -0.201 N 
ATOM     23  N   UNL A   1      34.471  22.152  24.500  1.00  0.00    -0.207 NA
ATOM     24  C   UNL A   1      32.807  22.614  27.568  1.00  0.00     0.227 A 
ATOM     25  N   UNL A   1      34.421  21.110  26.553  1.00  0.00    -0.145 NA
ENDBRANCH   8   9
ENDBRANCH   4   7
ENDBRANCH   2   3
ENDBRANCH   1   2
BRANCH   1  26
ATOM     26  C   UNL A   1      42.215  19.859  26.728  1.00  0.00     0.118 C 
BRANCH  26  27
ATOM     27  N   UNL A   1      43.353  19.503  25.858  1.00  0.00    -0.352 N 
ATOM     28  C   UNL A   1      44.048  20.308  24.965  1.00  0.00     0.251 C 
ATOM     29  H   UNL A   1      43.659  18.569  25.917  1.00  0.00     0.163 HD
ATOM     30  O   UNL A   1      44.546  19.812  23.950  1.00  0.00    -0.269 OA
BRANCH  28  31
ATOM     31  C   UNL A   1      44.175  21.754  25.223  1.00  0.00     0.039 A 
ATOM     32  C   UNL A   1      43.335  22.716  24.654  1.00  0.00     0.014 A 
ATOM     33  C   UNL A   1      45.141  22.140  26.138  1.00  0.00     0.014 A 
ATOM     34  C   UNL A   1      43.372  24.016  25.159  1.00  0.00     0.010 A 
ATOM     35  C   UNL A   1      45.046  23.340  26.778  1.00  0.00     0.010 A 
ATOM     36  C   UNL A   1      44.183  24.294  26.273  1.00  0.00    -0.014 A 
BRANCH  36  37
ATOM     37  C   UNL A   1      43.903  25.416  27.153  1.00  0.00     0.031 A 
ATOM     38  C   UNL A   1      44.807  26.560  26.854  1.00  0.00     0.074 A 
ATOM     39  C   UNL A   1      42.770  25.582  27.863  1.00  0.00     0.049 A 
ATOM     40  N   UNL A   1      45.841  26.923  27.533  1.00  0.00    -0.248 NA
ATOM     41  C   UNL A   1      44.706  27.204  25.529  1.00  0.00     0.031 C 
ATOM     42  C   UNL A   1      41.570  24.743  27.921  1.00  0.00     0.029 A 
ATOM     43  N   UNL A   1      42.409  26.656  28.604  1.00  0.00    -0.354 N 
ATOM     44  C   UNL A   1      46.388  27.991  26.837  1.00  0.00     0.074 A 
ATOM     45  C   UNL A   1      45.821  27.938  25.514  1.00  0.00     0.031 C 
ATOM     46  C   UNL A   1      40.547  25.454  28.456  1.00  0.00     0.029 A 
ATOM     47  C   UNL A   1      41.060  26.730  28.920  1.00  0.00     0.049 A 
ATOM     48  H   UNL A   1      43.059  27.336  28.898  1.00  0.00     0.167 HD
ATOM     49  C   UNL A   1      47.023  29.004  27.488  1.00  0.00     0.031 A 
ATOM     50  C   UNL A   1      40.435  27.802  29.472  1.00  0.00     0.031 A 
ATOM     51  C   UNL A   1      47.247  28.668  28.875  1.00  0.00     0.049 A 
ATOM     52  C   UNL A   1      41.494  28.658  30.074  1.00  0.00     0.074 A 
ATOM     53  C   UNL A   1      47.908  27.642  29.524  1.00  0.00     0.029 A 
ATOM     54  N   UNL A   1      46.342  29.169  29.786  1.00  0.00    -0.354 N 
ATOM     55  N   UNL A   1      42.235  28.276  31.076  1.00  0.00    -0.248 NA
ATOM     56  C   UNL A   1      42.063  29.711  29.243  1.00  0.00     0.031 C 
ATOM     57  C   UNL A   1      47.030  27.257  30.581  1.00  0.00     0.029 A 
ATOM     58  C   UNL A   1      45.940  28.130  30.587  1.00  0.00     0.049 A 
ATOM     59  H   UNL A   1      46.039  30.105  29.849  1.00  0.00     0.167 HD
ATOM     60  C   UNL A   1      43.517  28.703  30.753  1.00  0.00     0.074 A 
ATOM     61  C   UNL A   1      43.335  29.654  29.655  1.00  0.00     0.031 C 
ATOM     62  C   UNL A   1      44.623  28.024  31.182  1.00  0.00     0.031 A 
BRANCH  49  63
ATOM     63  C   UNL A   1      47.043  30.430  27.003  1.00  0.00    -0.014 A 
ATOM     64  C   UNL A   1      48.252  31.142  27.069  1.00  0.00     0.009 A 
ATOM     65  C   UNL A   1      45.883  31.179  26.726  1.00  0.00     0.009 A 
ATOM     66  C   UNL A   1      48.284  32.535  26.934  1.00  0.00     0.001 A 
ATOM     67  C   UNL A   1      45.917  32.563  26.548  1.00  0.00     0.001 A 
ATOM     68  C   UNL A   1      47.115  33.246  26.680  1.00  0.00     0.000 A 
ENDBRANCH  49  63
BRANCH  50  69
ATOM     69  C   UNL A   1      39.063  28.306  29.223  1.00  0.00    -0.014 A 
ATOM     70  C   UNL A   1      38.159  28.482  30.285  1.00  0.00     0.009 A 
ATOM     71  C   UNL A   1      38.731  28.889  27.985  1.00  0.00     0.009 A 
ATOM     72  C   UNL A   1      36.996  29.252  30.127  1.00  0.00     0.001 A 
ATOM     73  C   UNL A   1      37.569  29.656  27.827  1.00  0.00     0.001 A 
ATOM     74  C   UNL A   1      36.711  29.853  28.904  1.00  0.00     0.000 A 
ENDBRANCH  50  69
BRANCH  62  75
ATOM     75  C   UNL A   1      44.436  26.902  32.181  1.00  0.00    -0.014 A 
ATOM     76  C   UNL A   1      44.413  25.539  31.827  1.00  0.00     0.009 A 
ATOM     77  C   UNL A   1      44.479  27.226  33.545  1.00  0.00     0.009 A 
ATOM     78  C   UNL A   1      44.419  24.539  32.808  1.00  0.00     0.001 A 
ATOM     79  C   UNL A   1      44.504  26.229  34.523  1.00  0.00     0.001 A 
ATOM     80  C   UNL A   1      44.472  24.886  34.156  1.00  0.00     0.000 A 
ENDBRANCH  62  75
ENDBRANCH  36  37
ENDBRANCH  28  31
ENDBRANCH  26  27
ENDBRANCH   1  26
TORSDOF 11
ENDMDL
MODEL 3
REMARK VINA RESULT:     -12.8      4.184      8.583
REMARK SMILES C[C@H]1CCc2sc3ncn4nc(/C=C\C(=O)NCCCNC(=O)c5ccc(-c6c7nc(c(-c8ccccc8)c8ccc([nH]8)c(-c8ccccc8)c8nc(c(-c9ccccc9)c9ccc6[nH]9)C=C8)C=C7)cc5)nc4c3c2C1
REMARK SMILES IDX 19 1 18 2 17 3 15 4 16 5 14 7 13 8 12 9 1 10 2 11 3 12 76 13
REMARK SMILES IDX 4 14 75 15 5 16 74 17 6 18 7 19 73 20 8 21 10 22 72 23 9 24
REMARK SMILES IDX 11 25 20 26 21 27 22 28 23 30 24 31 25 32 71 33 26 34 70 35
REMARK SMILES IDX 27 36 28 37 29 38 64 39 30 40 69 41 63 42 65 43 31 44 68 45
REMARK SMILES IDX 62 46 61 47 32 49 54 50 39 51 53 52 40 53 43 54 52 55 66 56
REMARK SMILES IDX 41 57 42 58 51 60 67 61 44 62 33 63 34 64 38 65 35 66 37 67
REMARK SMILES IDX 36 68 55 69 56 70 60 71 57 72 59 73 58 74 45 75 46 76 50 77
REMARK SMILES IDX 47 78 49 79 48 80
REMARK H PARENT 17 6 21 29 65 48 43 59
REMARK Flexibility Score: inf
ROOT
ATOM      1  C   UNL A   1      32.307  29.484  26.578  1.00  0.00     0.042 C 
ENDROOT
BRANCH   1   2
ATOM      2  C   UNL A   1      32.201  29.746  25.088  1.00  0.00     0.118 C 
BRANCH   2   3
ATOM      3  N   UNL A   1      30.965  30.297  24.581  1.00  0.00    -0.352 N 
ATOM      4  C   UNL A   1      30.093  29.784  23.669  1.00  0.00     0.244 C 
ATOM      5  O   UNL A   1      28.984  30.305  23.545  1.00  0.00    -0.270 OA
ATOM      6  H   UNL A   1      30.716  31.175  24.950  1.00  0.00     0.163 HD
BRANCH   4   7
ATOM      7  C   UNL A   1      30.502  28.757  22.683  1.00  0.00     0.075 C 
ATOM      8  C   UNL A   1      30.934  27.492  22.817  1.00  0.00     0.057 C 
BRANCH   8   9
ATOM      9  C   UNL A   1      31.189  26.734  23.997  1.00  0.00     0.175 A 
ATOM     10  C   UNL A   1      37.327  23.680  25.036  1.00  0.00     0.008 C 
ATOM     11  C   UNL A   1      36.295  22.981  24.156  1.00  0.00    -0.009 C 
ATOM     12  C   UNL A   1      36.126  21.513  24.585  1.00  0.00     0.009 C 
ATOM     13  C   UNL A   1      34.955  23.757  24.121  1.00  0.00     0.041 C 
ATOM     14  C   UNL A   1      35.363  21.304  25.898  1.00  0.00     0.047 C 
ATOM     15  C   UNL A   1      34.056  23.425  25.277  1.00  0.00    -0.020 A 
ATOM     16  C   UNL A   1      34.258  22.299  26.057  1.00  0.00     0.011 A 
ATOM     17  C   UNL A   1      32.853  24.070  25.678  1.00  0.00     0.060 A 
ATOM     18  S   UNL A   1      33.078  22.101  27.277  1.00  0.00    -0.120 S 
ATOM     19  C   UNL A   1      32.155  23.408  26.681  1.00  0.00     0.129 A 
ATOM     20  C   UNL A   1      32.124  25.235  25.136  1.00  0.00     0.168 A 
ATOM     21  N   UNL A   1      30.884  23.665  27.144  1.00  0.00    -0.225 NA
ATOM     22  N   UNL A   1      30.849  25.433  25.583  1.00  0.00    -0.201 N 
ATOM     23  N   UNL A   1      32.396  26.079  24.170  1.00  0.00    -0.207 NA
ATOM     24  C   UNL A   1      30.241  24.637  26.551  1.00  0.00     0.227 A 
ATOM     25  N   UNL A   1      30.226  26.393  24.874  1.00  0.00    -0.145 NA
ENDBRANCH   8   9
ENDBRANCH   4   7
ENDBRANCH   2   3
ENDBRANCH   1   2
BRANCH   1  26
ATOM     26  C   UNL A   1      33.150  30.540  27.301  1.00  0.00     0.118 C 
BRANCH  26  27
ATOM     27  N   UNL A   1      32.736  31.937  27.072  1.00  0.00    -0.352 N 
ATOM     28  C   UNL A   1      33.011  33.060  27.842  1.00  0.00     0.251 C 
ATOM     29  H   UNL A   1      32.193  32.095  26.267  1.00  0.00     0.163 HD
ATOM     30  O   UNL A   1      32.200  33.990  27.882  1.00  0.00    -0.269 OA
BRANCH  28  31
ATOM     31  C   UNL A   1      34.260  33.131  28.622  1.00  0.00     0.039 A 
ATOM     32  C   UNL A   1      34.423  32.532  29.874  1.00  0.00     0.014 A 
ATOM     33  C   UNL A   1      35.333  33.771  28.020  1.00  0.00     0.014 A 
ATOM     34  C   UNL A   1      35.709  32.437  30.406  1.00  0.00     0.010 A 
ATOM     35  C   UNL A   1      36.609  33.506  28.423  1.00  0.00     0.010 A 
ATOM     36  C   UNL A   1      36.802  32.865  29.631  1.00  0.00    -0.014 A 
BRANCH  36  37
ATOM     37  C   UNL A   1      38.141  32.348  29.860  1.00  0.00     0.031 A 
ATOM     38  C   UNL A   1      38.237  30.923  29.445  1.00  0.00     0.074 A 
ATOM     39  C   UNL A   1      39.242  33.103  30.044  1.00  0.00     0.049 A 
ATOM     40  N   UNL A   1      38.241  29.893  30.219  1.00  0.00    -0.248 NA
ATOM     41  C   UNL A   1      38.046  30.596  28.017  1.00  0.00     0.031 C 
ATOM     42  C   UNL A   1      39.391  34.561  30.038  1.00  0.00     0.029 A 
ATOM     43  N   UNL A   1      40.525  32.681  30.147  1.00  0.00    -0.354 N 
ATOM     44  C   UNL A   1      38.285  28.791  29.376  1.00  0.00     0.074 A 
ATOM     45  C   UNL A   1      37.897  29.271  28.074  1.00  0.00     0.031 C 
ATOM     46  C   UNL A   1      40.701  34.881  29.893  1.00  0.00     0.029 A 
ATOM     47  C   UNL A   1      41.487  33.662  29.957  1.00  0.00     0.049 A 
ATOM     48  H   UNL A   1      40.758  31.744  30.342  1.00  0.00     0.167 HD
ATOM     49  C   UNL A   1      38.926  27.648  29.745  1.00  0.00     0.031 A 
ATOM     50  C   UNL A   1      42.820  33.446  29.812  1.00  0.00     0.031 A 
ATOM     51  C   UNL A   1      39.282  27.682  31.144  1.00  0.00     0.049 A 
ATOM     52  C   UNL A   1      43.096  32.080  30.336  1.00  0.00     0.074 A 
ATOM     53  C   UNL A   1      38.567  27.832  32.318  1.00  0.00     0.029 A 
ATOM     54  N   UNL A   1      40.578  28.044  31.443  1.00  0.00    -0.354 N 
ATOM     55  N   UNL A   1      42.939  31.751  31.588  1.00  0.00    -0.248 NA
ATOM     56  C   UNL A   1      43.049  30.973  29.390  1.00  0.00     0.031 C 
ATOM     57  C   UNL A   1      39.340  28.743  33.098  1.00  0.00     0.029 A 
ATOM     58  C   UNL A   1      40.526  29.015  32.411  1.00  0.00     0.049 A 
ATOM     59  H   UNL A   1      41.394  27.673  31.034  1.00  0.00     0.167 HD
ATOM     60  C   UNL A   1      42.339  30.498  31.553  1.00  0.00     0.074 A 
ATOM     61  C   UNL A   1      42.510  30.034  30.175  1.00  0.00     0.031 C 
ATOM     62  C   UNL A   1      41.493  30.086  32.544  1.00  0.00     0.031 A 
BRANCH  49  63
ATOM     63  C   UNL A   1      39.607  26.719  28.774  1.00  0.00    -0.014 A 
ATOM     64  C   UNL A   1      40.562  27.254  27.894  1.00  0.00     0.009 A 
ATOM     65  C   UNL A   1      39.174  25.405  28.513  1.00  0.00     0.009 A 
ATOM     66  C   UNL A   1      41.003  26.537  26.776  1.00  0.00     0.001 A 
ATOM     67  C   UNL A   1      39.644  24.670  27.422  1.00  0.00     0.001 A 
ATOM     68  C   UNL A   1      40.540  25.248  26.537  1.00  0.00     0.000 A 
ENDBRANCH  49  63
BRANCH  50  69
ATOM     69  C   UNL A   1      43.792  34.173  28.961  1.00  0.00    -0.014 A 
ATOM     70  C   UNL A   1      45.087  34.455  29.428  1.00  0.00     0.009 A 
ATOM     71  C   UNL A   1      43.548  34.338  27.583  1.00  0.00     0.009 A 
ATOM     72  C   UNL A   1      46.109  34.836  28.545  1.00  0.00     0.001 A 
ATOM     73  C   UNL A   1      44.569  34.721  26.702  1.00  0.00     0.001 A 
ATOM     74  C   UNL A   1      45.854  34.952  27.181  1.00  0.00     0.000 A 
ENDBRANCH  50  69
BRANCH  62  75
ATOM     75  C   UNL A   1      41.365  30.943  33.785  1.00  0.00    -0.014 A 
ATOM     76  C   UNL A   1      40.479  32.032  33.892  1.00  0.00     0.009 A 
ATOM     77  C   UNL A   1      42.024  30.515  34.947  1.00  0.00     0.009 A 
ATOM     78  C   UNL A   1      40.273  32.676  35.120  1.00  0.00     0.001 A 
ATOM     79  C   UNL A   1      41.803  31.143  36.175  1.00  0.00     0.001 A 
ATOM     80  C   UNL A   1      40.930  32.225  36.262  1.00  0.00     0.000 A 
ENDBRANCH  62  75
ENDBRANCH  36  37
ENDBRANCH  28  31
ENDBRANCH  26  27
ENDBRANCH   1  26
TORSDOF 11
ENDMDL
