MODEL 1
REMARK VINA RESULT:     -10.9      0.000      0.000
REMARK SMILES CCc1ccc(OCC(=O)Nc2cc(C)c(O)c(C(=O)NCCCNC(=O)c3ccc(-c4c5nc(c(-c6ccccc6)c6ccc([nH]6)c(-c6ccccc6)c6nc(c(-c7ccccc7)c7ccc4[nH]7)C=C6)C=C5)cc3)c2)cc1
REMARK SMILES IDX 19 1 20 2 21 3 18 5 12 6 13 7 76 8 14 9 15 10 16 11 11 12
REMARK SMILES IDX 9 13 10 14 8 16 7 17 6 18 3 19 4 20 78 21 5 22 77 23 2 24
REMARK SMILES IDX 1 25 17 26 22 28 23 29 24 30 25 31 26 32 27 34 28 35 29 36
REMARK SMILES IDX 75 37 30 38 74 39 31 40 32 41 33 42 68 43 34 44 73 45 67 46
REMARK SMILES IDX 69 47 35 48 72 49 66 50 65 51 36 53 58 54 43 55 57 56 44 57
REMARK SMILES IDX 47 58 56 59 70 60 45 61 46 62 55 64 71 65 48 66 37 67 38 68
REMARK SMILES IDX 42 69 39 70 41 71 40 72 59 73 60 74 64 75 61 76 63 77 62 78
REMARK SMILES IDX 49 79 50 80 54 81 51 82 53 83 52 84
REMARK H PARENT 21 4 11 15 17 27 25 33 69 52 47 63
REMARK Flexibility Score: inf
ROOT
ATOM      1  C   UNL A   1      35.274  22.941  26.176  1.00  0.00     0.255 C 
ATOM      2  O   UNL A   1      34.663  23.206  27.216  1.00  0.00    -0.269 OA
ATOM      3  N   UNL A   1      36.641  23.066  26.187  1.00  0.00    -0.352 N 
ATOM      4  H   UNL A   1      37.020  23.335  27.055  1.00  0.00     0.163 HD
ENDROOT
BRANCH   1   5
ATOM      5  C   UNL A   1      34.473  22.596  24.965  1.00  0.00     0.083 A 
ATOM      6  C   UNL A   1      33.564  23.088  22.767  1.00  0.00     0.042 A 
ATOM      7  C   UNL A   1      32.796  21.913  22.853  1.00  0.00     0.033 A 
ATOM      8  C   UNL A   1      34.438  23.401  23.807  1.00  0.00     0.043 A 
ATOM      9  C   UNL A   1      32.898  21.035  23.936  1.00  0.00    -0.006 A 
ATOM     10  C   UNL A   1      32.118  19.751  23.900  1.00  0.00     0.048 C 
ATOM     11  C   UNL A   1      33.736  21.389  24.994  1.00  0.00     0.131 A 
BRANCH   6  12
ATOM     12  N   UNL A   1      33.311  23.869  21.632  1.00  0.00    -0.323 N 
ATOM     13  C   UNL A   1      33.137  25.184  21.354  1.00  0.00     0.262 C 
ATOM     14  O   UNL A   1      32.849  25.447  20.177  1.00  0.00    -0.271 OA
ATOM     15  H   UNL A   1      33.240  23.315  20.821  1.00  0.00     0.170 HD
BRANCH  13  16
ATOM     16  C   UNL A   1      33.398  26.326  22.346  1.00  0.00     0.329 C 
BRANCH  16  17
ATOM     17  O   UNL A   1      32.443  26.852  23.241  1.00  0.00    -0.484 OA
BRANCH  17  18
ATOM     18  C   UNL A   1      31.822  26.042  24.141  1.00  0.00     0.120 A 
ATOM     19  C   UNL A   1      31.140  24.103  26.064  1.00  0.00    -0.048 A 
ATOM     20  C   UNL A   1      32.057  25.108  26.360  1.00  0.00     0.007 A 
ATOM     21  C   UNL A   1      30.428  24.206  24.867  1.00  0.00     0.007 A 
ATOM     22  C   UNL A   1      32.386  26.074  25.412  1.00  0.00     0.047 A 
ATOM     23  C   UNL A   1      30.759  25.179  23.915  1.00  0.00     0.047 A 
BRANCH  19  24
ATOM     24  C   UNL A   1      30.887  22.942  26.994  1.00  0.00     0.032 C 
ATOM     25  C   UNL A   1      29.412  22.657  27.268  1.00  0.00     0.009 C 
ENDBRANCH  19  24
ENDBRANCH  17  18
ENDBRANCH  16  17
ENDBRANCH  13  16
ENDBRANCH   6  12
BRANCH  11  26
ATOM     26  O   UNL A   1      33.804  20.516  26.052  1.00  0.00    -0.507 OA
ATOM     27  H   UNL A   1      33.058  19.997  26.278  1.00  0.00     0.293 HD
ENDBRANCH  11  26
ENDBRANCH   1   5
BRANCH   3  28
ATOM     28  C   UNL A   1      37.621  22.871  25.137  1.00  0.00     0.118 C 
BRANCH  28  29
ATOM     29  C   UNL A   1      37.707  21.441  24.610  1.00  0.00     0.042 C 
BRANCH  29  30
ATOM     30  C   UNL A   1      37.884  20.336  25.651  1.00  0.00     0.118 C 
BRANCH  30  31
ATOM     31  N   UNL A   1      39.110  19.552  25.538  1.00  0.00    -0.352 N 
ATOM     32  C   UNL A   1      40.422  19.714  25.916  1.00  0.00     0.251 C 
ATOM     33  H   UNL A   1      38.960  18.695  25.077  1.00  0.00     0.163 HD
ATOM     34  O   UNL A   1      41.202  18.799  25.639  1.00  0.00    -0.269 OA
BRANCH  32  35
ATOM     35  C   UNL A   1      40.976  20.936  26.565  1.00  0.00     0.039 A 
ATOM     36  C   UNL A   1      41.477  21.959  25.736  1.00  0.00     0.014 A 
ATOM     37  C   UNL A   1      41.044  21.117  27.941  1.00  0.00     0.014 A 
ATOM     38  C   UNL A   1      41.964  23.162  26.273  1.00  0.00     0.010 A 
ATOM     39  C   UNL A   1      41.443  22.347  28.473  1.00  0.00     0.010 A 
ATOM     40  C   UNL A   1      41.916  23.387  27.653  1.00  0.00    -0.014 A 
BRANCH  40  41
ATOM     41  C   UNL A   1      42.375  24.653  28.299  1.00  0.00     0.031 A 
ATOM     42  C   UNL A   1      41.396  25.783  28.487  1.00  0.00     0.074 A 
ATOM     43  C   UNL A   1      43.673  24.864  28.598  1.00  0.00     0.049 A 
ATOM     44  N   UNL A   1      41.618  27.035  28.803  1.00  0.00    -0.248 NA
ATOM     45  C   UNL A   1      39.978  25.462  28.257  1.00  0.00     0.031 C 
ATOM     46  C   UNL A   1      44.746  23.879  28.503  1.00  0.00     0.029 A 
ATOM     47  N   UNL A   1      44.318  26.011  29.002  1.00  0.00    -0.354 N 
ATOM     48  C   UNL A   1      40.374  27.653  28.781  1.00  0.00     0.074 A 
ATOM     49  C   UNL A   1      39.416  26.657  28.350  1.00  0.00     0.031 C 
ATOM     50  C   UNL A   1      45.920  24.467  28.790  1.00  0.00     0.029 A 
ATOM     51  C   UNL A   1      45.684  25.877  29.081  1.00  0.00     0.049 A 
ATOM     52  H   UNL A   1      43.845  26.848  29.216  1.00  0.00     0.167 HD
ATOM     53  C   UNL A   1      40.041  28.921  29.122  1.00  0.00     0.031 A 
ATOM     54  C   UNL A   1      46.645  26.784  29.344  1.00  0.00     0.031 A 
ATOM     55  C   UNL A   1      40.974  29.913  29.584  1.00  0.00     0.049 A 
ATOM     56  C   UNL A   1      46.268  28.207  29.650  1.00  0.00     0.074 A 
ATOM     57  C   UNL A   1      40.717  31.198  30.029  1.00  0.00     0.029 A 
ATOM     58  N   UNL A   1      42.344  29.728  29.660  1.00  0.00    -0.354 N 
ATOM     59  N   UNL A   1      45.081  28.758  29.688  1.00  0.00    -0.248 NA
ATOM     60  C   UNL A   1      47.369  29.125  29.979  1.00  0.00     0.031 C 
ATOM     61  C   UNL A   1      41.939  31.805  30.339  1.00  0.00     0.029 A 
ATOM     62  C   UNL A   1      42.950  30.882  30.128  1.00  0.00     0.049 A 
ATOM     63  H   UNL A   1      42.817  28.900  29.419  1.00  0.00     0.167 HD
ATOM     64  C   UNL A   1      45.286  30.069  30.102  1.00  0.00     0.074 A 
ATOM     65  C   UNL A   1      46.712  30.234  30.289  1.00  0.00     0.031 C 
ATOM     66  C   UNL A   1      44.367  31.040  30.326  1.00  0.00     0.031 A 
BRANCH  53  67
ATOM     67  C   UNL A   1      38.588  29.292  29.011  1.00  0.00    -0.014 A 
ATOM     68  C   UNL A   1      38.048  29.747  27.798  1.00  0.00     0.009 A 
ATOM     69  C   UNL A   1      37.753  29.200  30.134  1.00  0.00     0.009 A 
ATOM     70  C   UNL A   1      36.718  30.163  27.726  1.00  0.00     0.001 A 
ATOM     71  C   UNL A   1      36.414  29.584  30.051  1.00  0.00     0.001 A 
ATOM     72  C   UNL A   1      35.902  30.081  28.853  1.00  0.00     0.000 A 
ENDBRANCH  53  67
BRANCH  54  73
ATOM     73  C   UNL A   1      48.072  26.372  29.374  1.00  0.00    -0.014 A 
ATOM     74  C   UNL A   1      48.636  25.880  30.562  1.00  0.00     0.009 A 
ATOM     75  C   UNL A   1      48.882  26.493  28.235  1.00  0.00     0.009 A 
ATOM     76  C   UNL A   1      49.991  25.544  30.616  1.00  0.00     0.001 A 
ATOM     77  C   UNL A   1      50.232  26.135  28.287  1.00  0.00     0.001 A 
ATOM     78  C   UNL A   1      50.786  25.670  29.479  1.00  0.00     0.000 A 
ENDBRANCH  54  73
BRANCH  66  79
ATOM     79  C   UNL A   1      44.864  32.350  30.869  1.00  0.00    -0.014 A 
ATOM     80  C   UNL A   1      45.213  33.412  30.022  1.00  0.00     0.009 A 
ATOM     81  C   UNL A   1      44.943  32.534  32.260  1.00  0.00     0.009 A 
ATOM     82  C   UNL A   1      45.658  34.623  30.558  1.00  0.00     0.001 A 
ATOM     83  C   UNL A   1      45.363  33.753  32.792  1.00  0.00     0.001 A 
ATOM     84  C   UNL A   1      45.728  34.794  31.940  1.00  0.00     0.000 A 
ENDBRANCH  66  79
ENDBRANCH  40  41
ENDBRANCH  32  35
ENDBRANCH  30  31
ENDBRANCH  29  30
ENDBRANCH  28  29
ENDBRANCH   3  28
TORSDOF 16
ENDMDL
MODEL 2
REMARK VINA RESULT:     -10.9      2.159      7.135
REMARK SMILES CCc1ccc(OCC(=O)Nc2cc(C)c(O)c(C(=O)NCCCNC(=O)c3ccc(-c4c5nc(c(-c6ccccc6)c6ccc([nH]6)c(-c6ccccc6)c6nc(c(-c7ccccc7)c7ccc4[nH]7)C=C6)C=C5)cc3)c2)cc1
REMARK SMILES IDX 19 1 20 2 21 3 18 5 12 6 13 7 76 8 14 9 15 10 16 11 11 12
REMARK SMILES IDX 9 13 10 14 8 16 7 17 6 18 3 19 4 20 78 21 5 22 77 23 2 24
REMARK SMILES IDX 1 25 17 26 22 28 23 29 24 30 25 31 26 32 27 34 28 35 29 36
REMARK SMILES IDX 75 37 30 38 74 39 31 40 32 41 33 42 68 43 34 44 73 45 67 46
REMARK SMILES IDX 69 47 35 48 72 49 66 50 65 51 36 53 58 54 43 55 57 56 44 57
REMARK SMILES IDX 47 58 56 59 70 60 45 61 46 62 55 64 71 65 48 66 37 67 38 68
REMARK SMILES IDX 42 69 39 70 41 71 40 72 59 73 60 74 64 75 61 76 63 77 62 78
REMARK SMILES IDX 49 79 50 80 54 81 51 82 53 83 52 84
REMARK H PARENT 21 4 11 15 17 27 25 33 69 52 47 63
REMARK Flexibility Score: inf
ROOT
ATOM      1  C   UNL A   1      31.131  28.044  22.761  1.00  0.00     0.255 C 
ATOM      2  O   UNL A   1      30.276  28.461  21.974  1.00  0.00    -0.269 OA
ATOM      3  N   UNL A   1      31.921  28.969  23.399  1.00  0.00    -0.352 N 
ATOM      4  H   UNL A   1      31.707  29.905  23.185  1.00  0.00     0.163 HD
ENDROOT
BRANCH   1   5
ATOM      5  C   UNL A   1      31.302  26.567  22.887  1.00  0.00     0.083 A 
ATOM      6  C   UNL A   1      30.835  24.422  23.928  1.00  0.00     0.042 A 
ATOM      7  C   UNL A   1      31.852  23.852  23.143  1.00  0.00     0.033 A 
ATOM      8  C   UNL A   1      30.531  25.773  23.762  1.00  0.00     0.043 A 
ATOM      9  C   UNL A   1      32.553  24.588  22.183  1.00  0.00    -0.006 A 
ATOM     10  C   UNL A   1      33.553  23.876  21.315  1.00  0.00     0.048 C 
ATOM     11  C   UNL A   1      32.275  25.951  22.067  1.00  0.00     0.131 A 
BRANCH   6  12
ATOM     12  N   UNL A   1      30.263  23.551  24.863  1.00  0.00    -0.323 N 
ATOM     13  C   UNL A   1      30.527  23.145  26.129  1.00  0.00     0.262 C 
ATOM     14  O   UNL A   1      29.774  22.267  26.576  1.00  0.00    -0.271 OA
ATOM     15  H   UNL A   1      29.452  23.119  24.507  1.00  0.00     0.170 HD
BRANCH  13  16
ATOM     16  C   UNL A   1      31.581  23.780  27.046  1.00  0.00     0.329 C 
BRANCH  16  17
ATOM     17  O   UNL A   1      32.684  24.541  26.604  1.00  0.00    -0.484 OA
BRANCH  17  18
ATOM     18  C   UNL A   1      33.880  23.941  26.355  1.00  0.00     0.120 A 
ATOM     19  C   UNL A   1      36.146  22.720  25.215  1.00  0.00    -0.048 A 
ATOM     20  C   UNL A   1      35.797  24.026  24.883  1.00  0.00     0.007 A 
ATOM     21  C   UNL A   1      35.459  22.114  26.271  1.00  0.00     0.007 A 
ATOM     22  C   UNL A   1      34.683  24.635  25.456  1.00  0.00     0.047 A 
ATOM     23  C   UNL A   1      34.340  22.727  26.847  1.00  0.00     0.047 A 
BRANCH  19  24
ATOM     24  C   UNL A   1      37.235  21.966  24.493  1.00  0.00     0.032 C 
ATOM     25  C   UNL A   1      38.389  21.509  25.383  1.00  0.00     0.009 C 
ENDBRANCH  19  24
ENDBRANCH  17  18
ENDBRANCH  16  17
ENDBRANCH  13  16
ENDBRANCH   6  12
BRANCH  11  26
ATOM     26  O   UNL A   1      32.990  26.653  21.127  1.00  0.00    -0.507 OA
ATOM     27  H   UNL A   1      33.640  26.216  20.612  1.00  0.00     0.293 HD
ENDBRANCH  11  26
ENDBRANCH   1   5
BRANCH   3  28
ATOM     28  C   UNL A   1      33.017  28.800  24.333  1.00  0.00     0.118 C 
BRANCH  28  29
ATOM     29  C   UNL A   1      32.618  28.186  25.672  1.00  0.00     0.042 C 
BRANCH  29  30
ATOM     30  C   UNL A   1      33.586  28.391  26.836  1.00  0.00     0.118 C 
BRANCH  30  31
ATOM     31  N   UNL A   1      33.601  29.730  27.417  1.00  0.00    -0.352 N 
ATOM     32  C   UNL A   1      34.537  30.527  28.035  1.00  0.00     0.251 C 
ATOM     33  H   UNL A   1      32.723  30.172  27.351  1.00  0.00     0.163 HD
ATOM     34  O   UNL A   1      34.165  31.643  28.406  1.00  0.00    -0.269 OA
BRANCH  32  35
ATOM     35  C   UNL A   1      35.934  30.111  28.349  1.00  0.00     0.039 A 
ATOM     36  C   UNL A   1      36.215  29.661  29.654  1.00  0.00     0.014 A 
ATOM     37  C   UNL A   1      36.979  30.161  27.435  1.00  0.00     0.014 A 
ATOM     38  C   UNL A   1      37.494  29.202  30.009  1.00  0.00     0.010 A 
ATOM     39  C   UNL A   1      38.227  29.621  27.758  1.00  0.00     0.010 A 
ATOM     40  C   UNL A   1      38.510  29.139  29.049  1.00  0.00    -0.014 A 
BRANCH  40  41
ATOM     41  C   UNL A   1      39.884  28.626  29.334  1.00  0.00     0.031 A 
ATOM     42  C   UNL A   1      40.919  29.565  29.899  1.00  0.00     0.074 A 
ATOM     43  C   UNL A   1      40.263  27.383  28.977  1.00  0.00     0.049 A 
ATOM     44  N   UNL A   1      42.216  29.410  30.006  1.00  0.00    -0.248 NA
ATOM     45  C   UNL A   1      40.426  30.866  30.379  1.00  0.00     0.031 C 
ATOM     46  C   UNL A   1      39.392  26.341  28.443  1.00  0.00     0.029 A 
ATOM     47  N   UNL A   1      41.511  26.801  28.969  1.00  0.00    -0.354 N 
ATOM     48  C   UNL A   1      42.692  30.602  30.537  1.00  0.00     0.074 A 
ATOM     49  C   UNL A   1      41.559  31.492  30.661  1.00  0.00     0.031 C 
ATOM     50  C   UNL A   1      40.129  25.266  28.114  1.00  0.00     0.029 A 
ATOM     51  C   UNL A   1      41.531  25.547  28.404  1.00  0.00     0.049 A 
ATOM     52  H   UNL A   1      42.312  27.241  29.334  1.00  0.00     0.167 HD
ATOM     53  C   UNL A   1      43.950  30.924  30.925  1.00  0.00     0.031 A 
ATOM     54  C   UNL A   1      42.558  24.718  28.136  1.00  0.00     0.031 A 
ATOM     55  C   UNL A   1      45.081  30.041  30.840  1.00  0.00     0.049 A 
ATOM     56  C   UNL A   1      43.960  25.117  28.506  1.00  0.00     0.074 A 
ATOM     57  C   UNL A   1      46.375  30.251  31.284  1.00  0.00     0.029 A 
ATOM     58  N   UNL A   1      45.051  28.777  30.275  1.00  0.00    -0.354 N 
ATOM     59  N   UNL A   1      44.384  26.222  29.066  1.00  0.00    -0.248 NA
ATOM     60  C   UNL A   1      45.020  24.137  28.229  1.00  0.00     0.031 C 
ATOM     61  C   UNL A   1      47.139  29.127  30.950  1.00  0.00     0.029 A 
ATOM     62  C   UNL A   1      46.309  28.201  30.340  1.00  0.00     0.049 A 
ATOM     63  H   UNL A   1      44.255  28.351  29.885  1.00  0.00     0.167 HD
ATOM     64  C   UNL A   1      45.748  26.046  29.264  1.00  0.00     0.074 A 
ATOM     65  C   UNL A   1      46.083  24.734  28.751  1.00  0.00     0.031 C 
ATOM     66  C   UNL A   1      46.637  26.891  29.841  1.00  0.00     0.031 A 
BRANCH  53  67
ATOM     67  C   UNL A   1      44.151  32.303  31.490  1.00  0.00    -0.014 A 
ATOM     68  C   UNL A   1      44.598  33.359  30.679  1.00  0.00     0.009 A 
ATOM     69  C   UNL A   1      43.905  32.547  32.848  1.00  0.00     0.009 A 
ATOM     70  C   UNL A   1      44.857  34.614  31.229  1.00  0.00     0.001 A 
ATOM     71  C   UNL A   1      44.132  33.814  33.390  1.00  0.00     0.001 A 
ATOM     72  C   UNL A   1      44.623  34.841  32.585  1.00  0.00     0.000 A 
ENDBRANCH  53  67
BRANCH  54  73
ATOM     73  C   UNL A   1      42.305  23.392  27.515  1.00  0.00    -0.014 A 
ATOM     74  C   UNL A   1      41.987  22.288  28.322  1.00  0.00     0.009 A 
ATOM     75  C   UNL A   1      42.405  23.215  26.127  1.00  0.00     0.009 A 
ATOM     76  C   UNL A   1      41.803  21.026  27.753  1.00  0.00     0.001 A 
ATOM     77  C   UNL A   1      42.199  21.954  25.559  1.00  0.00     0.001 A 
ATOM     78  C   UNL A   1      41.907  20.861  26.373  1.00  0.00     0.000 A 
ENDBRANCH  54  73
BRANCH  66  79
ATOM     79  C   UNL A   1      48.046  26.400  30.015  1.00  0.00    -0.014 A 
ATOM     80  C   UNL A   1      49.024  26.606  29.031  1.00  0.00     0.009 A 
ATOM     81  C   UNL A   1      48.407  25.754  31.209  1.00  0.00     0.009 A 
ATOM     82  C   UNL A   1      50.329  26.150  29.229  1.00  0.00     0.001 A 
ATOM     83  C   UNL A   1      49.718  25.323  31.415  1.00  0.00     0.001 A 
ATOM     84  C   UNL A   1      50.676  25.515  30.421  1.00  0.00     0.000 A 
ENDBRANCH  66  79
ENDBRANCH  40  41
ENDBRANCH  32  35
ENDBRANCH  30  31
ENDBRANCH  29  30
ENDBRANCH  28  29
ENDBRANCH   3  28
TORSDOF 16
ENDMDL
MODEL 3
REMARK VINA RESULT:     -10.9      1.196      2.230
REMARK SMILES CCc1ccc(OCC(=O)Nc2cc(C)c(O)c(C(=O)NCCCNC(=O)c3ccc(-c4c5nc(c(-c6ccccc6)c6ccc([nH]6)c(-c6ccccc6)c6nc(c(-c7ccccc7)c7ccc4[nH]7)C=C6)C=C5)cc3)c2)cc1
REMARK SMILES IDX 19 1 20 2 21 3 18 5 12 6 13 7 76 8 14 9 15 10 16 11 11 12
REMARK SMILES IDX 9 13 10 14 8 16 7 17 6 18 3 19 4 20 78 21 5 22 77 23 2 24
REMARK SMILES IDX 1 25 17 26 22 28 23 29 24 30 25 31 26 32 27 34 28 35 29 36
REMARK SMILES IDX 75 37 30 38 74 39 31 40 32 41 33 42 68 43 34 44 73 45 67 46
REMARK SMILES IDX 69 47 35 48 72 49 66 50 65 51 36 53 58 54 43 55 57 56 44 57
REMARK SMILES IDX 47 58 56 59 70 60 45 61 46 62 55 64 71 65 48 66 37 67 38 68
REMARK SMILES IDX 42 69 39 70 41 71 40 72 59 73 60 74 64 75 61 76 63 77 62 78
REMARK SMILES IDX 49 79 50 80 54 81 51 82 53 83 52 84
REMARK H PARENT 21 4 11 15 17 27 25 33 69 52 47 63
REMARK Flexibility Score: inf
ROOT
ATOM      1  C   UNL A   1      33.016  20.064  24.743  1.00  0.00     0.255 C 
ATOM      2  O   UNL A   1      32.182  19.171  24.916  1.00  0.00    -0.269 OA
ATOM      3  N   UNL A   1      34.322  19.793  25.066  1.00  0.00    -0.352 N 
ATOM      4  H   UNL A   1      34.481  18.876  25.389  1.00  0.00     0.163 HD
ENDROOT
BRANCH   1   5
ATOM      5  C   UNL A   1      32.526  21.397  24.283  1.00  0.00     0.083 A 
ATOM      6  C   UNL A   1      32.375  23.197  22.660  1.00  0.00     0.042 A 
ATOM      7  C   UNL A   1      31.706  23.972  23.623  1.00  0.00     0.033 A 
ATOM      8  C   UNL A   1      32.742  21.890  22.979  1.00  0.00     0.043 A 
ATOM      9  C   UNL A   1      31.374  23.467  24.884  1.00  0.00    -0.006 A 
ATOM     10  C   UNL A   1      30.567  24.327  25.816  1.00  0.00     0.048 C 
ATOM     11  C   UNL A   1      31.795  22.177  25.209  1.00  0.00     0.131 A 
BRANCH   6  12
ATOM     12  N   UNL A   1      32.660  23.871  21.465  1.00  0.00    -0.323 N 
ATOM     13  C   UNL A   1      32.890  25.150  21.081  1.00  0.00     0.262 C 
ATOM     14  O   UNL A   1      33.034  25.324  19.861  1.00  0.00    -0.271 OA
ATOM     15  H   UNL A   1      32.705  23.251  20.701  1.00  0.00     0.170 HD
BRANCH  13  16
ATOM     16  C   UNL A   1      33.106  26.325  22.046  1.00  0.00     0.329 C 
BRANCH  16  17
ATOM     17  O   UNL A   1      33.792  26.243  23.276  1.00  0.00    -0.484 OA
BRANCH  17  18
ATOM     18  C   UNL A   1      33.327  26.905  24.370  1.00  0.00     0.120 A 
ATOM     19  C   UNL A   1      32.370  28.794  26.226  1.00  0.00    -0.048 A 
ATOM     20  C   UNL A   1      31.644  28.492  25.077  1.00  0.00     0.007 A 
ATOM     21  C   UNL A   1      33.475  27.991  26.524  1.00  0.00     0.007 A 
ATOM     22  C   UNL A   1      32.111  27.549  24.165  1.00  0.00     0.047 A 
ATOM     23  C   UNL A   1      33.943  27.043  25.606  1.00  0.00     0.047 A 
BRANCH  19  24
ATOM     24  C   UNL A   1      31.991  29.926  27.148  1.00  0.00     0.032 C 
ATOM     25  C   UNL A   1      32.999  31.072  27.194  1.00  0.00     0.009 C 
ENDBRANCH  19  24
ENDBRANCH  17  18
ENDBRANCH  16  17
ENDBRANCH  13  16
ENDBRANCH   6  12
BRANCH  11  26
ATOM     26  O   UNL A   1      31.469  21.713  26.460  1.00  0.00    -0.507 OA
ATOM     27  H   UNL A   1      32.038  21.111  26.898  1.00  0.00     0.293 HD
ENDBRANCH  11  26
ENDBRANCH   1   5
BRANCH   3  28
ATOM     28  C   UNL A   1      35.508  20.626  25.014  1.00  0.00     0.118 C 
BRANCH  28  29
ATOM     29  C   UNL A   1      36.808  19.863  24.784  1.00  0.00     0.042 C 
BRANCH  29  30
ATOM     30  C   UNL A   1      38.091  20.530  25.278  1.00  0.00     0.118 C 
BRANCH  30  31
ATOM     31  N   UNL A   1      39.257  19.657  25.388  1.00  0.00    -0.352 N 
ATOM     32  C   UNL A   1      40.513  19.755  25.938  1.00  0.00     0.251 C 
ATOM     33  H   UNL A   1      39.105  18.782  24.962  1.00  0.00     0.163 HD
ATOM     34  O   UNL A   1      41.250  18.771  25.828  1.00  0.00    -0.269 OA
BRANCH  32  35
ATOM     35  C   UNL A   1      41.066  20.978  26.585  1.00  0.00     0.039 A 
ATOM     36  C   UNL A   1      41.631  21.969  25.757  1.00  0.00     0.014 A 
ATOM     37  C   UNL A   1      41.076  21.189  27.958  1.00  0.00     0.014 A 
ATOM     38  C   UNL A   1      42.122  23.173  26.290  1.00  0.00     0.010 A 
ATOM     39  C   UNL A   1      41.480  22.421  28.481  1.00  0.00     0.010 A 
ATOM     40  C   UNL A   1      42.015  23.431  27.661  1.00  0.00    -0.014 A 
BRANCH  40  41
ATOM     41  C   UNL A   1      42.475  24.700  28.300  1.00  0.00     0.031 A 
ATOM     42  C   UNL A   1      41.490  25.823  28.505  1.00  0.00     0.074 A 
ATOM     43  C   UNL A   1      43.776  24.921  28.577  1.00  0.00     0.049 A 
ATOM     44  N   UNL A   1      41.707  27.076  28.817  1.00  0.00    -0.248 NA
ATOM     45  C   UNL A   1      40.071  25.491  28.297  1.00  0.00     0.031 C 
ATOM     46  C   UNL A   1      44.855  23.944  28.464  1.00  0.00     0.029 A 
ATOM     47  N   UNL A   1      44.419  26.073  28.972  1.00  0.00    -0.354 N 
ATOM     48  C   UNL A   1      40.459  27.684  28.815  1.00  0.00     0.074 A 
ATOM     49  C   UNL A   1      39.502  26.681  28.400  1.00  0.00     0.031 C 
ATOM     50  C   UNL A   1      46.029  24.542  28.733  1.00  0.00     0.029 A 
ATOM     51  C   UNL A   1      45.787  25.949  29.028  1.00  0.00     0.049 A 
ATOM     52  H   UNL A   1      43.943  26.906  29.193  1.00  0.00     0.167 HD
ATOM     53  C   UNL A   1      40.122  28.950  29.162  1.00  0.00     0.031 A 
ATOM     54  C   UNL A   1      46.745  26.864  29.276  1.00  0.00     0.031 A 
ATOM     55  C   UNL A   1      41.054  29.949  29.609  1.00  0.00     0.049 A 
ATOM     56  C   UNL A   1      46.362  28.284  29.588  1.00  0.00     0.074 A 
ATOM     57  C   UNL A   1      40.795  31.231  30.058  1.00  0.00     0.029 A 
ATOM     58  N   UNL A   1      42.427  29.774  29.663  1.00  0.00    -0.354 N 
ATOM     59  N   UNL A   1      45.171  28.826  29.645  1.00  0.00    -0.248 NA
ATOM     60  C   UNL A   1      47.462  29.210  29.899  1.00  0.00     0.031 C 
ATOM     61  C   UNL A   1      42.017  31.848  30.348  1.00  0.00     0.029 A 
ATOM     62  C   UNL A   1      43.032  30.933  30.121  1.00  0.00     0.049 A 
ATOM     63  H   UNL A   1      42.902  28.950  29.414  1.00  0.00     0.167 HD
ATOM     64  C   UNL A   1      45.373  30.138  30.057  1.00  0.00     0.074 A 
ATOM     65  C   UNL A   1      46.801  30.314  30.221  1.00  0.00     0.031 C 
ATOM     66  C   UNL A   1      44.451  31.102  30.296  1.00  0.00     0.031 A 
BRANCH  53  67
ATOM     67  C   UNL A   1      38.664  29.309  29.075  1.00  0.00    -0.014 A 
ATOM     68  C   UNL A   1      38.112  29.808  27.885  1.00  0.00     0.009 A 
ATOM     69  C   UNL A   1      37.838  29.162  30.198  1.00  0.00     0.009 A 
ATOM     70  C   UNL A   1      36.778  30.213  27.838  1.00  0.00     0.001 A 
ATOM     71  C   UNL A   1      36.494  29.536  30.139  1.00  0.00     0.001 A 
ATOM     72  C   UNL A   1      35.970  30.076  28.966  1.00  0.00     0.000 A 
ENDBRANCH  53  67
BRANCH  54  73
ATOM     73  C   UNL A   1      48.176  26.463  29.283  1.00  0.00    -0.014 A 
ATOM     74  C   UNL A   1      48.769  25.998  30.467  1.00  0.00     0.009 A 
ATOM     75  C   UNL A   1      48.960  26.567  28.123  1.00  0.00     0.009 A 
ATOM     76  C   UNL A   1      50.127  25.673  30.497  1.00  0.00     0.001 A 
ATOM     77  C   UNL A   1      50.313  26.221  28.153  1.00  0.00     0.001 A 
ATOM     78  C   UNL A   1      50.896  25.783  29.340  1.00  0.00     0.000 A 
ENDBRANCH  54  73
BRANCH  66  79
ATOM     79  C   UNL A   1      44.946  32.416  30.831  1.00  0.00    -0.014 A 
ATOM     80  C   UNL A   1      45.105  32.637  32.207  1.00  0.00     0.009 A 
ATOM     81  C   UNL A   1      45.298  33.436  29.932  1.00  0.00     0.009 A 
ATOM     82  C   UNL A   1      45.581  33.865  32.673  1.00  0.00     0.001 A 
ATOM     83  C   UNL A   1      45.799  34.652  30.399  1.00  0.00     0.001 A 
ATOM     84  C   UNL A   1      45.932  34.868  31.769  1.00  0.00     0.000 A 
ENDBRANCH  66  79
ENDBRANCH  40  41
ENDBRANCH  32  35
ENDBRANCH  30  31
ENDBRANCH  29  30
ENDBRANCH  28  29
ENDBRANCH   3  28
TORSDOF 16
ENDMDL
