MODEL 1
REMARK VINA RESULT:     -11.8      0.000      0.000
REMARK SMILES Cc1ccc([C@H](CC(=O)NCCCNC(=O)c2ccc(-c3c4nc(c(-c5ccccc5)c5ccc([nH]5)c(-c5ccccc5)c5nc(c(-c6ccccc6)c6ccc3[nH]6)C=C5)C=C4)cc2)NC(=O)C(F)(F)F)cc1
REMARK SMILES IDX 11 1 10 2 8 3 9 4 7 6 6 7 5 8 1 9 2 10 3 11 73 12 4 13 72 14
REMARK SMILES IDX 65 15 66 16 67 18 68 19 69 20 70 21 71 22 12 23 13 24 14 25
REMARK SMILES IDX 15 26 16 28 17 29 18 30 64 31 19 32 63 33 20 34 21 35 22 36
REMARK SMILES IDX 57 37 23 38 62 39 56 40 58 41 24 42 61 43 55 44 54 45 25 47
REMARK SMILES IDX 47 48 32 49 46 50 33 51 36 52 45 53 59 54 34 55 35 56 44 58
REMARK SMILES IDX 60 59 37 60 26 61 27 62 31 63 28 64 30 65 29 66 48 67 49 68
REMARK SMILES IDX 53 69 50 70 52 71 51 72 38 73 39 74 43 75 40 76 42 77 41 78
REMARK H PARENT 10 5 65 17 14 27 58 46 36 57
REMARK Flexibility Score: inf
ROOT
ATOM      1  C   UNL A   1      31.595  29.812  25.778  1.00  0.00     0.117 C 
ENDROOT
BRANCH   1   2
ATOM      2  N   UNL A   1      32.368  29.697  24.547  1.00  0.00    -0.356 N 
ATOM      3  C   UNL A   1      33.276  28.755  24.156  1.00  0.00     0.222 C 
ATOM      4  O   UNL A   1      33.782  28.848  23.038  1.00  0.00    -0.275 OA
ATOM      5  H   UNL A   1      32.208  30.414  23.890  1.00  0.00     0.163 HD
BRANCH   3   6
ATOM      6  C   UNL A   1      33.666  27.635  25.091  1.00  0.00     0.129 C 
BRANCH   6   7
ATOM      7  C   UNL A   1      32.919  26.342  24.741  1.00  0.00     0.122 C 
BRANCH   7   8
ATOM      8  C   UNL A   1      33.902  25.192  24.597  1.00  0.00    -0.025 A 
ATOM      9  C   UNL A   1      36.902  22.164  23.876  1.00  0.00     0.044 C 
ATOM     10  C   UNL A   1      35.845  23.191  24.154  1.00  0.00    -0.051 A 
ATOM     11  C   UNL A   1      34.855  23.437  23.201  1.00  0.00     0.004 A 
ATOM     12  C   UNL A   1      35.846  23.935  25.338  1.00  0.00     0.004 A 
ATOM     13  C   UNL A   1      33.889  24.417  23.426  1.00  0.00     0.006 A 
ATOM     14  C   UNL A   1      34.887  24.930  25.558  1.00  0.00     0.006 A 
ENDBRANCH   7   8
BRANCH   7  15
ATOM     15  N   UNL A   1      31.866  26.025  25.699  1.00  0.00    -0.341 N 
ATOM     16  C   UNL A   1      30.505  25.991  25.471  1.00  0.00     0.326 C 
ATOM     17  H   UNL A   1      32.159  25.813  26.615  1.00  0.00     0.164 HD
ATOM     18  O   UNL A   1      29.782  25.694  26.429  1.00  0.00    -0.265 OA
BRANCH  16  19
ATOM     19  C   UNL A   1      29.949  26.286  24.056  1.00  0.00     0.471 C 
ATOM     20  F   UNL A   1      30.423  25.421  23.113  1.00  0.00    -0.162 F 
ATOM     21  F   UNL A   1      28.589  26.164  24.006  1.00  0.00    -0.162 F 
ATOM     22  F   UNL A   1      30.234  27.537  23.604  1.00  0.00    -0.162 F 
ENDBRANCH  16  19
ENDBRANCH   7  15
ENDBRANCH   6   7
ENDBRANCH   3   6
ENDBRANCH   1   2
BRANCH   1  23
ATOM     23  C   UNL A   1      32.172  30.837  26.751  1.00  0.00     0.042 C 
BRANCH  23  24
ATOM     24  C   UNL A   1      33.612  30.580  27.158  1.00  0.00     0.118 C 
BRANCH  24  25
ATOM     25  N   UNL A   1      34.183  31.596  28.028  1.00  0.00    -0.352 N 
ATOM     26  C   UNL A   1      35.308  31.536  28.835  1.00  0.00     0.251 C 
ATOM     27  H   UNL A   1      33.699  32.453  28.048  1.00  0.00     0.163 HD
ATOM     28  O   UNL A   1      35.589  32.483  29.551  1.00  0.00    -0.269 OA
BRANCH  26  29
ATOM     29  C   UNL A   1      36.247  30.388  28.717  1.00  0.00     0.039 A 
ATOM     30  C   UNL A   1      36.405  29.559  29.836  1.00  0.00     0.014 A 
ATOM     31  C   UNL A   1      37.098  30.248  27.628  1.00  0.00     0.014 A 
ATOM     32  C   UNL A   1      37.559  28.789  29.964  1.00  0.00     0.010 A 
ATOM     33  C   UNL A   1      38.292  29.584  27.799  1.00  0.00     0.010 A 
ATOM     34  C   UNL A   1      38.547  28.902  28.992  1.00  0.00    -0.014 A 
BRANCH  34  35
ATOM     35  C   UNL A   1      39.917  28.439  29.154  1.00  0.00     0.031 A 
ATOM     36  C   UNL A   1      40.341  27.144  28.591  1.00  0.00     0.074 A 
ATOM     37  C   UNL A   1      40.841  29.282  29.664  1.00  0.00     0.049 A 
ATOM     38  N   UNL A   1      41.438  26.546  28.910  1.00  0.00    -0.248 NA
ATOM     39  C   UNL A   1      39.522  26.383  27.653  1.00  0.00     0.031 C 
ATOM     40  C   UNL A   1      42.293  29.201  29.528  1.00  0.00     0.029 A 
ATOM     41  N   UNL A   1      40.637  30.294  30.600  1.00  0.00    -0.354 N 
ATOM     42  C   UNL A   1      41.619  25.514  28.022  1.00  0.00     0.074 A 
ATOM     43  C   UNL A   1      40.358  25.393  27.326  1.00  0.00     0.031 C 
ATOM     44  C   UNL A   1      42.860  29.938  30.495  1.00  0.00     0.029 A 
ATOM     45  C   UNL A   1      41.800  30.359  31.393  1.00  0.00     0.049 A 
ATOM     46  H   UNL A   1      39.833  30.856  30.691  1.00  0.00     0.167 HD
ATOM     47  C   UNL A   1      42.857  24.965  27.887  1.00  0.00     0.031 A 
ATOM     48  C   UNL A   1      41.752  30.069  32.728  1.00  0.00     0.031 A 
ATOM     49  C   UNL A   1      43.817  25.525  28.838  1.00  0.00     0.049 A 
ATOM     50  C   UNL A   1      42.600  28.886  33.156  1.00  0.00     0.074 A 
ATOM     51  C   UNL A   1      44.880  26.410  28.742  1.00  0.00     0.029 A 
ATOM     52  N   UNL A   1      43.571  25.371  30.192  1.00  0.00    -0.354 N 
ATOM     53  N   UNL A   1      43.247  28.106  32.336  1.00  0.00    -0.248 NA
ATOM     54  C   UNL A   1      42.691  28.422  34.543  1.00  0.00     0.031 C 
ATOM     55  C   UNL A   1      45.287  26.758  30.063  1.00  0.00     0.029 A 
ATOM     56  C   UNL A   1      44.478  26.077  30.952  1.00  0.00     0.049 A 
ATOM     57  H   UNL A   1      42.841  24.826  30.564  1.00  0.00     0.167 HD
ATOM     58  C   UNL A   1      43.756  27.038  33.024  1.00  0.00     0.074 A 
ATOM     59  C   UNL A   1      43.397  27.286  34.408  1.00  0.00     0.031 C 
ATOM     60  C   UNL A   1      44.380  25.999  32.398  1.00  0.00     0.031 A 
BRANCH  47  61
ATOM     61  C   UNL A   1      43.267  24.060  26.750  1.00  0.00    -0.014 A 
ATOM     62  C   UNL A   1      43.042  22.675  26.856  1.00  0.00     0.009 A 
ATOM     63  C   UNL A   1      43.906  24.485  25.574  1.00  0.00     0.009 A 
ATOM     64  C   UNL A   1      43.503  21.767  25.893  1.00  0.00     0.001 A 
ATOM     65  C   UNL A   1      44.399  23.583  24.620  1.00  0.00     0.001 A 
ATOM     66  C   UNL A   1      44.206  22.220  24.786  1.00  0.00     0.000 A 
ENDBRANCH  47  61
BRANCH  48  67
ATOM     67  C   UNL A   1      40.446  30.427  33.352  1.00  0.00    -0.014 A 
ATOM     68  C   UNL A   1      40.162  31.787  33.583  1.00  0.00     0.009 A 
ATOM     69  C   UNL A   1      39.386  29.508  33.347  1.00  0.00     0.009 A 
ATOM     70  C   UNL A   1      38.840  32.231  33.687  1.00  0.00     0.001 A 
ATOM     71  C   UNL A   1      38.065  29.957  33.465  1.00  0.00     0.001 A 
ATOM     72  C   UNL A   1      37.792  31.318  33.597  1.00  0.00     0.000 A 
ENDBRANCH  48  67
BRANCH  60  73
ATOM     73  C   UNL A   1      44.912  24.780  33.097  1.00  0.00    -0.014 A 
ATOM     74  C   UNL A   1      44.117  23.668  33.402  1.00  0.00     0.009 A 
ATOM     75  C   UNL A   1      46.235  24.778  33.591  1.00  0.00     0.009 A 
ATOM     76  C   UNL A   1      44.638  22.586  34.124  1.00  0.00     0.001 A 
ATOM     77  C   UNL A   1      46.750  23.711  34.329  1.00  0.00     0.001 A 
ATOM     78  C   UNL A   1      45.952  22.607  34.588  1.00  0.00     0.000 A 
ENDBRANCH  60  73
ENDBRANCH  34  35
ENDBRANCH  26  29
ENDBRANCH  24  25
ENDBRANCH  23  24
ENDBRANCH   1  23
TORSDOF 14
ENDMDL
MODEL 2
REMARK VINA RESULT:     -11.6      1.602      3.130
REMARK SMILES Cc1ccc([C@H](CC(=O)NCCCNC(=O)c2ccc(-c3c4nc(c(-c5ccccc5)c5ccc([nH]5)c(-c5ccccc5)c5nc(c(-c6ccccc6)c6ccc3[nH]6)C=C5)C=C4)cc2)NC(=O)C(F)(F)F)cc1
REMARK SMILES IDX 11 1 10 2 8 3 9 4 7 6 6 7 5 8 1 9 2 10 3 11 73 12 4 13 72 14
REMARK SMILES IDX 65 15 66 16 67 18 68 19 69 20 70 21 71 22 12 23 13 24 14 25
REMARK SMILES IDX 15 26 16 28 17 29 18 30 64 31 19 32 63 33 20 34 21 35 22 36
REMARK SMILES IDX 57 37 23 38 62 39 56 40 58 41 24 42 61 43 55 44 54 45 25 47
REMARK SMILES IDX 47 48 32 49 46 50 33 51 36 52 45 53 59 54 34 55 35 56 44 58
REMARK SMILES IDX 60 59 37 60 26 61 27 62 31 63 28 64 30 65 29 66 48 67 49 68
REMARK SMILES IDX 53 69 50 70 52 71 51 72 38 73 39 74 43 75 40 76 42 77 41 78
REMARK H PARENT 10 5 65 17 14 27 58 46 36 57
REMARK Flexibility Score: inf
ROOT
ATOM      1  C   UNL A   1      32.641  28.470  27.770  1.00  0.00     0.117 C 
ENDROOT
BRANCH   1   2
ATOM      2  N   UNL A   1      31.541  27.549  27.510  1.00  0.00    -0.356 N 
ATOM      3  C   UNL A   1      31.227  26.839  26.387  1.00  0.00     0.222 C 
ATOM      4  O   UNL A   1      30.255  26.085  26.415  1.00  0.00    -0.275 OA
ATOM      5  H   UNL A   1      30.926  27.416  28.268  1.00  0.00     0.163 HD
BRANCH   3   6
ATOM      6  C   UNL A   1      32.046  26.999  25.129  1.00  0.00     0.129 C 
BRANCH   6   7
ATOM      7  C   UNL A   1      31.181  26.792  23.879  1.00  0.00     0.122 C 
BRANCH   7   8
ATOM      8  C   UNL A   1      30.335  28.027  23.616  1.00  0.00    -0.025 A 
ATOM      9  C   UNL A   1      27.675  31.410  23.210  1.00  0.00     0.044 C 
ATOM     10  C   UNL A   1      28.619  30.250  23.320  1.00  0.00    -0.051 A 
ATOM     11  C   UNL A   1      28.186  28.972  22.964  1.00  0.00     0.004 A 
ATOM     12  C   UNL A   1      29.920  30.414  23.805  1.00  0.00     0.004 A 
ATOM     13  C   UNL A   1      29.038  27.877  23.099  1.00  0.00     0.006 A 
ATOM     14  C   UNL A   1      30.771  29.314  23.957  1.00  0.00     0.006 A 
ENDBRANCH   7   8
BRANCH   7  15
ATOM     15  N   UNL A   1      31.967  26.425  22.706  1.00  0.00    -0.341 N 
ATOM     16  C   UNL A   1      32.289  25.154  22.274  1.00  0.00     0.326 C 
ATOM     17  H   UNL A   1      32.308  27.171  22.161  1.00  0.00     0.164 HD
ATOM     18  O   UNL A   1      32.969  25.066  21.245  1.00  0.00    -0.265 OA
BRANCH  16  19
ATOM     19  C   UNL A   1      31.776  23.918  23.053  1.00  0.00     0.471 C 
ATOM     20  F   UNL A   1      32.197  23.901  24.351  1.00  0.00    -0.162 F 
ATOM     21  F   UNL A   1      30.412  23.885  23.116  1.00  0.00    -0.162 F 
ATOM     22  F   UNL A   1      32.159  22.731  22.511  1.00  0.00    -0.162 F 
ENDBRANCH  16  19
ENDBRANCH   7  15
ENDBRANCH   6   7
ENDBRANCH   3   6
ENDBRANCH   1   2
BRANCH   1  23
ATOM     23  C   UNL A   1      32.370  29.882  27.256  1.00  0.00     0.042 C 
BRANCH  23  24
ATOM     24  C   UNL A   1      33.603  30.627  26.778  1.00  0.00     0.118 C 
BRANCH  24  25
ATOM     25  N   UNL A   1      34.099  31.631  27.707  1.00  0.00    -0.352 N 
ATOM     26  C   UNL A   1      35.147  31.555  28.611  1.00  0.00     0.251 C 
ATOM     27  H   UNL A   1      33.619  32.490  27.693  1.00  0.00     0.163 HD
ATOM     28  O   UNL A   1      35.367  32.493  29.359  1.00  0.00    -0.269 OA
BRANCH  26  29
ATOM     29  C   UNL A   1      36.086  30.403  28.565  1.00  0.00     0.039 A 
ATOM     30  C   UNL A   1      36.267  29.662  29.741  1.00  0.00     0.014 A 
ATOM     31  C   UNL A   1      36.919  30.182  27.474  1.00  0.00     0.014 A 
ATOM     32  C   UNL A   1      37.424  28.906  29.906  1.00  0.00     0.010 A 
ATOM     33  C   UNL A   1      38.118  29.535  27.675  1.00  0.00     0.010 A 
ATOM     34  C   UNL A   1      38.396  28.947  28.912  1.00  0.00    -0.014 A 
BRANCH  34  35
ATOM     35  C   UNL A   1      39.770  28.499  29.085  1.00  0.00     0.031 A 
ATOM     36  C   UNL A   1      40.215  27.214  28.517  1.00  0.00     0.074 A 
ATOM     37  C   UNL A   1      40.677  29.350  29.612  1.00  0.00     0.049 A 
ATOM     38  N   UNL A   1      41.316  26.627  28.843  1.00  0.00    -0.248 NA
ATOM     39  C   UNL A   1      39.417  26.450  27.565  1.00  0.00     0.031 C 
ATOM     40  C   UNL A   1      42.131  29.288  29.490  1.00  0.00     0.029 A 
ATOM     41  N   UNL A   1      40.450  30.352  30.553  1.00  0.00    -0.354 N 
ATOM     42  C   UNL A   1      41.519  25.605  27.949  1.00  0.00     0.074 A 
ATOM     43  C   UNL A   1      40.267  25.473  27.240  1.00  0.00     0.031 C 
ATOM     44  C   UNL A   1      42.679  30.024  30.469  1.00  0.00     0.029 A 
ATOM     45  C   UNL A   1      41.604  30.426  31.359  1.00  0.00     0.049 A 
ATOM     46  H   UNL A   1      39.639  30.904  30.639  1.00  0.00     0.167 HD
ATOM     47  C   UNL A   1      42.766  25.072  27.824  1.00  0.00     0.031 A 
ATOM     48  C   UNL A   1      41.545  30.125  32.691  1.00  0.00     0.031 A 
ATOM     49  C   UNL A   1      43.709  25.637  28.790  1.00  0.00     0.049 A 
ATOM     50  C   UNL A   1      42.404  28.949  33.119  1.00  0.00     0.074 A 
ATOM     51  C   UNL A   1      44.761  26.535  28.712  1.00  0.00     0.029 A 
ATOM     52  N   UNL A   1      43.451  25.469  30.139  1.00  0.00    -0.354 N 
ATOM     53  N   UNL A   1      43.069  28.184  32.300  1.00  0.00    -0.248 NA
ATOM     54  C   UNL A   1      42.486  28.476  34.504  1.00  0.00     0.031 C 
ATOM     55  C   UNL A   1      45.150  26.879  30.039  1.00  0.00     0.029 A 
ATOM     56  C   UNL A   1      44.340  26.181  30.915  1.00  0.00     0.049 A 
ATOM     57  H   UNL A   1      42.724  24.912  30.499  1.00  0.00     0.167 HD
ATOM     58  C   UNL A   1      43.584  27.117  32.986  1.00  0.00     0.074 A 
ATOM     59  C   UNL A   1      43.207  27.350  34.367  1.00  0.00     0.031 C 
ATOM     60  C   UNL A   1      44.228  26.091  32.359  1.00  0.00     0.031 A 
BRANCH  47  61
ATOM     61  C   UNL A   1      43.200  24.181  26.685  1.00  0.00    -0.014 A 
ATOM     62  C   UNL A   1      42.977  22.793  26.772  1.00  0.00     0.009 A 
ATOM     63  C   UNL A   1      43.857  24.620  25.525  1.00  0.00     0.009 A 
ATOM     64  C   UNL A   1      43.459  21.898  25.807  1.00  0.00     0.001 A 
ATOM     65  C   UNL A   1      44.370  23.731  24.570  1.00  0.00     0.001 A 
ATOM     66  C   UNL A   1      44.179  22.365  24.718  1.00  0.00     0.000 A 
ENDBRANCH  47  61
BRANCH  48  67
ATOM     67  C   UNL A   1      40.229  30.461  33.303  1.00  0.00    -0.014 A 
ATOM     68  C   UNL A   1      39.959  31.807  33.619  1.00  0.00     0.009 A 
ATOM     69  C   UNL A   1      39.156  29.563  33.208  1.00  0.00     0.009 A 
ATOM     70  C   UNL A   1      38.642  32.266  33.718  1.00  0.00     0.001 A 
ATOM     71  C   UNL A   1      37.839  30.025  33.322  1.00  0.00     0.001 A 
ATOM     72  C   UNL A   1      37.583  31.378  33.539  1.00  0.00     0.000 A 
ENDBRANCH  48  67
BRANCH  60  73
ATOM     73  C   UNL A   1      44.767  24.872  33.054  1.00  0.00    -0.014 A 
ATOM     74  C   UNL A   1      43.984  23.748  33.340  1.00  0.00     0.009 A 
ATOM     75  C   UNL A   1      46.084  24.885  33.565  1.00  0.00     0.009 A 
ATOM     76  C   UNL A   1      44.511  22.667  34.059  1.00  0.00     0.001 A 
ATOM     77  C   UNL A   1      46.604  23.819  34.301  1.00  0.00     0.001 A 
ATOM     78  C   UNL A   1      45.818  22.702  34.541  1.00  0.00     0.000 A 
ENDBRANCH  60  73
ENDBRANCH  34  35
ENDBRANCH  26  29
ENDBRANCH  24  25
ENDBRANCH  23  24
ENDBRANCH   1  23
TORSDOF 14
ENDMDL
MODEL 3
REMARK VINA RESULT:     -11.5      3.352      8.359
REMARK SMILES Cc1ccc([C@H](CC(=O)NCCCNC(=O)c2ccc(-c3c4nc(c(-c5ccccc5)c5ccc([nH]5)c(-c5ccccc5)c5nc(c(-c6ccccc6)c6ccc3[nH]6)C=C5)C=C4)cc2)NC(=O)C(F)(F)F)cc1
REMARK SMILES IDX 11 1 10 2 8 3 9 4 7 6 6 7 5 8 1 9 2 10 3 11 73 12 4 13 72 14
REMARK SMILES IDX 65 15 66 16 67 18 68 19 69 20 70 21 71 22 12 23 13 24 14 25
REMARK SMILES IDX 15 26 16 28 17 29 18 30 64 31 19 32 63 33 20 34 21 35 22 36
REMARK SMILES IDX 57 37 23 38 62 39 56 40 58 41 24 42 61 43 55 44 54 45 25 47
REMARK SMILES IDX 47 48 32 49 46 50 33 51 36 52 45 53 59 54 34 55 35 56 44 58
REMARK SMILES IDX 60 59 37 60 26 61 27 62 31 63 28 64 30 65 29 66 48 67 49 68
REMARK SMILES IDX 53 69 50 70 52 71 51 72 38 73 39 74 43 75 40 76 42 77 41 78
REMARK H PARENT 10 5 65 17 14 27 58 46 36 57
REMARK Flexibility Score: inf
ROOT
ATOM      1  C   UNL A   1      37.811  22.423  25.528  1.00  0.00     0.117 C 
ENDROOT
BRANCH   1   2
ATOM      2  N   UNL A   1      36.484  22.365  26.130  1.00  0.00    -0.356 N 
ATOM      3  C   UNL A   1      35.388  23.157  25.937  1.00  0.00     0.222 C 
ATOM      4  O   UNL A   1      34.349  22.888  26.540  1.00  0.00    -0.275 OA
ATOM      5  H   UNL A   1      36.357  21.636  26.780  1.00  0.00     0.163 HD
BRANCH   3   6
ATOM      6  C   UNL A   1      35.462  24.352  25.018  1.00  0.00     0.129 C 
BRANCH   6   7
ATOM      7  C   UNL A   1      34.082  24.687  24.438  1.00  0.00     0.122 C 
BRANCH   7   8
ATOM      8  C   UNL A   1      33.668  26.091  24.847  1.00  0.00    -0.025 A 
ATOM      9  C   UNL A   1      32.875  30.109  26.229  1.00  0.00     0.044 C 
ATOM     10  C   UNL A   1      33.115  28.715  25.731  1.00  0.00    -0.051 A 
ATOM     11  C   UNL A   1      33.073  27.646  26.627  1.00  0.00     0.004 A 
ATOM     12  C   UNL A   1      33.414  28.464  24.388  1.00  0.00     0.004 A 
ATOM     13  C   UNL A   1      33.334  26.349  26.186  1.00  0.00     0.006 A 
ATOM     14  C   UNL A   1      33.692  27.165  23.948  1.00  0.00     0.006 A 
ENDBRANCH   7   8
BRANCH   7  15
ATOM     15  N   UNL A   1      34.024  24.514  22.991  1.00  0.00    -0.341 N 
ATOM     16  C   UNL A   1      33.376  23.519  22.288  1.00  0.00     0.326 C 
ATOM     17  H   UNL A   1      34.504  25.185  22.453  1.00  0.00     0.164 HD
ATOM     18  O   UNL A   1      33.451  23.561  21.055  1.00  0.00    -0.265 OA
BRANCH  16  19
ATOM     19  C   UNL A   1      32.573  22.433  23.047  1.00  0.00     0.471 C 
ATOM     20  F   UNL A   1      31.583  22.958  23.826  1.00  0.00    -0.162 F 
ATOM     21  F   UNL A   1      31.942  21.575  22.191  1.00  0.00    -0.162 F 
ATOM     22  F   UNL A   1      33.334  21.659  23.866  1.00  0.00    -0.162 F 
ENDBRANCH  16  19
ENDBRANCH   7  15
ENDBRANCH   6   7
ENDBRANCH   3   6
ENDBRANCH   1   2
BRANCH   1  23
ATOM     23  C   UNL A   1      38.560  21.095  25.607  1.00  0.00     0.042 C 
BRANCH  23  24
ATOM     24  C   UNL A   1      39.848  21.143  26.408  1.00  0.00     0.118 C 
BRANCH  24  25
ATOM     25  N   UNL A   1      40.886  20.240  25.936  1.00  0.00    -0.352 N 
ATOM     26  C   UNL A   1      42.263  20.390  25.957  1.00  0.00     0.251 C 
ATOM     27  H   UNL A   1      40.562  19.398  25.542  1.00  0.00     0.163 HD
ATOM     28  O   UNL A   1      42.971  19.539  25.445  1.00  0.00    -0.269 OA
BRANCH  26  29
ATOM     29  C   UNL A   1      42.878  21.504  26.727  1.00  0.00     0.039 A 
ATOM     30  C   UNL A   1      42.623  21.561  28.104  1.00  0.00     0.014 A 
ATOM     31  C   UNL A   1      43.504  22.572  26.096  1.00  0.00     0.014 A 
ATOM     32  C   UNL A   1      42.757  22.772  28.779  1.00  0.00     0.010 A 
ATOM     33  C   UNL A   1      43.526  23.796  26.725  1.00  0.00     0.010 A 
ATOM     34  C   UNL A   1      43.097  23.907  28.051  1.00  0.00    -0.014 A 
BRANCH  34  35
ATOM     35  C   UNL A   1      42.944  25.271  28.534  1.00  0.00     0.031 A 
ATOM     36  C   UNL A   1      41.776  26.079  28.137  1.00  0.00     0.074 A 
ATOM     37  C   UNL A   1      43.781  25.728  29.489  1.00  0.00     0.049 A 
ATOM     38  N   UNL A   1      41.698  27.356  28.298  1.00  0.00    -0.248 NA
ATOM     39  C   UNL A   1      40.612  25.511  27.467  1.00  0.00     0.031 C 
ATOM     40  C   UNL A   1      43.569  26.852  30.398  1.00  0.00     0.029 A 
ATOM     41  N   UNL A   1      45.113  25.369  29.690  1.00  0.00    -0.354 N 
ATOM     42  C   UNL A   1      40.398  27.724  28.052  1.00  0.00     0.074 A 
ATOM     43  C   UNL A   1      39.788  26.563  27.445  1.00  0.00     0.031 C 
ATOM     44  C   UNL A   1      44.755  27.248  30.883  1.00  0.00     0.029 A 
ATOM     45  C   UNL A   1      45.781  26.518  30.159  1.00  0.00     0.049 A 
ATOM     46  H   UNL A   1      45.512  24.483  29.532  1.00  0.00     0.167 HD
ATOM     47  C   UNL A   1      39.952  28.927  28.508  1.00  0.00     0.031 A 
ATOM     48  C   UNL A   1      46.774  27.099  29.421  1.00  0.00     0.031 A 
ATOM     49  C   UNL A   1      41.019  29.715  29.126  1.00  0.00     0.049 A 
ATOM     50  C   UNL A   1      46.495  28.526  28.987  1.00  0.00     0.074 A 
ATOM     51  C   UNL A   1      41.355  30.046  30.429  1.00  0.00     0.029 A 
ATOM     52  N   UNL A   1      42.105  30.078  28.349  1.00  0.00    -0.354 N 
ATOM     53  N   UNL A   1      45.366  29.149  29.179  1.00  0.00    -0.248 NA
ATOM     54  C   UNL A   1      47.437  29.325  28.199  1.00  0.00     0.031 C 
ATOM     55  C   UNL A   1      42.649  30.644  30.415  1.00  0.00     0.029 A 
ATOM     56  C   UNL A   1      43.087  30.681  29.105  1.00  0.00     0.049 A 
ATOM     57  H   UNL A   1      42.169  29.925  27.379  1.00  0.00     0.167 HD
ATOM     58  C   UNL A   1      45.383  30.344  28.510  1.00  0.00     0.074 A 
ATOM     59  C   UNL A   1      46.707  30.420  27.923  1.00  0.00     0.031 C 
ATOM     60  C   UNL A   1      44.287  31.152  28.437  1.00  0.00     0.031 A 
BRANCH  47  61
ATOM     61  C   UNL A   1      38.496  29.320  28.587  1.00  0.00    -0.014 A 
ATOM     62  C   UNL A   1      37.820  29.219  29.818  1.00  0.00     0.009 A 
ATOM     63  C   UNL A   1      37.722  29.759  27.501  1.00  0.00     0.009 A 
ATOM     64  C   UNL A   1      36.444  29.455  29.935  1.00  0.00     0.001 A 
ATOM     65  C   UNL A   1      36.339  29.966  27.601  1.00  0.00     0.001 A 
ATOM     66  C   UNL A   1      35.697  29.804  28.820  1.00  0.00     0.000 A 
ENDBRANCH  47  61
BRANCH  48  67
ATOM     67  C   UNL A   1      47.541  26.115  28.605  1.00  0.00    -0.014 A 
ATOM     68  C   UNL A   1      47.269  26.028  27.226  1.00  0.00     0.009 A 
ATOM     69  C   UNL A   1      48.746  25.585  29.089  1.00  0.00     0.009 A 
ATOM     70  C   UNL A   1      48.229  25.530  26.341  1.00  0.00     0.001 A 
ATOM     71  C   UNL A   1      49.698  25.075  28.199  1.00  0.00     0.001 A 
ATOM     72  C   UNL A   1      49.455  25.082  26.826  1.00  0.00     0.000 A 
ENDBRANCH  48  67
BRANCH  60  73
ATOM     73  C   UNL A   1      44.232  32.447  27.676  1.00  0.00    -0.014 A 
ATOM     74  C   UNL A   1      44.003  33.683  28.291  1.00  0.00     0.009 A 
ATOM     75  C   UNL A   1      44.286  32.431  26.264  1.00  0.00     0.009 A 
ATOM     76  C   UNL A   1      43.883  34.855  27.531  1.00  0.00     0.001 A 
ATOM     77  C   UNL A   1      44.145  33.593  25.504  1.00  0.00     0.001 A 
ATOM     78  C   UNL A   1      43.952  34.810  26.140  1.00  0.00     0.000 A 
ENDBRANCH  60  73
ENDBRANCH  34  35
ENDBRANCH  26  29
ENDBRANCH  24  25
ENDBRANCH  23  24
ENDBRANCH   1  23
TORSDOF 14
ENDMDL
