MODEL 1
REMARK VINA RESULT:     -12.4      0.000      0.000
REMARK SMILES Cc1ccc(C(=O)NCCCNC(=O)c2ccc(-c3c4nc(c(-c5ccccc5)c5ccc([nH]5)c(-c5ccccc5)c5nc(c(-c6ccccc6)c6ccc3[nH]6)C=C5)C=C4)cc2)cc1NC(=O)c1ccc(Br)o1
REMARK SMILES IDX 10 1 9 2 8 3 6 4 7 5 5 7 1 8 2 9 3 10 64 11 4 12 63 13 65 14
REMARK SMILES IDX 66 15 67 17 68 18 69 19 73 20 70 21 71 22 72 23 11 24 12 25
REMARK SMILES IDX 13 26 14 28 15 29 16 30 62 31 17 32 61 33 18 34 19 35 20 36
REMARK SMILES IDX 55 37 21 38 60 39 54 40 56 41 22 42 59 43 53 44 52 45 23 47
REMARK SMILES IDX 45 48 30 49 44 50 31 51 34 52 43 53 57 54 32 55 33 56 42 58
REMARK SMILES IDX 58 59 35 60 24 61 25 62 29 63 26 64 28 65 27 66 46 67 47 68
REMARK SMILES IDX 51 69 48 70 50 71 49 72 36 73 37 74 41 75 38 76 40 77 39 78
REMARK H PARENT 8 6 65 16 12 27 56 46 34 57
REMARK Flexibility Score: inf
ROOT
ATOM      1  C   UNL A   1      34.224  31.749  27.905  1.00  0.00     0.042 C 
ENDROOT
BRANCH   1   2
ATOM      2  C   UNL A   1      33.463  30.491  27.562  1.00  0.00     0.118 C 
BRANCH   2   3
ATOM      3  N   UNL A   1      32.463  30.646  26.521  1.00  0.00    -0.352 N 
ATOM      4  C   UNL A   1      31.898  29.712  25.681  1.00  0.00     0.251 C 
ATOM      5  O   UNL A   1      31.051  30.082  24.872  1.00  0.00    -0.269 OA
ATOM      6  H   UNL A   1      32.137  31.567  26.396  1.00  0.00     0.163 HD
BRANCH   4   7
ATOM      7  C   UNL A   1      32.331  28.284  25.677  1.00  0.00     0.041 A 
ATOM      8  C   UNL A   1      33.995  24.316  25.986  1.00  0.00     0.046 C 
ATOM      9  C   UNL A   1      33.326  25.666  25.890  1.00  0.00    -0.027 A 
ATOM     10  C   UNL A   1      34.132  26.710  25.394  1.00  0.00     0.006 A 
ATOM     11  C   UNL A   1      31.982  25.933  26.246  1.00  0.00     0.045 A 
ATOM     12  C   UNL A   1      33.652  28.013  25.322  1.00  0.00     0.014 A 
ATOM     13  C   UNL A   1      31.489  27.218  26.028  1.00  0.00     0.040 A 
BRANCH  11  14
ATOM     14  N   UNL A   1      31.237  24.915  26.870  1.00  0.00    -0.319 N 
ATOM     15  C   UNL A   1      30.710  23.690  26.532  1.00  0.00     0.291 C 
ATOM     16  H   UNL A   1      31.038  25.142  27.807  1.00  0.00     0.170 HD
ATOM     17  O   UNL A   1      29.874  23.268  27.339  1.00  0.00    -0.265 OA
BRANCH  15  18
ATOM     18  C   UNL A   1      31.029  22.923  25.352  1.00  0.00     0.193 A 
ATOM     19  C   UNL A   1      31.138  23.227  24.005  1.00  0.00     0.057 A 
ATOM     20  O   UNL A   1      31.573  21.683  25.568  1.00  0.00    -0.444 OA
ATOM     21  C   UNL A   1      31.802  22.131  23.385  1.00  0.00     0.059 A 
ATOM     22  C   UNL A   1      32.079  21.236  24.394  1.00  0.00     0.170 A 
ATOM     23  Br  UNL A   1      33.064  19.662  24.231  1.00  0.00    -0.008 Br
ENDBRANCH  15  18
ENDBRANCH  11  14
ENDBRANCH   4   7
ENDBRANCH   2   3
ENDBRANCH   1   2
BRANCH   1  24
ATOM     24  C   UNL A   1      34.776  31.756  29.316  1.00  0.00     0.118 C 
BRANCH  24  25
ATOM     25  N   UNL A   1      36.146  32.278  29.423  1.00  0.00    -0.352 N 
ATOM     26  C   UNL A   1      37.365  31.637  29.239  1.00  0.00     0.251 C 
ATOM     27  H   UNL A   1      36.211  33.231  29.662  1.00  0.00     0.163 HD
ATOM     28  O   UNL A   1      38.403  32.273  29.126  1.00  0.00    -0.269 OA
BRANCH  26  29
ATOM     29  C   UNL A   1      37.365  30.177  29.009  1.00  0.00     0.039 A 
ATOM     30  C   UNL A   1      37.770  29.424  30.113  1.00  0.00     0.014 A 
ATOM     31  C   UNL A   1      37.563  29.726  27.712  1.00  0.00     0.014 A 
ATOM     32  C   UNL A   1      38.750  28.465  29.920  1.00  0.00     0.010 A 
ATOM     33  C   UNL A   1      38.607  28.842  27.526  1.00  0.00     0.010 A 
ATOM     34  C   UNL A   1      39.273  28.310  28.638  1.00  0.00    -0.014 A 
BRANCH  34  35
ATOM     35  C   UNL A   1      40.567  27.681  28.409  1.00  0.00     0.031 A 
ATOM     36  C   UNL A   1      40.589  26.228  28.207  1.00  0.00     0.074 A 
ATOM     37  C   UNL A   1      41.736  28.359  28.479  1.00  0.00     0.049 A 
ATOM     38  N   UNL A   1      41.453  25.439  28.749  1.00  0.00    -0.248 NA
ATOM     39  C   UNL A   1      39.561  25.542  27.436  1.00  0.00     0.031 C 
ATOM     40  C   UNL A   1      43.069  27.827  28.197  1.00  0.00     0.029 A 
ATOM     41  N   UNL A   1      41.988  29.610  29.039  1.00  0.00    -0.354 N 
ATOM     42  C   UNL A   1      41.273  24.204  28.176  1.00  0.00     0.074 A 
ATOM     43  C   UNL A   1      40.023  24.292  27.456  1.00  0.00     0.031 C 
ATOM     44  C   UNL A   1      43.976  28.569  28.853  1.00  0.00     0.029 A 
ATOM     45  C   UNL A   1      43.256  29.549  29.647  1.00  0.00     0.049 A 
ATOM     46  H   UNL A   1      41.391  30.392  29.014  1.00  0.00     0.167 HD
ATOM     47  C   UNL A   1      42.271  23.280  28.224  1.00  0.00     0.031 A 
ATOM     48  C   UNL A   1      43.494  29.858  30.953  1.00  0.00     0.031 A 
ATOM     49  C   UNL A   1      43.442  23.779  28.943  1.00  0.00     0.049 A 
ATOM     50  C   UNL A   1      44.058  28.692  31.737  1.00  0.00     0.074 A 
ATOM     51  C   UNL A   1      44.631  24.337  28.502  1.00  0.00     0.029 A 
ATOM     52  N   UNL A   1      43.360  24.049  30.304  1.00  0.00    -0.354 N 
ATOM     53  N   UNL A   1      44.116  27.474  31.277  1.00  0.00    -0.248 NA
ATOM     54  C   UNL A   1      44.503  28.782  33.127  1.00  0.00     0.031 C 
ATOM     55  C   UNL A   1      45.238  24.999  29.597  1.00  0.00     0.029 A 
ATOM     56  C   UNL A   1      44.432  24.824  30.709  1.00  0.00     0.049 A 
ATOM     57  H   UNL A   1      42.641  23.732  30.897  1.00  0.00     0.167 HD
ATOM     58  C   UNL A   1      44.514  26.624  32.275  1.00  0.00     0.074 A 
ATOM     59  C   UNL A   1      44.778  27.494  33.405  1.00  0.00     0.031 C 
ATOM     60  C   UNL A   1      44.548  25.273  32.091  1.00  0.00     0.031 A 
BRANCH  47  61
ATOM     61  C   UNL A   1      42.290  22.079  27.311  1.00  0.00    -0.014 A 
ATOM     62  C   UNL A   1      41.511  20.954  27.627  1.00  0.00     0.009 A 
ATOM     63  C   UNL A   1      43.100  21.965  26.167  1.00  0.00     0.009 A 
ATOM     64  C   UNL A   1      41.625  19.750  26.918  1.00  0.00     0.001 A 
ATOM     65  C   UNL A   1      43.262  20.753  25.485  1.00  0.00     0.001 A 
ATOM     66  C   UNL A   1      42.531  19.639  25.870  1.00  0.00     0.000 A 
ENDBRANCH  47  61
BRANCH  48  67
ATOM     67  C   UNL A   1      42.543  30.857  31.508  1.00  0.00    -0.014 A 
ATOM     68  C   UNL A   1      42.644  32.182  31.038  1.00  0.00     0.009 A 
ATOM     69  C   UNL A   1      41.342  30.437  32.095  1.00  0.00     0.009 A 
ATOM     70  C   UNL A   1      41.519  33.009  30.998  1.00  0.00     0.001 A 
ATOM     71  C   UNL A   1      40.225  31.278  32.068  1.00  0.00     0.001 A 
ATOM     72  C   UNL A   1      40.298  32.537  31.474  1.00  0.00     0.000 A 
ENDBRANCH  48  67
BRANCH  60  73
ATOM     73  C   UNL A   1      44.759  24.244  33.173  1.00  0.00    -0.014 A 
ATOM     74  C   UNL A   1      43.789  23.322  33.589  1.00  0.00     0.009 A 
ATOM     75  C   UNL A   1      46.046  24.105  33.739  1.00  0.00     0.009 A 
ATOM     76  C   UNL A   1      44.073  22.352  34.561  1.00  0.00     0.001 A 
ATOM     77  C   UNL A   1      46.347  23.110  34.671  1.00  0.00     0.001 A 
ATOM     78  C   UNL A   1      45.353  22.242  35.095  1.00  0.00     0.000 A 
ENDBRANCH  60  73
ENDBRANCH  34  35
ENDBRANCH  26  29
ENDBRANCH  24  25
ENDBRANCH   1  24
TORSDOF 12
ENDMDL
MODEL 2
REMARK VINA RESULT:     -12.3      1.403      2.011
REMARK SMILES Cc1ccc(C(=O)NCCCNC(=O)c2ccc(-c3c4nc(c(-c5ccccc5)c5ccc([nH]5)c(-c5ccccc5)c5nc(c(-c6ccccc6)c6ccc3[nH]6)C=C5)C=C4)cc2)cc1NC(=O)c1ccc(Br)o1
REMARK SMILES IDX 10 1 9 2 8 3 6 4 7 5 5 7 1 8 2 9 3 10 64 11 4 12 63 13 65 14
REMARK SMILES IDX 66 15 67 17 68 18 69 19 73 20 70 21 71 22 72 23 11 24 12 25
REMARK SMILES IDX 13 26 14 28 15 29 16 30 62 31 17 32 61 33 18 34 19 35 20 36
REMARK SMILES IDX 55 37 21 38 60 39 54 40 56 41 22 42 59 43 53 44 52 45 23 47
REMARK SMILES IDX 45 48 30 49 44 50 31 51 34 52 43 53 57 54 32 55 33 56 42 58
REMARK SMILES IDX 58 59 35 60 24 61 25 62 29 63 26 64 28 65 27 66 46 67 47 68
REMARK SMILES IDX 51 69 48 70 50 71 49 72 36 73 37 74 41 75 38 76 40 77 39 78
REMARK H PARENT 8 6 65 16 12 27 56 46 34 57
REMARK Flexibility Score: inf
ROOT
ATOM      1  C   UNL A   1      34.614  31.644  27.679  1.00  0.00     0.042 C 
ENDROOT
BRANCH   1   2
ATOM      2  C   UNL A   1      34.176  30.324  27.092  1.00  0.00     0.118 C 
BRANCH   2   3
ATOM      3  N   UNL A   1      32.979  29.758  27.687  1.00  0.00    -0.352 N 
ATOM      4  C   UNL A   1      32.203  28.692  27.287  1.00  0.00     0.251 C 
ATOM      5  O   UNL A   1      31.225  28.387  27.965  1.00  0.00    -0.269 OA
ATOM      6  H   UNL A   1      32.672  30.209  28.507  1.00  0.00     0.163 HD
BRANCH   4   7
ATOM      7  C   UNL A   1      32.473  27.943  26.024  1.00  0.00     0.041 A 
ATOM      8  C   UNL A   1      33.432  26.255  22.173  1.00  0.00     0.046 C 
ATOM      9  C   UNL A   1      33.136  26.769  23.561  1.00  0.00    -0.027 A 
ATOM     10  C   UNL A   1      32.235  27.850  23.629  1.00  0.00     0.006 A 
ATOM     11  C   UNL A   1      33.681  26.240  24.756  1.00  0.00     0.045 A 
ATOM     12  C   UNL A   1      31.934  28.455  24.845  1.00  0.00     0.014 A 
ATOM     13  C   UNL A   1      33.250  26.777  25.967  1.00  0.00     0.040 A 
BRANCH  11  14
ATOM     14  N   UNL A   1      34.684  25.257  24.659  1.00  0.00    -0.319 N 
ATOM     15  C   UNL A   1      34.992  24.059  25.260  1.00  0.00     0.291 C 
ATOM     16  H   UNL A   1      35.348  25.492  23.971  1.00  0.00     0.170 HD
ATOM     17  O   UNL A   1      36.147  23.675  25.043  1.00  0.00    -0.265 OA
BRANCH  15  18
ATOM     18  C   UNL A   1      34.117  23.280  26.102  1.00  0.00     0.193 A 
ATOM     19  C   UNL A   1      34.260  22.666  27.335  1.00  0.00     0.057 A 
ATOM     20  O   UNL A   1      32.785  23.313  25.779  1.00  0.00    -0.444 OA
ATOM     21  C   UNL A   1      32.951  22.338  27.789  1.00  0.00     0.059 A 
ATOM     22  C   UNL A   1      32.088  22.791  26.817  1.00  0.00     0.170 A 
ATOM     23  Br  UNL A   1      30.226  22.778  26.903  1.00  0.00    -0.008 Br
ENDBRANCH  15  18
ENDBRANCH  11  14
ENDBRANCH   4   7
ENDBRANCH   2   3
ENDBRANCH   1   2
BRANCH   1  24
ATOM     24  C   UNL A   1      34.890  31.582  29.168  1.00  0.00     0.118 C 
BRANCH  24  25
ATOM     25  N   UNL A   1      36.234  32.039  29.550  1.00  0.00    -0.352 N 
ATOM     26  C   UNL A   1      37.464  31.405  29.424  1.00  0.00     0.251 C 
ATOM     27  H   UNL A   1      36.269  32.933  29.958  1.00  0.00     0.163 HD
ATOM     28  O   UNL A   1      38.511  32.021  29.566  1.00  0.00    -0.269 OA
BRANCH  26  29
ATOM     29  C   UNL A   1      37.490  30.006  28.945  1.00  0.00     0.039 A 
ATOM     30  C   UNL A   1      37.764  29.066  29.940  1.00  0.00     0.014 A 
ATOM     31  C   UNL A   1      37.837  29.783  27.620  1.00  0.00     0.014 A 
ATOM     32  C   UNL A   1      38.759  28.135  29.695  1.00  0.00     0.010 A 
ATOM     33  C   UNL A   1      38.895  28.923  27.403  1.00  0.00     0.010 A 
ATOM     34  C   UNL A   1      39.427  28.193  28.474  1.00  0.00    -0.014 A 
BRANCH  34  35
ATOM     35  C   UNL A   1      40.738  27.586  28.287  1.00  0.00     0.031 A 
ATOM     36  C   UNL A   1      40.793  26.133  28.093  1.00  0.00     0.074 A 
ATOM     37  C   UNL A   1      41.892  28.286  28.391  1.00  0.00     0.049 A 
ATOM     38  N   UNL A   1      41.653  25.362  28.664  1.00  0.00    -0.248 NA
ATOM     39  C   UNL A   1      39.802  25.426  27.293  1.00  0.00     0.031 C 
ATOM     40  C   UNL A   1      43.243  27.777  28.153  1.00  0.00     0.029 A 
ATOM     41  N   UNL A   1      42.105  29.543  28.954  1.00  0.00    -0.354 N 
ATOM     42  C   UNL A   1      41.513  24.121  28.091  1.00  0.00     0.074 A 
ATOM     43  C   UNL A   1      40.285  24.185  27.332  1.00  0.00     0.031 C 
ATOM     44  C   UNL A   1      44.116  28.537  28.834  1.00  0.00     0.029 A 
ATOM     45  C   UNL A   1      43.354  29.506  29.601  1.00  0.00     0.049 A 
ATOM     46  H   UNL A   1      41.495  30.314  28.907  1.00  0.00     0.167 HD
ATOM     47  C   UNL A   1      42.526  23.215  28.174  1.00  0.00     0.031 A 
ATOM     48  C   UNL A   1      43.546  29.824  30.913  1.00  0.00     0.031 A 
ATOM     49  C   UNL A   1      43.664  23.738  28.926  1.00  0.00     0.049 A 
ATOM     50  C   UNL A   1      44.106  28.671  31.718  1.00  0.00     0.074 A 
ATOM     51  C   UNL A   1      44.857  24.316  28.521  1.00  0.00     0.029 A 
ATOM     52  N   UNL A   1      43.536  24.011  30.283  1.00  0.00    -0.354 N 
ATOM     53  N   UNL A   1      44.199  27.453  31.265  1.00  0.00    -0.248 NA
ATOM     54  C   UNL A   1      44.506  28.774  33.122  1.00  0.00     0.031 C 
ATOM     55  C   UNL A   1      45.418  24.993  29.631  1.00  0.00     0.029 A 
ATOM     56  C   UNL A   1      44.581  24.807  30.718  1.00  0.00     0.049 A 
ATOM     57  H   UNL A   1      42.804  23.684  30.855  1.00  0.00     0.167 HD
ATOM     58  C   UNL A   1      44.581  26.614  32.279  1.00  0.00     0.074 A 
ATOM     59  C   UNL A   1      44.794  27.492  33.413  1.00  0.00     0.031 C 
ATOM     60  C   UNL A   1      44.645  25.263  32.102  1.00  0.00     0.031 A 
BRANCH  47  61
ATOM     61  C   UNL A   1      42.595  22.012  27.266  1.00  0.00    -0.014 A 
ATOM     62  C   UNL A   1      41.820  20.877  27.558  1.00  0.00     0.009 A 
ATOM     63  C   UNL A   1      43.448  21.906  26.153  1.00  0.00     0.009 A 
ATOM     64  C   UNL A   1      41.976  19.674  26.858  1.00  0.00     0.001 A 
ATOM     65  C   UNL A   1      43.651  20.693  25.483  1.00  0.00     0.001 A 
ATOM     66  C   UNL A   1      42.921  19.571  25.845  1.00  0.00     0.000 A 
ENDBRANCH  47  61
BRANCH  48  67
ATOM     67  C   UNL A   1      42.561  30.808  31.433  1.00  0.00    -0.014 A 
ATOM     68  C   UNL A   1      41.482  30.311  32.193  1.00  0.00     0.009 A 
ATOM     69  C   UNL A   1      42.914  32.158  31.564  1.00  0.00     0.009 A 
ATOM     70  C   UNL A   1      40.889  31.097  33.183  1.00  0.00     0.001 A 
ATOM     71  C   UNL A   1      42.302  32.945  32.545  1.00  0.00     0.001 A 
ATOM     72  C   UNL A   1      41.332  32.401  33.387  1.00  0.00     0.000 A 
ENDBRANCH  48  67
BRANCH  60  73
ATOM     73  C   UNL A   1      44.841  24.242  33.194  1.00  0.00    -0.014 A 
ATOM     74  C   UNL A   1      46.053  24.017  33.860  1.00  0.00     0.009 A 
ATOM     75  C   UNL A   1      43.715  23.534  33.674  1.00  0.00     0.009 A 
ATOM     76  C   UNL A   1      46.149  23.092  34.909  1.00  0.00     0.001 A 
ATOM     77  C   UNL A   1      43.796  22.649  34.751  1.00  0.00     0.001 A 
ATOM     78  C   UNL A   1      45.020  22.415  35.358  1.00  0.00     0.000 A 
ENDBRANCH  60  73
ENDBRANCH  34  35
ENDBRANCH  26  29
ENDBRANCH  24  25
ENDBRANCH   1  24
TORSDOF 12
ENDMDL
MODEL 3
REMARK VINA RESULT:     -12.3      6.046      9.298
REMARK SMILES Cc1ccc(C(=O)NCCCNC(=O)c2ccc(-c3c4nc(c(-c5ccccc5)c5ccc([nH]5)c(-c5ccccc5)c5nc(c(-c6ccccc6)c6ccc3[nH]6)C=C5)C=C4)cc2)cc1NC(=O)c1ccc(Br)o1
REMARK SMILES IDX 10 1 9 2 8 3 6 4 7 5 5 7 1 8 2 9 3 10 64 11 4 12 63 13 65 14
REMARK SMILES IDX 66 15 67 17 68 18 69 19 73 20 70 21 71 22 72 23 11 24 12 25
REMARK SMILES IDX 13 26 14 28 15 29 16 30 62 31 17 32 61 33 18 34 19 35 20 36
REMARK SMILES IDX 55 37 21 38 60 39 54 40 56 41 22 42 59 43 53 44 52 45 23 47
REMARK SMILES IDX 45 48 30 49 44 50 31 51 34 52 43 53 57 54 32 55 33 56 42 58
REMARK SMILES IDX 58 59 35 60 24 61 25 62 29 63 26 64 28 65 27 66 46 67 47 68
REMARK SMILES IDX 51 69 48 70 50 71 49 72 36 73 37 74 41 75 38 76 40 77 39 78
REMARK H PARENT 8 6 65 16 12 27 56 46 34 57
REMARK Flexibility Score: inf
ROOT
ATOM      1  C   UNL A   1      34.138  33.316  28.526  1.00  0.00     0.042 C 
ENDROOT
BRANCH   1   2
ATOM      2  C   UNL A   1      34.804  33.836  29.778  1.00  0.00     0.118 C 
BRANCH   2   3
ATOM      3  N   UNL A   1      34.060  33.612  31.004  1.00  0.00    -0.352 N 
ATOM      4  C   UNL A   1      34.505  33.396  32.290  1.00  0.00     0.251 C 
ATOM      5  O   UNL A   1      33.676  33.236  33.182  1.00  0.00    -0.269 OA
ATOM      6  H   UNL A   1      33.081  33.614  30.899  1.00  0.00     0.163 HD
BRANCH   4   7
ATOM      7  C   UNL A   1      35.956  33.280  32.618  1.00  0.00     0.041 A 
ATOM      8  C   UNL A   1      40.084  33.401  33.862  1.00  0.00     0.046 C 
ATOM      9  C   UNL A   1      38.640  33.264  33.444  1.00  0.00    -0.027 A 
ATOM     10  C   UNL A   1      38.100  34.369  32.757  1.00  0.00     0.006 A 
ATOM     11  C   UNL A   1      37.830  32.129  33.685  1.00  0.00     0.045 A 
ATOM     12  C   UNL A   1      36.761  34.392  32.379  1.00  0.00     0.014 A 
ATOM     13  C   UNL A   1      36.536  32.127  33.169  1.00  0.00     0.040 A 
BRANCH  11  14
ATOM     14  N   UNL A   1      38.342  31.098  34.494  1.00  0.00    -0.319 N 
ATOM     15  C   UNL A   1      38.610  30.891  35.828  1.00  0.00     0.291 C 
ATOM     16  H   UNL A   1      38.571  30.304  33.958  1.00  0.00     0.170 HD
ATOM     17  O   UNL A   1      39.331  29.911  36.045  1.00  0.00    -0.265 OA
BRANCH  15  18
ATOM     18  C   UNL A   1      38.155  31.712  36.923  1.00  0.00     0.193 A 
ATOM     19  C   UNL A   1      37.985  33.076  37.101  1.00  0.00     0.057 A 
ATOM     20  O   UNL A   1      37.527  31.054  37.949  1.00  0.00    -0.444 OA
ATOM     21  C   UNL A   1      37.196  33.246  38.273  1.00  0.00     0.059 A 
ATOM     22  C   UNL A   1      36.913  31.977  38.727  1.00  0.00     0.170 A 
ATOM     23  Br  UNL A   1      35.795  31.541  40.153  1.00  0.00    -0.008 Br
ENDBRANCH  15  18
ENDBRANCH  11  14
ENDBRANCH   4   7
ENDBRANCH   2   3
ENDBRANCH   1   2
BRANCH   1  24
ATOM     24  C   UNL A   1      34.840  32.118  27.921  1.00  0.00     0.118 C 
BRANCH  24  25
ATOM     25  N   UNL A   1      35.020  30.993  28.850  1.00  0.00    -0.352 N 
ATOM     26  C   UNL A   1      36.179  30.481  29.421  1.00  0.00     0.251 C 
ATOM     27  H   UNL A   1      34.191  30.531  29.110  1.00  0.00     0.163 HD
ATOM     28  O   UNL A   1      36.129  29.700  30.361  1.00  0.00    -0.269 OA
BRANCH  26  29
ATOM     29  C   UNL A   1      37.481  31.028  28.984  1.00  0.00     0.039 A 
ATOM     30  C   UNL A   1      38.312  30.096  28.359  1.00  0.00     0.014 A 
ATOM     31  C   UNL A   1      37.999  32.104  29.689  1.00  0.00     0.014 A 
ATOM     32  C   UNL A   1      39.617  29.988  28.807  1.00  0.00     0.010 A 
ATOM     33  C   UNL A   1      39.268  31.939  30.209  1.00  0.00     0.010 A 
ATOM     34  C   UNL A   1      40.022  30.813  29.854  1.00  0.00    -0.014 A 
BRANCH  34  35
ATOM     35  C   UNL A   1      41.180  30.493  30.678  1.00  0.00     0.031 A 
ATOM     36  C   UNL A   1      40.978  29.577  31.806  1.00  0.00     0.074 A 
ATOM     37  C   UNL A   1      42.387  31.083  30.510  1.00  0.00     0.049 A 
ATOM     38  N   UNL A   1      41.479  29.759  32.980  1.00  0.00    -0.248 NA
ATOM     39  C   UNL A   1      40.106  28.415  31.706  1.00  0.00     0.031 C 
ATOM     40  C   UNL A   1      43.616  30.775  31.242  1.00  0.00     0.029 A 
ATOM     41  N   UNL A   1      42.703  32.240  29.799  1.00  0.00    -0.354 N 
ATOM     42  C   UNL A   1      41.237  28.610  33.694  1.00  0.00     0.074 A 
ATOM     43  C   UNL A   1      40.291  27.857  32.903  1.00  0.00     0.031 C 
ATOM     44  C   UNL A   1      44.419  31.851  31.205  1.00  0.00     0.029 A 
ATOM     45  C   UNL A   1      43.703  32.914  30.523  1.00  0.00     0.049 A 
ATOM     46  H   UNL A   1      42.301  32.531  28.949  1.00  0.00     0.167 HD
ATOM     47  C   UNL A   1      41.980  28.327  34.799  1.00  0.00     0.031 A 
ATOM     48  C   UNL A   1      43.608  34.211  30.933  1.00  0.00     0.031 A 
ATOM     49  C   UNL A   1      42.966  29.370  35.075  1.00  0.00     0.049 A 
ATOM     50  C   UNL A   1      43.685  34.356  32.438  1.00  0.00     0.074 A 
ATOM     51  C   UNL A   1      44.317  29.470  34.780  1.00  0.00     0.029 A 
ATOM     52  N   UNL A   1      42.547  30.644  35.442  1.00  0.00    -0.354 N 
ATOM     53  N   UNL A   1      43.636  33.348  33.263  1.00  0.00    -0.248 NA
ATOM     54  C   UNL A   1      43.716  35.642  33.134  1.00  0.00     0.031 C 
ATOM     55  C   UNL A   1      44.696  30.828  34.915  1.00  0.00     0.029 A 
ATOM     56  C   UNL A   1      43.585  31.550  35.315  1.00  0.00     0.049 A 
ATOM     57  H   UNL A   1      41.640  30.869  35.751  1.00  0.00     0.167 HD
ATOM     58  C   UNL A   1      43.556  33.812  34.550  1.00  0.00     0.074 A 
ATOM     59  C   UNL A   1      43.644  35.254  34.420  1.00  0.00     0.031 C 
ATOM     60  C   UNL A   1      43.380  32.964  35.605  1.00  0.00     0.031 A 
BRANCH  47  61
ATOM     61  C   UNL A   1      42.031  26.940  35.392  1.00  0.00    -0.014 A 
ATOM     62  C   UNL A   1      42.769  25.936  34.745  1.00  0.00     0.009 A 
ATOM     63  C   UNL A   1      41.325  26.543  36.541  1.00  0.00     0.009 A 
ATOM     64  C   UNL A   1      42.708  24.595  35.149  1.00  0.00     0.001 A 
ATOM     65  C   UNL A   1      41.213  25.199  36.920  1.00  0.00     0.001 A 
ATOM     66  C   UNL A   1      41.898  24.222  36.213  1.00  0.00     0.000 A 
ENDBRANCH  47  61
BRANCH  48  67
ATOM     67  C   UNL A   1      42.750  35.048  30.054  1.00  0.00    -0.014 A 
ATOM     68  C   UNL A   1      43.342  35.602  28.901  1.00  0.00     0.009 A 
ATOM     69  C   UNL A   1      41.355  34.921  30.103  1.00  0.00     0.009 A 
ATOM     70  C   UNL A   1      42.575  35.858  27.762  1.00  0.00     0.001 A 
ATOM     71  C   UNL A   1      40.591  35.198  28.965  1.00  0.00     0.001 A 
ATOM     72  C   UNL A   1      41.204  35.612  27.783  1.00  0.00     0.000 A 
ENDBRANCH  48  67
BRANCH  60  73
ATOM     73  C   UNL A   1      43.065  33.377  37.020  1.00  0.00    -0.014 A 
ATOM     74  C   UNL A   1      44.011  33.870  37.930  1.00  0.00     0.009 A 
ATOM     75  C   UNL A   1      41.717  33.385  37.443  1.00  0.00     0.009 A 
ATOM     76  C   UNL A   1      43.637  34.293  39.213  1.00  0.00     0.001 A 
ATOM     77  C   UNL A   1      41.334  33.850  38.703  1.00  0.00     0.001 A 
ATOM     78  C   UNL A   1      42.300  34.289  39.596  1.00  0.00     0.000 A 
ENDBRANCH  60  73
ENDBRANCH  34  35
ENDBRANCH  26  29
ENDBRANCH  24  25
ENDBRANCH   1  24
TORSDOF 12
ENDMDL
