MODEL 1
REMARK VINA RESULT:     -12.9      0.000      0.000
REMARK SMILES O=C(NCCCNC(=O)c1nn(Cc2ccc(F)cc2)c2c1CN(C(=O)[C@H]1CC1(F)F)CC2)c1ccc(-c2c3nc(c(-c4ccccc4)c4ccc([nH]4)c(-c4ccccc4)c4nc(c(-c5ccccc5)c5ccc2[nH]5)C=C4)C=C3)cc1
REMARK SMILES IDX 5 1 4 2 3 3 1 4 2 5 34 7 35 8 81 9 36 10 80 11 37 12 38 13
REMARK SMILES IDX 39 14 74 15 40 16 79 17 73 18 75 19 41 20 78 21 72 22 71 23
REMARK SMILES IDX 42 25 64 26 49 27 63 28 50 29 53 30 62 31 76 32 51 33 52 34
REMARK SMILES IDX 61 36 77 37 54 38 43 39 44 40 48 41 45 42 47 43 46 44 65 45
REMARK SMILES IDX 66 46 70 47 67 48 69 49 68 50 55 51 56 52 60 53 57 54 59 55
REMARK SMILES IDX 58 56 6 57 7 58 8 59 9 61 10 62 11 63 22 64 12 65 21 66
REMARK SMILES IDX 23 67 33 68 24 69 32 70 13 71 14 72 15 73 20 74 16 75 19 76
REMARK SMILES IDX 17 77 18 78 25 79 26 80 27 81 28 82 29 83 30 84 31 85
REMARK H PARENT 3 6 75 24 53 35 7 60
REMARK Flexibility Score: inf
ROOT
ATOM      1  C   UNL A   1      35.120  30.170  27.519  1.00  0.00     0.042 C 
ENDROOT
BRANCH   1   2
ATOM      2  C   UNL A   1      34.641  31.569  27.902  1.00  0.00     0.118 C 
BRANCH   2   3
ATOM      3  N   UNL A   1      34.552  31.833  29.324  1.00  0.00    -0.352 N 
ATOM      4  O   UNL A   1      35.080  32.377  31.400  1.00  0.00    -0.269 OA
ATOM      5  C   UNL A   1      35.440  31.811  30.363  1.00  0.00     0.251 C 
ATOM      6  H   UNL A   1      33.644  32.088  29.607  1.00  0.00     0.163 HD
BRANCH   5   7
ATOM      7  C   UNL A   1      36.733  31.076  30.375  1.00  0.00     0.039 A 
ATOM      8  C   UNL A   1      37.994  31.609  30.109  1.00  0.00     0.014 A 
ATOM      9  C   UNL A   1      36.629  29.699  30.657  1.00  0.00     0.014 A 
ATOM     10  C   UNL A   1      39.108  30.767  30.030  1.00  0.00     0.010 A 
ATOM     11  C   UNL A   1      37.730  28.858  30.577  1.00  0.00     0.010 A 
ATOM     12  C   UNL A   1      38.965  29.388  30.222  1.00  0.00    -0.014 A 
BRANCH  12  13
ATOM     13  C   UNL A   1      40.150  28.529  30.222  1.00  0.00     0.031 A 
ATOM     14  C   UNL A   1      40.799  28.378  31.556  1.00  0.00     0.074 A 
ATOM     15  C   UNL A   1      40.535  27.778  29.167  1.00  0.00     0.049 A 
ATOM     16  N   UNL A   1      41.995  28.726  31.899  1.00  0.00    -0.248 NA
ATOM     17  C   UNL A   1      39.983  27.869  32.673  1.00  0.00     0.031 C 
ATOM     18  C   UNL A   1      39.834  27.587  27.894  1.00  0.00     0.029 A 
ATOM     19  N   UNL A   1      41.598  26.928  29.055  1.00  0.00    -0.354 N 
ATOM     20  C   UNL A   1      42.150  28.331  33.226  1.00  0.00     0.074 A 
ATOM     21  C   UNL A   1      40.845  27.938  33.689  1.00  0.00     0.031 C 
ATOM     22  C   UNL A   1      40.358  26.517  27.250  1.00  0.00     0.029 A 
ATOM     23  C   UNL A   1      41.509  26.032  27.993  1.00  0.00     0.049 A 
ATOM     24  H   UNL A   1      42.364  26.948  29.674  1.00  0.00     0.167 HD
ATOM     25  C   UNL A   1      43.381  28.147  33.781  1.00  0.00     0.031 A 
ATOM     26  C   UNL A   1      42.291  24.943  27.769  1.00  0.00     0.031 A 
ATOM     27  C   UNL A   1      44.421  28.734  32.982  1.00  0.00     0.049 A 
ATOM     28  C   UNL A   1      43.530  25.109  28.559  1.00  0.00     0.074 A 
ATOM     29  C   UNL A   1      44.737  30.012  32.568  1.00  0.00     0.029 A 
ATOM     30  N   UNL A   1      45.133  27.886  32.170  1.00  0.00    -0.354 N 
ATOM     31  N   UNL A   1      44.431  26.009  28.296  1.00  0.00    -0.248 NA
ATOM     32  C   UNL A   1      43.556  24.569  29.909  1.00  0.00     0.031 C 
ATOM     33  C   UNL A   1      45.222  29.853  31.237  1.00  0.00     0.029 A 
ATOM     34  C   UNL A   1      45.243  28.487  30.946  1.00  0.00     0.049 A 
ATOM     35  H   UNL A   1      45.497  27.006  32.422  1.00  0.00     0.167 HD
ATOM     36  C   UNL A   1      44.819  26.482  29.540  1.00  0.00     0.074 A 
ATOM     37  C   UNL A   1      44.322  25.492  30.495  1.00  0.00     0.031 C 
ATOM     38  C   UNL A   1      45.253  27.766  29.695  1.00  0.00     0.031 A 
BRANCH  25  39
ATOM     39  C   UNL A   1      43.690  27.087  34.809  1.00  0.00    -0.014 A 
ATOM     40  C   UNL A   1      43.556  25.734  34.442  1.00  0.00     0.009 A 
ATOM     41  C   UNL A   1      43.801  27.361  36.184  1.00  0.00     0.009 A 
ATOM     42  C   UNL A   1      43.452  24.724  35.405  1.00  0.00     0.001 A 
ATOM     43  C   UNL A   1      43.738  26.350  37.147  1.00  0.00     0.001 A 
ATOM     44  C   UNL A   1      43.533  25.034  36.758  1.00  0.00     0.000 A 
ENDBRANCH  25  39
BRANCH  26  45
ATOM     45  C   UNL A   1      41.948  23.638  27.153  1.00  0.00    -0.014 A 
ATOM     46  C   UNL A   1      42.790  23.042  26.197  1.00  0.00     0.009 A 
ATOM     47  C   UNL A   1      40.944  22.836  27.723  1.00  0.00     0.009 A 
ATOM     48  C   UNL A   1      42.658  21.686  25.859  1.00  0.00     0.001 A 
ATOM     49  C   UNL A   1      40.810  21.484  27.386  1.00  0.00     0.001 A 
ATOM     50  C   UNL A   1      41.677  20.904  26.464  1.00  0.00     0.000 A 
ENDBRANCH  26  45
BRANCH  38  51
ATOM     51  C   UNL A   1      45.527  28.577  28.455  1.00  0.00    -0.014 A 
ATOM     52  C   UNL A   1      44.559  29.375  27.820  1.00  0.00     0.009 A 
ATOM     53  C   UNL A   1      46.854  28.656  28.004  1.00  0.00     0.009 A 
ATOM     54  C   UNL A   1      44.905  30.204  26.747  1.00  0.00     0.001 A 
ATOM     55  C   UNL A   1      47.203  29.498  26.949  1.00  0.00     0.001 A 
ATOM     56  C   UNL A   1      46.229  30.269  26.317  1.00  0.00     0.000 A 
ENDBRANCH  38  51
ENDBRANCH  12  13
ENDBRANCH   5   7
ENDBRANCH   2   3
ENDBRANCH   1   2
BRANCH   1  57
ATOM     57  C   UNL A   1      34.087  29.299  26.795  1.00  0.00     0.118 C 
BRANCH  57  58
ATOM     58  N   UNL A   1      32.980  28.907  27.658  1.00  0.00    -0.351 N 
ATOM     59  C   UNL A   1      31.941  28.022  27.457  1.00  0.00     0.272 C 
ATOM     60  H   UNL A   1      32.973  29.349  28.537  1.00  0.00     0.163 HD
ATOM     61  O   UNL A   1      31.037  28.021  28.295  1.00  0.00    -0.267 OA
BRANCH  59  62
ATOM     62  C   UNL A   1      31.893  27.133  26.281  1.00  0.00     0.155 A 
ATOM     63  N   UNL A   1      32.257  25.834  26.316  1.00  0.00    -0.167 NA
ATOM     64  C   UNL A   1      31.386  27.464  24.989  1.00  0.00     0.026 A 
ATOM     65  N   UNL A   1      32.070  25.376  25.058  1.00  0.00    -0.264 N 
ATOM     66  C   UNL A   1      31.577  26.332  24.224  1.00  0.00     0.046 A 
ATOM     67  C   UNL A   1      30.790  28.732  24.467  1.00  0.00     0.159 C 
ATOM     68  C   UNL A   1      31.237  26.213  22.783  1.00  0.00     0.078 C 
ATOM     69  N   UNL A   1      30.248  28.486  23.108  1.00  0.00    -0.337 N 
ATOM     70  C   UNL A   1      31.057  27.636  22.212  1.00  0.00     0.126 C 
BRANCH  65  71
ATOM     71  C   UNL A   1      32.289  23.963  24.767  1.00  0.00     0.180 C 
BRANCH  71  72
ATOM     72  C   UNL A   1      33.755  23.606  24.740  1.00  0.00    -0.026 A 
ATOM     73  C   UNL A   1      34.437  23.532  23.513  1.00  0.00     0.008 A 
ATOM     74  C   UNL A   1      34.456  23.340  25.927  1.00  0.00     0.008 A 
ATOM     75  C   UNL A   1      35.792  23.203  23.473  1.00  0.00     0.039 A 
ATOM     76  C   UNL A   1      35.814  23.017  25.885  1.00  0.00     0.039 A 
ATOM     77  C   UNL A   1      36.468  22.951  24.659  1.00  0.00     0.123 A 
ATOM     78  F   UNL A   1      37.769  22.640  24.623  1.00  0.00    -0.207 F 
ENDBRANCH  71  72
ENDBRANCH  65  71
BRANCH  69  79
ATOM     79  C   UNL A   1      29.065  29.124  22.750  1.00  0.00     0.232 C 
ATOM     80  O   UNL A   1      27.976  28.580  22.767  1.00  0.00    -0.274 OA
BRANCH  79  81
ATOM     81  C   UNL A   1      29.159  30.552  22.367  1.00  0.00     0.154 C 
ATOM     82  C   UNL A   1      28.042  31.213  21.575  1.00  0.00     0.097 C 
ATOM     83  C   UNL A   1      28.270  31.557  22.998  1.00  0.00     0.260 C 
ATOM     84  F   UNL A   1      27.296  31.251  23.917  1.00  0.00    -0.206 F 
ATOM     85  F   UNL A   1      28.744  32.813  23.309  1.00  0.00    -0.206 F 
ENDBRANCH  79  81
ENDBRANCH  69  79
ENDBRANCH  59  62
ENDBRANCH  57  58
ENDBRANCH   1  57
TORSDOF 14
ENDMDL
MODEL 2
REMARK VINA RESULT:     -12.8      1.353      4.817
REMARK SMILES O=C(NCCCNC(=O)c1nn(Cc2ccc(F)cc2)c2c1CN(C(=O)[C@H]1CC1(F)F)CC2)c1ccc(-c2c3nc(c(-c4ccccc4)c4ccc([nH]4)c(-c4ccccc4)c4nc(c(-c5ccccc5)c5ccc2[nH]5)C=C4)C=C3)cc1
REMARK SMILES IDX 5 1 4 2 3 3 1 4 2 5 34 7 35 8 81 9 36 10 80 11 37 12 38 13
REMARK SMILES IDX 39 14 74 15 40 16 79 17 73 18 75 19 41 20 78 21 72 22 71 23
REMARK SMILES IDX 42 25 64 26 49 27 63 28 50 29 53 30 62 31 76 32 51 33 52 34
REMARK SMILES IDX 61 36 77 37 54 38 43 39 44 40 48 41 45 42 47 43 46 44 65 45
REMARK SMILES IDX 66 46 70 47 67 48 69 49 68 50 55 51 56 52 60 53 57 54 59 55
REMARK SMILES IDX 58 56 6 57 7 58 8 59 9 61 10 62 11 63 22 64 12 65 21 66
REMARK SMILES IDX 23 67 33 68 24 69 32 70 13 71 14 72 15 73 20 74 16 75 19 76
REMARK SMILES IDX 17 77 18 78 25 79 26 80 27 81 28 82 29 83 30 84 31 85
REMARK H PARENT 3 6 75 24 53 35 7 60
REMARK Flexibility Score: inf
ROOT
ATOM      1  C   UNL A   1      35.233  29.727  27.421  1.00  0.00     0.042 C 
ENDROOT
BRANCH   1   2
ATOM      2  C   UNL A   1      34.756  31.162  27.636  1.00  0.00     0.118 C 
BRANCH   2   3
ATOM      3  N   UNL A   1      34.837  31.652  28.996  1.00  0.00    -0.352 N 
ATOM      4  O   UNL A   1      35.621  32.456  30.899  1.00  0.00    -0.269 OA
ATOM      5  C   UNL A   1      35.822  31.702  29.943  1.00  0.00     0.251 C 
ATOM      6  H   UNL A   1      33.988  32.039  29.312  1.00  0.00     0.163 HD
BRANCH   5   7
ATOM      7  C   UNL A   1      37.041  30.851  29.962  1.00  0.00     0.039 A 
ATOM      8  C   UNL A   1      38.285  31.168  29.414  1.00  0.00     0.014 A 
ATOM      9  C   UNL A   1      36.876  29.594  30.577  1.00  0.00     0.014 A 
ATOM     10  C   UNL A   1      39.306  30.211  29.395  1.00  0.00     0.010 A 
ATOM     11  C   UNL A   1      37.884  28.640  30.558  1.00  0.00     0.010 A 
ATOM     12  C   UNL A   1      39.088  28.936  29.929  1.00  0.00    -0.014 A 
BRANCH  12  13
ATOM     13  C   UNL A   1      40.189  27.974  29.979  1.00  0.00     0.031 A 
ATOM     14  C   UNL A   1      40.946  27.974  31.265  1.00  0.00     0.074 A 
ATOM     15  C   UNL A   1      40.407  27.029  29.039  1.00  0.00     0.049 A 
ATOM     16  N   UNL A   1      42.194  28.252  31.449  1.00  0.00    -0.248 NA
ATOM     17  C   UNL A   1      40.198  27.735  32.512  1.00  0.00     0.031 C 
ATOM     18  C   UNL A   1      39.576  26.707  27.876  1.00  0.00     0.029 A 
ATOM     19  N   UNL A   1      41.378  26.070  28.988  1.00  0.00    -0.354 N 
ATOM     20  C   UNL A   1      42.439  28.060  32.807  1.00  0.00     0.074 A 
ATOM     21  C   UNL A   1      41.154  27.880  33.431  1.00  0.00     0.031 C 
ATOM     22  C   UNL A   1      39.943  25.501  27.382  1.00  0.00     0.029 A 
ATOM     23  C   UNL A   1      41.112  25.028  28.103  1.00  0.00     0.049 A 
ATOM     24  H   UNL A   1      42.197  26.111  29.533  1.00  0.00     0.167 HD
ATOM     25  C   UNL A   1      43.697  27.846  33.286  1.00  0.00     0.031 A 
ATOM     26  C   UNL A   1      41.773  23.844  28.005  1.00  0.00     0.031 A 
ATOM     27  C   UNL A   1      44.704  28.190  32.321  1.00  0.00     0.049 A 
ATOM     28  C   UNL A   1      43.092  24.010  28.656  1.00  0.00     0.074 A 
ATOM     29  C   UNL A   1      45.087  29.347  31.674  1.00  0.00     0.029 A 
ATOM     30  N   UNL A   1      45.260  27.155  31.609  1.00  0.00    -0.354 N 
ATOM     31  N   UNL A   1      44.038  24.761  28.175  1.00  0.00    -0.248 NA
ATOM     32  C   UNL A   1      43.198  23.694  30.071  1.00  0.00     0.031 C 
ATOM     33  C   UNL A   1      45.429  28.928  30.354  1.00  0.00     0.029 A 
ATOM     34  C   UNL A   1      45.305  27.539  30.297  1.00  0.00     0.049 A 
ATOM     35  H   UNL A   1      45.569  26.295  31.977  1.00  0.00     0.167 HD
ATOM     36  C   UNL A   1      44.580  25.386  29.287  1.00  0.00     0.074 A 
ATOM     37  C   UNL A   1      44.092  24.617  30.431  1.00  0.00     0.031 C 
ATOM     38  C   UNL A   1      45.136  26.629  29.189  1.00  0.00     0.031 A 
BRANCH  25  39
ATOM     39  C   UNL A   1      44.009  26.938  34.451  1.00  0.00    -0.014 A 
ATOM     40  C   UNL A   1      44.785  27.445  35.511  1.00  0.00     0.009 A 
ATOM     41  C   UNL A   1      43.839  25.542  34.402  1.00  0.00     0.009 A 
ATOM     42  C   UNL A   1      45.426  26.594  36.418  1.00  0.00     0.001 A 
ATOM     43  C   UNL A   1      44.445  24.692  35.332  1.00  0.00     0.001 A 
ATOM     44  C   UNL A   1      45.263  25.216  36.322  1.00  0.00     0.000 A 
ENDBRANCH  25  39
BRANCH  26  45
ATOM     45  C   UNL A   1      41.263  22.499  27.647  1.00  0.00    -0.014 A 
ATOM     46  C   UNL A   1      40.081  22.346  26.900  1.00  0.00     0.009 A 
ATOM     47  C   UNL A   1      42.096  21.374  27.781  1.00  0.00     0.009 A 
ATOM     48  C   UNL A   1      39.769  21.126  26.279  1.00  0.00     0.001 A 
ATOM     49  C   UNL A   1      41.785  20.158  27.163  1.00  0.00     0.001 A 
ATOM     50  C   UNL A   1      40.629  20.037  26.398  1.00  0.00     0.000 A 
ENDBRANCH  26  45
BRANCH  38  51
ATOM     51  C   UNL A   1      45.361  27.199  27.812  1.00  0.00    -0.014 A 
ATOM     52  C   UNL A   1      46.615  27.220  27.176  1.00  0.00     0.009 A 
ATOM     53  C   UNL A   1      44.234  27.589  27.072  1.00  0.00     0.009 A 
ATOM     54  C   UNL A   1      46.738  27.646  25.849  1.00  0.00     0.001 A 
ATOM     55  C   UNL A   1      44.354  27.993  25.743  1.00  0.00     0.001 A 
ATOM     56  C   UNL A   1      45.606  28.026  25.132  1.00  0.00     0.000 A 
ENDBRANCH  38  51
ENDBRANCH  12  13
ENDBRANCH   5   7
ENDBRANCH   2   3
ENDBRANCH   1   2
BRANCH   1  57
ATOM     57  C   UNL A   1      34.231  28.799  26.725  1.00  0.00     0.118 C 
BRANCH  57  58
ATOM     58  N   UNL A   1      33.075  28.497  27.559  1.00  0.00    -0.351 N 
ATOM     59  C   UNL A   1      31.885  27.862  27.267  1.00  0.00     0.272 C 
ATOM     60  H   UNL A   1      33.157  28.796  28.493  1.00  0.00     0.163 HD
ATOM     61  O   UNL A   1      31.002  27.905  28.126  1.00  0.00    -0.267 OA
BRANCH  59  62
ATOM     62  C   UNL A   1      31.662  27.184  25.976  1.00  0.00     0.155 A 
ATOM     63  N   UNL A   1      31.098  27.785  24.908  1.00  0.00    -0.167 NA
ATOM     64  C   UNL A   1      32.072  25.861  25.633  1.00  0.00     0.026 A 
ATOM     65  N   UNL A   1      31.071  26.843  23.939  1.00  0.00    -0.264 N 
ATOM     66  C   UNL A   1      31.619  25.664  24.344  1.00  0.00     0.046 A 
ATOM     67  C   UNL A   1      32.804  24.826  26.426  1.00  0.00     0.159 C 
ATOM     68  C   UNL A   1      31.777  24.406  23.572  1.00  0.00     0.078 C 
ATOM     69  N   UNL A   1      33.148  23.691  25.536  1.00  0.00    -0.337 N 
ATOM     70  C   UNL A   1      32.120  23.273  24.562  1.00  0.00     0.126 C 
BRANCH  65  71
ATOM     71  C   UNL A   1      30.598  27.195  22.604  1.00  0.00     0.180 C 
BRANCH  71  72
ATOM     72  C   UNL A   1      29.662  28.380  22.626  1.00  0.00    -0.026 A 
ATOM     73  C   UNL A   1      30.115  29.640  22.199  1.00  0.00     0.008 A 
ATOM     74  C   UNL A   1      28.339  28.246  23.074  1.00  0.00     0.008 A 
ATOM     75  C   UNL A   1      29.263  30.744  22.215  1.00  0.00     0.039 A 
ATOM     76  C   UNL A   1      27.485  29.352  23.083  1.00  0.00     0.039 A 
ATOM     77  C   UNL A   1      27.955  30.588  22.654  1.00  0.00     0.123 A 
ATOM     78  F   UNL A   1      27.134  31.645  22.665  1.00  0.00    -0.207 F 
ENDBRANCH  71  72
ENDBRANCH  65  71
BRANCH  69  79
ATOM     79  C   UNL A   1      34.373  23.059  25.725  1.00  0.00     0.232 C 
ATOM     80  O   UNL A   1      34.893  22.915  26.816  1.00  0.00    -0.274 OA
BRANCH  79  81
ATOM     81  C   UNL A   1      35.039  22.508  24.522  1.00  0.00     0.154 C 
ATOM     82  C   UNL A   1      35.529  23.434  23.421  1.00  0.00     0.097 C 
ATOM     83  C   UNL A   1      36.489  22.729  24.303  1.00  0.00     0.260 C 
ATOM     84  F   UNL A   1      37.288  23.472  25.138  1.00  0.00    -0.206 F 
ATOM     85  F   UNL A   1      37.275  21.733  23.765  1.00  0.00    -0.206 F 
ENDBRANCH  79  81
ENDBRANCH  69  79
ENDBRANCH  59  62
ENDBRANCH  57  58
ENDBRANCH   1  57
TORSDOF 14
ENDMDL
MODEL 3
REMARK VINA RESULT:     -12.5      3.594      7.849
REMARK SMILES O=C(NCCCNC(=O)c1nn(Cc2ccc(F)cc2)c2c1CN(C(=O)[C@H]1CC1(F)F)CC2)c1ccc(-c2c3nc(c(-c4ccccc4)c4ccc([nH]4)c(-c4ccccc4)c4nc(c(-c5ccccc5)c5ccc2[nH]5)C=C4)C=C3)cc1
REMARK SMILES IDX 5 1 4 2 3 3 1 4 2 5 34 7 35 8 81 9 36 10 80 11 37 12 38 13
REMARK SMILES IDX 39 14 74 15 40 16 79 17 73 18 75 19 41 20 78 21 72 22 71 23
REMARK SMILES IDX 42 25 64 26 49 27 63 28 50 29 53 30 62 31 76 32 51 33 52 34
REMARK SMILES IDX 61 36 77 37 54 38 43 39 44 40 48 41 45 42 47 43 46 44 65 45
REMARK SMILES IDX 66 46 70 47 67 48 69 49 68 50 55 51 56 52 60 53 57 54 59 55
REMARK SMILES IDX 58 56 6 57 7 58 8 59 9 61 10 62 11 63 22 64 12 65 21 66
REMARK SMILES IDX 23 67 33 68 24 69 32 70 13 71 14 72 15 73 20 74 16 75 19 76
REMARK SMILES IDX 17 77 18 78 25 79 26 80 27 81 28 82 29 83 30 84 31 85
REMARK H PARENT 3 6 75 24 53 35 7 60
REMARK Flexibility Score: inf
ROOT
ATOM      1  C   UNL A   1      38.567  23.117  26.477  1.00  0.00     0.042 C 
ENDROOT
BRANCH   1   2
ATOM      2  C   UNL A   1      39.583  21.979  26.516  1.00  0.00     0.118 C 
BRANCH   2   3
ATOM      3  N   UNL A   1      40.808  22.207  25.776  1.00  0.00    -0.352 N 
ATOM      4  O   UNL A   1      42.879  22.782  25.262  1.00  0.00    -0.269 OA
ATOM      5  C   UNL A   1      41.866  23.063  25.908  1.00  0.00     0.251 C 
ATOM      6  H   UNL A   1      40.901  21.607  25.000  1.00  0.00     0.163 HD
BRANCH   5   7
ATOM      7  C   UNL A   1      41.849  24.341  26.669  1.00  0.00     0.039 A 
ATOM      8  C   UNL A   1      42.368  24.554  27.947  1.00  0.00     0.014 A 
ATOM      9  C   UNL A   1      41.207  25.411  26.015  1.00  0.00     0.014 A 
ATOM     10  C   UNL A   1      42.163  25.779  28.590  1.00  0.00     0.010 A 
ATOM     11  C   UNL A   1      40.999  26.628  26.650  1.00  0.00     0.010 A 
ATOM     12  C   UNL A   1      41.442  26.797  27.956  1.00  0.00    -0.014 A 
BRANCH  12  13
ATOM     13  C   UNL A   1      41.307  28.102  28.605  1.00  0.00     0.031 A 
ATOM     14  C   UNL A   1      42.368  29.084  28.234  1.00  0.00     0.074 A 
ATOM     15  C   UNL A   1      40.230  28.475  29.329  1.00  0.00     0.049 A 
ATOM     16  N   UNL A   1      43.235  29.643  29.011  1.00  0.00    -0.248 NA
ATOM     17  C   UNL A   1      42.550  29.405  26.808  1.00  0.00     0.031 C 
ATOM     18  C   UNL A   1      38.980  27.737  29.531  1.00  0.00     0.029 A 
ATOM     19  N   UNL A   1      39.982  29.662  29.957  1.00  0.00    -0.354 N 
ATOM     20  C   UNL A   1      43.968  30.517  28.210  1.00  0.00     0.074 A 
ATOM     21  C   UNL A   1      43.599  30.228  26.848  1.00  0.00     0.031 C 
ATOM     22  C   UNL A   1      38.037  28.576  30.021  1.00  0.00     0.029 A 
ATOM     23  C   UNL A   1      38.646  29.868  30.293  1.00  0.00     0.049 A 
ATOM     24  H   UNL A   1      40.689  30.319  30.155  1.00  0.00     0.167 HD
ATOM     25  C   UNL A   1      44.662  31.564  28.739  1.00  0.00     0.031 A 
ATOM     26  C   UNL A   1      38.073  31.026  30.715  1.00  0.00     0.031 A 
ATOM     27  C   UNL A   1      44.828  31.434  30.160  1.00  0.00     0.049 A 
ATOM     28  C   UNL A   1      39.154  31.911  31.202  1.00  0.00     0.074 A 
ATOM     29  C   UNL A   1      45.448  30.528  30.996  1.00  0.00     0.029 A 
ATOM     30  N   UNL A   1      43.970  32.156  30.953  1.00  0.00    -0.354 N 
ATOM     31  N   UNL A   1      39.843  31.673  32.278  1.00  0.00    -0.248 NA
ATOM     32  C   UNL A   1      39.768  32.824  30.251  1.00  0.00     0.031 C 
ATOM     33  C   UNL A   1      44.583  30.424  32.124  1.00  0.00     0.029 A 
ATOM     34  C   UNL A   1      43.530  31.323  31.944  1.00  0.00     0.049 A 
ATOM     35  H   UNL A   1      43.719  33.101  30.830  1.00  0.00     0.167 HD
ATOM     36  C   UNL A   1      41.143  32.016  31.938  1.00  0.00     0.074 A 
ATOM     37  C   UNL A   1      41.019  32.810  30.716  1.00  0.00     0.031 C 
ATOM     38  C   UNL A   1      42.206  31.386  32.517  1.00  0.00     0.031 A 
BRANCH  25  39
ATOM     39  C   UNL A   1      44.820  32.899  28.053  1.00  0.00    -0.014 A 
ATOM     40  C   UNL A   1      43.683  33.714  27.893  1.00  0.00     0.009 A 
ATOM     41  C   UNL A   1      45.955  33.242  27.295  1.00  0.00     0.009 A 
ATOM     42  C   UNL A   1      43.659  34.759  26.963  1.00  0.00     0.001 A 
ATOM     43  C   UNL A   1      45.947  34.311  26.395  1.00  0.00     0.001 A 
ATOM     44  C   UNL A   1      44.789  35.050  26.207  1.00  0.00     0.000 A 
ENDBRANCH  25  39
BRANCH  26  45
ATOM     45  C   UNL A   1      36.706  31.550  30.479  1.00  0.00    -0.014 A 
ATOM     46  C   UNL A   1      35.917  32.025  31.541  1.00  0.00     0.009 A 
ATOM     47  C   UNL A   1      36.291  31.862  29.172  1.00  0.00     0.009 A 
ATOM     48  C   UNL A   1      34.781  32.815  31.304  1.00  0.00     0.001 A 
ATOM     49  C   UNL A   1      35.157  32.648  28.935  1.00  0.00     0.001 A 
ATOM     50  C   UNL A   1      34.411  33.138  30.001  1.00  0.00     0.000 A 
ENDBRANCH  26  45
BRANCH  38  51
ATOM     51  C   UNL A   1      41.942  30.488  33.698  1.00  0.00    -0.014 A 
ATOM     52  C   UNL A   1      41.632  29.122  33.580  1.00  0.00     0.009 A 
ATOM     53  C   UNL A   1      42.165  31.011  34.981  1.00  0.00     0.009 A 
ATOM     54  C   UNL A   1      41.523  28.311  34.715  1.00  0.00     0.001 A 
ATOM     55  C   UNL A   1      42.077  30.198  36.111  1.00  0.00     0.001 A 
ATOM     56  C   UNL A   1      41.751  28.850  35.980  1.00  0.00     0.000 A 
ENDBRANCH  38  51
ENDBRANCH  12  13
ENDBRANCH   5   7
ENDBRANCH   2   3
ENDBRANCH   1   2
BRANCH   1  57
ATOM     57  C   UNL A   1      37.236  22.786  25.791  1.00  0.00     0.118 C 
BRANCH  57  58
ATOM     58  N   UNL A   1      37.283  22.986  24.349  1.00  0.00    -0.351 N 
ATOM     59  C   UNL A   1      36.294  22.917  23.390  1.00  0.00     0.272 C 
ATOM     60  H   UNL A   1      38.175  23.209  23.998  1.00  0.00     0.163 HD
ATOM     61  O   UNL A   1      36.654  22.954  22.211  1.00  0.00    -0.267 OA
BRANCH  59  62
ATOM     62  C   UNL A   1      34.870  22.780  23.749  1.00  0.00     0.155 A 
ATOM     63  N   UNL A   1      34.344  21.663  24.292  1.00  0.00    -0.167 NA
ATOM     64  C   UNL A   1      33.874  23.800  23.668  1.00  0.00     0.026 A 
ATOM     65  N   UNL A   1      33.032  21.934  24.470  1.00  0.00    -0.264 N 
ATOM     66  C   UNL A   1      32.703  23.196  24.080  1.00  0.00     0.046 A 
ATOM     67  C   UNL A   1      33.966  25.224  23.223  1.00  0.00     0.159 C 
ATOM     68  C   UNL A   1      31.376  23.861  24.125  1.00  0.00     0.078 C 
ATOM     69  N   UNL A   1      32.681  25.904  23.516  1.00  0.00    -0.337 N 
ATOM     70  C   UNL A   1      31.446  25.136  23.259  1.00  0.00     0.126 C 
BRANCH  65  71
ATOM     71  C   UNL A   1      32.177  20.953  25.131  1.00  0.00     0.180 C 
BRANCH  71  72
ATOM     72  C   UNL A   1      32.547  19.536  24.765  1.00  0.00    -0.026 A 
ATOM     73  C   UNL A   1      32.534  19.133  23.418  1.00  0.00     0.008 A 
ATOM     74  C   UNL A   1      32.903  18.604  25.753  1.00  0.00     0.008 A 
ATOM     75  C   UNL A   1      32.873  17.827  23.065  1.00  0.00     0.039 A 
ATOM     76  C   UNL A   1      33.247  17.299  25.396  1.00  0.00     0.039 A 
ATOM     77  C   UNL A   1      33.229  16.923  24.057  1.00  0.00     0.123 A 
ATOM     78  F   UNL A   1      33.559  15.670  23.720  1.00  0.00    -0.207 F 
ENDBRANCH  71  72
ENDBRANCH  65  71
BRANCH  69  79
ATOM     79  C   UNL A   1      32.723  27.229  23.940  1.00  0.00     0.232 C 
ATOM     80  O   UNL A   1      33.111  28.146  23.240  1.00  0.00    -0.274 OA
BRANCH  79  81
ATOM     81  C   UNL A   1      32.229  27.514  25.307  1.00  0.00     0.154 C 
ATOM     82  C   UNL A   1      32.785  26.756  26.502  1.00  0.00     0.097 C 
ATOM     83  C   UNL A   1      33.106  28.188  26.295  1.00  0.00     0.260 C 
ATOM     84  F   UNL A   1      34.410  28.544  26.046  1.00  0.00    -0.206 F 
ATOM     85  F   UNL A   1      32.589  29.116  27.171  1.00  0.00    -0.206 F 
ENDBRANCH  79  81
ENDBRANCH  69  79
ENDBRANCH  59  62
ENDBRANCH  57  58
ENDBRANCH   1  57
TORSDOF 14
ENDMDL
