MODEL 1
REMARK VINA RESULT:     -12.0      0.000      0.000
REMARK SMILES CC1=C(C(=O)NCCCNC(=O)c2ccc(-c3c4nc(c(-c5ccccc5)c5ccc([nH]5)c(-c5ccccc5)c5nc(c(-c6ccccc6)c6ccc3[nH]6)C=C5)C=C4)cc2)[C@H](c2ccc(Cl)cc2)n2ncnc2N1
REMARK SMILES IDX 8 1 7 2 6 3 4 4 5 5 3 7 1 8 2 9 74 10 61 11 73 12 69 14
REMARK SMILES IDX 72 15 70 16 71 17 62 18 63 19 68 20 64 21 67 22 65 23 66 24
REMARK SMILES IDX 9 25 10 26 11 27 12 29 13 30 14 31 60 32 15 33 59 34 16 35
REMARK SMILES IDX 17 36 18 37 53 38 19 39 58 40 52 41 54 42 20 43 57 44 51 45
REMARK SMILES IDX 50 46 21 48 43 49 28 50 42 51 29 52 32 53 41 54 55 55 30 56
REMARK SMILES IDX 31 57 40 59 56 60 33 61 22 62 23 63 27 64 24 65 26 66 25 67
REMARK SMILES IDX 44 68 45 69 49 70 46 71 48 72 47 73 34 74 35 75 39 76 36 77
REMARK SMILES IDX 38 78 37 79
REMARK H PARENT 6 6 74 13 10 28 54 47 32 58
REMARK Flexibility Score: inf
ROOT
ATOM      1  C   UNL A   1      37.764  20.796  25.422  1.00  0.00     0.042 C 
ENDROOT
BRANCH   1   2
ATOM      2  C   UNL A   1      37.315  21.674  24.265  1.00  0.00     0.118 C 
BRANCH   2   3
ATOM      3  N   UNL A   1      36.746  22.957  24.614  1.00  0.00    -0.352 N 
ATOM      4  C   UNL A   1      35.539  23.295  25.143  1.00  0.00     0.251 C 
ATOM      5  O   UNL A   1      35.344  24.507  25.246  1.00  0.00    -0.270 OA
ATOM      6  H   UNL A   1      37.338  23.722  24.438  1.00  0.00     0.163 HD
BRANCH   4   7
ATOM      7  C   UNL A   1      34.420  22.327  25.424  1.00  0.00     0.065 C 
ATOM      8  C   UNL A   1      34.325  22.151  27.985  1.00  0.00     0.065 C 
ATOM      9  C   UNL A   1      34.032  21.709  26.577  1.00  0.00     0.026 C 
ATOM     10  N   UNL A   1      33.235  20.565  26.514  1.00  0.00    -0.328 N 
ATOM     11  C   UNL A   1      33.548  22.052  24.159  1.00  0.00     0.179 C 
ATOM     12  C   UNL A   1      32.872  19.980  25.358  1.00  0.00     0.226 A 
ATOM     13  H   UNL A   1      32.921  20.166  27.357  1.00  0.00     0.169 HD
ATOM     14  N   UNL A   1      33.071  20.663  24.191  1.00  0.00    -0.219 N 
ATOM     15  N   UNL A   1      32.295  18.835  25.105  1.00  0.00    -0.200 NA
ATOM     16  N   UNL A   1      32.635  19.956  23.127  1.00  0.00    -0.157 NA
ATOM     17  C   UNL A   1      32.171  18.858  23.739  1.00  0.00     0.248 A 
BRANCH  11  18
ATOM     18  C   UNL A   1      32.354  23.051  24.103  1.00  0.00    -0.018 A 
ATOM     19  C   UNL A   1      31.529  23.329  25.213  1.00  0.00     0.008 A 
ATOM     20  C   UNL A   1      32.112  23.793  22.930  1.00  0.00     0.008 A 
ATOM     21  C   UNL A   1      30.538  24.316  25.160  1.00  0.00     0.021 A 
ATOM     22  C   UNL A   1      31.141  24.799  22.883  1.00  0.00     0.021 A 
ATOM     23  C   UNL A   1      30.359  25.059  24.000  1.00  0.00     0.041 A 
ATOM     24  Cl  UNL A   1      29.173  26.304  23.949  1.00  0.00    -0.084 Cl
ENDBRANCH  11  18
ENDBRANCH   4   7
ENDBRANCH   2   3
ENDBRANCH   1   2
BRANCH   1  25
ATOM     25  C   UNL A   1      39.238  20.911  25.748  1.00  0.00     0.118 C 
BRANCH  25  26
ATOM     26  N   UNL A   1      39.995  19.657  25.680  1.00  0.00    -0.352 N 
ATOM     27  C   UNL A   1      41.356  19.509  25.915  1.00  0.00     0.251 C 
ATOM     28  H   UNL A   1      39.492  18.844  25.446  1.00  0.00     0.163 HD
ATOM     29  O   UNL A   1      41.961  18.481  25.635  1.00  0.00    -0.269 OA
BRANCH  27  30
ATOM     30  C   UNL A   1      42.051  20.663  26.512  1.00  0.00     0.039 A 
ATOM     31  C   UNL A   1      42.468  21.742  25.731  1.00  0.00     0.014 A 
ATOM     32  C   UNL A   1      41.993  20.747  27.895  1.00  0.00     0.014 A 
ATOM     33  C   UNL A   1      42.696  22.969  26.355  1.00  0.00     0.010 A 
ATOM     34  C   UNL A   1      42.018  21.996  28.464  1.00  0.00     0.010 A 
ATOM     35  C   UNL A   1      42.414  23.111  27.722  1.00  0.00    -0.014 A 
BRANCH  35  36
ATOM     36  C   UNL A   1      42.441  24.421  28.379  1.00  0.00     0.031 A 
ATOM     37  C   UNL A   1      41.295  25.350  28.134  1.00  0.00     0.074 A 
ATOM     38  C   UNL A   1      43.339  24.738  29.338  1.00  0.00     0.049 A 
ATOM     39  N   UNL A   1      41.343  26.505  27.555  1.00  0.00    -0.248 NA
ATOM     40  C   UNL A   1      39.940  24.951  28.541  1.00  0.00     0.031 C 
ATOM     41  C   UNL A   1      44.385  23.896  29.932  1.00  0.00     0.029 A 
ATOM     42  N   UNL A   1      43.403  25.867  30.094  1.00  0.00    -0.354 N 
ATOM     43  C   UNL A   1      40.068  27.057  27.647  1.00  0.00     0.074 A 
ATOM     44  C   UNL A   1      39.218  26.012  28.163  1.00  0.00     0.031 C 
ATOM     45  C   UNL A   1      44.770  24.420  31.114  1.00  0.00     0.029 A 
ATOM     46  C   UNL A   1      44.163  25.730  31.244  1.00  0.00     0.049 A 
ATOM     47  H   UNL A   1      42.951  26.706  29.846  1.00  0.00     0.167 HD
ATOM     48  C   UNL A   1      39.844  28.391  27.458  1.00  0.00     0.031 A 
ATOM     49  C   UNL A   1      44.299  26.624  32.248  1.00  0.00     0.031 A 
ATOM     50  C   UNL A   1      41.001  29.058  26.919  1.00  0.00     0.049 A 
ATOM     51  C   UNL A   1      43.971  27.956  31.693  1.00  0.00     0.074 A 
ATOM     52  C   UNL A   1      41.753  28.932  25.769  1.00  0.00     0.029 A 
ATOM     53  N   UNL A   1      41.773  29.783  27.796  1.00  0.00    -0.354 N 
ATOM     54  N   UNL A   1      44.705  28.548  30.794  1.00  0.00    -0.248 NA
ATOM     55  C   UNL A   1      42.606  28.443  31.798  1.00  0.00     0.031 C 
ATOM     56  C   UNL A   1      43.100  29.126  26.198  1.00  0.00     0.029 A 
ATOM     57  C   UNL A   1      43.075  29.425  27.562  1.00  0.00     0.049 A 
ATOM     58  H   UNL A   1      41.453  30.433  28.462  1.00  0.00     0.167 HD
ATOM     59  C   UNL A   1      43.795  29.136  29.928  1.00  0.00     0.074 A 
ATOM     60  C   UNL A   1      42.534  29.153  30.667  1.00  0.00     0.031 C 
ATOM     61  C   UNL A   1      44.076  29.285  28.598  1.00  0.00     0.031 A 
BRANCH  48  62
ATOM     62  C   UNL A   1      38.717  29.183  28.068  1.00  0.00    -0.014 A 
ATOM     63  C   UNL A   1      38.569  29.189  29.470  1.00  0.00     0.009 A 
ATOM     64  C   UNL A   1      37.643  29.687  27.316  1.00  0.00     0.009 A 
ATOM     65  C   UNL A   1      37.381  29.609  30.080  1.00  0.00     0.001 A 
ATOM     66  C   UNL A   1      36.469  30.146  27.925  1.00  0.00     0.001 A 
ATOM     67  C   UNL A   1      36.327  30.080  29.305  1.00  0.00     0.000 A 
ENDBRANCH  48  62
BRANCH  49  68
ATOM     68  C   UNL A   1      44.546  26.354  33.675  1.00  0.00    -0.014 A 
ATOM     69  C   UNL A   1      43.538  25.843  34.502  1.00  0.00     0.009 A 
ATOM     70  C   UNL A   1      45.861  26.383  34.183  1.00  0.00     0.009 A 
ATOM     71  C   UNL A   1      43.841  25.346  35.776  1.00  0.00     0.001 A 
ATOM     72  C   UNL A   1      46.163  25.893  35.456  1.00  0.00     0.001 A 
ATOM     73  C   UNL A   1      45.153  25.359  36.248  1.00  0.00     0.000 A 
ENDBRANCH  49  68
BRANCH  61  74
ATOM     74  C   UNL A   1      45.481  28.986  28.127  1.00  0.00    -0.014 A 
ATOM     75  C   UNL A   1      45.913  27.687  27.804  1.00  0.00     0.009 A 
ATOM     76  C   UNL A   1      46.336  30.057  27.833  1.00  0.00     0.009 A 
ATOM     77  C   UNL A   1      47.172  27.465  27.235  1.00  0.00     0.001 A 
ATOM     78  C   UNL A   1      47.585  29.840  27.244  1.00  0.00     0.001 A 
ATOM     79  C   UNL A   1      48.005  28.544  26.952  1.00  0.00     0.000 A 
ENDBRANCH  61  74
ENDBRANCH  35  36
ENDBRANCH  27  30
ENDBRANCH  25  26
ENDBRANCH   1  25
TORSDOF 11
ENDMDL
MODEL 2
REMARK VINA RESULT:     -12.0      3.617      7.756
REMARK SMILES CC1=C(C(=O)NCCCNC(=O)c2ccc(-c3c4nc(c(-c5ccccc5)c5ccc([nH]5)c(-c5ccccc5)c5nc(c(-c6ccccc6)c6ccc3[nH]6)C=C5)C=C4)cc2)[C@H](c2ccc(Cl)cc2)n2ncnc2N1
REMARK SMILES IDX 8 1 7 2 6 3 4 4 5 5 3 7 1 8 2 9 74 10 61 11 73 12 69 14
REMARK SMILES IDX 72 15 70 16 71 17 62 18 63 19 68 20 64 21 67 22 65 23 66 24
REMARK SMILES IDX 9 25 10 26 11 27 12 29 13 30 14 31 60 32 15 33 59 34 16 35
REMARK SMILES IDX 17 36 18 37 53 38 19 39 58 40 52 41 54 42 20 43 57 44 51 45
REMARK SMILES IDX 50 46 21 48 43 49 28 50 42 51 29 52 32 53 41 54 55 55 30 56
REMARK SMILES IDX 31 57 40 59 56 60 33 61 22 62 23 63 27 64 24 65 26 66 25 67
REMARK SMILES IDX 44 68 45 69 49 70 46 71 48 72 47 73 34 74 35 75 39 76 36 77
REMARK SMILES IDX 38 78 37 79
REMARK H PARENT 6 6 74 13 10 28 54 47 32 58
REMARK Flexibility Score: inf
ROOT
ATOM      1  C   UNL A   1      32.429  31.152  26.888  1.00  0.00     0.042 C 
ENDROOT
BRANCH   1   2
ATOM      2  C   UNL A   1      31.859  29.763  27.128  1.00  0.00     0.118 C 
BRANCH   2   3
ATOM      3  N   UNL A   1      32.769  28.654  26.948  1.00  0.00    -0.352 N 
ATOM      4  C   UNL A   1      33.098  27.926  25.847  1.00  0.00     0.251 C 
ATOM      5  O   UNL A   1      33.864  26.986  26.063  1.00  0.00    -0.270 OA
ATOM      6  H   UNL A   1      33.233  28.377  27.770  1.00  0.00     0.163 HD
BRANCH   4   7
ATOM      7  C   UNL A   1      32.469  28.087  24.488  1.00  0.00     0.065 C 
ATOM      8  C   UNL A   1      34.353  28.983  22.990  1.00  0.00     0.065 C 
ATOM      9  C   UNL A   1      32.922  28.691  23.353  1.00  0.00     0.026 C 
ATOM     10  N   UNL A   1      32.016  29.062  22.358  1.00  0.00    -0.328 N 
ATOM     11  C   UNL A   1      31.081  27.380  24.395  1.00  0.00     0.179 C 
ATOM     12  C   UNL A   1      30.684  28.918  22.480  1.00  0.00     0.226 A 
ATOM     13  H   UNL A   1      32.368  29.447  21.523  1.00  0.00     0.169 HD
ATOM     14  N   UNL A   1      30.203  28.150  23.504  1.00  0.00    -0.219 N 
ATOM     15  N   UNL A   1      29.690  29.356  21.754  1.00  0.00    -0.200 NA
ATOM     16  N   UNL A   1      28.855  28.084  23.477  1.00  0.00    -0.157 NA
ATOM     17  C   UNL A   1      28.596  28.829  22.394  1.00  0.00     0.248 A 
BRANCH  11  18
ATOM     18  C   UNL A   1      31.256  25.920  23.881  1.00  0.00    -0.018 A 
ATOM     19  C   UNL A   1      31.962  25.598  22.702  1.00  0.00     0.008 A 
ATOM     20  C   UNL A   1      30.775  24.841  24.648  1.00  0.00     0.008 A 
ATOM     21  C   UNL A   1      32.199  24.269  22.331  1.00  0.00     0.021 A 
ATOM     22  C   UNL A   1      31.035  23.512  24.294  1.00  0.00     0.021 A 
ATOM     23  C   UNL A   1      31.749  23.231  23.137  1.00  0.00     0.041 A 
ATOM     24  Cl  UNL A   1      32.079  21.600  22.706  1.00  0.00    -0.084 Cl
ENDBRANCH  11  18
ENDBRANCH   4   7
ENDBRANCH   2   3
ENDBRANCH   1   2
BRANCH   1  25
ATOM     25  C   UNL A   1      33.822  31.352  27.445  1.00  0.00     0.118 C 
BRANCH  25  26
ATOM     26  N   UNL A   1      33.888  32.053  28.732  1.00  0.00    -0.352 N 
ATOM     27  C   UNL A   1      34.925  31.978  29.652  1.00  0.00     0.251 C 
ATOM     28  H   UNL A   1      33.126  32.630  28.965  1.00  0.00     0.163 HD
ATOM     29  O   UNL A   1      34.823  32.415  30.792  1.00  0.00    -0.269 OA
BRANCH  27  30
ATOM     30  C   UNL A   1      36.165  31.329  29.195  1.00  0.00     0.039 A 
ATOM     31  C   UNL A   1      37.354  32.048  29.057  1.00  0.00     0.014 A 
ATOM     32  C   UNL A   1      36.154  29.941  29.204  1.00  0.00     0.014 A 
ATOM     33  C   UNL A   1      38.562  31.350  29.069  1.00  0.00     0.010 A 
ATOM     34  C   UNL A   1      37.342  29.290  29.421  1.00  0.00     0.010 A 
ATOM     35  C   UNL A   1      38.558  29.967  29.309  1.00  0.00    -0.014 A 
BRANCH  35  36
ATOM     36  C   UNL A   1      39.802  29.225  29.535  1.00  0.00     0.031 A 
ATOM     37  C   UNL A   1      40.194  28.927  30.946  1.00  0.00     0.074 A 
ATOM     38  C   UNL A   1      40.489  28.634  28.532  1.00  0.00     0.049 A 
ATOM     39  N   UNL A   1      41.247  29.351  31.564  1.00  0.00    -0.248 NA
ATOM     40  C   UNL A   1      39.313  28.099  31.783  1.00  0.00     0.031 C 
ATOM     41  C   UNL A   1      40.154  28.562  27.104  1.00  0.00     0.029 A 
ATOM     42  N   UNL A   1      41.586  27.833  28.619  1.00  0.00    -0.354 N 
ATOM     43  C   UNL A   1      41.258  28.737  32.814  1.00  0.00     0.074 A 
ATOM     44  C   UNL A   1      39.987  28.064  32.938  1.00  0.00     0.031 C 
ATOM     45  C   UNL A   1      40.841  27.554  26.529  1.00  0.00     0.029 A 
ATOM     46  C   UNL A   1      41.811  27.065  27.488  1.00  0.00     0.049 A 
ATOM     47  H   UNL A   1      42.168  27.803  29.412  1.00  0.00     0.167 HD
ATOM     48  C   UNL A   1      42.386  28.680  33.581  1.00  0.00     0.031 A 
ATOM     49  C   UNL A   1      42.731  26.088  27.330  1.00  0.00     0.031 A 
ATOM     50  C   UNL A   1      43.429  29.528  33.065  1.00  0.00     0.049 A 
ATOM     51  C   UNL A   1      43.800  26.332  28.323  1.00  0.00     0.074 A 
ATOM     52  C   UNL A   1      43.556  30.880  32.820  1.00  0.00     0.029 A 
ATOM     53  N   UNL A   1      44.438  28.921  32.355  1.00  0.00    -0.354 N 
ATOM     54  N   UNL A   1      44.592  27.366  28.272  1.00  0.00    -0.248 NA
ATOM     55  C   UNL A   1      43.716  25.680  29.620  1.00  0.00     0.031 C 
ATOM     56  C   UNL A   1      44.283  30.957  31.595  1.00  0.00     0.029 A 
ATOM     57  C   UNL A   1      44.611  29.654  31.209  1.00  0.00     0.049 A 
ATOM     58  H   UNL A   1      44.939  28.116  32.618  1.00  0.00     0.167 HD
ATOM     59  C   UNL A   1      44.735  27.766  29.592  1.00  0.00     0.074 A 
ATOM     60  C   UNL A   1      44.289  26.619  30.381  1.00  0.00     0.031 C 
ATOM     61  C   UNL A   1      44.922  29.081  29.918  1.00  0.00     0.031 A 
BRANCH  48  62
ATOM     62  C   UNL A   1      42.699  27.615  34.600  1.00  0.00    -0.014 A 
ATOM     63  C   UNL A   1      42.930  26.297  34.158  1.00  0.00     0.009 A 
ATOM     64  C   UNL A   1      42.500  27.795  35.979  1.00  0.00     0.009 A 
ATOM     65  C   UNL A   1      42.892  25.210  35.040  1.00  0.00     0.001 A 
ATOM     66  C   UNL A   1      42.501  26.715  36.869  1.00  0.00     0.001 A 
ATOM     67  C   UNL A   1      42.668  25.420  36.396  1.00  0.00     0.000 A 
ENDBRANCH  48  62
BRANCH  49  68
ATOM     68  C   UNL A   1      42.645  24.891  26.476  1.00  0.00    -0.014 A 
ATOM     69  C   UNL A   1      43.554  24.676  25.433  1.00  0.00     0.009 A 
ATOM     70  C   UNL A   1      41.795  23.825  26.836  1.00  0.00     0.009 A 
ATOM     71  C   UNL A   1      43.634  23.430  24.798  1.00  0.00     0.001 A 
ATOM     72  C   UNL A   1      41.870  22.584  26.199  1.00  0.00     0.001 A 
ATOM     73  C   UNL A   1      42.802  22.382  25.189  1.00  0.00     0.000 A 
ENDBRANCH  49  68
BRANCH  61  74
ATOM     74  C   UNL A   1      45.177  30.064  28.799  1.00  0.00    -0.014 A 
ATOM     75  C   UNL A   1      46.471  30.395  28.358  1.00  0.00     0.009 A 
ATOM     76  C   UNL A   1      44.087  30.533  28.052  1.00  0.00     0.009 A 
ATOM     77  C   UNL A   1      46.668  31.195  27.228  1.00  0.00     0.001 A 
ATOM     78  C   UNL A   1      44.281  31.314  26.909  1.00  0.00     0.001 A 
ATOM     79  C   UNL A   1      45.570  31.650  26.501  1.00  0.00     0.000 A 
ENDBRANCH  61  74
ENDBRANCH  35  36
ENDBRANCH  27  30
ENDBRANCH  25  26
ENDBRANCH   1  25
TORSDOF 11
ENDMDL
MODEL 3
REMARK VINA RESULT:     -11.9      3.561      7.726
REMARK SMILES CC1=C(C(=O)NCCCNC(=O)c2ccc(-c3c4nc(c(-c5ccccc5)c5ccc([nH]5)c(-c5ccccc5)c5nc(c(-c6ccccc6)c6ccc3[nH]6)C=C5)C=C4)cc2)[C@H](c2ccc(Cl)cc2)n2ncnc2N1
REMARK SMILES IDX 8 1 7 2 6 3 4 4 5 5 3 7 1 8 2 9 74 10 61 11 73 12 69 14
REMARK SMILES IDX 72 15 70 16 71 17 62 18 63 19 68 20 64 21 67 22 65 23 66 24
REMARK SMILES IDX 9 25 10 26 11 27 12 29 13 30 14 31 60 32 15 33 59 34 16 35
REMARK SMILES IDX 17 36 18 37 53 38 19 39 58 40 52 41 54 42 20 43 57 44 51 45
REMARK SMILES IDX 50 46 21 48 43 49 28 50 42 51 29 52 32 53 41 54 55 55 30 56
REMARK SMILES IDX 31 57 40 59 56 60 33 61 22 62 23 63 27 64 24 65 26 66 25 67
REMARK SMILES IDX 44 68 45 69 49 70 46 71 48 72 47 73 34 74 35 75 39 76 36 77
REMARK SMILES IDX 38 78 37 79
REMARK H PARENT 6 6 74 13 10 28 54 47 32 58
REMARK Flexibility Score: inf
ROOT
ATOM      1  C   UNL A   1      34.062  31.093  27.407  1.00  0.00     0.042 C 
ENDROOT
BRANCH   1   2
ATOM      2  C   UNL A   1      32.954  30.205  26.863  1.00  0.00     0.118 C 
BRANCH   2   3
ATOM      3  N   UNL A   1      33.197  28.780  26.896  1.00  0.00    -0.352 N 
ATOM      4  C   UNL A   1      33.046  27.816  25.948  1.00  0.00     0.251 C 
ATOM      5  O   UNL A   1      33.276  26.670  26.339  1.00  0.00    -0.270 OA
ATOM      6  H   UNL A   1      33.534  28.448  27.759  1.00  0.00     0.163 HD
BRANCH   4   7
ATOM      7  C   UNL A   1      32.467  28.040  24.576  1.00  0.00     0.065 C 
ATOM      8  C   UNL A   1      34.412  28.978  23.185  1.00  0.00     0.065 C 
ATOM      9  C   UNL A   1      32.966  28.687  23.484  1.00  0.00     0.026 C 
ATOM     10  N   UNL A   1      32.100  29.108  22.474  1.00  0.00    -0.328 N 
ATOM     11  C   UNL A   1      31.077  27.352  24.403  1.00  0.00     0.179 C 
ATOM     12  C   UNL A   1      30.763  28.973  22.543  1.00  0.00     0.226 A 
ATOM     13  H   UNL A   1      32.486  29.525  21.669  1.00  0.00     0.169 HD
ATOM     14  N   UNL A   1      30.239  28.168  23.515  1.00  0.00    -0.219 N 
ATOM     15  N   UNL A   1      29.800  29.452  21.801  1.00  0.00    -0.200 NA
ATOM     16  N   UNL A   1      28.892  28.117  23.437  1.00  0.00    -0.157 NA
ATOM     17  C   UNL A   1      28.679  28.910  22.379  1.00  0.00     0.248 A 
BRANCH  11  18
ATOM     18  C   UNL A   1      31.258  25.913  23.834  1.00  0.00    -0.018 A 
ATOM     19  C   UNL A   1      32.059  25.625  22.709  1.00  0.00     0.008 A 
ATOM     20  C   UNL A   1      30.679  24.815  24.500  1.00  0.00     0.008 A 
ATOM     21  C   UNL A   1      32.292  24.308  22.294  1.00  0.00     0.021 A 
ATOM     22  C   UNL A   1      30.932  23.497  24.103  1.00  0.00     0.021 A 
ATOM     23  C   UNL A   1      31.741  23.249  23.003  1.00  0.00     0.041 A 
ATOM     24  Cl  UNL A   1      32.064  21.630  22.521  1.00  0.00    -0.084 Cl
ENDBRANCH  11  18
ENDBRANCH   4   7
ENDBRANCH   2   3
ENDBRANCH   1   2
BRANCH   1  25
ATOM     25  C   UNL A   1      35.226  30.331  28.003  1.00  0.00     0.118 C 
BRANCH  25  26
ATOM     26  N   UNL A   1      35.549  30.666  29.394  1.00  0.00    -0.352 N 
ATOM     27  C   UNL A   1      36.584  30.128  30.147  1.00  0.00     0.251 C 
ATOM     28  H   UNL A   1      34.979  31.337  29.835  1.00  0.00     0.163 HD
ATOM     29  O   UNL A   1      36.667  30.291  31.358  1.00  0.00    -0.269 OA
BRANCH  27  30
ATOM     30  C   UNL A   1      37.583  29.329  29.416  1.00  0.00     0.039 A 
ATOM     31  C   UNL A   1      38.188  29.809  28.254  1.00  0.00     0.014 A 
ATOM     32  C   UNL A   1      38.094  28.236  30.101  1.00  0.00     0.014 A 
ATOM     33  C   UNL A   1      39.408  29.259  27.859  1.00  0.00     0.010 A 
ATOM     34  C   UNL A   1      39.381  27.848  29.825  1.00  0.00     0.010 A 
ATOM     35  C   UNL A   1      40.036  28.312  28.681  1.00  0.00    -0.014 A 
BRANCH  35  36
ATOM     36  C   UNL A   1      41.404  27.856  28.420  1.00  0.00     0.031 A 
ATOM     37  C   UNL A   1      41.585  26.573  27.673  1.00  0.00     0.074 A 
ATOM     38  C   UNL A   1      42.487  28.634  28.643  1.00  0.00     0.049 A 
ATOM     39  N   UNL A   1      42.137  25.491  28.113  1.00  0.00    -0.248 NA
ATOM     40  C   UNL A   1      41.070  26.456  26.301  1.00  0.00     0.031 C 
ATOM     41  C   UNL A   1      42.539  30.023  29.118  1.00  0.00     0.029 A 
ATOM     42  N   UNL A   1      43.789  28.374  28.345  1.00  0.00    -0.354 N 
ATOM     43  C   UNL A   1      42.184  24.597  27.045  1.00  0.00     0.074 A 
ATOM     44  C   UNL A   1      41.413  25.203  25.986  1.00  0.00     0.031 C 
ATOM     45  C   UNL A   1      43.735  30.561  28.806  1.00  0.00     0.029 A 
ATOM     46  C   UNL A   1      44.594  29.501  28.318  1.00  0.00     0.049 A 
ATOM     47  H   UNL A   1      44.128  27.467  28.167  1.00  0.00     0.167 HD
ATOM     48  C   UNL A   1      43.004  23.506  27.054  1.00  0.00     0.031 A 
ATOM     49  C   UNL A   1      45.884  29.576  27.924  1.00  0.00     0.031 A 
ATOM     50  C   UNL A   1      43.578  23.275  28.354  1.00  0.00     0.049 A 
ATOM     51  C   UNL A   1      46.460  28.219  28.052  1.00  0.00     0.074 A 
ATOM     52  C   UNL A   1      43.074  23.016  29.612  1.00  0.00     0.029 A 
ATOM     53  N   UNL A   1      44.879  23.678  28.546  1.00  0.00    -0.354 N 
ATOM     54  N   UNL A   1      46.632  27.629  29.201  1.00  0.00    -0.248 NA
ATOM     55  C   UNL A   1      46.436  27.335  26.899  1.00  0.00     0.031 C 
ATOM     56  C   UNL A   1      43.909  23.763  30.495  1.00  0.00     0.029 A 
ATOM     57  C   UNL A   1      44.906  24.372  29.728  1.00  0.00     0.049 A 
ATOM     58  H   UNL A   1      45.642  23.503  27.951  1.00  0.00     0.167 HD
ATOM     59  C   UNL A   1      46.279  26.307  28.975  1.00  0.00     0.074 A 
ATOM     60  C   UNL A   1      46.298  26.159  27.521  1.00  0.00     0.031 C 
ATOM     61  C   UNL A   1      45.723  25.542  29.964  1.00  0.00     0.031 A 
BRANCH  48  62
ATOM     62  C   UNL A   1      43.577  22.833  25.833  1.00  0.00    -0.014 A 
ATOM     63  C   UNL A   1      43.670  21.427  25.811  1.00  0.00     0.009 A 
ATOM     64  C   UNL A   1      44.278  23.530  24.835  1.00  0.00     0.009 A 
ATOM     65  C   UNL A   1      44.479  20.760  24.884  1.00  0.00     0.001 A 
ATOM     66  C   UNL A   1      45.057  22.864  23.882  1.00  0.00     0.001 A 
ATOM     67  C   UNL A   1      45.180  21.481  23.924  1.00  0.00     0.000 A 
ENDBRANCH  48  62
BRANCH  49  68
ATOM     68  C   UNL A   1      46.579  30.721  27.309  1.00  0.00    -0.014 A 
ATOM     69  C   UNL A   1      45.865  31.791  26.756  1.00  0.00     0.009 A 
ATOM     70  C   UNL A   1      47.971  30.874  27.473  1.00  0.00     0.009 A 
ATOM     71  C   UNL A   1      46.515  32.983  26.412  1.00  0.00     0.001 A 
ATOM     72  C   UNL A   1      48.621  32.061  27.125  1.00  0.00     0.001 A 
ATOM     73  C   UNL A   1      47.888  33.123  26.608  1.00  0.00     0.000 A 
ENDBRANCH  49  68
BRANCH  61  74
ATOM     74  C   UNL A   1      45.692  26.103  31.367  1.00  0.00    -0.014 A 
ATOM     75  C   UNL A   1      44.653  26.928  31.833  1.00  0.00     0.009 A 
ATOM     76  C   UNL A   1      46.638  25.646  32.296  1.00  0.00     0.009 A 
ATOM     77  C   UNL A   1      44.581  27.310  33.177  1.00  0.00     0.001 A 
ATOM     78  C   UNL A   1      46.555  26.008  33.643  1.00  0.00     0.001 A 
ATOM     79  C   UNL A   1      45.531  26.845  34.082  1.00  0.00     0.000 A 
ENDBRANCH  61  74
ENDBRANCH  35  36
ENDBRANCH  27  30
ENDBRANCH  25  26
ENDBRANCH   1  25
TORSDOF 11
ENDMDL
