MODEL 1
REMARK VINA RESULT:     -11.9      0.000      0.000
REMARK SMILES O=C(NCCCNC(=O)c1sccc1S(=O)(=O)Nc1ccccc1N1CCCCC1)c1ccc(-c2c3nc(c(-c4ccccc4)c4ccc([nH]4)c(-c4ccccc4)c4nc(c(-c5ccccc5)c5ccc2[nH]5)C=C4)C=C3)cc1
REMARK SMILES IDX 6 1 5 2 4 3 3 4 1 5 2 6 31 8 32 9 78 10 33 11 77 12 34 13
REMARK SMILES IDX 35 14 36 15 71 16 37 17 76 18 70 19 72 20 38 21 75 22 69 23
REMARK SMILES IDX 68 24 39 26 61 27 46 28 60 29 47 30 50 31 59 32 73 33 48 34
REMARK SMILES IDX 49 35 58 37 74 38 51 39 40 40 41 41 45 42 42 43 44 44 43 45
REMARK SMILES IDX 62 46 63 47 67 48 64 49 66 50 65 51 52 52 53 53 57 54 54 55
REMARK SMILES IDX 56 56 55 57 7 58 8 59 9 61 10 62 11 63 14 64 12 65 13 66
REMARK SMILES IDX 15 67 16 68 17 69 18 70 19 72 20 73 24 74 21 75 23 76 22 77
REMARK SMILES IDX 25 78 26 79 30 80 27 81 29 82 28 83
REMARK H PARENT 3 7 72 25 50 36 7 60 18 71
REMARK Flexibility Score: inf
ROOT
ATOM      1  C   UNL A   1      36.359  21.893  25.231  1.00  0.00     0.118 C 
ENDROOT
BRANCH   1   2
ATOM      2  C   UNL A   1      37.404  20.860  24.870  1.00  0.00     0.042 C 
BRANCH   2   3
ATOM      3  C   UNL A   1      38.657  21.015  25.718  1.00  0.00     0.118 C 
BRANCH   3   4
ATOM      4  N   UNL A   1      39.554  19.864  25.638  1.00  0.00    -0.352 N 
ATOM      5  O   UNL A   1      41.503  18.727  25.808  1.00  0.00    -0.269 OA
ATOM      6  C   UNL A   1      40.877  19.756  26.003  1.00  0.00     0.251 C 
ATOM      7  H   UNL A   1      39.153  19.045  25.269  1.00  0.00     0.163 HD
BRANCH   6   8
ATOM      8  C   UNL A   1      41.531  20.942  26.576  1.00  0.00     0.039 A 
ATOM      9  C   UNL A   1      41.456  21.174  27.947  1.00  0.00     0.014 A 
ATOM     10  C   UNL A   1      42.076  21.892  25.711  1.00  0.00     0.014 A 
ATOM     11  C   UNL A   1      41.716  22.447  28.426  1.00  0.00     0.010 A 
ATOM     12  C   UNL A   1      42.459  23.132  26.220  1.00  0.00     0.010 A 
ATOM     13  C   UNL A   1      42.230  23.437  27.570  1.00  0.00    -0.014 A 
BRANCH  13  14
ATOM     14  C   UNL A   1      42.565  24.769  28.125  1.00  0.00     0.031 A 
ATOM     15  C   UNL A   1      41.508  25.809  28.366  1.00  0.00     0.074 A 
ATOM     16  C   UNL A   1      43.853  25.021  28.425  1.00  0.00     0.049 A 
ATOM     17  N   UNL A   1      41.650  27.036  28.800  1.00  0.00    -0.248 NA
ATOM     18  C   UNL A   1      40.115  25.434  28.071  1.00  0.00     0.031 C 
ATOM     19  C   UNL A   1      44.963  24.082  28.231  1.00  0.00     0.029 A 
ATOM     20  N   UNL A   1      44.446  26.128  28.968  1.00  0.00    -0.354 N 
ATOM     21  C   UNL A   1      40.377  27.592  28.792  1.00  0.00     0.074 A 
ATOM     22  C   UNL A   1      39.474  26.573  28.303  1.00  0.00     0.031 C 
ATOM     23  C   UNL A   1      46.091  24.634  28.690  1.00  0.00     0.029 A 
ATOM     24  C   UNL A   1      45.802  25.993  29.126  1.00  0.00     0.049 A 
ATOM     25  H   UNL A   1      43.950  26.941  29.217  1.00  0.00     0.167 HD
ATOM     26  C   UNL A   1      40.002  28.843  29.153  1.00  0.00     0.031 A 
ATOM     27  C   UNL A   1      46.727  26.875  29.540  1.00  0.00     0.031 A 
ATOM     28  C   UNL A   1      40.909  29.845  29.651  1.00  0.00     0.049 A 
ATOM     29  C   UNL A   1      46.290  28.254  29.919  1.00  0.00     0.074 A 
ATOM     30  C   UNL A   1      40.625  31.127  30.088  1.00  0.00     0.029 A 
ATOM     31  N   UNL A   1      42.281  29.675  29.775  1.00  0.00    -0.354 N 
ATOM     32  N   UNL A   1      45.079  28.759  29.921  1.00  0.00    -0.248 NA
ATOM     33  C   UNL A   1      47.340  29.185  30.344  1.00  0.00     0.031 C 
ATOM     34  C   UNL A   1      41.831  31.751  30.429  1.00  0.00     0.029 A 
ATOM     35  C   UNL A   1      42.861  30.839  30.254  1.00  0.00     0.049 A 
ATOM     36  H   UNL A   1      42.770  28.849  29.556  1.00  0.00     0.167 HD
ATOM     37  C   UNL A   1      45.220  30.070  30.349  1.00  0.00     0.074 A 
ATOM     38  C   UNL A   1      46.631  30.271  30.621  1.00  0.00     0.031 C 
ATOM     39  C   UNL A   1      44.268  31.022  30.500  1.00  0.00     0.031 A 
BRANCH  26  40
ATOM     40  C   UNL A   1      38.555  29.215  28.981  1.00  0.00    -0.014 A 
ATOM     41  C   UNL A   1      37.636  29.117  30.039  1.00  0.00     0.009 A 
ATOM     42  C   UNL A   1      38.110  29.709  27.744  1.00  0.00     0.009 A 
ATOM     43  C   UNL A   1      36.298  29.473  29.849  1.00  0.00     0.001 A 
ATOM     44  C   UNL A   1      36.778  30.087  27.565  1.00  0.00     0.001 A 
ATOM     45  C   UNL A   1      35.870  29.960  28.615  1.00  0.00     0.000 A 
ENDBRANCH  26  40
BRANCH  27  46
ATOM     46  C   UNL A   1      48.152  26.465  29.563  1.00  0.00    -0.014 A 
ATOM     47  C   UNL A   1      48.992  26.734  28.475  1.00  0.00     0.009 A 
ATOM     48  C   UNL A   1      48.697  25.876  30.718  1.00  0.00     0.009 A 
ATOM     49  C   UNL A   1      50.351  26.419  28.541  1.00  0.00     0.001 A 
ATOM     50  C   UNL A   1      50.059  25.589  30.790  1.00  0.00     0.001 A 
ATOM     51  C   UNL A   1      50.885  25.857  29.700  1.00  0.00     0.000 A 
ENDBRANCH  27  46
BRANCH  39  52
ATOM     52  C   UNL A   1      44.728  32.361  30.992  1.00  0.00    -0.014 A 
ATOM     53  C   UNL A   1      45.088  33.375  30.092  1.00  0.00     0.009 A 
ATOM     54  C   UNL A   1      44.776  32.617  32.370  1.00  0.00     0.009 A 
ATOM     55  C   UNL A   1      45.516  34.617  30.566  1.00  0.00     0.001 A 
ATOM     56  C   UNL A   1      45.182  33.867  32.841  1.00  0.00     0.001 A 
ATOM     57  C   UNL A   1      45.558  34.862  31.940  1.00  0.00     0.000 A 
ENDBRANCH  39  52
ENDBRANCH  13  14
ENDBRANCH   6   8
ENDBRANCH   3   4
ENDBRANCH   2   3
ENDBRANCH   1   2
BRANCH   1  58
ATOM     58  N   UNL A   1      35.590  21.512  26.391  1.00  0.00    -0.351 N 
ATOM     59  C   UNL A   1      34.237  21.532  26.573  1.00  0.00     0.262 C 
ATOM     60  H   UNL A   1      36.114  21.193  27.160  1.00  0.00     0.163 HD
ATOM     61  O   UNL A   1      33.838  21.282  27.711  1.00  0.00    -0.268 OA
BRANCH  59  62
ATOM     62  C   UNL A   1      33.363  21.941  25.498  1.00  0.00     0.112 A 
ATOM     63  S   UNL A   1      33.211  20.756  24.240  1.00  0.00    -0.137 S 
ATOM     64  C   UNL A   1      32.640  23.085  25.198  1.00  0.00     0.111 A 
ATOM     65  C   UNL A   1      32.144  21.720  23.342  1.00  0.00     0.067 A 
ATOM     66  C   UNL A   1      31.914  22.924  23.960  1.00  0.00     0.035 A 
BRANCH  64  67
ATOM     67  S   UNL A   1      32.421  24.558  26.094  1.00  0.00     0.263 S 
ATOM     68  O   UNL A   1      31.764  24.124  27.312  1.00  0.00    -0.201 OA
ATOM     69  O   UNL A   1      33.783  25.047  26.214  1.00  0.00    -0.201 OA
BRANCH  67  70
ATOM     70  N   UNL A   1      31.536  25.850  25.521  1.00  0.00    -0.277 N 
ATOM     71  H   UNL A   1      30.756  25.642  24.956  1.00  0.00     0.180 HD
BRANCH  70  72
ATOM     72  C   UNL A   1      31.804  27.224  25.773  1.00  0.00     0.072 A 
ATOM     73  C   UNL A   1      31.505  27.691  27.064  1.00  0.00     0.029 A 
ATOM     74  C   UNL A   1      32.290  28.105  24.784  1.00  0.00     0.061 A 
ATOM     75  C   UNL A   1      31.779  29.006  27.428  1.00  0.00     0.002 A 
ATOM     76  C   UNL A   1      32.572  29.423  25.185  1.00  0.00     0.028 A 
ATOM     77  C   UNL A   1      32.333  29.868  26.491  1.00  0.00     0.002 A 
BRANCH  74  78
ATOM     78  N   UNL A   1      32.440  27.731  23.459  1.00  0.00    -0.370 N 
ATOM     79  C   UNL A   1      31.293  27.591  22.565  1.00  0.00     0.116 C 
ATOM     80  C   UNL A   1      33.749  27.262  22.995  1.00  0.00     0.116 C 
ATOM     81  C   UNL A   1      31.209  26.182  21.988  1.00  0.00     0.021 C 
ATOM     82  C   UNL A   1      33.641  25.842  22.446  1.00  0.00     0.021 C 
ATOM     83  C   UNL A   1      32.545  25.755  21.388  1.00  0.00     0.004 C 
ENDBRANCH  74  78
ENDBRANCH  70  72
ENDBRANCH  67  70
ENDBRANCH  64  67
ENDBRANCH  59  62
ENDBRANCH   1  58
TORSDOF 14
ENDMDL
MODEL 2
REMARK VINA RESULT:     -11.8      0.374      5.855
REMARK SMILES O=C(NCCCNC(=O)c1sccc1S(=O)(=O)Nc1ccccc1N1CCCCC1)c1ccc(-c2c3nc(c(-c4ccccc4)c4ccc([nH]4)c(-c4ccccc4)c4nc(c(-c5ccccc5)c5ccc2[nH]5)C=C4)C=C3)cc1
REMARK SMILES IDX 6 1 5 2 4 3 3 4 1 5 2 6 31 8 32 9 78 10 33 11 77 12 34 13
REMARK SMILES IDX 35 14 36 15 71 16 37 17 76 18 70 19 72 20 38 21 75 22 69 23
REMARK SMILES IDX 68 24 39 26 61 27 46 28 60 29 47 30 50 31 59 32 73 33 48 34
REMARK SMILES IDX 49 35 58 37 74 38 51 39 40 40 41 41 45 42 42 43 44 44 43 45
REMARK SMILES IDX 62 46 63 47 67 48 64 49 66 50 65 51 52 52 53 53 57 54 54 55
REMARK SMILES IDX 56 56 55 57 7 58 8 59 9 61 10 62 11 63 14 64 12 65 13 66
REMARK SMILES IDX 15 67 16 68 17 69 18 70 19 72 20 73 24 74 21 75 23 76 22 77
REMARK SMILES IDX 25 78 26 79 30 80 27 81 29 82 28 83
REMARK H PARENT 3 7 72 25 50 36 7 60 18 71
REMARK Flexibility Score: inf
ROOT
ATOM      1  C   UNL A   1      36.276  21.988  25.316  1.00  0.00     0.118 C 
ENDROOT
BRANCH   1   2
ATOM      2  C   UNL A   1      37.319  20.969  24.914  1.00  0.00     0.042 C 
BRANCH   2   3
ATOM      3  C   UNL A   1      38.598  21.132  25.723  1.00  0.00     0.118 C 
BRANCH   3   4
ATOM      4  N   UNL A   1      39.485  19.975  25.640  1.00  0.00    -0.352 N 
ATOM      5  O   UNL A   1      41.426  18.822  25.802  1.00  0.00    -0.269 OA
ATOM      6  C   UNL A   1      40.808  19.855  26.000  1.00  0.00     0.251 C 
ATOM      7  H   UNL A   1      39.076  19.159  25.271  1.00  0.00     0.163 HD
BRANCH   6   8
ATOM      8  C   UNL A   1      41.474  21.037  26.570  1.00  0.00     0.039 A 
ATOM      9  C   UNL A   1      41.421  21.259  27.945  1.00  0.00     0.014 A 
ATOM     10  C   UNL A   1      42.006  21.992  25.704  1.00  0.00     0.014 A 
ATOM     11  C   UNL A   1      41.691  22.528  28.428  1.00  0.00     0.010 A 
ATOM     12  C   UNL A   1      42.400  23.228  26.215  1.00  0.00     0.010 A 
ATOM     13  C   UNL A   1      42.193  23.523  27.572  1.00  0.00    -0.014 A 
BRANCH  13  14
ATOM     14  C   UNL A   1      42.539  24.850  28.131  1.00  0.00     0.031 A 
ATOM     15  C   UNL A   1      43.944  25.189  28.539  1.00  0.00     0.074 A 
ATOM     16  C   UNL A   1      41.554  25.760  28.253  1.00  0.00     0.049 A 
ATOM     17  N   UNL A   1      44.396  26.288  29.089  1.00  0.00    -0.248 NA
ATOM     18  C   UNL A   1      44.976  24.163  28.316  1.00  0.00     0.031 C 
ATOM     19  C   UNL A   1      40.151  25.536  27.888  1.00  0.00     0.029 A 
ATOM     20  N   UNL A   1      41.579  27.052  28.701  1.00  0.00    -0.354 N 
ATOM     21  C   UNL A   1      45.749  26.073  29.315  1.00  0.00     0.074 A 
ATOM     22  C   UNL A   1      46.048  24.735  28.851  1.00  0.00     0.031 C 
ATOM     23  C   UNL A   1      39.461  26.666  28.082  1.00  0.00     0.029 A 
ATOM     24  C   UNL A   1      40.349  27.661  28.666  1.00  0.00     0.049 A 
ATOM     25  H   UNL A   1      42.396  27.500  29.017  1.00  0.00     0.167 HD
ATOM     26  C   UNL A   1      46.655  26.915  29.868  1.00  0.00     0.031 A 
ATOM     27  C   UNL A   1      39.961  28.874  29.093  1.00  0.00     0.031 A 
ATOM     28  C   UNL A   1      46.348  28.250  30.315  1.00  0.00     0.049 A 
ATOM     29  C   UNL A   1      40.977  29.779  29.714  1.00  0.00     0.074 A 
ATOM     30  C   UNL A   1      47.202  29.201  30.847  1.00  0.00     0.029 A 
ATOM     31  N   UNL A   1      45.084  28.821  30.284  1.00  0.00    -0.354 N 
ATOM     32  N   UNL A   1      42.257  29.566  29.905  1.00  0.00    -0.248 NA
ATOM     33  C   UNL A   1      40.499  31.083  30.182  1.00  0.00     0.031 C 
ATOM     34  C   UNL A   1      46.445  30.328  31.184  1.00  0.00     0.029 A 
ATOM     35  C   UNL A   1      45.129  30.100  30.814  1.00  0.00     0.049 A 
ATOM     36  H   UNL A   1      44.274  28.382  29.935  1.00  0.00     0.167 HD
ATOM     37  C   UNL A   1      42.740  30.712  30.517  1.00  0.00     0.074 A 
ATOM     38  C   UNL A   1      41.620  31.625  30.640  1.00  0.00     0.031 C 
ATOM     39  C   UNL A   1      43.998  30.982  30.942  1.00  0.00     0.031 A 
BRANCH  26  40
ATOM     40  C   UNL A   1      48.056  26.404  30.063  1.00  0.00    -0.014 A 
ATOM     41  C   UNL A   1      49.039  26.543  29.069  1.00  0.00     0.009 A 
ATOM     42  C   UNL A   1      48.409  25.802  31.282  1.00  0.00     0.009 A 
ATOM     43  C   UNL A   1      50.333  26.060  29.280  1.00  0.00     0.001 A 
ATOM     44  C   UNL A   1      49.710  25.342  31.499  1.00  0.00     0.001 A 
ATOM     45  C   UNL A   1      50.669  25.463  30.495  1.00  0.00     0.000 A 
ENDBRANCH  26  40
BRANCH  27  46
ATOM     46  C   UNL A   1      38.532  29.254  28.976  1.00  0.00    -0.014 A 
ATOM     47  C   UNL A   1      37.674  29.159  30.079  1.00  0.00     0.009 A 
ATOM     48  C   UNL A   1      38.044  29.797  27.775  1.00  0.00     0.009 A 
ATOM     49  C   UNL A   1      36.352  29.598  29.980  1.00  0.00     0.001 A 
ATOM     50  C   UNL A   1      36.732  30.260  27.689  1.00  0.00     0.001 A 
ATOM     51  C   UNL A   1      35.885  30.157  28.791  1.00  0.00     0.000 A 
ENDBRANCH  27  46
BRANCH  39  52
ATOM     52  C   UNL A   1      44.222  32.326  31.568  1.00  0.00    -0.014 A 
ATOM     53  C   UNL A   1      44.101  32.506  32.954  1.00  0.00     0.009 A 
ATOM     54  C   UNL A   1      44.582  33.417  30.764  1.00  0.00     0.009 A 
ATOM     55  C   UNL A   1      44.312  33.763  33.522  1.00  0.00     0.001 A 
ATOM     56  C   UNL A   1      44.815  34.668  31.337  1.00  0.00     0.001 A 
ATOM     57  C   UNL A   1      44.672  34.842  32.713  1.00  0.00     0.000 A 
ENDBRANCH  39  52
ENDBRANCH  13  14
ENDBRANCH   6   8
ENDBRANCH   3   4
ENDBRANCH   2   3
ENDBRANCH   1   2
BRANCH   1  58
ATOM     58  N   UNL A   1      35.474  21.542  26.430  1.00  0.00    -0.351 N 
ATOM     59  C   UNL A   1      34.115  21.521  26.561  1.00  0.00     0.262 C 
ATOM     60  H   UNL A   1      35.978  21.205  27.206  1.00  0.00     0.163 HD
ATOM     61  O   UNL A   1      33.681  21.216  27.674  1.00  0.00    -0.268 OA
BRANCH  59  62
ATOM     62  C   UNL A   1      33.272  21.951  25.471  1.00  0.00     0.112 A 
ATOM     63  S   UNL A   1      33.125  20.775  24.204  1.00  0.00    -0.137 S 
ATOM     64  C   UNL A   1      32.574  23.109  25.163  1.00  0.00     0.111 A 
ATOM     65  C   UNL A   1      32.094  21.763  23.290  1.00  0.00     0.067 A 
ATOM     66  C   UNL A   1      31.872  22.968  23.909  1.00  0.00     0.035 A 
BRANCH  64  67
ATOM     67  S   UNL A   1      32.363  24.581  26.062  1.00  0.00     0.263 S 
ATOM     68  O   UNL A   1      31.698  24.148  27.276  1.00  0.00    -0.201 OA
ATOM     69  O   UNL A   1      33.728  25.060  26.189  1.00  0.00    -0.201 OA
BRANCH  67  70
ATOM     70  N   UNL A   1      31.489  25.881  25.490  1.00  0.00    -0.277 N 
ATOM     71  H   UNL A   1      30.712  25.680  24.918  1.00  0.00     0.180 HD
BRANCH  70  72
ATOM     72  C   UNL A   1      31.764  27.252  25.751  1.00  0.00     0.072 A 
ATOM     73  C   UNL A   1      31.455  27.715  27.041  1.00  0.00     0.029 A 
ATOM     74  C   UNL A   1      32.264  28.135  24.771  1.00  0.00     0.061 A 
ATOM     75  C   UNL A   1      31.733  29.027  27.414  1.00  0.00     0.002 A 
ATOM     76  C   UNL A   1      32.550  29.450  25.181  1.00  0.00     0.028 A 
ATOM     77  C   UNL A   1      32.302  29.890  26.487  1.00  0.00     0.002 A 
BRANCH  74  78
ATOM     78  N   UNL A   1      32.425  27.766  23.446  1.00  0.00    -0.370 N 
ATOM     79  C   UNL A   1      31.287  27.659  22.534  1.00  0.00     0.116 C 
ATOM     80  C   UNL A   1      33.728  27.269  22.997  1.00  0.00     0.116 C 
ATOM     81  C   UNL A   1      31.179  26.257  21.946  1.00  0.00     0.021 C 
ATOM     82  C   UNL A   1      33.595  25.856  22.437  1.00  0.00     0.021 C 
ATOM     83  C   UNL A   1      32.513  25.802  21.363  1.00  0.00     0.004 C 
ENDBRANCH  74  78
ENDBRANCH  70  72
ENDBRANCH  67  70
ENDBRANCH  64  67
ENDBRANCH  59  62
ENDBRANCH   1  58
TORSDOF 14
ENDMDL
MODEL 3
REMARK VINA RESULT:     -11.6      1.950      7.508
REMARK SMILES O=C(NCCCNC(=O)c1sccc1S(=O)(=O)Nc1ccccc1N1CCCCC1)c1ccc(-c2c3nc(c(-c4ccccc4)c4ccc([nH]4)c(-c4ccccc4)c4nc(c(-c5ccccc5)c5ccc2[nH]5)C=C4)C=C3)cc1
REMARK SMILES IDX 6 1 5 2 4 3 3 4 1 5 2 6 31 8 32 9 78 10 33 11 77 12 34 13
REMARK SMILES IDX 35 14 36 15 71 16 37 17 76 18 70 19 72 20 38 21 75 22 69 23
REMARK SMILES IDX 68 24 39 26 61 27 46 28 60 29 47 30 50 31 59 32 73 33 48 34
REMARK SMILES IDX 49 35 58 37 74 38 51 39 40 40 41 41 45 42 42 43 44 44 43 45
REMARK SMILES IDX 62 46 63 47 67 48 64 49 66 50 65 51 52 52 53 53 57 54 54 55
REMARK SMILES IDX 56 56 55 57 7 58 8 59 9 61 10 62 11 63 14 64 12 65 13 66
REMARK SMILES IDX 15 67 16 68 17 69 18 70 19 72 20 73 24 74 21 75 23 76 22 77
REMARK SMILES IDX 25 78 26 79 30 80 27 81 29 82 28 83
REMARK H PARENT 3 7 72 25 50 36 7 60 18 71
REMARK Flexibility Score: inf
ROOT
ATOM      1  C   UNL A   1      31.771  29.675  25.793  1.00  0.00     0.118 C 
ENDROOT
BRANCH   1   2
ATOM      2  C   UNL A   1      32.342  28.696  26.794  1.00  0.00     0.042 C 
BRANCH   2   3
ATOM      3  C   UNL A   1      33.751  29.088  27.216  1.00  0.00     0.118 C 
BRANCH   3   4
ATOM      4  N   UNL A   1      33.811  30.378  27.899  1.00  0.00    -0.352 N 
ATOM      5  O   UNL A   1      34.711  32.027  29.160  1.00  0.00    -0.269 OA
ATOM      6  C   UNL A   1      34.851  30.959  28.588  1.00  0.00     0.251 C 
ATOM      7  H   UNL A   1      32.984  30.911  27.862  1.00  0.00     0.163 HD
BRANCH   6   8
ATOM      8  C   UNL A   1      36.120  30.218  28.668  1.00  0.00     0.039 A 
ATOM      9  C   UNL A   1      36.476  29.590  29.859  1.00  0.00     0.014 A 
ATOM     10  C   UNL A   1      37.012  30.295  27.597  1.00  0.00     0.014 A 
ATOM     11  C   UNL A   1      37.800  29.242  30.062  1.00  0.00     0.010 A 
ATOM     12  C   UNL A   1      38.313  29.823  27.763  1.00  0.00     0.010 A 
ATOM     13  C   UNL A   1      38.731  29.344  29.014  1.00  0.00    -0.014 A 
BRANCH  13  14
ATOM     14  C   UNL A   1      40.125  28.898  29.239  1.00  0.00     0.031 A 
ATOM     15  C   UNL A   1      41.137  29.785  29.907  1.00  0.00     0.074 A 
ATOM     16  C   UNL A   1      40.462  27.657  28.838  1.00  0.00     0.049 A 
ATOM     17  N   UNL A   1      42.406  29.556  30.132  1.00  0.00    -0.248 NA
ATOM     18  C   UNL A   1      40.673  31.102  30.373  1.00  0.00     0.031 C 
ATOM     19  C   UNL A   1      39.558  26.711  28.177  1.00  0.00     0.029 A 
ATOM     20  N   UNL A   1      41.643  26.974  28.938  1.00  0.00    -0.354 N 
ATOM     21  C   UNL A   1      42.903  30.709  30.724  1.00  0.00     0.074 A 
ATOM     22  C   UNL A   1      41.801  31.643  30.820  1.00  0.00     0.031 C 
ATOM     23  C   UNL A   1      40.203  25.556  27.974  1.00  0.00     0.029 A 
ATOM     24  C   UNL A   1      41.584  25.710  28.406  1.00  0.00     0.049 A 
ATOM     25  H   UNL A   1      42.455  27.352  29.349  1.00  0.00     0.167 HD
ATOM     26  C   UNL A   1      44.166  30.966  31.143  1.00  0.00     0.031 A 
ATOM     27  C   UNL A   1      42.543  24.783  28.245  1.00  0.00     0.031 A 
ATOM     28  C   UNL A   1      45.251  30.023  31.054  1.00  0.00     0.049 A 
ATOM     29  C   UNL A   1      43.933  25.096  28.700  1.00  0.00     0.074 A 
ATOM     30  C   UNL A   1      46.557  30.166  31.490  1.00  0.00     0.029 A 
ATOM     31  N   UNL A   1      45.155  28.760  30.487  1.00  0.00    -0.354 N 
ATOM     32  N   UNL A   1      44.381  26.187  29.274  1.00  0.00    -0.248 NA
ATOM     33  C   UNL A   1      44.946  24.060  28.483  1.00  0.00     0.031 C 
ATOM     34  C   UNL A   1      47.264  29.009  31.141  1.00  0.00     0.029 A 
ATOM     35  C   UNL A   1      46.385  28.125  30.535  1.00  0.00     0.049 A 
ATOM     36  H   UNL A   1      44.334  28.372  30.107  1.00  0.00     0.167 HD
ATOM     37  C   UNL A   1      45.734  25.969  29.488  1.00  0.00     0.074 A 
ATOM     38  C   UNL A   1      46.023  24.632  29.005  1.00  0.00     0.031 C 
ATOM     39  C   UNL A   1      46.653  26.802  30.032  1.00  0.00     0.031 A 
BRANCH  26  40
ATOM     40  C   UNL A   1      44.455  32.335  31.693  1.00  0.00    -0.014 A 
ATOM     41  C   UNL A   1      44.801  33.409  30.858  1.00  0.00     0.009 A 
ATOM     42  C   UNL A   1      44.341  32.563  33.074  1.00  0.00     0.009 A 
ATOM     43  C   UNL A   1      45.062  34.671  31.399  1.00  0.00     0.001 A 
ATOM     44  C   UNL A   1      44.578  33.831  33.609  1.00  0.00     0.001 A 
ATOM     45  C   UNL A   1      44.947  34.883  32.772  1.00  0.00     0.000 A 
ENDBRANCH  26  40
BRANCH  27  46
ATOM     46  C   UNL A   1      42.201  23.503  27.579  1.00  0.00    -0.014 A 
ATOM     47  C   UNL A   1      42.502  23.297  26.227  1.00  0.00     0.009 A 
ATOM     48  C   UNL A   1      41.645  22.449  28.324  1.00  0.00     0.009 A 
ATOM     49  C   UNL A   1      42.251  22.058  25.632  1.00  0.00     0.001 A 
ATOM     50  C   UNL A   1      41.422  21.205  27.734  1.00  0.00     0.001 A 
ATOM     51  C   UNL A   1      41.722  21.012  26.387  1.00  0.00     0.000 A 
ENDBRANCH  27  46
BRANCH  39  52
ATOM     52  C   UNL A   1      48.054  26.279  30.140  1.00  0.00    -0.014 A 
ATOM     53  C   UNL A   1      48.949  26.386  29.065  1.00  0.00     0.009 A 
ATOM     54  C   UNL A   1      48.489  25.697  31.340  1.00  0.00     0.009 A 
ATOM     55  C   UNL A   1      50.250  25.892  29.181  1.00  0.00     0.001 A 
ATOM     56  C   UNL A   1      49.797  25.226  31.461  1.00  0.00     0.001 A 
ATOM     57  C   UNL A   1      50.673  25.317  30.380  1.00  0.00     0.000 A 
ENDBRANCH  39  52
ENDBRANCH  13  14
ENDBRANCH   6   8
ENDBRANCH   3   4
ENDBRANCH   2   3
ENDBRANCH   1   2
BRANCH   1  58
ATOM     58  N   UNL A   1      32.553  29.741  24.583  1.00  0.00    -0.351 N 
ATOM     59  C   UNL A   1      32.574  28.883  23.521  1.00  0.00     0.262 C 
ATOM     60  H   UNL A   1      33.158  30.515  24.512  1.00  0.00     0.163 HD
ATOM     61  O   UNL A   1      33.437  29.096  22.667  1.00  0.00    -0.268 OA
BRANCH  59  62
ATOM     62  C   UNL A   1      31.697  27.736  23.495  1.00  0.00     0.112 A 
ATOM     63  S   UNL A   1      30.013  28.152  23.476  1.00  0.00    -0.137 S 
ATOM     64  C   UNL A   1      31.873  26.361  23.526  1.00  0.00     0.111 A 
ATOM     65  C   UNL A   1      29.524  26.529  23.440  1.00  0.00     0.067 A 
ATOM     66  C   UNL A   1      30.602  25.679  23.460  1.00  0.00     0.035 A 
BRANCH  64  67
ATOM     67  S   UNL A   1      33.322  25.401  23.536  1.00  0.00     0.263 S 
ATOM     68  O   UNL A   1      33.766  25.437  22.156  1.00  0.00    -0.201 OA
ATOM     69  O   UNL A   1      34.140  26.094  24.514  1.00  0.00    -0.201 OA
BRANCH  67  70
ATOM     70  N   UNL A   1      33.348  23.797  23.992  1.00  0.00    -0.277 N 
ATOM     71  H   UNL A   1      33.380  23.128  23.271  1.00  0.00     0.180 HD
BRANCH  70  72
ATOM     72  C   UNL A   1      33.328  23.309  25.329  1.00  0.00     0.072 A 
ATOM     73  C   UNL A   1      32.131  23.495  26.042  1.00  0.00     0.029 A 
ATOM     74  C   UNL A   1      34.449  22.718  25.947  1.00  0.00     0.061 A 
ATOM     75  C   UNL A   1      31.991  23.007  27.338  1.00  0.00     0.002 A 
ATOM     76  C   UNL A   1      34.273  22.222  27.252  1.00  0.00     0.028 A 
ATOM     77  C   UNL A   1      33.058  22.351  27.936  1.00  0.00     0.002 A 
BRANCH  74  78
ATOM     78  N   UNL A   1      35.695  22.667  25.343  1.00  0.00    -0.370 N 
ATOM     79  C   UNL A   1      36.173  21.462  24.669  1.00  0.00     0.116 C 
ATOM     80  C   UNL A   1      36.638  23.767  25.560  1.00  0.00     0.116 C 
ATOM     81  C   UNL A   1      37.478  20.965  25.282  1.00  0.00     0.021 C 
ATOM     82  C   UNL A   1      37.924  23.247  26.197  1.00  0.00     0.021 C 
ATOM     83  C   UNL A   1      38.500  22.093  25.383  1.00  0.00     0.004 C 
ENDBRANCH  74  78
ENDBRANCH  70  72
ENDBRANCH  67  70
ENDBRANCH  64  67
ENDBRANCH  59  62
ENDBRANCH   1  58
TORSDOF 14
ENDMDL
