MODEL 1
REMARK VINA RESULT:     -11.7      0.000      0.000
REMARK SMILES O=C(NCCCNC(=O)[C@@H]1C=C[C@@H]([NH+]2CC3(CCOCC3)C2)C1)c1ccc(-c2c3nc(c(-c4ccccc4)c4ccc([nH]4)c(-c4ccccc4)c4nc(c(-c5ccccc5)c5ccc2[nH]5)C=C4)C=C3)cc1
REMARK SMILES IDX 4 1 3 2 1 3 2 4 24 6 25 7 71 8 26 9 70 10 27 11 28 12 29 13
REMARK SMILES IDX 64 14 30 15 69 16 63 17 65 18 31 19 68 20 62 21 61 22 32 24
REMARK SMILES IDX 54 25 39 26 53 27 40 28 43 29 52 30 66 31 41 32 42 33 51 35
REMARK SMILES IDX 67 36 44 37 33 38 34 39 38 40 35 41 37 42 36 43 55 44 56 45
REMARK SMILES IDX 60 46 57 47 59 48 58 49 45 50 46 51 50 52 47 53 49 54 48 55
REMARK SMILES IDX 5 56 6 57 7 58 8 59 9 61 10 62 11 63 23 64 12 65 13 66 14 67
REMARK SMILES IDX 15 68 22 69 16 71 17 72 21 73 18 74 20 75 19 76
REMARK H PARENT 3 5 65 23 43 34 7 60 14 70
REMARK Flexibility Score: inf
ROOT
ATOM      1  C   UNL A   1      36.988  23.575  25.004  1.00  0.00     0.118 C 
ENDROOT
BRANCH   1   2
ATOM      2  N   UNL A   1      37.922  22.569  25.491  1.00  0.00    -0.352 N 
ATOM      3  O   UNL A   1      39.806  21.775  26.441  1.00  0.00    -0.269 OA
ATOM      4  C   UNL A   1      39.066  22.729  26.238  1.00  0.00     0.251 C 
ATOM      5  H   UNL A   1      37.704  21.640  25.249  1.00  0.00     0.163 HD
BRANCH   4   6
ATOM      6  C   UNL A   1      39.410  24.064  26.779  1.00  0.00     0.039 A 
ATOM      7  C   UNL A   1      39.074  24.407  28.090  1.00  0.00     0.014 A 
ATOM      8  C   UNL A   1      40.094  24.976  25.971  1.00  0.00     0.014 A 
ATOM      9  C   UNL A   1      39.279  25.704  28.542  1.00  0.00     0.010 A 
ATOM     10  C   UNL A   1      40.404  26.246  26.467  1.00  0.00     0.010 A 
ATOM     11  C   UNL A   1      39.984  26.624  27.751  1.00  0.00    -0.014 A 
BRANCH  11  12
ATOM     12  C   UNL A   1      40.392  27.915  28.356  1.00  0.00     0.031 A 
ATOM     13  C   UNL A   1      39.407  29.019  28.604  1.00  0.00     0.074 A 
ATOM     14  C   UNL A   1      41.689  28.069  28.690  1.00  0.00     0.049 A 
ATOM     15  N   UNL A   1      39.619  30.200  29.128  1.00  0.00    -0.248 NA
ATOM     16  C   UNL A   1      38.008  28.780  28.214  1.00  0.00     0.031 C 
ATOM     17  C   UNL A   1      42.739  27.064  28.484  1.00  0.00     0.029 A 
ATOM     18  N   UNL A   1      42.348  29.114  29.283  1.00  0.00    -0.354 N 
ATOM     19  C   UNL A   1      38.393  30.852  29.113  1.00  0.00     0.074 A 
ATOM     20  C   UNL A   1      37.439  29.941  28.516  1.00  0.00     0.031 C 
ATOM     21  C   UNL A   1      43.895  27.525  28.979  1.00  0.00     0.029 A 
ATOM     22  C   UNL A   1      43.691  28.883  29.461  1.00  0.00     0.049 A 
ATOM     23  H   UNL A   1      41.902  29.949  29.554  1.00  0.00     0.167 HD
ATOM     24  C   UNL A   1      38.098  32.097  29.556  1.00  0.00     0.031 A 
ATOM     25  C   UNL A   1      44.663  29.686  29.927  1.00  0.00     0.031 A 
ATOM     26  C   UNL A   1      39.053  32.995  30.152  1.00  0.00     0.049 A 
ATOM     27  C   UNL A   1      44.304  31.076  30.361  1.00  0.00     0.074 A 
ATOM     28  C   UNL A   1      38.833  34.254  30.684  1.00  0.00     0.029 A 
ATOM     29  N   UNL A   1      40.410  32.740  30.279  1.00  0.00    -0.354 N 
ATOM     30  N   UNL A   1      43.127  31.648  30.407  1.00  0.00    -0.248 NA
ATOM     31  C   UNL A   1      45.412  31.935  30.803  1.00  0.00     0.031 C 
ATOM     32  C   UNL A   1      40.067  34.789  31.068  1.00  0.00     0.029 A 
ATOM     33  C   UNL A   1      41.046  33.838  30.836  1.00  0.00     0.049 A 
ATOM     34  H   UNL A   1      40.855  31.903  30.013  1.00  0.00     0.167 HD
ATOM     35  C   UNL A   1      43.349  32.928  30.893  1.00  0.00     0.074 A 
ATOM     36  C   UNL A   1      44.768  33.035  31.160  1.00  0.00     0.031 C 
ATOM     37  C   UNL A   1      42.459  33.930  31.089  1.00  0.00     0.031 A 
BRANCH  24  38
ATOM     38  C   UNL A   1      36.688  32.596  29.394  1.00  0.00    -0.014 A 
ATOM     39  C   UNL A   1      35.761  32.526  30.445  1.00  0.00     0.009 A 
ATOM     40  C   UNL A   1      36.319  33.247  28.205  1.00  0.00     0.009 A 
ATOM     41  C   UNL A   1      34.489  33.089  30.303  1.00  0.00     0.001 A 
ATOM     42  C   UNL A   1      35.057  33.829  28.075  1.00  0.00     0.001 A 
ATOM     43  C   UNL A   1      34.142  33.747  29.122  1.00  0.00     0.000 A 
ENDBRANCH  24  38
BRANCH  25  44
ATOM     44  C   UNL A   1      46.074  29.220  29.946  1.00  0.00    -0.014 A 
ATOM     45  C   UNL A   1      46.890  29.341  28.812  1.00  0.00     0.009 A 
ATOM     46  C   UNL A   1      46.604  28.621  31.101  1.00  0.00     0.009 A 
ATOM     47  C   UNL A   1      48.192  28.837  28.822  1.00  0.00     0.001 A 
ATOM     48  C   UNL A   1      47.918  28.154  31.121  1.00  0.00     0.001 A 
ATOM     49  C   UNL A   1      48.706  28.248  29.976  1.00  0.00     0.000 A 
ENDBRANCH  25  44
BRANCH  37  50
ATOM     50  C   UNL A   1      43.000  35.222  31.633  1.00  0.00    -0.014 A 
ATOM     51  C   UNL A   1      43.024  35.471  33.014  1.00  0.00     0.009 A 
ATOM     52  C   UNL A   1      43.512  36.189  30.756  1.00  0.00     0.009 A 
ATOM     53  C   UNL A   1      43.521  36.681  33.504  1.00  0.00     0.001 A 
ATOM     54  C   UNL A   1      44.039  37.383  31.250  1.00  0.00     0.001 A 
ATOM     55  C   UNL A   1      44.033  37.632  32.622  1.00  0.00     0.000 A 
ENDBRANCH  37  50
ENDBRANCH  11  12
ENDBRANCH   4   6
ENDBRANCH   1   2
BRANCH   1  56
ATOM     56  C   UNL A   1      35.750  23.701  25.863  1.00  0.00     0.042 C 
BRANCH  56  57
ATOM     57  C   UNL A   1      34.626  24.474  25.204  1.00  0.00     0.117 C 
BRANCH  57  58
ATOM     58  N   UNL A   1      33.585  24.916  26.128  1.00  0.00    -0.356 N 
ATOM     59  C   UNL A   1      32.574  25.835  25.945  1.00  0.00     0.227 C 
ATOM     60  H   UNL A   1      33.610  24.494  27.017  1.00  0.00     0.163 HD
ATOM     61  O   UNL A   1      31.778  26.022  26.862  1.00  0.00    -0.274 OA
BRANCH  59  62
ATOM     62  C   UNL A   1      32.536  26.611  24.628  1.00  0.00     0.107 C 
ATOM     63  C   UNL A   1      32.887  28.064  24.607  1.00  0.00    -0.012 C 
ATOM     64  C   UNL A   1      31.123  26.623  24.055  1.00  0.00     0.087 C 
ATOM     65  C   UNL A   1      31.905  28.826  24.100  1.00  0.00     0.033 C 
ATOM     66  C   UNL A   1      30.647  28.055  23.840  1.00  0.00     0.208 C 
BRANCH  66  67
ATOM     67  N   UNL A   1      29.936  28.364  22.590  1.00  0.00    -0.328 N 
ATOM     68  C   UNL A   1      30.257  29.704  22.053  1.00  0.00     0.275 C 
ATOM     69  C   UNL A   1      28.519  28.721  22.728  1.00  0.00     0.275 C 
ATOM     70  H   UNL A   1      30.174  27.519  22.068  1.00  0.00     0.348 HD
ATOM     71  C   UNL A   1      28.840  30.230  22.434  1.00  0.00     0.073 C 
ATOM     72  C   UNL A   1      27.912  30.733  21.315  1.00  0.00     0.047 C 
ATOM     73  C   UNL A   1      28.823  31.238  23.603  1.00  0.00     0.047 C 
ATOM     74  C   UNL A   1      28.191  32.193  20.988  1.00  0.00     0.161 C 
ATOM     75  C   UNL A   1      29.008  32.670  23.126  1.00  0.00     0.161 C 
ATOM     76  O   UNL A   1      28.028  32.999  22.154  1.00  0.00    -0.381 OA
ENDBRANCH  66  67
ENDBRANCH  59  62
ENDBRANCH  57  58
ENDBRANCH  56  57
ENDBRANCH   1  56
TORSDOF 11
ENDMDL
MODEL 2
REMARK VINA RESULT:     -11.7      3.022      8.264
REMARK SMILES O=C(NCCCNC(=O)[C@@H]1C=C[C@@H]([NH+]2CC3(CCOCC3)C2)C1)c1ccc(-c2c3nc(c(-c4ccccc4)c4ccc([nH]4)c(-c4ccccc4)c4nc(c(-c5ccccc5)c5ccc2[nH]5)C=C4)C=C3)cc1
REMARK SMILES IDX 4 1 3 2 1 3 2 4 24 6 25 7 71 8 26 9 70 10 27 11 28 12 29 13
REMARK SMILES IDX 64 14 30 15 69 16 63 17 65 18 31 19 68 20 62 21 61 22 32 24
REMARK SMILES IDX 54 25 39 26 53 27 40 28 43 29 52 30 66 31 41 32 42 33 51 35
REMARK SMILES IDX 67 36 44 37 33 38 34 39 38 40 35 41 37 42 36 43 55 44 56 45
REMARK SMILES IDX 60 46 57 47 59 48 58 49 45 50 46 51 50 52 47 53 49 54 48 55
REMARK SMILES IDX 5 56 6 57 7 58 8 59 9 61 10 62 11 63 23 64 12 65 13 66 14 67
REMARK SMILES IDX 15 68 22 69 16 71 17 72 21 73 18 74 20 75 19 76
REMARK H PARENT 3 5 65 23 43 34 7 60 14 70
REMARK Flexibility Score: inf
ROOT
ATOM      1  C   UNL A   1      33.702  28.581  27.226  1.00  0.00     0.118 C 
ENDROOT
BRANCH   1   2
ATOM      2  N   UNL A   1      33.604  29.976  27.634  1.00  0.00    -0.352 N 
ATOM      3  O   UNL A   1      34.225  31.887  28.657  1.00  0.00    -0.269 OA
ATOM      4  C   UNL A   1      34.534  30.769  28.267  1.00  0.00     0.251 C 
ATOM      5  H   UNL A   1      32.748  30.416  27.427  1.00  0.00     0.163 HD
BRANCH   4   6
ATOM      6  C   UNL A   1      35.905  30.255  28.494  1.00  0.00     0.039 A 
ATOM      7  C   UNL A   1      36.872  30.344  27.491  1.00  0.00     0.014 A 
ATOM      8  C   UNL A   1      36.230  29.693  29.731  1.00  0.00     0.014 A 
ATOM      9  C   UNL A   1      38.109  29.740  27.665  1.00  0.00     0.010 A 
ATOM     10  C   UNL A   1      37.515  29.186  29.947  1.00  0.00     0.010 A 
ATOM     11  C   UNL A   1      38.459  29.193  28.909  1.00  0.00    -0.014 A 
BRANCH  11  12
ATOM     12  C   UNL A   1      39.864  28.772  29.131  1.00  0.00     0.031 A 
ATOM     13  C   UNL A   1      40.878  29.691  29.747  1.00  0.00     0.074 A 
ATOM     14  C   UNL A   1      40.209  27.520  28.768  1.00  0.00     0.049 A 
ATOM     15  N   UNL A   1      42.140  29.459  30.005  1.00  0.00    -0.248 NA
ATOM     16  C   UNL A   1      40.429  31.043  30.118  1.00  0.00     0.031 C 
ATOM     17  C   UNL A   1      39.306  26.542  28.149  1.00  0.00     0.029 A 
ATOM     18  N   UNL A   1      41.397  26.847  28.876  1.00  0.00    -0.354 N 
ATOM     19  C   UNL A   1      42.643  30.634  30.547  1.00  0.00     0.074 A 
ATOM     20  C   UNL A   1      41.553  31.587  30.572  1.00  0.00     0.031 C 
ATOM     21  C   UNL A   1      39.961  25.387  27.971  1.00  0.00     0.029 A 
ATOM     22  C   UNL A   1      41.345  25.564  28.385  1.00  0.00     0.049 A 
ATOM     23  H   UNL A   1      42.209  27.244  29.266  1.00  0.00     0.167 HD
ATOM     24  C   UNL A   1      43.901  30.889  30.980  1.00  0.00     0.031 A 
ATOM     25  C   UNL A   1      42.311  24.640  28.246  1.00  0.00     0.031 A 
ATOM     26  C   UNL A   1      44.978  29.933  30.955  1.00  0.00     0.049 A 
ATOM     27  C   UNL A   1      43.703  24.978  28.692  1.00  0.00     0.074 A 
ATOM     28  C   UNL A   1      46.271  30.084  31.427  1.00  0.00     0.029 A 
ATOM     29  N   UNL A   1      44.895  28.659  30.415  1.00  0.00    -0.354 N 
ATOM     30  N   UNL A   1      44.142  26.069  29.269  1.00  0.00    -0.248 NA
ATOM     31  C   UNL A   1      44.734  23.958  28.461  1.00  0.00     0.031 C 
ATOM     32  C   UNL A   1      46.990  28.927  31.110  1.00  0.00     0.029 A 
ATOM     33  C   UNL A   1      46.128  28.032  30.499  1.00  0.00     0.049 A 
ATOM     34  H   UNL A   1      44.083  28.260  30.030  1.00  0.00     0.167 HD
ATOM     35  C   UNL A   1      45.497  25.864  29.481  1.00  0.00     0.074 A 
ATOM     36  C   UNL A   1      45.799  24.530  29.004  1.00  0.00     0.031 C 
ATOM     37  C   UNL A   1      46.413  26.708  30.012  1.00  0.00     0.031 A 
BRANCH  24  38
ATOM     38  C   UNL A   1      44.211  32.267  31.498  1.00  0.00    -0.014 A 
ATOM     39  C   UNL A   1      44.612  33.300  30.637  1.00  0.00     0.009 A 
ATOM     40  C   UNL A   1      43.990  32.560  32.854  1.00  0.00     0.009 A 
ATOM     41  C   UNL A   1      44.795  34.596  31.128  1.00  0.00     0.001 A 
ATOM     42  C   UNL A   1      44.149  33.860  33.336  1.00  0.00     0.001 A 
ATOM     43  C   UNL A   1      44.555  34.876  32.474  1.00  0.00     0.000 A 
ENDBRANCH  24  38
BRANCH  25  44
ATOM     44  C   UNL A   1      42.011  23.335  27.602  1.00  0.00    -0.014 A 
ATOM     45  C   UNL A   1      41.444  22.282  28.335  1.00  0.00     0.009 A 
ATOM     46  C   UNL A   1      42.321  23.128  26.247  1.00  0.00     0.009 A 
ATOM     47  C   UNL A   1      41.230  21.040  27.735  1.00  0.00     0.001 A 
ATOM     48  C   UNL A   1      42.070  21.897  25.641  1.00  0.00     0.001 A 
ATOM     49  C   UNL A   1      41.538  20.849  26.389  1.00  0.00     0.000 A 
ENDBRANCH  25  44
BRANCH  37  50
ATOM     50  C   UNL A   1      47.823  26.201  30.117  1.00  0.00    -0.014 A 
ATOM     51  C   UNL A   1      48.675  26.194  29.002  1.00  0.00     0.009 A 
ATOM     52  C   UNL A   1      48.312  25.750  31.352  1.00  0.00     0.009 A 
ATOM     53  C   UNL A   1      49.980  25.711  29.114  1.00  0.00     0.001 A 
ATOM     54  C   UNL A   1      49.628  25.299  31.469  1.00  0.00     0.001 A 
ATOM     55  C   UNL A   1      50.457  25.270  30.349  1.00  0.00     0.000 A 
ENDBRANCH  37  50
ENDBRANCH  11  12
ENDBRANCH   4   6
ENDBRANCH   1   2
BRANCH   1  56
ATOM     56  C   UNL A   1      34.030  28.412  25.759  1.00  0.00     0.042 C 
BRANCH  56  57
ATOM     57  C   UNL A   1      32.895  27.831  24.943  1.00  0.00     0.117 C 
BRANCH  57  58
ATOM     58  N   UNL A   1      31.729  27.446  25.733  1.00  0.00    -0.356 N 
ATOM     59  C   UNL A   1      31.236  26.192  26.028  1.00  0.00     0.227 C 
ATOM     60  H   UNL A   1      31.215  28.195  26.111  1.00  0.00     0.163 HD
ATOM     61  O   UNL A   1      30.249  26.106  26.755  1.00  0.00    -0.274 OA
BRANCH  59  62
ATOM     62  C   UNL A   1      31.916  24.982  25.386  1.00  0.00     0.107 C 
ATOM     63  C   UNL A   1      31.114  24.017  24.575  1.00  0.00    -0.012 C 
ATOM     64  C   UNL A   1      32.509  24.072  26.457  1.00  0.00     0.087 C 
ATOM     65  C   UNL A   1      31.206  22.758  25.029  1.00  0.00     0.033 C 
ATOM     66  C   UNL A   1      31.951  22.660  26.326  1.00  0.00     0.208 C 
BRANCH  66  67
ATOM     67  N   UNL A   1      32.887  21.534  26.461  1.00  0.00    -0.328 N 
ATOM     68  C   UNL A   1      34.295  21.962  26.612  1.00  0.00     0.275 C 
ATOM     69  C   UNL A   1      33.205  20.812  25.223  1.00  0.00     0.275 C 
ATOM     70  H   UNL A   1      32.410  21.029  27.208  1.00  0.00     0.348 HD
ATOM     71  C   UNL A   1      34.635  21.459  25.177  1.00  0.00     0.073 C 
ATOM     72  C   UNL A   1      35.685  20.346  25.013  1.00  0.00     0.047 C 
ATOM     73  C   UNL A   1      34.915  22.579  24.153  1.00  0.00     0.047 C 
ATOM     74  C   UNL A   1      37.092  20.924  24.970  1.00  0.00     0.161 C 
ATOM     75  C   UNL A   1      36.378  22.990  24.141  1.00  0.00     0.161 C 
ATOM     76  O   UNL A   1      37.207  21.863  23.902  1.00  0.00    -0.381 OA
ENDBRANCH  66  67
ENDBRANCH  59  62
ENDBRANCH  57  58
ENDBRANCH  56  57
ENDBRANCH   1  56
TORSDOF 11
ENDMDL
MODEL 3
REMARK VINA RESULT:     -11.7      0.552      6.143
REMARK SMILES O=C(NCCCNC(=O)[C@@H]1C=C[C@@H]([NH+]2CC3(CCOCC3)C2)C1)c1ccc(-c2c3nc(c(-c4ccccc4)c4ccc([nH]4)c(-c4ccccc4)c4nc(c(-c5ccccc5)c5ccc2[nH]5)C=C4)C=C3)cc1
REMARK SMILES IDX 4 1 3 2 1 3 2 4 24 6 25 7 71 8 26 9 70 10 27 11 28 12 29 13
REMARK SMILES IDX 64 14 30 15 69 16 63 17 65 18 31 19 68 20 62 21 61 22 32 24
REMARK SMILES IDX 54 25 39 26 53 27 40 28 43 29 52 30 66 31 41 32 42 33 51 35
REMARK SMILES IDX 67 36 44 37 33 38 34 39 38 40 35 41 37 42 36 43 55 44 56 45
REMARK SMILES IDX 60 46 57 47 59 48 58 49 45 50 46 51 50 52 47 53 49 54 48 55
REMARK SMILES IDX 5 56 6 57 7 58 8 59 9 61 10 62 11 63 23 64 12 65 13 66 14 67
REMARK SMILES IDX 15 68 22 69 16 71 17 72 21 73 18 74 20 75 19 76
REMARK H PARENT 3 5 65 23 43 34 7 60 14 70
REMARK Flexibility Score: inf
ROOT
ATOM      1  C   UNL A   1      37.089  23.796  25.055  1.00  0.00     0.118 C 
ENDROOT
BRANCH   1   2
ATOM      2  N   UNL A   1      37.995  22.746  25.500  1.00  0.00    -0.352 N 
ATOM      3  O   UNL A   1      39.852  21.862  26.422  1.00  0.00    -0.269 OA
ATOM      4  C   UNL A   1      39.137  22.842  26.261  1.00  0.00     0.251 C 
ATOM      5  H   UNL A   1      37.756  21.835  25.213  1.00  0.00     0.163 HD
BRANCH   4   6
ATOM      6  C   UNL A   1      39.509  24.141  26.866  1.00  0.00     0.039 A 
ATOM      7  C   UNL A   1      39.116  24.457  28.168  1.00  0.00     0.014 A 
ATOM      8  C   UNL A   1      40.277  25.047  26.129  1.00  0.00     0.014 A 
ATOM      9  C   UNL A   1      39.353  25.727  28.676  1.00  0.00     0.010 A 
ATOM     10  C   UNL A   1      40.615  26.284  26.685  1.00  0.00     0.010 A 
ATOM     11  C   UNL A   1      40.141  26.639  27.958  1.00  0.00    -0.014 A 
BRANCH  11  12
ATOM     12  C   UNL A   1      40.572  27.890  28.628  1.00  0.00     0.031 A 
ATOM     13  C   UNL A   1      41.968  28.070  29.147  1.00  0.00     0.074 A 
ATOM     14  C   UNL A   1      39.663  28.879  28.752  1.00  0.00     0.049 A 
ATOM     15  N   UNL A   1      42.485  29.109  29.751  1.00  0.00    -0.248 NA
ATOM     16  C   UNL A   1      42.904  26.948  28.977  1.00  0.00     0.031 C 
ATOM     17  C   UNL A   1      38.271  28.809  28.293  1.00  0.00     0.029 A 
ATOM     18  N   UNL A   1      39.770  30.137  29.284  1.00  0.00    -0.354 N 
ATOM     19  C   UNL A   1      43.797  28.764  30.052  1.00  0.00     0.074 A 
ATOM     20  C   UNL A   1      43.995  27.412  29.574  1.00  0.00     0.031 C 
ATOM     21  C   UNL A   1      37.669  29.983  28.526  1.00  0.00     0.029 A 
ATOM     22  C   UNL A   1      38.602  30.858  29.221  1.00  0.00     0.049 A 
ATOM     23  H   UNL A   1      40.603  30.489  29.674  1.00  0.00     0.167 HD
ATOM     24  C   UNL A   1      44.742  29.510  30.671  1.00  0.00     0.031 A 
ATOM     25  C   UNL A   1      38.297  32.076  29.702  1.00  0.00     0.031 A 
ATOM     26  C   UNL A   1      44.536  30.857  31.139  1.00  0.00     0.049 A 
ATOM     27  C   UNL A   1      39.358  32.851  30.426  1.00  0.00     0.074 A 
ATOM     28  C   UNL A   1      45.453  31.712  31.726  1.00  0.00     0.029 A 
ATOM     29  N   UNL A   1      43.329  31.537  31.092  1.00  0.00    -0.354 N 
ATOM     30  N   UNL A   1      40.612  32.536  30.636  1.00  0.00    -0.248 NA
ATOM     31  C   UNL A   1      38.957  34.149  30.986  1.00  0.00     0.031 C 
ATOM     32  C   UNL A   1      44.784  32.883  32.097  1.00  0.00     0.029 A 
ATOM     33  C   UNL A   1      43.466  32.783  31.683  1.00  0.00     0.049 A 
ATOM     34  H   UNL A   1      42.498  31.188  30.697  1.00  0.00     0.167 HD
ATOM     35  C   UNL A   1      41.154  33.601  31.341  1.00  0.00     0.074 A 
ATOM     36  C   UNL A   1      40.102  34.584  31.491  1.00  0.00     0.031 C 
ATOM     37  C   UNL A   1      42.408  33.746  31.831  1.00  0.00     0.031 A 
BRANCH  24  38
ATOM     38  C   UNL A   1      46.091  28.892  30.916  1.00  0.00    -0.014 A 
ATOM     39  C   UNL A   1      47.143  29.040  29.999  1.00  0.00     0.009 A 
ATOM     40  C   UNL A   1      46.342  28.246  32.139  1.00  0.00     0.009 A 
ATOM     41  C   UNL A   1      48.415  28.543  30.298  1.00  0.00     0.001 A 
ATOM     42  C   UNL A   1      47.619  27.773  32.444  1.00  0.00     0.001 A 
ATOM     43  C   UNL A   1      48.653  27.919  31.523  1.00  0.00     0.000 A 
ENDBRANCH  24  38
BRANCH  25  44
ATOM     44  C   UNL A   1      36.917  32.609  29.571  1.00  0.00    -0.014 A 
ATOM     45  C   UNL A   1      35.950  32.360  30.557  1.00  0.00     0.009 A 
ATOM     46  C   UNL A   1      36.551  33.350  28.435  1.00  0.00     0.009 A 
ATOM     47  C   UNL A   1      34.639  32.809  30.388  1.00  0.00     0.001 A 
ATOM     48  C   UNL A   1      35.250  33.831  28.288  1.00  0.00     0.001 A 
ATOM     49  C   UNL A   1      34.290  33.547  29.257  1.00  0.00     0.000 A 
ENDBRANCH  25  44
BRANCH  37  50
ATOM     50  C   UNL A   1      42.708  35.024  32.561  1.00  0.00    -0.014 A 
ATOM     51  C   UNL A   1      43.360  36.089  31.919  1.00  0.00     0.009 A 
ATOM     52  C   UNL A   1      42.313  35.173  33.899  1.00  0.00     0.009 A 
ATOM     53  C   UNL A   1      43.640  37.266  32.615  1.00  0.00     0.001 A 
ATOM     54  C   UNL A   1      42.565  36.364  34.582  1.00  0.00     0.001 A 
ATOM     55  C   UNL A   1      43.237  37.404  33.943  1.00  0.00     0.000 A 
ENDBRANCH  37  50
ENDBRANCH  11  12
ENDBRANCH   4   6
ENDBRANCH   1   2
BRANCH   1  56
ATOM     56  C   UNL A   1      35.796  23.837  25.839  1.00  0.00     0.042 C 
BRANCH  56  57
ATOM     57  C   UNL A   1      34.738  24.731  25.226  1.00  0.00     0.117 C 
BRANCH  57  58
ATOM     58  N   UNL A   1      33.630  25.044  26.123  1.00  0.00    -0.356 N 
ATOM     59  C   UNL A   1      32.561  25.897  25.943  1.00  0.00     0.227 C 
ATOM     60  H   UNL A   1      33.647  24.575  26.988  1.00  0.00     0.163 HD
ATOM     61  O   UNL A   1      31.715  25.974  26.831  1.00  0.00    -0.274 OA
BRANCH  59  62
ATOM     62  C   UNL A   1      32.522  26.743  24.669  1.00  0.00     0.107 C 
ATOM     63  C   UNL A   1      32.732  28.220  24.747  1.00  0.00    -0.012 C 
ATOM     64  C   UNL A   1      31.148  26.657  24.013  1.00  0.00     0.087 C 
ATOM     65  C   UNL A   1      31.710  28.916  24.223  1.00  0.00     0.033 C 
ATOM     66  C   UNL A   1      30.549  28.048  23.846  1.00  0.00     0.208 C 
BRANCH  66  67
ATOM     67  N   UNL A   1      29.882  28.362  22.573  1.00  0.00    -0.328 N 
ATOM     68  C   UNL A   1      30.211  29.709  22.060  1.00  0.00     0.275 C 
ATOM     69  C   UNL A   1      28.458  28.706  22.662  1.00  0.00     0.275 C 
ATOM     70  H   UNL A   1      30.146  27.524  22.054  1.00  0.00     0.348 HD
ATOM     71  C   UNL A   1      28.776  30.221  22.394  1.00  0.00     0.073 C 
ATOM     72  C   UNL A   1      27.886  30.726  21.246  1.00  0.00     0.047 C 
ATOM     73  C   UNL A   1      28.708  31.218  23.570  1.00  0.00     0.047 C 
ATOM     74  C   UNL A   1      28.164  32.191  20.942  1.00  0.00     0.161 C 
ATOM     75  C   UNL A   1      28.898  32.655  23.113  1.00  0.00     0.161 C 
ATOM     76  O   UNL A   1      27.951  32.985  22.108  1.00  0.00    -0.381 OA
ENDBRANCH  66  67
ENDBRANCH  59  62
ENDBRANCH  57  58
ENDBRANCH  56  57
ENDBRANCH   1  56
TORSDOF 11
ENDMDL
