MODEL 1
REMARK VINA RESULT:     -12.4      0.000      0.000
REMARK SMILES COc1cc(C)c(S(=O)(=O)Nc2cc(C(=O)NCCCNC(=O)c3ccc(-c4c5nc(c(-c6ccccc6)c6ccc([nH]6)c(-c6ccccc6)c6nc(c(-c7ccccc7)c7ccc4[nH]7)C=C6)C=C5)cc3)ccc2F)cc1OC
REMARK SMILES IDX 18 1 17 2 15 3 16 4 14 6 12 7 13 8 74 9 73 10 75 11 72 12
REMARK SMILES IDX 11 13 8 15 9 16 10 17 7 18 3 19 4 20 77 21 5 22 76 23 6 24
REMARK SMILES IDX 2 25 1 26 78 27 79 28 19 29 20 30 21 31 22 32 23 34 24 35
REMARK SMILES IDX 25 36 71 37 26 38 70 39 27 40 28 41 29 42 64 43 30 44 69 45
REMARK SMILES IDX 63 46 65 47 31 48 68 49 62 50 61 51 32 53 54 54 39 55 53 56
REMARK SMILES IDX 40 57 43 58 52 59 66 60 41 61 42 62 51 64 67 65 44 66 33 67
REMARK SMILES IDX 34 68 38 69 35 70 37 71 36 72 55 73 56 74 60 75 57 76 59 77
REMARK SMILES IDX 58 78 45 79 46 80 50 81 47 82 49 83 48 84
REMARK H PARENT 17 5 11 14 21 33 65 52 43 63
REMARK Flexibility Score: inf
ROOT
ATOM      1  C   UNL A   1      32.140  29.614  26.240  1.00  0.00     0.118 C 
ENDROOT
BRANCH   1   2
ATOM      2  N   UNL A   1      31.390  30.068  25.079  1.00  0.00    -0.352 N 
ATOM      3  C   UNL A   1      30.697  29.400  24.096  1.00  0.00     0.251 C 
ATOM      4  O   UNL A   1      30.088  30.088  23.276  1.00  0.00    -0.269 OA
ATOM      5  H   UNL A   1      31.376  31.047  24.977  1.00  0.00     0.163 HD
BRANCH   3   6
ATOM      6  C   UNL A   1      30.587  27.909  23.995  1.00  0.00     0.042 A 
ATOM      7  C   UNL A   1      30.933  25.779  22.883  1.00  0.00     0.085 A 
ATOM      8  C   UNL A   1      30.844  27.167  22.839  1.00  0.00     0.043 A 
ATOM      9  C   UNL A   1      30.539  25.110  24.045  1.00  0.00     0.147 A 
ATOM     10  C   UNL A   1      30.186  25.814  25.186  1.00  0.00     0.042 A 
ATOM     11  F   UNL A   1      30.600  23.771  24.092  1.00  0.00    -0.205 F 
ATOM     12  C   UNL A   1      30.245  27.210  25.169  1.00  0.00     0.017 A 
BRANCH   7  13
ATOM     13  N   UNL A   1      31.541  25.005  21.851  1.00  0.00    -0.277 N 
ATOM     14  H   UNL A   1      30.938  24.645  21.161  1.00  0.00     0.180 HD
BRANCH  13  15
ATOM     15  S   UNL A   1      33.159  24.643  21.687  1.00  0.00     0.262 S 
ATOM     16  O   UNL A   1      33.888  25.879  21.925  1.00  0.00    -0.201 OA
ATOM     17  O   UNL A   1      33.285  23.941  20.435  1.00  0.00    -0.201 OA
BRANCH  15  18
ATOM     18  C   UNL A   1      33.695  23.496  22.964  1.00  0.00     0.094 A 
ATOM     19  C   UNL A   1      34.523  22.105  25.294  1.00  0.00     0.161 A 
ATOM     20  C   UNL A   1      33.547  21.582  24.439  1.00  0.00     0.055 A 
ATOM     21  C   UNL A   1      35.160  23.295  24.926  1.00  0.00     0.162 A 
ATOM     22  C   UNL A   1      33.163  22.228  23.235  1.00  0.00    -0.027 A 
ATOM     23  C   UNL A   1      34.715  24.000  23.800  1.00  0.00     0.073 A 
ATOM     24  C   UNL A   1      32.198  21.468  22.377  1.00  0.00     0.046 C 
BRANCH  19  25
ATOM     25  O   UNL A   1      34.867  21.552  26.497  1.00  0.00    -0.493 OA
ATOM     26  C   UNL A   1      34.086  21.888  27.636  1.00  0.00     0.278 C 
ENDBRANCH  19  25
BRANCH  21  27
ATOM     27  O   UNL A   1      36.178  23.901  25.617  1.00  0.00    -0.493 OA
ATOM     28  C   UNL A   1      37.431  23.217  25.578  1.00  0.00     0.278 C 
ENDBRANCH  21  27
ENDBRANCH  15  18
ENDBRANCH  13  15
ENDBRANCH   7  13
ENDBRANCH   3   6
ENDBRANCH   1   2
BRANCH   1  29
ATOM     29  C   UNL A   1      32.825  30.767  26.973  1.00  0.00     0.042 C 
BRANCH  29  30
ATOM     30  C   UNL A   1      34.262  30.474  27.358  1.00  0.00     0.118 C 
BRANCH  30  31
ATOM     31  N   UNL A   1      34.762  31.317  28.446  1.00  0.00    -0.352 N 
ATOM     32  C   UNL A   1      35.896  31.115  29.214  1.00  0.00     0.251 C 
ATOM     33  H   UNL A   1      34.229  32.117  28.657  1.00  0.00     0.163 HD
ATOM     34  O   UNL A   1      36.260  31.923  30.057  1.00  0.00    -0.269 OA
BRANCH  32  35
ATOM     35  C   UNL A   1      36.728  29.939  28.887  1.00  0.00     0.039 A 
ATOM     36  C   UNL A   1      36.989  29.038  29.921  1.00  0.00     0.014 A 
ATOM     37  C   UNL A   1      37.505  29.965  27.730  1.00  0.00     0.014 A 
ATOM     38  C   UNL A   1      38.192  28.346  29.909  1.00  0.00     0.010 A 
ATOM     39  C   UNL A   1      38.745  29.358  27.770  1.00  0.00     0.010 A 
ATOM     40  C   UNL A   1      39.114  28.613  28.895  1.00  0.00    -0.014 A 
BRANCH  40  41
ATOM     41  C   UNL A   1      40.518  28.238  29.003  1.00  0.00     0.031 A 
ATOM     42  C   UNL A   1      40.957  26.916  28.524  1.00  0.00     0.074 A 
ATOM     43  C   UNL A   1      41.412  29.063  29.592  1.00  0.00     0.049 A 
ATOM     44  N   UNL A   1      41.983  26.283  28.987  1.00  0.00    -0.248 NA
ATOM     45  C   UNL A   1      40.192  26.143  27.549  1.00  0.00     0.031 C 
ATOM     46  C   UNL A   1      42.867  28.930  29.623  1.00  0.00     0.029 A 
ATOM     47  N   UNL A   1      41.140  30.061  30.520  1.00  0.00    -0.354 N 
ATOM     48  C   UNL A   1      42.193  25.202  28.168  1.00  0.00     0.074 A 
ATOM     49  C   UNL A   1      40.978  25.073  27.404  1.00  0.00     0.031 C 
ATOM     50  C   UNL A   1      43.343  29.617  30.675  1.00  0.00     0.029 A 
ATOM     51  C   UNL A   1      42.202  30.101  31.434  1.00  0.00     0.049 A 
ATOM     52  H   UNL A   1      40.344  30.638  30.532  1.00  0.00     0.167 HD
ATOM     53  C   UNL A   1      43.435  24.648  28.113  1.00  0.00     0.031 A 
ATOM     54  C   UNL A   1      41.991  29.871  32.763  1.00  0.00     0.031 A 
ATOM     55  C   UNL A   1      44.293  25.125  29.201  1.00  0.00     0.049 A 
ATOM     56  C   UNL A   1      42.727  28.663  33.302  1.00  0.00     0.074 A 
ATOM     57  C   UNL A   1      45.376  25.985  29.261  1.00  0.00     0.029 A 
ATOM     58  N   UNL A   1      43.893  24.909  30.520  1.00  0.00    -0.354 N 
ATOM     59  N   UNL A   1      43.281  27.746  32.559  1.00  0.00    -0.248 NA
ATOM     60  C   UNL A   1      42.847  28.369  34.729  1.00  0.00     0.031 C 
ATOM     61  C   UNL A   1      45.575  26.348  30.623  1.00  0.00     0.029 A 
ATOM     62  C   UNL A   1      44.638  25.680  31.391  1.00  0.00     0.049 A 
ATOM     63  H   UNL A   1      43.177  24.291  30.792  1.00  0.00     0.167 HD
ATOM     64  C   UNL A   1      43.790  26.751  33.355  1.00  0.00     0.074 A 
ATOM     65  C   UNL A   1      43.518  27.205  34.707  1.00  0.00     0.031 C 
ATOM     66  C   UNL A   1      44.368  25.632  32.827  1.00  0.00     0.031 A 
BRANCH  53  67
ATOM     67  C   UNL A   1      43.951  23.882  26.907  1.00  0.00    -0.014 A 
ATOM     68  C   UNL A   1      44.659  24.566  25.902  1.00  0.00     0.009 A 
ATOM     69  C   UNL A   1      43.677  22.528  26.634  1.00  0.00     0.009 A 
ATOM     70  C   UNL A   1      45.019  23.951  24.692  1.00  0.00     0.001 A 
ATOM     71  C   UNL A   1      44.040  21.902  25.435  1.00  0.00     0.001 A 
ATOM     72  C   UNL A   1      44.702  22.618  24.454  1.00  0.00     0.000 A 
ENDBRANCH  53  67
BRANCH  54  73
ATOM     73  C   UNL A   1      40.660  30.336  33.245  1.00  0.00    -0.014 A 
ATOM     74  C   UNL A   1      40.413  31.724  33.257  1.00  0.00     0.009 A 
ATOM     75  C   UNL A   1      39.569  29.462  33.329  1.00  0.00     0.009 A 
ATOM     76  C   UNL A   1      39.108  32.219  33.212  1.00  0.00     0.001 A 
ATOM     77  C   UNL A   1      38.260  29.965  33.316  1.00  0.00     0.001 A 
ATOM     78  C   UNL A   1      38.032  31.338  33.217  1.00  0.00     0.000 A 
ENDBRANCH  54  73
BRANCH  66  79
ATOM     79  C   UNL A   1      44.793  24.394  33.591  1.00  0.00    -0.014 A 
ATOM     80  C   UNL A   1      43.992  23.262  33.797  1.00  0.00     0.009 A 
ATOM     81  C   UNL A   1      46.127  24.304  34.051  1.00  0.00     0.009 A 
ATOM     82  C   UNL A   1      44.478  22.131  34.471  1.00  0.00     0.001 A 
ATOM     83  C   UNL A   1      46.630  23.162  34.681  1.00  0.00     0.001 A 
ATOM     84  C   UNL A   1      45.798  22.078  34.905  1.00  0.00     0.000 A 
ENDBRANCH  66  79
ENDBRANCH  40  41
ENDBRANCH  32  35
ENDBRANCH  30  31
ENDBRANCH  29  30
ENDBRANCH   1  29
TORSDOF 15
ENDMDL
MODEL 2
REMARK VINA RESULT:     -12.4      1.575      2.157
REMARK SMILES COc1cc(C)c(S(=O)(=O)Nc2cc(C(=O)NCCCNC(=O)c3ccc(-c4c5nc(c(-c6ccccc6)c6ccc([nH]6)c(-c6ccccc6)c6nc(c(-c7ccccc7)c7ccc4[nH]7)C=C6)C=C5)cc3)ccc2F)cc1OC
REMARK SMILES IDX 18 1 17 2 15 3 16 4 14 6 12 7 13 8 74 9 73 10 75 11 72 12
REMARK SMILES IDX 11 13 8 15 9 16 10 17 7 18 3 19 4 20 77 21 5 22 76 23 6 24
REMARK SMILES IDX 2 25 1 26 78 27 79 28 19 29 20 30 21 31 22 32 23 34 24 35
REMARK SMILES IDX 25 36 71 37 26 38 70 39 27 40 28 41 29 42 64 43 30 44 69 45
REMARK SMILES IDX 63 46 65 47 31 48 68 49 62 50 61 51 32 53 54 54 39 55 53 56
REMARK SMILES IDX 40 57 43 58 52 59 66 60 41 61 42 62 51 64 67 65 44 66 33 67
REMARK SMILES IDX 34 68 38 69 35 70 37 71 36 72 55 73 56 74 60 75 57 76 59 77
REMARK SMILES IDX 58 78 45 79 46 80 50 81 47 82 49 83 48 84
REMARK H PARENT 17 5 11 14 21 33 65 52 43 63
REMARK Flexibility Score: inf
ROOT
ATOM      1  C   UNL A   1      32.642  30.098  25.994  1.00  0.00     0.118 C 
ENDROOT
BRANCH   1   2
ATOM      2  N   UNL A   1      33.322  29.714  24.767  1.00  0.00    -0.352 N 
ATOM      3  C   UNL A   1      32.986  28.862  23.740  1.00  0.00     0.251 C 
ATOM      4  O   UNL A   1      33.757  28.811  22.781  1.00  0.00    -0.269 OA
ATOM      5  H   UNL A   1      34.198  30.150  24.648  1.00  0.00     0.163 HD
BRANCH   3   6
ATOM      6  C   UNL A   1      31.729  28.049  23.686  1.00  0.00     0.042 A 
ATOM      7  C   UNL A   1      30.438  26.024  24.046  1.00  0.00     0.085 A 
ATOM      8  C   UNL A   1      31.662  26.669  23.896  1.00  0.00     0.043 A 
ATOM      9  C   UNL A   1      29.263  26.724  23.759  1.00  0.00     0.147 A 
ATOM     10  C   UNL A   1      29.297  28.077  23.455  1.00  0.00     0.042 A 
ATOM     11  F   UNL A   1      28.077  26.108  23.879  1.00  0.00    -0.205 F 
ATOM     12  C   UNL A   1      30.525  28.743  23.455  1.00  0.00     0.017 A 
BRANCH   7  13
ATOM     13  N   UNL A   1      30.307  24.723  24.614  1.00  0.00    -0.277 N 
ATOM     14  H   UNL A   1      29.711  24.097  24.142  1.00  0.00     0.180 HD
BRANCH  13  15
ATOM     15  S   UNL A   1      31.054  24.147  25.988  1.00  0.00     0.262 S 
ATOM     16  O   UNL A   1      30.230  23.054  26.482  1.00  0.00    -0.201 OA
ATOM     17  O   UNL A   1      31.321  25.301  26.809  1.00  0.00    -0.201 OA
BRANCH  15  18
ATOM     18  C   UNL A   1      32.654  23.425  25.597  1.00  0.00     0.094 A 
ATOM     19  C   UNL A   1      35.248  22.718  24.692  1.00  0.00     0.161 A 
ATOM     20  C   UNL A   1      34.879  22.582  26.036  1.00  0.00     0.055 A 
ATOM     21  C   UNL A   1      34.274  23.123  23.774  1.00  0.00     0.162 A 
ATOM     22  C   UNL A   1      33.570  22.867  26.499  1.00  0.00    -0.027 A 
ATOM     23  C   UNL A   1      33.009  23.515  24.233  1.00  0.00     0.073 A 
ATOM     24  C   UNL A   1      33.313  22.546  27.940  1.00  0.00     0.046 C 
BRANCH  19  25
ATOM     25  O   UNL A   1      36.517  22.524  24.220  1.00  0.00    -0.493 OA
ATOM     26  C   UNL A   1      37.257  21.419  24.724  1.00  0.00     0.278 C 
ENDBRANCH  19  25
BRANCH  21  27
ATOM     27  O   UNL A   1      34.454  23.242  22.421  1.00  0.00    -0.493 OA
ATOM     28  C   UNL A   1      33.253  23.260  21.646  1.00  0.00     0.278 C 
ENDBRANCH  21  27
ENDBRANCH  15  18
ENDBRANCH  13  15
ENDBRANCH   7  13
ENDBRANCH   3   6
ENDBRANCH   1   2
BRANCH   1  29
ATOM     29  C   UNL A   1      33.240  29.417  27.225  1.00  0.00     0.042 C 
BRANCH  29  30
ATOM     30  C   UNL A   1      34.755  29.453  27.263  1.00  0.00     0.118 C 
BRANCH  30  31
ATOM     31  N   UNL A   1      35.296  30.509  28.122  1.00  0.00    -0.352 N 
ATOM     32  C   UNL A   1      36.555  30.565  28.695  1.00  0.00     0.251 C 
ATOM     33  H   UNL A   1      34.695  31.264  28.314  1.00  0.00     0.163 HD
ATOM     34  O   UNL A   1      36.929  31.533  29.344  1.00  0.00    -0.269 OA
BRANCH  32  35
ATOM     35  C   UNL A   1      37.483  29.458  28.387  1.00  0.00     0.039 A 
ATOM     36  C   UNL A   1      37.639  28.469  29.360  1.00  0.00     0.014 A 
ATOM     37  C   UNL A   1      38.417  29.628  27.366  1.00  0.00     0.014 A 
ATOM     38  C   UNL A   1      38.864  27.826  29.462  1.00  0.00     0.010 A 
ATOM     39  C   UNL A   1      39.667  29.066  27.532  1.00  0.00     0.010 A 
ATOM     40  C   UNL A   1      39.908  28.227  28.625  1.00  0.00    -0.014 A 
BRANCH  40  41
ATOM     41  C   UNL A   1      41.299  27.894  28.905  1.00  0.00     0.031 A 
ATOM     42  C   UNL A   1      41.858  26.626  28.406  1.00  0.00     0.074 A 
ATOM     43  C   UNL A   1      42.065  28.705  29.668  1.00  0.00     0.049 A 
ATOM     44  N   UNL A   1      42.838  25.998  28.965  1.00  0.00    -0.248 NA
ATOM     45  C   UNL A   1      41.272  25.900  27.282  1.00  0.00     0.031 C 
ATOM     46  C   UNL A   1      43.505  28.621  29.896  1.00  0.00     0.029 A 
ATOM     47  N   UNL A   1      41.623  29.622  30.613  1.00  0.00    -0.354 N 
ATOM     48  C   UNL A   1      43.208  24.987  28.113  1.00  0.00     0.074 A 
ATOM     49  C   UNL A   1      42.117  24.872  27.178  1.00  0.00     0.031 C 
ATOM     50  C   UNL A   1      43.800  29.246  31.048  1.00  0.00     0.029 A 
ATOM     51  C   UNL A   1      42.545  29.633  31.669  1.00  0.00     0.049 A 
ATOM     52  H   UNL A   1      40.807  30.169  30.551  1.00  0.00     0.167 HD
ATOM     53  C   UNL A   1      44.469  24.483  28.197  1.00  0.00     0.031 A 
ATOM     54  C   UNL A   1      42.163  29.300  32.936  1.00  0.00     0.031 A 
ATOM     55  C   UNL A   1      45.146  24.909  29.425  1.00  0.00     0.049 A 
ATOM     56  C   UNL A   1      42.870  28.082  33.491  1.00  0.00     0.074 A 
ATOM     57  C   UNL A   1      46.170  25.799  29.695  1.00  0.00     0.029 A 
ATOM     58  N   UNL A   1      44.578  24.584  30.656  1.00  0.00    -0.354 N 
ATOM     59  N   UNL A   1      43.563  27.242  32.774  1.00  0.00    -0.248 NA
ATOM     60  C   UNL A   1      42.805  27.690  34.898  1.00  0.00     0.031 C 
ATOM     61  C   UNL A   1      46.163  26.069  31.092  1.00  0.00     0.029 A 
ATOM     62  C   UNL A   1      45.159  25.315  31.674  1.00  0.00     0.049 A 
ATOM     63  H   UNL A   1      43.859  23.923  30.782  1.00  0.00     0.167 HD
ATOM     64  C   UNL A   1      44.001  26.210  33.566  1.00  0.00     0.074 A 
ATOM     65  C   UNL A   1      43.524  26.555  34.893  1.00  0.00     0.031 C 
ATOM     66  C   UNL A   1      44.696  25.153  33.051  1.00  0.00     0.031 A 
BRANCH  53  67
ATOM     67  C   UNL A   1      45.180  23.825  27.028  1.00  0.00    -0.014 A 
ATOM     68  C   UNL A   1      46.036  24.591  26.216  1.00  0.00     0.009 A 
ATOM     69  C   UNL A   1      44.966  22.502  26.593  1.00  0.00     0.009 A 
ATOM     70  C   UNL A   1      46.593  24.085  25.030  1.00  0.00     0.001 A 
ATOM     71  C   UNL A   1      45.525  21.984  25.418  1.00  0.00     0.001 A 
ATOM     72  C   UNL A   1      46.331  22.781  24.626  1.00  0.00     0.000 A 
ENDBRANCH  53  67
BRANCH  54  73
ATOM     73  C   UNL A   1      40.758  29.682  33.255  1.00  0.00    -0.014 A 
ATOM     74  C   UNL A   1      40.489  31.042  33.515  1.00  0.00     0.009 A 
ATOM     75  C   UNL A   1      39.685  28.834  32.954  1.00  0.00     0.009 A 
ATOM     76  C   UNL A   1      39.206  31.563  33.339  1.00  0.00     0.001 A 
ATOM     77  C   UNL A   1      38.393  29.356  32.809  1.00  0.00     0.001 A 
ATOM     78  C   UNL A   1      38.162  30.724  32.962  1.00  0.00     0.000 A 
ENDBRANCH  54  73
BRANCH  66  79
ATOM     79  C   UNL A   1      45.066  23.879  33.782  1.00  0.00    -0.014 A 
ATOM     80  C   UNL A   1      44.183  22.827  34.063  1.00  0.00     0.009 A 
ATOM     81  C   UNL A   1      46.420  23.662  34.127  1.00  0.00     0.009 A 
ATOM     82  C   UNL A   1      44.615  21.653  34.698  1.00  0.00     0.001 A 
ATOM     83  C   UNL A   1      46.865  22.476  34.717  1.00  0.00     0.001 A 
ATOM     84  C   UNL A   1      45.957  21.474  35.018  1.00  0.00     0.000 A 
ENDBRANCH  66  79
ENDBRANCH  40  41
ENDBRANCH  32  35
ENDBRANCH  30  31
ENDBRANCH  29  30
ENDBRANCH   1  29
TORSDOF 15
ENDMDL
MODEL 3
REMARK VINA RESULT:     -12.3      3.112      8.352
REMARK SMILES COc1cc(C)c(S(=O)(=O)Nc2cc(C(=O)NCCCNC(=O)c3ccc(-c4c5nc(c(-c6ccccc6)c6ccc([nH]6)c(-c6ccccc6)c6nc(c(-c7ccccc7)c7ccc4[nH]7)C=C6)C=C5)cc3)ccc2F)cc1OC
REMARK SMILES IDX 18 1 17 2 15 3 16 4 14 6 12 7 13 8 74 9 73 10 75 11 72 12
REMARK SMILES IDX 11 13 8 15 9 16 10 17 7 18 3 19 4 20 77 21 5 22 76 23 6 24
REMARK SMILES IDX 2 25 1 26 78 27 79 28 19 29 20 30 21 31 22 32 23 34 24 35
REMARK SMILES IDX 25 36 71 37 26 38 70 39 27 40 28 41 29 42 64 43 30 44 69 45
REMARK SMILES IDX 63 46 65 47 31 48 68 49 62 50 61 51 32 53 54 54 39 55 53 56
REMARK SMILES IDX 40 57 43 58 52 59 66 60 41 61 42 62 51 64 67 65 44 66 33 67
REMARK SMILES IDX 34 68 38 69 35 70 37 71 36 72 55 73 56 74 60 75 57 76 59 77
REMARK SMILES IDX 58 78 45 79 46 80 50 81 47 82 49 83 48 84
REMARK H PARENT 17 5 11 14 21 33 65 52 43 63
REMARK Flexibility Score: inf
ROOT
ATOM      1  C   UNL A   1      37.949  23.219  25.950  1.00  0.00     0.118 C 
ENDROOT
BRANCH   1   2
ATOM      2  N   UNL A   1      37.444  23.386  24.596  1.00  0.00    -0.352 N 
ATOM      3  C   UNL A   1      36.327  22.906  23.952  1.00  0.00     0.251 C 
ATOM      4  O   UNL A   1      36.134  23.300  22.800  1.00  0.00    -0.269 OA
ATOM      5  H   UNL A   1      38.014  23.954  24.029  1.00  0.00     0.163 HD
BRANCH   3   6
ATOM      6  C   UNL A   1      35.312  21.995  24.571  1.00  0.00     0.042 A 
ATOM      7  C   UNL A   1      33.105  21.477  25.440  1.00  0.00     0.085 A 
ATOM      8  C   UNL A   1      34.079  22.406  25.084  1.00  0.00     0.043 A 
ATOM      9  C   UNL A   1      33.446  20.124  25.497  1.00  0.00     0.147 A 
ATOM     10  C   UNL A   1      34.696  19.687  25.083  1.00  0.00     0.042 A 
ATOM     11  F   UNL A   1      32.522  19.221  25.859  1.00  0.00    -0.205 F 
ATOM     12  C   UNL A   1      35.612  20.619  24.588  1.00  0.00     0.017 A 
BRANCH   7  13
ATOM     13  N   UNL A   1      31.732  21.818  25.614  1.00  0.00    -0.277 N 
ATOM     14  H   UNL A   1      31.079  21.274  25.117  1.00  0.00     0.180 HD
BRANCH  13  15
ATOM     15  S   UNL A   1      31.112  23.036  26.568  1.00  0.00     0.262 S 
ATOM     16  O   UNL A   1      32.032  23.200  27.684  1.00  0.00    -0.201 OA
ATOM     17  O   UNL A   1      29.729  22.699  26.795  1.00  0.00    -0.201 OA
BRANCH  15  18
ATOM     18  C   UNL A   1      31.111  24.605  25.690  1.00  0.00     0.094 A 
ATOM     19  C   UNL A   1      31.531  27.189  24.596  1.00  0.00     0.161 A 
ATOM     20  C   UNL A   1      31.266  26.083  23.780  1.00  0.00     0.055 A 
ATOM     21  C   UNL A   1      31.490  27.015  25.984  1.00  0.00     0.162 A 
ATOM     22  C   UNL A   1      30.990  24.796  24.306  1.00  0.00    -0.027 A 
ATOM     23  C   UNL A   1      31.328  25.729  26.516  1.00  0.00     0.073 A 
ATOM     24  C   UNL A   1      30.603  23.758  23.297  1.00  0.00     0.046 C 
BRANCH  19  25
ATOM     25  O   UNL A   1      31.874  28.427  24.127  1.00  0.00    -0.493 OA
ATOM     26  C   UNL A   1      31.571  28.736  22.772  1.00  0.00     0.278 C 
ENDBRANCH  19  25
BRANCH  21  27
ATOM     27  O   UNL A   1      31.661  28.004  26.917  1.00  0.00    -0.493 OA
ATOM     28  C   UNL A   1      33.017  28.266  27.283  1.00  0.00     0.278 C 
ENDBRANCH  21  27
ENDBRANCH  15  18
ENDBRANCH  13  15
ENDBRANCH   7  13
ENDBRANCH   3   6
ENDBRANCH   1   2
BRANCH   1  29
ATOM     29  C   UNL A   1      38.799  21.957  26.100  1.00  0.00     0.042 C 
BRANCH  29  30
ATOM     30  C   UNL A   1      40.288  22.232  26.171  1.00  0.00     0.118 C 
BRANCH  30  31
ATOM     31  N   UNL A   1      41.112  21.141  25.647  1.00  0.00    -0.352 N 
ATOM     32  C   UNL A   1      42.444  20.884  25.925  1.00  0.00     0.251 C 
ATOM     33  H   UNL A   1      40.669  20.520  25.024  1.00  0.00     0.163 HD
ATOM     34  O   UNL A   1      43.020  19.899  25.483  1.00  0.00    -0.269 OA
BRANCH  32  35
ATOM     35  C   UNL A   1      43.115  21.783  26.886  1.00  0.00     0.039 A 
ATOM     36  C   UNL A   1      42.701  21.714  28.218  1.00  0.00     0.014 A 
ATOM     37  C   UNL A   1      43.820  22.882  26.399  1.00  0.00     0.014 A 
ATOM     38  C   UNL A   1      42.761  22.864  28.992  1.00  0.00     0.010 A 
ATOM     39  C   UNL A   1      43.783  24.051  27.133  1.00  0.00     0.010 A 
ATOM     40  C   UNL A   1      43.184  24.055  28.397  1.00  0.00    -0.014 A 
BRANCH  40  41
ATOM     41  C   UNL A   1      42.925  25.357  28.999  1.00  0.00     0.031 A 
ATOM     42  C   UNL A   1      41.776  26.156  28.537  1.00  0.00     0.074 A 
ATOM     43  C   UNL A   1      43.759  25.867  29.932  1.00  0.00     0.049 A 
ATOM     44  N   UNL A   1      41.721  27.444  28.597  1.00  0.00    -0.248 NA
ATOM     45  C   UNL A   1      40.630  25.559  27.858  1.00  0.00     0.031 C 
ATOM     46  C   UNL A   1      43.558  27.055  30.758  1.00  0.00     0.029 A 
ATOM     47  N   UNL A   1      45.097  25.543  30.121  1.00  0.00    -0.354 N 
ATOM     48  C   UNL A   1      40.439  27.809  28.274  1.00  0.00     0.074 A 
ATOM     49  C   UNL A   1      39.858  26.633  27.675  1.00  0.00     0.031 C 
ATOM     50  C   UNL A   1      44.755  27.506  31.168  1.00  0.00     0.029 A 
ATOM     51  C   UNL A   1      45.773  26.707  30.508  1.00  0.00     0.049 A 
ATOM     52  H   UNL A   1      45.498  24.652  30.004  1.00  0.00     0.167 HD
ATOM     53  C   UNL A   1      39.965  29.010  28.706  1.00  0.00     0.031 A 
ATOM     54  C   UNL A   1      46.794  27.208  29.754  1.00  0.00     0.031 A 
ATOM     55  C   UNL A   1      41.041  29.872  29.203  1.00  0.00     0.049 A 
ATOM     56  C   UNL A   1      46.532  28.595  29.207  1.00  0.00     0.074 A 
ATOM     57  C   UNL A   1      41.427  30.291  30.464  1.00  0.00     0.029 A 
ATOM     58  N   UNL A   1      42.081  30.218  28.342  1.00  0.00    -0.354 N 
ATOM     59  N   UNL A   1      45.362  29.171  29.190  1.00  0.00    -0.248 NA
ATOM     60  C   UNL A   1      47.566  29.420  28.587  1.00  0.00     0.031 C 
ATOM     61  C   UNL A   1      42.744  30.822  30.368  1.00  0.00     0.029 A 
ATOM     62  C   UNL A   1      43.141  30.758  29.043  1.00  0.00     0.049 A 
ATOM     63  H   UNL A   1      42.062  30.093  27.366  1.00  0.00     0.167 HD
ATOM     64  C   UNL A   1      45.453  30.384  28.555  1.00  0.00     0.074 A 
ATOM     65  C   UNL A   1      46.861  30.506  28.223  1.00  0.00     0.031 C 
ATOM     66  C   UNL A   1      44.355  31.167  28.339  1.00  0.00     0.031 A 
BRANCH  53  67
ATOM     67  C   UNL A   1      38.489  29.290  28.929  1.00  0.00    -0.014 A 
ATOM     68  C   UNL A   1      37.706  29.772  27.864  1.00  0.00     0.009 A 
ATOM     69  C   UNL A   1      37.833  29.221  30.173  1.00  0.00     0.009 A 
ATOM     70  C   UNL A   1      36.382  30.202  28.045  1.00  0.00     0.001 A 
ATOM     71  C   UNL A   1      36.509  29.637  30.363  1.00  0.00     0.001 A 
ATOM     72  C   UNL A   1      35.784  30.142  29.298  1.00  0.00     0.000 A 
ENDBRANCH  53  67
BRANCH  54  73
ATOM     73  C   UNL A   1      47.590  26.160  29.056  1.00  0.00    -0.014 A 
ATOM     74  C   UNL A   1      47.300  25.908  27.699  1.00  0.00     0.009 A 
ATOM     75  C   UNL A   1      48.807  25.701  29.576  1.00  0.00     0.009 A 
ATOM     76  C   UNL A   1      48.258  25.340  26.857  1.00  0.00     0.001 A 
ATOM     77  C   UNL A   1      49.753  25.103  28.733  1.00  0.00     0.001 A 
ATOM     78  C   UNL A   1      49.494  24.959  27.369  1.00  0.00     0.000 A 
ENDBRANCH  54  73
BRANCH  66  79
ATOM     79  C   UNL A   1      44.299  32.424  27.495  1.00  0.00    -0.014 A 
ATOM     80  C   UNL A   1      44.476  32.468  26.106  1.00  0.00     0.009 A 
ATOM     81  C   UNL A   1      43.941  33.643  28.115  1.00  0.00     0.009 A 
ATOM     82  C   UNL A   1      44.357  33.667  25.386  1.00  0.00     0.001 A 
ATOM     83  C   UNL A   1      43.774  34.831  27.397  1.00  0.00     0.001 A 
ATOM     84  C   UNL A   1      43.997  34.846  26.031  1.00  0.00     0.000 A 
ENDBRANCH  66  79
ENDBRANCH  40  41
ENDBRANCH  32  35
ENDBRANCH  30  31
ENDBRANCH  29  30
ENDBRANCH   1  29
TORSDOF 15
ENDMDL
