MODEL 1
REMARK VINA RESULT:     -12.8      0.000      0.000
REMARK SMILES O=C(NCCCNC(=O)c1ccc(-c2c3nc(c(-c4ccccc4)c4ccc([nH]4)c(-c4ccccc4)c4nc(c(-c5ccccc5)c5ccc2[nH]5)C=C4)C=C3)cc1)C1=Cc2cc(Cl)cc(-c3ccccc3)c2O[C@@H]1C(F)(F)F
REMARK SMILES IDX 5 1 4 2 3 3 1 4 2 5 58 7 59 8 74 9 60 10 73 11 61 12 72 13
REMARK SMILES IDX 62 14 65 15 63 16 64 17 75 18 76 19 77 20 78 21 66 22 67 23
REMARK SMILES IDX 71 24 68 25 70 26 69 27 6 28 7 29 8 30 9 32 10 33 11 34
REMARK SMILES IDX 57 35 12 36 56 37 13 38 14 39 15 40 50 41 16 42 55 43 49 44
REMARK SMILES IDX 51 45 17 46 54 47 48 48 47 49 18 51 40 52 25 53 39 54 26 55
REMARK SMILES IDX 29 56 38 57 52 58 27 59 28 60 37 62 53 63 30 64 19 65 20 66
REMARK SMILES IDX 24 67 21 68 23 69 22 70 41 71 42 72 46 73 43 74 45 75 44 76
REMARK SMILES IDX 31 77 32 78 36 79 33 80 35 81 34 82
REMARK H PARENT 3 6 7 31 51 50 29 61
REMARK Flexibility Score: inf
ROOT
ATOM      1  C   UNL A   1      32.654  28.574  27.250  1.00  0.00     0.042 C 
ENDROOT
BRANCH   1   2
ATOM      2  C   UNL A   1      32.530  27.409  26.267  1.00  0.00     0.118 C 
BRANCH   2   3
ATOM      3  N   UNL A   1      31.768  26.287  26.822  1.00  0.00    -0.352 N 
ATOM      4  O   UNL A   1      31.308  24.112  27.284  1.00  0.00    -0.270 OA
ATOM      5  C   UNL A   1      31.895  24.938  26.601  1.00  0.00     0.251 C 
ATOM      6  H   UNL A   1      31.055  26.539  27.453  1.00  0.00     0.163 HD
BRANCH   5   7
ATOM      7  C   UNL A   1      32.823  24.534  25.538  1.00  0.00     0.067 C 
ATOM      8  C   UNL A   1      34.130  24.719  25.753  1.00  0.00     0.025 C 
ATOM      9  C   UNL A   1      32.296  23.637  24.466  1.00  0.00     0.314 C 
ATOM     10  C   UNL A   1      34.987  23.644  25.245  1.00  0.00     0.019 A 
ATOM     11  O   UNL A   1      33.056  22.406  24.398  1.00  0.00    -0.475 OA
ATOM     12  C   UNL A   1      36.333  23.648  25.619  1.00  0.00     0.032 A 
ATOM     13  C   UNL A   1      34.384  22.461  24.764  1.00  0.00     0.135 A 
ATOM     14  C   UNL A   1      37.043  22.453  25.612  1.00  0.00     0.042 A 
ATOM     15  C   UNL A   1      35.083  21.240  24.813  1.00  0.00     0.026 A 
ATOM     16  Cl  UNL A   1      38.655  22.430  26.215  1.00  0.00    -0.084 Cl
ATOM     17  C   UNL A   1      36.423  21.259  25.242  1.00  0.00     0.033 A 
BRANCH   9  18
ATOM     18  C   UNL A   1      32.217  24.351  23.105  1.00  0.00     0.429 C 
ATOM     19  F   UNL A   1      30.943  24.384  22.643  1.00  0.00    -0.167 F 
ATOM     20  F   UNL A   1      32.633  25.637  23.189  1.00  0.00    -0.167 F 
ATOM     21  F   UNL A   1      32.970  23.747  22.155  1.00  0.00    -0.167 F 
ENDBRANCH   9  18
BRANCH  15  22
ATOM     22  C   UNL A   1      34.404  19.947  24.620  1.00  0.00    -0.015 A 
ATOM     23  C   UNL A   1      35.151  18.755  24.626  1.00  0.00     0.009 A 
ATOM     24  C   UNL A   1      33.021  19.849  24.435  1.00  0.00     0.009 A 
ATOM     25  C   UNL A   1      34.552  17.511  24.434  1.00  0.00     0.001 A 
ATOM     26  C   UNL A   1      32.415  18.602  24.240  1.00  0.00     0.001 A 
ATOM     27  C   UNL A   1      33.181  17.436  24.234  1.00  0.00     0.000 A 
ENDBRANCH  15  22
ENDBRANCH   5   7
ENDBRANCH   2   3
ENDBRANCH   1   2
BRANCH   1  28
ATOM     28  C   UNL A   1      33.469  29.738  26.688  1.00  0.00     0.118 C 
BRANCH  28  29
ATOM     29  N   UNL A   1      33.660  30.859  27.592  1.00  0.00    -0.352 N 
ATOM     30  C   UNL A   1      34.747  31.131  28.408  1.00  0.00     0.251 C 
ATOM     31  H   UNL A   1      32.922  31.510  27.628  1.00  0.00     0.163 HD
ATOM     32  O   UNL A   1      34.735  32.112  29.149  1.00  0.00    -0.269 OA
BRANCH  30  33
ATOM     33  C   UNL A   1      35.877  30.178  28.478  1.00  0.00     0.039 A 
ATOM     34  C   UNL A   1      36.726  30.077  27.371  1.00  0.00     0.014 A 
ATOM     35  C   UNL A   1      36.180  29.490  29.649  1.00  0.00     0.014 A 
ATOM     36  C   UNL A   1      37.960  29.437  27.500  1.00  0.00     0.010 A 
ATOM     37  C   UNL A   1      37.448  28.953  29.814  1.00  0.00     0.010 A 
ATOM     38  C   UNL A   1      38.369  28.964  28.755  1.00  0.00    -0.014 A 
BRANCH  38  39
ATOM     39  C   UNL A   1      39.770  28.552  29.024  1.00  0.00     0.031 A 
ATOM     40  C   UNL A   1      40.756  29.551  29.555  1.00  0.00     0.074 A 
ATOM     41  C   UNL A   1      40.183  27.328  28.641  1.00  0.00     0.049 A 
ATOM     42  N   UNL A   1      42.057  29.460  29.644  1.00  0.00    -0.248 NA
ATOM     43  C   UNL A   1      40.208  30.844  29.995  1.00  0.00     0.031 C 
ATOM     44  C   UNL A   1      39.336  26.284  28.052  1.00  0.00     0.029 A 
ATOM     45  N   UNL A   1      41.430  26.755  28.672  1.00  0.00    -0.354 N 
ATOM     46  C   UNL A   1      42.488  30.702  30.093  1.00  0.00     0.074 A 
ATOM     47  C   UNL A   1      41.313  31.536  30.226  1.00  0.00     0.031 C 
ATOM     48  C   UNL A   1      40.078  25.192  27.815  1.00  0.00     0.029 A 
ATOM     49  C   UNL A   1      41.460  25.471  28.182  1.00  0.00     0.049 A 
ATOM     50  H   UNL A   1      42.227  27.220  29.013  1.00  0.00     0.167 HD
ATOM     51  C   UNL A   1      43.748  31.107  30.379  1.00  0.00     0.031 A 
ATOM     52  C   UNL A   1      42.489  24.617  28.035  1.00  0.00     0.031 A 
ATOM     53  C   UNL A   1      44.904  30.258  30.292  1.00  0.00     0.049 A 
ATOM     54  C   UNL A   1      43.867  25.064  28.429  1.00  0.00     0.074 A 
ATOM     55  C   UNL A   1      46.218  30.548  30.617  1.00  0.00     0.029 A 
ATOM     56  N   UNL A   1      44.877  28.940  29.863  1.00  0.00    -0.354 N 
ATOM     57  N   UNL A   1      44.255  26.231  28.881  1.00  0.00    -0.248 NA
ATOM     58  C   UNL A   1      44.946  24.075  28.299  1.00  0.00     0.031 C 
ATOM     59  C   UNL A   1      46.989  29.406  30.370  1.00  0.00     0.029 A 
ATOM     60  C   UNL A   1      46.148  28.398  29.923  1.00  0.00     0.049 A 
ATOM     61  H   UNL A   1      44.072  28.460  29.562  1.00  0.00     0.167 HD
ATOM     62  C   UNL A   1      45.616  26.111  29.116  1.00  0.00     0.074 A 
ATOM     63  C   UNL A   1      45.986  24.754  28.765  1.00  0.00     0.031 C 
ATOM     64  C   UNL A   1      46.484  27.041  29.583  1.00  0.00     0.031 A 
BRANCH  51  65
ATOM     65  C   UNL A   1      43.922  32.537  30.808  1.00  0.00    -0.014 A 
ATOM     66  C   UNL A   1      43.857  32.905  32.161  1.00  0.00     0.009 A 
ATOM     67  C   UNL A   1      44.138  33.534  29.844  1.00  0.00     0.009 A 
ATOM     68  C   UNL A   1      43.947  34.247  32.536  1.00  0.00     0.001 A 
ATOM     69  C   UNL A   1      44.259  34.872  30.225  1.00  0.00     0.001 A 
ATOM     70  C   UNL A   1      44.149  35.229  31.568  1.00  0.00     0.000 A 
ENDBRANCH  51  65
BRANCH  52  71
ATOM     71  C   UNL A   1      42.248  23.241  27.529  1.00  0.00    -0.014 A 
ATOM     72  C   UNL A   1      42.499  22.936  26.182  1.00  0.00     0.009 A 
ATOM     73  C   UNL A   1      41.786  22.226  28.380  1.00  0.00     0.009 A 
ATOM     74  C   UNL A   1      42.273  21.648  25.692  1.00  0.00     0.001 A 
ATOM     75  C   UNL A   1      41.583  20.933  27.892  1.00  0.00     0.001 A 
ATOM     76  C   UNL A   1      41.819  20.646  26.549  1.00  0.00     0.000 A 
ENDBRANCH  52  71
BRANCH  64  77
ATOM     77  C   UNL A   1      47.904  26.605  29.787  1.00  0.00    -0.014 A 
ATOM     78  C   UNL A   1      48.317  26.011  30.988  1.00  0.00     0.009 A 
ATOM     79  C   UNL A   1      48.825  26.743  28.737  1.00  0.00     0.009 A 
ATOM     80  C   UNL A   1      49.636  25.581  31.142  1.00  0.00     0.001 A 
ATOM     81  C   UNL A   1      50.137  26.294  28.887  1.00  0.00     0.001 A 
ATOM     82  C   UNL A   1      50.543  25.719  30.090  1.00  0.00     0.000 A 
ENDBRANCH  64  77
ENDBRANCH  38  39
ENDBRANCH  30  33
ENDBRANCH  28  29
ENDBRANCH   1  28
TORSDOF 12
ENDMDL
MODEL 2
REMARK VINA RESULT:     -12.6      3.069      6.195
REMARK SMILES O=C(NCCCNC(=O)c1ccc(-c2c3nc(c(-c4ccccc4)c4ccc([nH]4)c(-c4ccccc4)c4nc(c(-c5ccccc5)c5ccc2[nH]5)C=C4)C=C3)cc1)C1=Cc2cc(Cl)cc(-c3ccccc3)c2O[C@@H]1C(F)(F)F
REMARK SMILES IDX 5 1 4 2 3 3 1 4 2 5 58 7 59 8 74 9 60 10 73 11 61 12 72 13
REMARK SMILES IDX 62 14 65 15 63 16 64 17 75 18 76 19 77 20 78 21 66 22 67 23
REMARK SMILES IDX 71 24 68 25 70 26 69 27 6 28 7 29 8 30 9 32 10 33 11 34
REMARK SMILES IDX 57 35 12 36 56 37 13 38 14 39 15 40 50 41 16 42 55 43 49 44
REMARK SMILES IDX 51 45 17 46 54 47 48 48 47 49 18 51 40 52 25 53 39 54 26 55
REMARK SMILES IDX 29 56 38 57 52 58 27 59 28 60 37 62 53 63 30 64 19 65 20 66
REMARK SMILES IDX 24 67 21 68 23 69 22 70 41 71 42 72 46 73 43 74 45 75 44 76
REMARK SMILES IDX 31 77 32 78 36 79 33 80 35 81 34 82
REMARK H PARENT 3 6 7 31 51 50 29 61
REMARK Flexibility Score: inf
ROOT
ATOM      1  C   UNL A   1      31.827  27.892  26.889  1.00  0.00     0.042 C 
ENDROOT
BRANCH   1   2
ATOM      2  C   UNL A   1      31.908  26.580  26.108  1.00  0.00     0.118 C 
BRANCH   2   3
ATOM      3  N   UNL A   1      31.357  25.447  26.857  1.00  0.00    -0.352 N 
ATOM      4  O   UNL A   1      31.227  23.300  27.582  1.00  0.00    -0.270 OA
ATOM      5  C   UNL A   1      31.630  24.106  26.756  1.00  0.00     0.251 C 
ATOM      6  H   UNL A   1      30.689  25.685  27.540  1.00  0.00     0.163 HD
BRANCH   5   7
ATOM      7  C   UNL A   1      32.484  23.694  25.636  1.00  0.00     0.067 C 
ATOM      8  C   UNL A   1      33.793  23.952  25.727  1.00  0.00     0.025 C 
ATOM      9  C   UNL A   1      31.915  22.720  24.656  1.00  0.00     0.314 C 
ATOM     10  C   UNL A   1      34.658  22.895  25.195  1.00  0.00     0.019 A 
ATOM     11  O   UNL A   1      32.729  21.526  24.577  1.00  0.00    -0.475 OA
ATOM     12  C   UNL A   1      36.029  22.982  25.449  1.00  0.00     0.032 A 
ATOM     13  C   UNL A   1      34.079  21.662  24.823  1.00  0.00     0.135 A 
ATOM     14  C   UNL A   1      36.798  21.824  25.435  1.00  0.00     0.042 A 
ATOM     15  C   UNL A   1      34.842  20.480  24.866  1.00  0.00     0.026 A 
ATOM     16  Cl  UNL A   1      38.453  21.908  25.895  1.00  0.00    -0.084 Cl
ATOM     17  C   UNL A   1      36.211  20.584  25.175  1.00  0.00     0.033 A 
BRANCH   9  18
ATOM     18  C   UNL A   1      31.683  23.361  23.276  1.00  0.00     0.429 C 
ATOM     19  F   UNL A   1      30.366  23.602  23.063  1.00  0.00    -0.167 F 
ATOM     20  F   UNL A   1      32.319  24.552  23.163  1.00  0.00    -0.167 F 
ATOM     21  F   UNL A   1      32.114  22.578  22.259  1.00  0.00    -0.167 F 
ENDBRANCH   9  18
BRANCH  15  22
ATOM     22  C   UNL A   1      34.217  19.148  24.792  1.00  0.00    -0.015 A 
ATOM     23  C   UNL A   1      34.900  18.087  24.170  1.00  0.00     0.009 A 
ATOM     24  C   UNL A   1      32.954  18.884  25.331  1.00  0.00     0.009 A 
ATOM     25  C   UNL A   1      34.342  16.814  24.066  1.00  0.00     0.001 A 
ATOM     26  C   UNL A   1      32.388  17.608  25.227  1.00  0.00     0.001 A 
ATOM     27  C   UNL A   1      33.079  16.576  24.591  1.00  0.00     0.000 A 
ENDBRANCH  15  22
ENDBRANCH   5   7
ENDBRANCH   2   3
ENDBRANCH   1   2
BRANCH   1  28
ATOM     28  C   UNL A   1      32.603  29.027  26.222  1.00  0.00     0.118 C 
BRANCH  28  29
ATOM     29  N   UNL A   1      32.297  30.361  26.707  1.00  0.00    -0.352 N 
ATOM     30  C   UNL A   1      33.156  31.290  27.273  1.00  0.00     0.251 C 
ATOM     31  H   UNL A   1      31.357  30.642  26.622  1.00  0.00     0.163 HD
ATOM     32  O   UNL A   1      32.726  32.371  27.670  1.00  0.00    -0.269 OA
BRANCH  30  33
ATOM     33  C   UNL A   1      34.574  30.939  27.509  1.00  0.00     0.039 A 
ATOM     34  C   UNL A   1      35.499  31.980  27.646  1.00  0.00     0.014 A 
ATOM     35  C   UNL A   1      34.976  29.623  27.720  1.00  0.00     0.014 A 
ATOM     36  C   UNL A   1      36.766  31.716  28.169  1.00  0.00     0.010 A 
ATOM     37  C   UNL A   1      36.190  29.373  28.342  1.00  0.00     0.010 A 
ATOM     38  C   UNL A   1      37.078  30.425  28.617  1.00  0.00    -0.014 A 
BRANCH  38  39
ATOM     39  C   UNL A   1      38.278  30.146  29.446  1.00  0.00     0.031 A 
ATOM     40  C   UNL A   1      39.376  29.278  28.908  1.00  0.00     0.074 A 
ATOM     41  C   UNL A   1      38.297  30.545  30.734  1.00  0.00     0.049 A 
ATOM     42  N   UNL A   1      40.385  28.735  29.538  1.00  0.00    -0.248 NA
ATOM     43  C   UNL A   1      39.299  28.932  27.479  1.00  0.00     0.031 C 
ATOM     44  C   UNL A   1      37.259  31.341  31.399  1.00  0.00     0.029 A 
ATOM     45  N   UNL A   1      39.218  30.319  31.726  1.00  0.00    -0.354 N 
ATOM     46  C   UNL A   1      41.027  27.938  28.599  1.00  0.00     0.074 A 
ATOM     47  C   UNL A   1      40.274  28.044  27.367  1.00  0.00     0.031 C 
ATOM     48  C   UNL A   1      37.621  31.567  32.671  1.00  0.00     0.029 A 
ATOM     49  C   UNL A   1      38.884  30.890  32.931  1.00  0.00     0.049 A 
ATOM     50  H   UNL A   1      40.041  29.797  31.587  1.00  0.00     0.167 HD
ATOM     51  C   UNL A   1      42.149  27.194  28.746  1.00  0.00     0.031 A 
ATOM     52  C   UNL A   1      39.521  30.864  34.116  1.00  0.00     0.031 A 
ATOM     53  C   UNL A   1      42.918  27.133  29.958  1.00  0.00     0.049 A 
ATOM     54  C   UNL A   1      40.803  30.092  34.235  1.00  0.00     0.074 A 
ATOM     55  C   UNL A   1      44.104  26.460  30.198  1.00  0.00     0.029 A 
ATOM     56  N   UNL A   1      42.584  27.790  31.132  1.00  0.00    -0.354 N 
ATOM     57  N   UNL A   1      41.413  29.367  33.330  1.00  0.00    -0.248 NA
ATOM     58  C   UNL A   1      41.484  30.139  35.536  1.00  0.00     0.031 C 
ATOM     59  C   UNL A   1      44.479  26.699  31.525  1.00  0.00     0.029 A 
ATOM     60  C   UNL A   1      43.543  27.547  32.098  1.00  0.00     0.049 A 
ATOM     61  H   UNL A   1      41.783  28.348  31.259  1.00  0.00     0.167 HD
ATOM     62  C   UNL A   1      42.566  28.895  33.940  1.00  0.00     0.074 A 
ATOM     63  C   UNL A   1      42.573  29.421  35.291  1.00  0.00     0.031 C 
ATOM     64  C   UNL A   1      43.533  28.097  33.428  1.00  0.00     0.031 A 
BRANCH  51  65
ATOM     65  C   UNL A   1      42.593  26.389  27.557  1.00  0.00    -0.014 A 
ATOM     66  C   UNL A   1      43.446  26.935  26.585  1.00  0.00     0.009 A 
ATOM     67  C   UNL A   1      42.137  25.071  27.396  1.00  0.00     0.009 A 
ATOM     68  C   UNL A   1      43.790  26.199  25.450  1.00  0.00     0.001 A 
ATOM     69  C   UNL A   1      42.508  24.326  26.275  1.00  0.00     0.001 A 
ATOM     70  C   UNL A   1      43.321  24.895  25.296  1.00  0.00     0.000 A 
ENDBRANCH  51  65
BRANCH  52  71
ATOM     71  C   UNL A   1      38.976  31.624  35.270  1.00  0.00    -0.014 A 
ATOM     72  C   UNL A   1      39.213  33.003  35.376  1.00  0.00     0.009 A 
ATOM     73  C   UNL A   1      38.207  30.990  36.257  1.00  0.00     0.009 A 
ATOM     74  C   UNL A   1      38.710  33.729  36.457  1.00  0.00     0.001 A 
ATOM     75  C   UNL A   1      37.685  31.724  37.326  1.00  0.00     0.001 A 
ATOM     76  C   UNL A   1      37.943  33.089  37.429  1.00  0.00     0.000 A 
ENDBRANCH  52  71
BRANCH  64  77
ATOM     77  C   UNL A   1      44.702  27.788  34.316  1.00  0.00    -0.014 A 
ATOM     78  C   UNL A   1      45.778  28.678  34.436  1.00  0.00     0.009 A 
ATOM     79  C   UNL A   1      44.693  26.613  35.084  1.00  0.00     0.009 A 
ATOM     80  C   UNL A   1      46.838  28.386  35.296  1.00  0.00     0.001 A 
ATOM     81  C   UNL A   1      45.744  26.334  35.956  1.00  0.00     0.001 A 
ATOM     82  C   UNL A   1      46.818  27.217  36.058  1.00  0.00     0.000 A 
ENDBRANCH  64  77
ENDBRANCH  38  39
ENDBRANCH  30  33
ENDBRANCH  28  29
ENDBRANCH   1  28
TORSDOF 12
ENDMDL
MODEL 3
REMARK VINA RESULT:     -12.6      3.011      8.182
REMARK SMILES O=C(NCCCNC(=O)c1ccc(-c2c3nc(c(-c4ccccc4)c4ccc([nH]4)c(-c4ccccc4)c4nc(c(-c5ccccc5)c5ccc2[nH]5)C=C4)C=C3)cc1)C1=Cc2cc(Cl)cc(-c3ccccc3)c2O[C@@H]1C(F)(F)F
REMARK SMILES IDX 5 1 4 2 3 3 1 4 2 5 58 7 59 8 74 9 60 10 73 11 61 12 72 13
REMARK SMILES IDX 62 14 65 15 63 16 64 17 75 18 76 19 77 20 78 21 66 22 67 23
REMARK SMILES IDX 71 24 68 25 70 26 69 27 6 28 7 29 8 30 9 32 10 33 11 34
REMARK SMILES IDX 57 35 12 36 56 37 13 38 14 39 15 40 50 41 16 42 55 43 49 44
REMARK SMILES IDX 51 45 17 46 54 47 48 48 47 49 18 51 40 52 25 53 39 54 26 55
REMARK SMILES IDX 29 56 38 57 52 58 27 59 28 60 37 62 53 63 30 64 19 65 20 66
REMARK SMILES IDX 24 67 21 68 23 69 22 70 41 71 42 72 46 73 43 74 45 75 44 76
REMARK SMILES IDX 31 77 32 78 36 79 33 80 35 81 34 82
REMARK H PARENT 3 6 7 31 51 50 29 61
REMARK Flexibility Score: inf
ROOT
ATOM      1  C   UNL A   1      36.587  21.624  25.377  1.00  0.00     0.042 C 
ENDROOT
BRANCH   1   2
ATOM      2  C   UNL A   1      35.209  22.277  25.263  1.00  0.00     0.118 C 
BRANCH   2   3
ATOM      3  N   UNL A   1      35.004  22.929  23.966  1.00  0.00    -0.352 N 
ATOM      4  O   UNL A   1      34.411  24.603  22.551  1.00  0.00    -0.270 OA
ATOM      5  C   UNL A   1      34.335  24.087  23.656  1.00  0.00     0.251 C 
ATOM      6  H   UNL A   1      35.411  22.466  23.198  1.00  0.00     0.163 HD
BRANCH   5   7
ATOM      7  C   UNL A   1      33.567  24.709  24.742  1.00  0.00     0.067 C 
ATOM      8  C   UNL A   1      34.197  25.600  25.515  1.00  0.00     0.025 C 
ATOM      9  C   UNL A   1      32.079  24.585  24.693  1.00  0.00     0.314 C 
ATOM     10  C   UNL A   1      33.378  26.750  25.906  1.00  0.00     0.019 A 
ATOM     11  O   UNL A   1      31.449  25.888  24.675  1.00  0.00    -0.475 OA
ATOM     12  C   UNL A   1      34.016  27.829  26.523  1.00  0.00     0.032 A 
ATOM     13  C   UNL A   1      32.110  26.920  25.308  1.00  0.00     0.135 A 
ATOM     14  C   UNL A   1      33.440  29.091  26.450  1.00  0.00     0.042 A 
ATOM     15  C   UNL A   1      31.554  28.207  25.182  1.00  0.00     0.026 A 
ATOM     16  Cl  UNL A   1      34.298  30.444  27.078  1.00  0.00    -0.084 Cl
ATOM     17  C   UNL A   1      32.240  29.287  25.766  1.00  0.00     0.033 A 
BRANCH   9  18
ATOM     18  C   UNL A   1      31.538  23.690  25.823  1.00  0.00     0.429 C 
ATOM     19  F   UNL A   1      30.270  24.033  26.154  1.00  0.00    -0.167 F 
ATOM     20  F   UNL A   1      31.505  22.386  25.457  1.00  0.00    -0.167 F 
ATOM     21  F   UNL A   1      32.281  23.771  26.952  1.00  0.00    -0.167 F 
ENDBRANCH   9  18
BRANCH  15  22
ATOM     22  C   UNL A   1      30.400  28.473  24.304  1.00  0.00    -0.015 A 
ATOM     23  C   UNL A   1      30.215  29.756  23.759  1.00  0.00     0.009 A 
ATOM     24  C   UNL A   1      29.468  27.483  23.974  1.00  0.00     0.009 A 
ATOM     25  C   UNL A   1      29.132  30.056  22.935  1.00  0.00     0.001 A 
ATOM     26  C   UNL A   1      28.377  27.780  23.148  1.00  0.00     0.001 A 
ATOM     27  C   UNL A   1      28.207  29.065  22.634  1.00  0.00     0.000 A 
ENDBRANCH  15  22
ENDBRANCH   5   7
ENDBRANCH   2   3
ENDBRANCH   1   2
BRANCH   1  28
ATOM     28  C   UNL A   1      37.728  22.640  25.333  1.00  0.00     0.118 C 
BRANCH  28  29
ATOM     29  N   UNL A   1      39.024  22.141  25.758  1.00  0.00    -0.352 N 
ATOM     30  C   UNL A   1      39.995  22.791  26.504  1.00  0.00     0.251 C 
ATOM     31  H   UNL A   1      39.240  21.221  25.480  1.00  0.00     0.163 HD
ATOM     32  O   UNL A   1      41.064  22.236  26.747  1.00  0.00    -0.269 OA
BRANCH  30  33
ATOM     33  C   UNL A   1      39.796  24.200  26.910  1.00  0.00     0.039 A 
ATOM     34  C   UNL A   1      39.195  24.453  28.148  1.00  0.00     0.014 A 
ATOM     35  C   UNL A   1      40.301  25.256  26.157  1.00  0.00     0.014 A 
ATOM     36  C   UNL A   1      39.267  25.731  28.705  1.00  0.00     0.010 A 
ATOM     37  C   UNL A   1      40.472  26.497  26.753  1.00  0.00     0.010 A 
ATOM     38  C   UNL A   1      39.998  26.733  28.052  1.00  0.00    -0.014 A 
BRANCH  38  39
ATOM     39  C   UNL A   1      40.363  28.007  28.723  1.00  0.00     0.031 A 
ATOM     40  C   UNL A   1      41.686  28.136  29.418  1.00  0.00     0.074 A 
ATOM     41  C   UNL A   1      39.438  28.981  28.836  1.00  0.00     0.049 A 
ATOM     42  N   UNL A   1      42.100  29.064  30.242  1.00  0.00    -0.248 NA
ATOM     43  C   UNL A   1      42.652  27.048  29.198  1.00  0.00     0.031 C 
ATOM     44  C   UNL A   1      38.089  28.952  28.259  1.00  0.00     0.029 A 
ATOM     45  N   UNL A   1      39.484  30.185  29.494  1.00  0.00    -0.354 N 
ATOM     46  C   UNL A   1      43.347  28.641  30.682  1.00  0.00     0.074 A 
ATOM     47  C   UNL A   1      43.607  27.361  30.061  1.00  0.00     0.031 C 
ATOM     48  C   UNL A   1      37.455  30.097  28.556  1.00  0.00     0.029 A 
ATOM     49  C   UNL A   1      38.326  30.918  29.387  1.00  0.00     0.049 A 
ATOM     50  H   UNL A   1      40.273  30.494  29.995  1.00  0.00     0.167 HD
ATOM     51  C   UNL A   1      44.205  29.270  31.521  1.00  0.00     0.031 A 
ATOM     52  C   UNL A   1      37.999  32.113  29.909  1.00  0.00     0.031 A 
ATOM     53  C   UNL A   1      43.962  30.564  32.096  1.00  0.00     0.049 A 
ATOM     54  C   UNL A   1      38.995  32.826  30.777  1.00  0.00     0.074 A 
ATOM     55  C   UNL A   1      44.790  31.320  32.909  1.00  0.00     0.029 A 
ATOM     56  N   UNL A   1      42.807  31.305  31.898  1.00  0.00    -0.354 N 
ATOM     57  N   UNL A   1      40.183  32.428  31.161  1.00  0.00    -0.248 NA
ATOM     58  C   UNL A   1      38.608  34.152  31.276  1.00  0.00     0.031 C 
ATOM     59  C   UNL A   1      44.126  32.514  33.216  1.00  0.00     0.029 A 
ATOM     60  C   UNL A   1      42.901  32.513  32.566  1.00  0.00     0.049 A 
ATOM     61  H   UNL A   1      42.034  31.015  31.361  1.00  0.00     0.167 HD
ATOM     62  C   UNL A   1      40.699  33.465  31.924  1.00  0.00     0.074 A 
ATOM     63  C   UNL A   1      39.698  34.512  31.942  1.00  0.00     0.031 C 
ATOM     64  C   UNL A   1      41.896  33.543  32.553  1.00  0.00     0.031 A 
BRANCH  51  65
ATOM     65  C   UNL A   1      45.479  28.548  31.859  1.00  0.00    -0.014 A 
ATOM     66  C   UNL A   1      45.549  27.665  32.948  1.00  0.00     0.009 A 
ATOM     67  C   UNL A   1      46.632  28.766  31.088  1.00  0.00     0.009 A 
ATOM     68  C   UNL A   1      46.758  27.059  33.293  1.00  0.00     0.001 A 
ATOM     69  C   UNL A   1      47.833  28.134  31.417  1.00  0.00     0.001 A 
ATOM     70  C   UNL A   1      47.899  27.293  32.526  1.00  0.00     0.000 A 
ENDBRANCH  51  65
BRANCH  52  71
ATOM     71  C   UNL A   1      36.685  32.729  29.590  1.00  0.00    -0.014 A 
ATOM     72  C   UNL A   1      36.495  33.379  28.360  1.00  0.00     0.009 A 
ATOM     73  C   UNL A   1      35.613  32.660  30.493  1.00  0.00     0.009 A 
ATOM     74  C   UNL A   1      35.266  33.966  28.050  1.00  0.00     0.001 A 
ATOM     75  C   UNL A   1      34.378  33.227  30.170  1.00  0.00     0.001 A 
ATOM     76  C   UNL A   1      34.208  33.886  28.953  1.00  0.00     0.000 A 
ENDBRANCH  52  71
BRANCH  64  77
ATOM     77  C   UNL A   1      42.206  34.823  33.270  1.00  0.00    -0.014 A 
ATOM     78  C   UNL A   1      41.756  35.051  34.578  1.00  0.00     0.009 A 
ATOM     79  C   UNL A   1      43.007  35.790  32.641  1.00  0.00     0.009 A 
ATOM     80  C   UNL A   1      42.086  36.235  35.238  1.00  0.00     0.001 A 
ATOM     81  C   UNL A   1      43.351  36.963  33.311  1.00  0.00     0.001 A 
ATOM     82  C   UNL A   1      42.887  37.188  34.606  1.00  0.00     0.000 A 
ENDBRANCH  64  77
ENDBRANCH  38  39
ENDBRANCH  30  33
ENDBRANCH  28  29
ENDBRANCH   1  28
TORSDOF 12
ENDMDL
