MODEL 1
REMARK VINA RESULT:     -10.4      0.000      0.000
REMARK SMILES O=C(C[N@@H+](Cc1c(F)cccc1Cl)C1CC1)NCCCNC(=O)c1ccc(-c2c3nc(c(-c4ccccc4)c4ccc([nH]4)c(-c4ccccc4)c4nc(c(-c5ccccc5)c5ccc2[nH]5)C=C4)C=C3)cc1
REMARK SMILES IDX 18 1 17 2 1 3 2 4 3 6 4 7 5 9 6 10 7 11 12 12 8 13 9 14
REMARK SMILES IDX 11 15 13 16 10 17 14 18 15 19 16 20 19 21 20 22 21 23 22 24
REMARK SMILES IDX 23 26 24 27 25 28 71 29 26 30 70 31 27 32 28 33 29 34 64 35
REMARK SMILES IDX 30 36 69 37 63 38 65 39 31 40 68 41 62 42 61 43 32 45 54 46
REMARK SMILES IDX 39 47 53 48 40 49 43 50 52 51 66 52 41 53 42 54 51 56 67 57
REMARK SMILES IDX 44 58 33 59 34 60 38 61 35 62 37 63 36 64 55 65 56 66 60 67
REMARK SMILES IDX 57 68 59 69 58 70 45 71 46 72 50 73 47 74 49 75 48 76
REMARK H PARENT 17 5 4 8 21 25 65 44 43 55
REMARK Flexibility Score: inf
ROOT
ATOM      1  C   UNL A   1      31.499  30.572  26.629  1.00  0.00     0.118 C 
ENDROOT
BRANCH   1   2
ATOM      2  N   UNL A   1      31.627  29.999  25.306  1.00  0.00    -0.351 N 
ATOM      3  O   UNL A   1      33.722  29.147  25.668  1.00  0.00    -0.269 OA
ATOM      4  C   UNL A   1      32.750  29.295  24.928  1.00  0.00     0.275 C 
ATOM      5  H   UNL A   1      30.893  30.116  24.659  1.00  0.00     0.163 HD
BRANCH   4   6
ATOM      6  C   UNL A   1      32.754  28.790  23.485  1.00  0.00     0.364 C 
BRANCH   6   7
ATOM      7  N   UNL A   1      32.092  27.486  23.294  1.00  0.00    -0.321 N 
ATOM      8  H   UNL A   1      31.555  27.292  24.139  1.00  0.00     0.349 HD
BRANCH   7   9
ATOM      9  C   UNL A   1      30.976  27.513  22.323  1.00  0.00     0.304 C 
BRANCH   9  10
ATOM     10  C   UNL A   1      29.582  27.820  22.839  1.00  0.00     0.061 A 
ATOM     11  C   UNL A   1      28.911  26.849  23.598  1.00  0.00     0.133 A 
ATOM     12  C   UNL A   1      28.895  29.025  22.630  1.00  0.00     0.052 A 
ATOM     13  F   UNL A   1      29.562  25.747  24.000  1.00  0.00    -0.206 F 
ATOM     14  C   UNL A   1      27.570  26.973  23.957  1.00  0.00     0.040 A 
ATOM     15  C   UNL A   1      27.538  29.152  22.963  1.00  0.00     0.021 A 
ATOM     16  Cl  UNL A   1      29.678  30.465  22.075  1.00  0.00    -0.084 Cl
ATOM     17  C   UNL A   1      26.864  28.112  23.597  1.00  0.00     0.005 A 
ENDBRANCH   9  10
ENDBRANCH   7   9
BRANCH   7  18
ATOM     18  C   UNL A   1      32.983  26.315  23.380  1.00  0.00     0.185 C 
ATOM     19  C   UNL A   1      33.975  25.969  24.449  1.00  0.00     0.071 C 
ATOM     20  C   UNL A   1      32.677  25.230  24.386  1.00  0.00     0.071 C 
ENDBRANCH   7  18
ENDBRANCH   6   7
ENDBRANCH   4   6
ENDBRANCH   1   2
BRANCH   1  21
ATOM     21  C   UNL A   1      31.435  32.096  26.603  1.00  0.00     0.042 C 
BRANCH  21  22
ATOM     22  C   UNL A   1      32.682  32.780  27.156  1.00  0.00     0.118 C 
BRANCH  22  23
ATOM     23  N   UNL A   1      32.424  34.139  27.618  1.00  0.00    -0.352 N 
ATOM     24  C   UNL A   1      33.033  34.882  28.593  1.00  0.00     0.251 C 
ATOM     25  H   UNL A   1      31.691  34.599  27.149  1.00  0.00     0.163 HD
ATOM     26  O   UNL A   1      32.532  35.960  28.932  1.00  0.00    -0.269 OA
BRANCH  24  27
ATOM     27  C   UNL A   1      34.264  34.414  29.261  1.00  0.00     0.039 A 
ATOM     28  C   UNL A   1      34.153  33.787  30.508  1.00  0.00     0.014 A 
ATOM     29  C   UNL A   1      35.524  34.615  28.692  1.00  0.00     0.014 A 
ATOM     30  C   UNL A   1      35.295  33.295  31.144  1.00  0.00     0.010 A 
ATOM     31  C   UNL A   1      36.655  34.067  29.297  1.00  0.00     0.010 A 
ATOM     32  C   UNL A   1      36.549  33.391  30.523  1.00  0.00    -0.014 A 
BRANCH  32  33
ATOM     33  C   UNL A   1      37.753  32.757  31.117  1.00  0.00     0.031 A 
ATOM     34  C   UNL A   1      38.361  31.530  30.497  1.00  0.00     0.074 A 
ATOM     35  C   UNL A   1      38.257  33.248  32.267  1.00  0.00     0.049 A 
ATOM     36  N   UNL A   1      39.358  30.799  30.926  1.00  0.00    -0.248 NA
ATOM     37  C   UNL A   1      37.757  31.051  29.245  1.00  0.00     0.031 C 
ATOM     38  C   UNL A   1      37.742  34.415  32.988  1.00  0.00     0.029 A 
ATOM     39  N   UNL A   1      39.308  32.819  33.038  1.00  0.00    -0.354 N 
ATOM     40  C   UNL A   1      39.492  29.766  30.006  1.00  0.00     0.074 A 
ATOM     41  C   UNL A   1      38.449  29.944  29.018  1.00  0.00     0.031 C 
ATOM     42  C   UNL A   1      38.489  34.618  34.084  1.00  0.00     0.029 A 
ATOM     43  C   UNL A   1      39.505  33.574  34.168  1.00  0.00     0.049 A 
ATOM     44  H   UNL A   1      39.867  32.044  32.803  1.00  0.00     0.167 HD
ATOM     45  C   UNL A   1      40.408  28.768  29.979  1.00  0.00     0.031 A 
ATOM     46  C   UNL A   1      40.391  33.435  35.171  1.00  0.00     0.031 A 
ATOM     47  C   UNL A   1      41.447  28.590  30.958  1.00  0.00     0.049 A 
ATOM     48  C   UNL A   1      41.374  32.300  35.133  1.00  0.00     0.074 A 
ATOM     49  C   UNL A   1      42.456  27.643  30.982  1.00  0.00     0.029 A 
ATOM     50  N   UNL A   1      41.608  29.373  32.091  1.00  0.00    -0.354 N 
ATOM     51  N   UNL A   1      41.527  31.369  34.224  1.00  0.00    -0.248 NA
ATOM     52  C   UNL A   1      42.311  32.200  36.262  1.00  0.00     0.031 C 
ATOM     53  C   UNL A   1      43.196  27.819  32.157  1.00  0.00     0.029 A 
ATOM     54  C   UNL A   1      42.680  28.910  32.836  1.00  0.00     0.049 A 
ATOM     55  H   UNL A   1      41.045  30.144  32.330  1.00  0.00     0.167 HD
ATOM     56  C   UNL A   1      42.587  30.585  34.659  1.00  0.00     0.074 A 
ATOM     57  C   UNL A   1      43.053  31.162  35.904  1.00  0.00     0.031 C 
ATOM     58  C   UNL A   1      43.126  29.486  34.079  1.00  0.00     0.031 A 
BRANCH  45  59
ATOM     59  C   UNL A   1      40.316  27.776  28.853  1.00  0.00    -0.014 A 
ATOM     60  C   UNL A   1      40.996  27.984  27.642  1.00  0.00     0.009 A 
ATOM     61  C   UNL A   1      39.575  26.595  29.021  1.00  0.00     0.009 A 
ATOM     62  C   UNL A   1      40.907  27.047  26.610  1.00  0.00     0.001 A 
ATOM     63  C   UNL A   1      39.510  25.648  27.998  1.00  0.00     0.001 A 
ATOM     64  C   UNL A   1      40.167  25.880  26.790  1.00  0.00     0.000 A 
ENDBRANCH  45  59
BRANCH  46  65
ATOM     65  C   UNL A   1      40.391  34.399  36.302  1.00  0.00    -0.014 A 
ATOM     66  C   UNL A   1      39.624  34.148  37.449  1.00  0.00     0.009 A 
ATOM     67  C   UNL A   1      41.156  35.574  36.237  1.00  0.00     0.009 A 
ATOM     68  C   UNL A   1      39.603  35.067  38.501  1.00  0.00     0.001 A 
ATOM     69  C   UNL A   1      41.155  36.477  37.302  1.00  0.00     0.001 A 
ATOM     70  C   UNL A   1      40.372  36.228  38.429  1.00  0.00     0.000 A 
ENDBRANCH  46  65
BRANCH  58  71
ATOM     71  C   UNL A   1      44.293  28.847  34.776  1.00  0.00    -0.014 A 
ATOM     72  C   UNL A   1      45.610  29.253  34.509  1.00  0.00     0.009 A 
ATOM     73  C   UNL A   1      44.070  27.847  35.734  1.00  0.00     0.009 A 
ATOM     74  C   UNL A   1      46.682  28.646  35.166  1.00  0.00     0.001 A 
ATOM     75  C   UNL A   1      45.142  27.263  36.411  1.00  0.00     0.001 A 
ATOM     76  C   UNL A   1      46.446  27.655  36.119  1.00  0.00     0.000 A 
ENDBRANCH  58  71
ENDBRANCH  32  33
ENDBRANCH  24  27
ENDBRANCH  22  23
ENDBRANCH  21  22
ENDBRANCH   1  21
TORSDOF 14
ENDMDL
MODEL 2
REMARK VINA RESULT:     -10.2      3.896      8.089
REMARK SMILES O=C(C[N@@H+](Cc1c(F)cccc1Cl)C1CC1)NCCCNC(=O)c1ccc(-c2c3nc(c(-c4ccccc4)c4ccc([nH]4)c(-c4ccccc4)c4nc(c(-c5ccccc5)c5ccc2[nH]5)C=C4)C=C3)cc1
REMARK SMILES IDX 18 1 17 2 1 3 2 4 3 6 4 7 5 9 6 10 7 11 12 12 8 13 9 14
REMARK SMILES IDX 11 15 13 16 10 17 14 18 15 19 16 20 19 21 20 22 21 23 22 24
REMARK SMILES IDX 23 26 24 27 25 28 71 29 26 30 70 31 27 32 28 33 29 34 64 35
REMARK SMILES IDX 30 36 69 37 63 38 65 39 31 40 68 41 62 42 61 43 32 45 54 46
REMARK SMILES IDX 39 47 53 48 40 49 43 50 52 51 66 52 41 53 42 54 51 56 67 57
REMARK SMILES IDX 44 58 33 59 34 60 38 61 35 62 37 63 36 64 55 65 56 66 60 67
REMARK SMILES IDX 57 68 59 69 58 70 45 71 46 72 50 73 47 74 49 75 48 76
REMARK H PARENT 17 5 4 8 21 25 65 44 43 55
REMARK Flexibility Score: inf
ROOT
ATOM      1  C   UNL A   1      31.657  28.196  27.548  1.00  0.00     0.118 C 
ENDROOT
BRANCH   1   2
ATOM      2  N   UNL A   1      31.253  27.051  26.760  1.00  0.00    -0.351 N 
ATOM      3  O   UNL A   1      31.202  28.193  24.775  1.00  0.00    -0.269 OA
ATOM      4  C   UNL A   1      31.073  27.138  25.396  1.00  0.00     0.275 C 
ATOM      5  H   UNL A   1      31.101  26.188  27.209  1.00  0.00     0.163 HD
BRANCH   4   6
ATOM      6  C   UNL A   1      30.603  25.855  24.711  1.00  0.00     0.364 C 
BRANCH   6   7
ATOM      7  N   UNL A   1      31.685  25.059  24.101  1.00  0.00    -0.321 N 
ATOM      8  H   UNL A   1      32.557  25.566  24.251  1.00  0.00     0.349 HD
BRANCH   7   9
ATOM      9  C   UNL A   1      32.017  23.823  24.845  1.00  0.00     0.304 C 
BRANCH   9  10
ATOM     10  C   UNL A   1      33.475  23.414  24.945  1.00  0.00     0.061 A 
ATOM     11  C   UNL A   1      34.382  24.285  25.567  1.00  0.00     0.133 A 
ATOM     12  C   UNL A   1      34.004  22.205  24.469  1.00  0.00     0.052 A 
ATOM     13  F   UNL A   1      33.932  25.372  26.210  1.00  0.00    -0.206 F 
ATOM     14  C   UNL A   1      35.760  24.074  25.542  1.00  0.00     0.040 A 
ATOM     15  C   UNL A   1      35.390  21.994  24.415  1.00  0.00     0.021 A 
ATOM     16  Cl  UNL A   1      33.013  20.854  24.037  1.00  0.00    -0.084 Cl
ATOM     17  C   UNL A   1      36.272  22.944  24.921  1.00  0.00     0.005 A 
ENDBRANCH   9  10
ENDBRANCH   7   9
BRANCH   7  18
ATOM     18  C   UNL A   1      31.721  25.080  22.628  1.00  0.00     0.185 C 
ATOM     19  C   UNL A   1      31.604  26.255  21.705  1.00  0.00     0.071 C 
ATOM     20  C   UNL A   1      32.943  25.631  21.930  1.00  0.00     0.071 C 
ENDBRANCH   7  18
ENDBRANCH   6   7
ENDBRANCH   4   6
ENDBRANCH   1   2
BRANCH   1  21
ATOM     21  C   UNL A   1      33.173  28.343  27.630  1.00  0.00     0.042 C 
BRANCH  21  22
ATOM     22  C   UNL A   1      33.720  29.565  26.897  1.00  0.00     0.118 C 
BRANCH  22  23
ATOM     23  N   UNL A   1      33.727  30.766  27.725  1.00  0.00    -0.352 N 
ATOM     24  C   UNL A   1      34.642  31.217  28.638  1.00  0.00     0.251 C 
ATOM     25  H   UNL A   1      32.943  31.349  27.607  1.00  0.00     0.163 HD
ATOM     26  O   UNL A   1      34.355  32.183  29.353  1.00  0.00    -0.269 OA
BRANCH  24  27
ATOM     27  C   UNL A   1      35.955  30.561  28.799  1.00  0.00     0.039 A 
ATOM     28  C   UNL A   1      36.846  30.570  27.720  1.00  0.00     0.014 A 
ATOM     29  C   UNL A   1      36.304  29.910  29.985  1.00  0.00     0.014 A 
ATOM     30  C   UNL A   1      38.112  29.996  27.857  1.00  0.00     0.010 A 
ATOM     31  C   UNL A   1      37.590  29.394  30.142  1.00  0.00     0.010 A 
ATOM     32  C   UNL A   1      38.510  29.443  29.083  1.00  0.00    -0.014 A 
BRANCH  32  33
ATOM     33  C   UNL A   1      39.895  28.949  29.292  1.00  0.00     0.031 A 
ATOM     34  C   UNL A   1      40.958  29.854  29.848  1.00  0.00     0.074 A 
ATOM     35  C   UNL A   1      40.214  27.698  28.905  1.00  0.00     0.049 A 
ATOM     36  N   UNL A   1      42.234  29.618  30.019  1.00  0.00    -0.248 NA
ATOM     37  C   UNL A   1      40.537  31.206  30.246  1.00  0.00     0.031 C 
ATOM     38  C   UNL A   1      39.283  26.728  28.321  1.00  0.00     0.029 A 
ATOM     39  N   UNL A   1      41.413  27.031  28.934  1.00  0.00    -0.354 N 
ATOM     40  C   UNL A   1      42.771  30.793  30.528  1.00  0.00     0.074 A 
ATOM     41  C   UNL A   1      41.690  31.753  30.603  1.00  0.00     0.031 C 
ATOM     42  C   UNL A   1      39.942  25.588  28.065  1.00  0.00     0.029 A 
ATOM     43  C   UNL A   1      41.346  25.758  28.423  1.00  0.00     0.049 A 
ATOM     44  H   UNL A   1      42.241  27.428  29.287  1.00  0.00     0.167 HD
ATOM     45  C   UNL A   1      44.046  31.047  30.912  1.00  0.00     0.031 A 
ATOM     46  C   UNL A   1      42.308  24.834  28.244  1.00  0.00     0.031 A 
ATOM     47  C   UNL A   1      45.122  30.094  30.841  1.00  0.00     0.049 A 
ATOM     48  C   UNL A   1      43.719  25.153  28.648  1.00  0.00     0.074 A 
ATOM     49  C   UNL A   1      46.433  30.242  31.261  1.00  0.00     0.029 A 
ATOM     50  N   UNL A   1      45.014  28.818  30.312  1.00  0.00    -0.354 N 
ATOM     51  N   UNL A   1      44.198  26.248  29.185  1.00  0.00    -0.248 NA
ATOM     52  C   UNL A   1      44.725  24.104  28.420  1.00  0.00     0.031 C 
ATOM     53  C   UNL A   1      47.132  29.074  30.937  1.00  0.00     0.029 A 
ATOM     54  C   UNL A   1      46.242  28.180  30.365  1.00  0.00     0.049 A 
ATOM     55  H   UNL A   1      44.187  28.423  29.952  1.00  0.00     0.167 HD
ATOM     56  C   UNL A   1      45.552  26.014  29.380  1.00  0.00     0.074 A 
ATOM     57  C   UNL A   1      45.816  24.665  28.920  1.00  0.00     0.031 C 
ATOM     58  C   UNL A   1      46.493  26.842  29.894  1.00  0.00     0.031 A 
BRANCH  45  59
ATOM     59  C   UNL A   1      44.350  32.424  31.432  1.00  0.00    -0.014 A 
ATOM     60  C   UNL A   1      44.718  33.465  30.564  1.00  0.00     0.009 A 
ATOM     61  C   UNL A   1      44.224  32.697  32.803  1.00  0.00     0.009 A 
ATOM     62  C   UNL A   1      44.988  34.741  31.063  1.00  0.00     0.001 A 
ATOM     63  C   UNL A   1      44.469  33.980  33.297  1.00  0.00     0.001 A 
ATOM     64  C   UNL A   1      44.861  34.998  32.427  1.00  0.00     0.000 A 
ENDBRANCH  45  59
BRANCH  46  65
ATOM     65  C   UNL A   1      41.970  23.514  27.653  1.00  0.00    -0.014 A 
ATOM     66  C   UNL A   1      42.076  23.306  26.270  1.00  0.00     0.009 A 
ATOM     67  C   UNL A   1      41.537  22.457  28.470  1.00  0.00     0.009 A 
ATOM     68  C   UNL A   1      41.733  22.072  25.712  1.00  0.00     0.001 A 
ATOM     69  C   UNL A   1      41.222  21.216  27.912  1.00  0.00     0.001 A 
ATOM     70  C   UNL A   1      41.311  21.027  26.533  1.00  0.00     0.000 A 
ENDBRANCH  46  65
BRANCH  58  71
ATOM     71  C   UNL A   1      47.892  26.305  30.002  1.00  0.00    -0.014 A 
ATOM     72  C   UNL A   1      48.771  26.343  28.909  1.00  0.00     0.009 A 
ATOM     73  C   UNL A   1      48.345  25.783  31.223  1.00  0.00     0.009 A 
ATOM     74  C   UNL A   1      50.067  25.837  29.029  1.00  0.00     0.001 A 
ATOM     75  C   UNL A   1      49.651  25.305  31.348  1.00  0.00     0.001 A 
ATOM     76  C   UNL A   1      50.507  25.324  30.249  1.00  0.00     0.000 A 
ENDBRANCH  58  71
ENDBRANCH  32  33
ENDBRANCH  24  27
ENDBRANCH  22  23
ENDBRANCH  21  22
ENDBRANCH   1  21
TORSDOF 14
ENDMDL
MODEL 3
REMARK VINA RESULT:     -10.2      5.967     10.793
REMARK SMILES O=C(C[N@@H+](Cc1c(F)cccc1Cl)C1CC1)NCCCNC(=O)c1ccc(-c2c3nc(c(-c4ccccc4)c4ccc([nH]4)c(-c4ccccc4)c4nc(c(-c5ccccc5)c5ccc2[nH]5)C=C4)C=C3)cc1
REMARK SMILES IDX 18 1 17 2 1 3 2 4 3 6 4 7 5 9 6 10 7 11 12 12 8 13 9 14
REMARK SMILES IDX 11 15 13 16 10 17 14 18 15 19 16 20 19 21 20 22 21 23 22 24
REMARK SMILES IDX 23 26 24 27 25 28 71 29 26 30 70 31 27 32 28 33 29 34 64 35
REMARK SMILES IDX 30 36 69 37 63 38 65 39 31 40 68 41 62 42 61 43 32 45 54 46
REMARK SMILES IDX 39 47 53 48 40 49 43 50 52 51 66 52 41 53 42 54 51 56 67 57
REMARK SMILES IDX 44 58 33 59 34 60 38 61 35 62 37 63 36 64 55 65 56 66 60 67
REMARK SMILES IDX 57 68 59 69 58 70 45 71 46 72 50 73 47 74 49 75 48 76
REMARK H PARENT 17 5 4 8 21 25 65 44 43 55
REMARK Flexibility Score: inf
ROOT
ATOM      1  C   UNL A   1      42.583  19.963  26.012  1.00  0.00     0.118 C 
ENDROOT
BRANCH   1   2
ATOM      2  N   UNL A   1      43.852  20.652  26.115  1.00  0.00    -0.351 N 
ATOM      3  O   UNL A   1      43.278  22.326  24.660  1.00  0.00    -0.269 OA
ATOM      4  C   UNL A   1      44.097  21.822  25.429  1.00  0.00     0.275 C 
ATOM      5  H   UNL A   1      44.558  20.276  26.689  1.00  0.00     0.163 HD
BRANCH   4   6
ATOM      6  C   UNL A   1      45.498  22.407  25.606  1.00  0.00     0.364 C 
BRANCH   6   7
ATOM      7  N   UNL A   1      45.520  23.796  26.105  1.00  0.00    -0.321 N 
ATOM      8  H   UNL A   1      46.468  23.985  26.430  1.00  0.00     0.349 HD
BRANCH   7   9
ATOM      9  C   UNL A   1      45.443  24.820  25.039  1.00  0.00     0.304 C 
BRANCH   9  10
ATOM     10  C   UNL A   1      45.879  26.235  25.371  1.00  0.00     0.061 A 
ATOM     11  C   UNL A   1      47.250  26.518  25.467  1.00  0.00     0.133 A 
ATOM     12  C   UNL A   1      45.008  27.315  25.583  1.00  0.00     0.052 A 
ATOM     13  F   UNL A   1      48.150  25.594  25.101  1.00  0.00    -0.206 F 
ATOM     14  C   UNL A   1      47.732  27.737  25.942  1.00  0.00     0.040 A 
ATOM     15  C   UNL A   1      45.480  28.537  26.085  1.00  0.00     0.021 A 
ATOM     16  Cl  UNL A   1      43.338  27.274  25.131  1.00  0.00    -0.084 Cl
ATOM     17  C   UNL A   1      46.841  28.738  26.298  1.00  0.00     0.005 A 
ENDBRANCH   9  10
ENDBRANCH   7   9
BRANCH   7  18
ATOM     18  C   UNL A   1      44.845  24.005  27.398  1.00  0.00     0.185 C 
ATOM     19  C   UNL A   1      44.776  23.085  28.578  1.00  0.00     0.071 C 
ATOM     20  C   UNL A   1      45.680  24.275  28.628  1.00  0.00     0.071 C 
ENDBRANCH   7  18
ENDBRANCH   6   7
ENDBRANCH   4   6
ENDBRANCH   1   2
BRANCH   1  21
ATOM     21  C   UNL A   1      41.711  20.157  27.248  1.00  0.00     0.042 C 
BRANCH  21  22
ATOM     22  C   UNL A   1      41.053  21.531  27.336  1.00  0.00     0.118 C 
BRANCH  22  23
ATOM     23  N   UNL A   1      39.870  21.647  26.491  1.00  0.00    -0.352 N 
ATOM     24  C   UNL A   1      39.026  22.704  26.275  1.00  0.00     0.251 C 
ATOM     25  H   UNL A   1      39.640  20.830  25.993  1.00  0.00     0.163 HD
ATOM     26  O   UNL A   1      37.980  22.521  25.644  1.00  0.00    -0.269 OA
BRANCH  24  27
ATOM     27  C   UNL A   1      39.332  24.051  26.796  1.00  0.00     0.039 A 
ATOM     28  C   UNL A   1      38.883  24.393  28.077  1.00  0.00     0.014 A 
ATOM     29  C   UNL A   1      40.024  24.991  26.027  1.00  0.00     0.014 A 
ATOM     30  C   UNL A   1      39.195  25.644  28.614  1.00  0.00     0.010 A 
ATOM     31  C   UNL A   1      40.388  26.214  26.587  1.00  0.00     0.010 A 
ATOM     32  C   UNL A   1      39.987  26.548  27.890  1.00  0.00    -0.014 A 
BRANCH  32  33
ATOM     33  C   UNL A   1      40.442  27.826  28.493  1.00  0.00     0.031 A 
ATOM     34  C   UNL A   1      41.851  27.983  28.993  1.00  0.00     0.074 A 
ATOM     35  C   UNL A   1      39.556  28.828  28.660  1.00  0.00     0.049 A 
ATOM     36  N   UNL A   1      42.395  28.995  29.619  1.00  0.00    -0.248 NA
ATOM     37  C   UNL A   1      42.760  26.847  28.778  1.00  0.00     0.031 C 
ATOM     38  C   UNL A   1      38.150  28.794  28.249  1.00  0.00     0.029 A 
ATOM     39  N   UNL A   1      39.703  30.067  29.232  1.00  0.00    -0.354 N 
ATOM     40  C   UNL A   1      43.704  28.614  29.887  1.00  0.00     0.074 A 
ATOM     41  C   UNL A   1      43.860  27.264  29.389  1.00  0.00     0.031 C 
ATOM     42  C   UNL A   1      37.571  29.963  28.565  1.00  0.00     0.029 A 
ATOM     43  C   UNL A   1      38.548  30.810  29.240  1.00  0.00     0.049 A 
ATOM     44  H   UNL A   1      40.556  30.391  29.602  1.00  0.00     0.167 HD
ATOM     45  C   UNL A   1      44.690  29.328  30.482  1.00  0.00     0.031 A 
ATOM     46  C   UNL A   1      38.296  32.031  29.747  1.00  0.00     0.031 A 
ATOM     47  C   UNL A   1      44.538  30.671  30.975  1.00  0.00     0.049 A 
ATOM     48  C   UNL A   1      39.398  32.787  30.430  1.00  0.00     0.074 A 
ATOM     49  C   UNL A   1      45.496  31.495  31.540  1.00  0.00     0.029 A 
ATOM     50  N   UNL A   1      43.351  31.386  30.969  1.00  0.00    -0.354 N 
ATOM     51  N   UNL A   1      40.646  32.437  30.620  1.00  0.00    -0.248 NA
ATOM     52  C   UNL A   1      39.055  34.112  30.969  1.00  0.00     0.031 C 
ATOM     53  C   UNL A   1      44.877  32.689  31.924  1.00  0.00     0.029 A 
ATOM     54  C   UNL A   1      43.545  32.628  31.549  1.00  0.00     0.049 A 
ATOM     55  H   UNL A   1      42.496  31.059  30.606  1.00  0.00     0.167 HD
ATOM     56  C   UNL A   1      41.243  33.503  31.279  1.00  0.00     0.074 A 
ATOM     57  C   UNL A   1      40.224  34.521  31.440  1.00  0.00     0.031 C 
ATOM     58  C   UNL A   1      42.521  33.628  31.713  1.00  0.00     0.031 A 
BRANCH  45  59
ATOM     59  C   UNL A   1      46.026  28.658  30.645  1.00  0.00    -0.014 A 
ATOM     60  C   UNL A   1      47.087  28.926  29.764  1.00  0.00     0.009 A 
ATOM     61  C   UNL A   1      46.242  27.781  31.719  1.00  0.00     0.009 A 
ATOM     62  C   UNL A   1      48.324  28.302  29.935  1.00  0.00     0.001 A 
ATOM     63  C   UNL A   1      47.488  27.179  31.904  1.00  0.00     0.001 A 
ATOM     64  C   UNL A   1      48.524  27.433  31.006  1.00  0.00     0.000 A 
ENDBRANCH  45  59
BRANCH  46  65
ATOM     65  C   UNL A   1      36.936  32.618  29.628  1.00  0.00    -0.014 A 
ATOM     66  C   UNL A   1      36.601  33.419  28.526  1.00  0.00     0.009 A 
ATOM     67  C   UNL A   1      35.968  32.382  30.618  1.00  0.00     0.009 A 
ATOM     68  C   UNL A   1      35.331  33.992  28.428  1.00  0.00     0.001 A 
ATOM     69  C   UNL A   1      34.691  32.935  30.503  1.00  0.00     0.001 A 
ATOM     70  C   UNL A   1      34.376  33.746  29.414  1.00  0.00     0.000 A 
ENDBRANCH  46  65
BRANCH  58  71
ATOM     71  C   UNL A   1      42.892  34.918  32.386  1.00  0.00    -0.014 A 
ATOM     72  C   UNL A   1      42.712  35.094  33.767  1.00  0.00     0.009 A 
ATOM     73  C   UNL A   1      43.458  35.959  31.635  1.00  0.00     0.009 A 
ATOM     74  C   UNL A   1      43.063  36.302  34.375  1.00  0.00     0.001 A 
ATOM     75  C   UNL A   1      43.834  37.154  32.250  1.00  0.00     0.001 A 
ATOM     76  C   UNL A   1      43.627  37.328  33.617  1.00  0.00     0.000 A 
ENDBRANCH  58  71
ENDBRANCH  32  33
ENDBRANCH  24  27
ENDBRANCH  22  23
ENDBRANCH  21  22
ENDBRANCH   1  21
TORSDOF 14
ENDMDL
