MODEL 1
REMARK VINA RESULT:     -12.7      0.000      0.000
REMARK SMILES O=C(NCCCNC(=O)[C@@H]1[C@@H](C(=O)N2CCN(c3cccc(Cl)c3)CC2)[C@H]2CC[C@@H]1O2)c1ccc(-c2c3nc(c(-c4ccccc4)c4ccc([nH]4)c(-c4ccccc4)c4nc(c(-c5ccccc5)c5ccc2[nH]5)C=C4)C=C3)cc1
REMARK SMILES IDX 5 1 4 2 3 3 1 4 2 5 32 7 33 8 79 9 34 10 78 11 35 12 36 13
REMARK SMILES IDX 37 14 72 15 38 16 77 17 71 18 73 19 39 20 76 21 70 22 69 23
REMARK SMILES IDX 40 25 62 26 47 27 61 28 48 29 51 30 60 31 74 32 49 33 50 34
REMARK SMILES IDX 59 36 75 37 52 38 41 39 42 40 46 41 43 42 45 43 44 44 63 45
REMARK SMILES IDX 64 46 68 47 65 48 67 49 66 50 53 51 54 52 58 53 55 54 57 55
REMARK SMILES IDX 56 56 6 57 7 58 8 59 9 61 10 62 11 63 30 64 27 65 29 66
REMARK SMILES IDX 31 67 28 68 12 69 13 70 14 71 15 72 26 73 16 74 25 75 17 76
REMARK SMILES IDX 18 77 19 78 24 79 20 80 22 81 21 82 23 83
REMARK H PARENT 3 6 73 24 51 35 7 60
REMARK Flexibility Score: inf
ROOT
ATOM      1  C   UNL A   1      38.000  19.476  24.996  1.00  0.00     0.042 C 
ENDROOT
BRANCH   1   2
ATOM      2  C   UNL A   1      39.126  20.109  25.795  1.00  0.00     0.118 C 
BRANCH   2   3
ATOM      3  N   UNL A   1      40.328  19.279  25.810  1.00  0.00    -0.352 N 
ATOM      4  O   UNL A   1      42.531  18.816  25.765  1.00  0.00    -0.269 OA
ATOM      5  C   UNL A   1      41.637  19.622  26.028  1.00  0.00     0.251 C 
ATOM      6  H   UNL A   1      40.173  18.323  25.637  1.00  0.00     0.163 HD
BRANCH   5   7
ATOM      7  C   UNL A   1      41.981  20.949  26.573  1.00  0.00     0.039 A 
ATOM      8  C   UNL A   1      42.312  22.000  25.717  1.00  0.00     0.014 A 
ATOM      9  C   UNL A   1      41.928  21.162  27.954  1.00  0.00     0.014 A 
ATOM     10  C   UNL A   1      42.739  23.211  26.240  1.00  0.00     0.010 A 
ATOM     11  C   UNL A   1      42.252  22.418  28.476  1.00  0.00     0.010 A 
ATOM     12  C   UNL A   1      42.682  23.445  27.623  1.00  0.00    -0.014 A 
BRANCH  12  13
ATOM     13  C   UNL A   1      42.992  24.802  28.132  1.00  0.00     0.031 A 
ATOM     14  C   UNL A   1      44.404  25.225  28.419  1.00  0.00     0.074 A 
ATOM     15  C   UNL A   1      41.973  25.667  28.302  1.00  0.00     0.049 A 
ATOM     16  N   UNL A   1      44.842  26.383  28.843  1.00  0.00    -0.248 NA
ATOM     17  C   UNL A   1      45.459  24.222  28.210  1.00  0.00     0.031 C 
ATOM     18  C   UNL A   1      40.559  25.366  28.052  1.00  0.00     0.029 A 
ATOM     19  N   UNL A   1      41.966  26.980  28.698  1.00  0.00    -0.354 N 
ATOM     20  C   UNL A   1      46.218  26.246  28.967  1.00  0.00     0.074 A 
ATOM     21  C   UNL A   1      46.540  24.883  28.603  1.00  0.00     0.031 C 
ATOM     22  C   UNL A   1      39.833  26.475  28.243  1.00  0.00     0.029 A 
ATOM     23  C   UNL A   1      40.713  27.542  28.703  1.00  0.00     0.049 A 
ATOM     24  H   UNL A   1      42.779  27.471  28.953  1.00  0.00     0.167 HD
ATOM     25  C   UNL A   1      47.128  27.176  29.348  1.00  0.00     0.031 A 
ATOM     26  C   UNL A   1      40.309  28.774  29.058  1.00  0.00     0.031 A 
ATOM     27  C   UNL A   1      46.797  28.527  29.720  1.00  0.00     0.049 A 
ATOM     28  C   UNL A   1      41.333  29.761  29.530  1.00  0.00     0.074 A 
ATOM     29  C   UNL A   1      47.648  29.550  30.100  1.00  0.00     0.029 A 
ATOM     30  N   UNL A   1      45.509  29.042  29.766  1.00  0.00    -0.354 N 
ATOM     31  N   UNL A   1      42.634  29.626  29.613  1.00  0.00    -0.248 NA
ATOM     32  C   UNL A   1      40.832  31.074  29.958  1.00  0.00     0.031 C 
ATOM     33  C   UNL A   1      46.871  30.665  30.435  1.00  0.00     0.029 A 
ATOM     34  C   UNL A   1      45.542  30.359  30.197  1.00  0.00     0.049 A 
ATOM     35  H   UNL A   1      44.693  28.546  29.527  1.00  0.00     0.167 HD
ATOM     36  C   UNL A   1      43.111  30.841  30.082  1.00  0.00     0.074 A 
ATOM     37  C   UNL A   1      41.961  31.708  30.242  1.00  0.00     0.031 C 
ATOM     38  C   UNL A   1      44.387  31.206  30.356  1.00  0.00     0.031 A 
BRANCH  25  39
ATOM     39  C   UNL A   1      48.571  26.753  29.414  1.00  0.00    -0.014 A 
ATOM     40  C   UNL A   1      49.435  26.927  28.322  1.00  0.00     0.009 A 
ATOM     41  C   UNL A   1      49.085  26.217  30.605  1.00  0.00     0.009 A 
ATOM     42  C   UNL A   1      50.776  26.542  28.411  1.00  0.00     0.001 A 
ATOM     43  C   UNL A   1      50.431  25.861  30.702  1.00  0.00     0.001 A 
ATOM     44  C   UNL A   1      51.273  26.014  29.602  1.00  0.00     0.000 A 
ENDBRANCH  25  39
BRANCH  26  45
ATOM     45  C   UNL A   1      38.867  29.128  28.999  1.00  0.00    -0.014 A 
ATOM     46  C   UNL A   1      38.295  29.604  27.810  1.00  0.00     0.009 A 
ATOM     47  C   UNL A   1      38.053  28.985  30.135  1.00  0.00     0.009 A 
ATOM     48  C   UNL A   1      36.943  29.953  27.768  1.00  0.00     0.001 A 
ATOM     49  C   UNL A   1      36.695  29.301  30.079  1.00  0.00     0.001 A 
ATOM     50  C   UNL A   1      36.144  29.795  28.899  1.00  0.00     0.000 A 
ENDBRANCH  26  45
BRANCH  38  51
ATOM     51  C   UNL A   1      44.605  32.617  30.822  1.00  0.00    -0.014 A 
ATOM     52  C   UNL A   1      44.807  33.667  29.912  1.00  0.00     0.009 A 
ATOM     53  C   UNL A   1      44.586  32.904  32.197  1.00  0.00     0.009 A 
ATOM     54  C   UNL A   1      45.022  34.967  30.371  1.00  0.00     0.001 A 
ATOM     55  C   UNL A   1      44.767  34.210  32.651  1.00  0.00     0.001 A 
ATOM     56  C   UNL A   1      44.996  35.239  31.739  1.00  0.00     0.000 A 
ENDBRANCH  38  51
ENDBRANCH  12  13
ENDBRANCH   5   7
ENDBRANCH   2   3
ENDBRANCH   1   2
BRANCH   1  57
ATOM     57  C   UNL A   1      36.781  20.378  24.885  1.00  0.00     0.117 C 
BRANCH  57  58
ATOM     58  N   UNL A   1      36.970  21.461  23.929  1.00  0.00    -0.356 N 
ATOM     59  C   UNL A   1      36.275  22.594  23.658  1.00  0.00     0.226 C 
ATOM     60  H   UNL A   1      37.767  21.348  23.363  1.00  0.00     0.163 HD
ATOM     61  O   UNL A   1      36.737  23.315  22.765  1.00  0.00    -0.275 OA
BRANCH  59  62
ATOM     62  C   UNL A   1      34.993  23.026  24.361  1.00  0.00     0.122 C 
ATOM     63  C   UNL A   1      34.310  24.259  23.779  1.00  0.00     0.122 C 
ATOM     64  C   UNL A   1      35.276  23.429  25.810  1.00  0.00     0.132 C 
ATOM     65  C   UNL A   1      34.220  25.158  25.032  1.00  0.00     0.132 C 
ATOM     66  C   UNL A   1      33.981  23.397  26.621  1.00  0.00     0.035 C 
ATOM     67  O   UNL A   1      35.478  24.856  25.694  1.00  0.00    -0.373 OA
ATOM     68  C   UNL A   1      33.261  24.647  26.110  1.00  0.00     0.035 C 
BRANCH  63  69
ATOM     69  C   UNL A   1      32.984  24.169  23.041  1.00  0.00     0.229 C 
ATOM     70  O   UNL A   1      32.522  23.069  22.730  1.00  0.00    -0.274 OA
ATOM     71  N   UNL A   1      32.184  25.296  23.032  1.00  0.00    -0.339 N 
ATOM     72  C   UNL A   1      30.734  25.109  23.173  1.00  0.00     0.141 C 
ATOM     73  C   UNL A   1      32.568  26.647  22.596  1.00  0.00     0.141 C 
ATOM     74  C   UNL A   1      30.143  26.156  24.137  1.00  0.00     0.138 C 
ATOM     75  C   UNL A   1      31.935  27.763  23.450  1.00  0.00     0.138 C 
ATOM     76  N   UNL A   1      30.510  27.500  23.679  1.00  0.00    -0.368 N 
BRANCH  76  77
ATOM     77  C   UNL A   1      29.534  28.443  23.456  1.00  0.00     0.038 A 
ATOM     78  C   UNL A   1      28.217  28.069  23.158  1.00  0.00     0.026 A 
ATOM     79  C   UNL A   1      29.816  29.811  23.569  1.00  0.00     0.046 A 
ATOM     80  C   UNL A   1      27.207  29.024  23.007  1.00  0.00     0.004 A 
ATOM     81  C   UNL A   1      28.814  30.766  23.398  1.00  0.00     0.043 A 
ATOM     82  C   UNL A   1      27.506  30.378  23.126  1.00  0.00     0.020 A 
ATOM     83  Cl  UNL A   1      29.199  32.439  23.529  1.00  0.00    -0.084 Cl
ENDBRANCH  76  77
ENDBRANCH  63  69
ENDBRANCH  59  62
ENDBRANCH  57  58
ENDBRANCH   1  57
TORSDOF 12
ENDMDL
MODEL 2
REMARK VINA RESULT:     -12.6      4.271      9.457
REMARK SMILES O=C(NCCCNC(=O)[C@@H]1[C@@H](C(=O)N2CCN(c3cccc(Cl)c3)CC2)[C@H]2CC[C@@H]1O2)c1ccc(-c2c3nc(c(-c4ccccc4)c4ccc([nH]4)c(-c4ccccc4)c4nc(c(-c5ccccc5)c5ccc2[nH]5)C=C4)C=C3)cc1
REMARK SMILES IDX 5 1 4 2 3 3 1 4 2 5 32 7 33 8 79 9 34 10 78 11 35 12 36 13
REMARK SMILES IDX 37 14 72 15 38 16 77 17 71 18 73 19 39 20 76 21 70 22 69 23
REMARK SMILES IDX 40 25 62 26 47 27 61 28 48 29 51 30 60 31 74 32 49 33 50 34
REMARK SMILES IDX 59 36 75 37 52 38 41 39 42 40 46 41 43 42 45 43 44 44 63 45
REMARK SMILES IDX 64 46 68 47 65 48 67 49 66 50 53 51 54 52 58 53 55 54 57 55
REMARK SMILES IDX 56 56 6 57 7 58 8 59 9 61 10 62 11 63 30 64 27 65 29 66
REMARK SMILES IDX 31 67 28 68 12 69 13 70 14 71 15 72 26 73 16 74 25 75 17 76
REMARK SMILES IDX 18 77 19 78 24 79 20 80 22 81 21 82 23 83
REMARK H PARENT 3 6 73 24 51 35 7 60
REMARK Flexibility Score: inf
ROOT
ATOM      1  C   UNL A   1      31.347  32.077  26.454  1.00  0.00     0.042 C 
ENDROOT
BRANCH   1   2
ATOM      2  C   UNL A   1      32.620  32.532  27.146  1.00  0.00     0.118 C 
BRANCH   2   3
ATOM      3  N   UNL A   1      32.511  33.892  27.669  1.00  0.00    -0.352 N 
ATOM      4  O   UNL A   1      32.831  35.594  29.108  1.00  0.00    -0.269 OA
ATOM      5  C   UNL A   1      33.232  34.523  28.648  1.00  0.00     0.251 C 
ATOM      6  H   UNL A   1      31.808  34.440  27.253  1.00  0.00     0.163 HD
BRANCH   5   7
ATOM      7  C   UNL A   1      34.485  33.930  29.154  1.00  0.00     0.039 A 
ATOM      8  C   UNL A   1      34.448  32.890  30.085  1.00  0.00     0.014 A 
ATOM      9  C   UNL A   1      35.712  34.383  28.661  1.00  0.00     0.014 A 
ATOM     10  C   UNL A   1      35.627  32.412  30.636  1.00  0.00     0.010 A 
ATOM     11  C   UNL A   1      36.901  33.822  29.135  1.00  0.00     0.010 A 
ATOM     12  C   UNL A   1      36.867  32.849  30.144  1.00  0.00    -0.014 A 
BRANCH  12  13
ATOM     13  C   UNL A   1      38.103  32.199  30.643  1.00  0.00     0.031 A 
ATOM     14  C   UNL A   1      38.857  32.754  31.817  1.00  0.00     0.074 A 
ATOM     15  C   UNL A   1      38.520  31.072  30.035  1.00  0.00     0.049 A 
ATOM     16  N   UNL A   1      39.938  32.289  32.390  1.00  0.00    -0.248 NA
ATOM     17  C   UNL A   1      38.338  33.989  32.424  1.00  0.00     0.031 C 
ATOM     18  C   UNL A   1      37.864  30.439  28.885  1.00  0.00     0.029 A 
ATOM     19  N   UNL A   1      39.576  30.241  30.310  1.00  0.00    -0.354 N 
ATOM     20  C   UNL A   1      40.239  33.178  33.412  1.00  0.00     0.074 A 
ATOM     21  C   UNL A   1      39.244  34.228  33.363  1.00  0.00     0.031 C 
ATOM     22  C   UNL A   1      38.495  29.295  28.593  1.00  0.00     0.029 A 
ATOM     23  C   UNL A   1      39.643  29.150  29.479  1.00  0.00     0.049 A 
ATOM     24  H   UNL A   1      40.222  30.411  31.033  1.00  0.00     0.167 HD
ATOM     25  C   UNL A   1      41.252  33.121  34.310  1.00  0.00     0.031 A 
ATOM     26  C   UNL A   1      40.540  28.150  29.419  1.00  0.00     0.031 A 
ATOM     27  C   UNL A   1      42.245  32.078  34.344  1.00  0.00     0.049 A 
ATOM     28  C   UNL A   1      41.683  28.147  30.390  1.00  0.00     0.074 A 
ATOM     29  C   UNL A   1      43.299  31.919  35.227  1.00  0.00     0.029 A 
ATOM     30  N   UNL A   1      42.311  31.020  33.450  1.00  0.00    -0.354 N 
ATOM     31  N   UNL A   1      41.936  28.980  31.369  1.00  0.00    -0.248 NA
ATOM     32  C   UNL A   1      42.664  27.064  30.246  1.00  0.00     0.031 C 
ATOM     33  C   UNL A   1      44.038  30.800  34.831  1.00  0.00     0.029 A 
ATOM     34  C   UNL A   1      43.406  30.221  33.743  1.00  0.00     0.049 A 
ATOM     35  H   UNL A   1      41.675  30.859  32.716  1.00  0.00     0.167 HD
ATOM     36  C   UNL A   1      43.093  28.510  31.974  1.00  0.00     0.074 A 
ATOM     37  C   UNL A   1      43.477  27.306  31.264  1.00  0.00     0.031 C 
ATOM     38  C   UNL A   1      43.777  29.030  33.022  1.00  0.00     0.031 A 
BRANCH  25  39
ATOM     39  C   UNL A   1      41.358  34.238  35.313  1.00  0.00    -0.014 A 
ATOM     40  C   UNL A   1      42.064  35.417  35.025  1.00  0.00     0.009 A 
ATOM     41  C   UNL A   1      40.699  34.129  36.547  1.00  0.00     0.009 A 
ATOM     42  C   UNL A   1      42.134  36.449  35.966  1.00  0.00     0.001 A 
ATOM     43  C   UNL A   1      40.745  35.173  37.473  1.00  0.00     0.001 A 
ATOM     44  C   UNL A   1      41.471  36.327  37.186  1.00  0.00     0.000 A 
ENDBRANCH  25  39
BRANCH  26  45
ATOM     45  C   UNL A   1      40.400  27.088  28.389  1.00  0.00    -0.014 A 
ATOM     46  C   UNL A   1      39.637  25.940  28.645  1.00  0.00     0.009 A 
ATOM     47  C   UNL A   1      41.028  27.223  27.140  1.00  0.00     0.009 A 
ATOM     48  C   UNL A   1      39.526  24.936  27.679  1.00  0.00     0.001 A 
ATOM     49  C   UNL A   1      40.885  26.235  26.164  1.00  0.00     0.001 A 
ATOM     50  C   UNL A   1      40.145  25.088  26.439  1.00  0.00     0.000 A 
ENDBRANCH  26  45
BRANCH  38  51
ATOM     51  C   UNL A   1      44.990  28.274  33.484  1.00  0.00    -0.014 A 
ATOM     52  C   UNL A   1      44.895  27.248  34.437  1.00  0.00     0.009 A 
ATOM     53  C   UNL A   1      46.247  28.581  32.938  1.00  0.00     0.009 A 
ATOM     54  C   UNL A   1      46.039  26.570  34.861  1.00  0.00     0.001 A 
ATOM     55  C   UNL A   1      47.384  27.879  33.339  1.00  0.00     0.001 A 
ATOM     56  C   UNL A   1      47.281  26.882  34.308  1.00  0.00     0.000 A 
ENDBRANCH  38  51
ENDBRANCH  12  13
ENDBRANCH   5   7
ENDBRANCH   2   3
ENDBRANCH   1   2
BRANCH   1  57
ATOM     57  C   UNL A   1      31.454  30.668  25.896  1.00  0.00     0.117 C 
BRANCH  57  58
ATOM     58  N   UNL A   1      31.404  29.648  26.935  1.00  0.00    -0.356 N 
ATOM     59  C   UNL A   1      31.639  28.312  26.939  1.00  0.00     0.226 C 
ATOM     60  H   UNL A   1      31.148  30.001  27.817  1.00  0.00     0.163 HD
ATOM     61  O   UNL A   1      31.512  27.740  28.028  1.00  0.00    -0.275 OA
BRANCH  59  62
ATOM     62  C   UNL A   1      32.037  27.488  25.719  1.00  0.00     0.122 C 
ATOM     63  C   UNL A   1      32.122  25.982  25.946  1.00  0.00     0.122 C 
ATOM     64  C   UNL A   1      33.446  27.855  25.249  1.00  0.00     0.132 C 
ATOM     65  C   UNL A   1      33.566  25.700  25.472  1.00  0.00     0.132 C 
ATOM     66  C   UNL A   1      33.647  27.401  23.804  1.00  0.00     0.035 C 
ATOM     67  O   UNL A   1      34.261  26.885  25.946  1.00  0.00    -0.373 OA
ATOM     68  C   UNL A   1      33.785  25.887  23.968  1.00  0.00     0.035 C 
BRANCH  63  69
ATOM     69  C   UNL A   1      31.119  25.020  25.332  1.00  0.00     0.229 C 
ATOM     70  O   UNL A   1      30.092  25.450  24.802  1.00  0.00    -0.274 OA
ATOM     71  N   UNL A   1      31.540  23.725  25.098  1.00  0.00    -0.339 N 
ATOM     72  C   UNL A   1      31.096  23.071  23.860  1.00  0.00     0.141 C 
ATOM     73  C   UNL A   1      32.137  22.801  26.075  1.00  0.00     0.141 C 
ATOM     74  C   UNL A   1      32.257  22.300  23.206  1.00  0.00     0.138 C 
ATOM     75  C   UNL A   1      33.246  21.915  25.473  1.00  0.00     0.138 C 
ATOM     76  N   UNL A   1      32.828  21.363  24.179  1.00  0.00    -0.368 N 
BRANCH  76  77
ATOM     77  C   UNL A   1      32.928  20.025  23.874  1.00  0.00     0.038 A 
ATOM     78  C   UNL A   1      32.166  19.457  22.845  1.00  0.00     0.026 A 
ATOM     79  C   UNL A   1      33.835  19.199  24.550  1.00  0.00     0.046 A 
ATOM     80  C   UNL A   1      32.322  18.116  22.481  1.00  0.00     0.004 A 
ATOM     81  C   UNL A   1      33.977  17.855  24.203  1.00  0.00     0.043 A 
ATOM     82  C   UNL A   1      33.230  17.311  23.163  1.00  0.00     0.020 A 
ATOM     83  Cl  UNL A   1      35.090  16.865  25.066  1.00  0.00    -0.084 Cl
ENDBRANCH  76  77
ENDBRANCH  63  69
ENDBRANCH  59  62
ENDBRANCH  57  58
ENDBRANCH   1  57
TORSDOF 12
ENDMDL
MODEL 3
REMARK VINA RESULT:     -12.6      4.235      9.334
REMARK SMILES O=C(NCCCNC(=O)[C@@H]1[C@@H](C(=O)N2CCN(c3cccc(Cl)c3)CC2)[C@H]2CC[C@@H]1O2)c1ccc(-c2c3nc(c(-c4ccccc4)c4ccc([nH]4)c(-c4ccccc4)c4nc(c(-c5ccccc5)c5ccc2[nH]5)C=C4)C=C3)cc1
REMARK SMILES IDX 5 1 4 2 3 3 1 4 2 5 32 7 33 8 79 9 34 10 78 11 35 12 36 13
REMARK SMILES IDX 37 14 72 15 38 16 77 17 71 18 73 19 39 20 76 21 70 22 69 23
REMARK SMILES IDX 40 25 62 26 47 27 61 28 48 29 51 30 60 31 74 32 49 33 50 34
REMARK SMILES IDX 59 36 75 37 52 38 41 39 42 40 46 41 43 42 45 43 44 44 63 45
REMARK SMILES IDX 64 46 68 47 65 48 67 49 66 50 53 51 54 52 58 53 55 54 57 55
REMARK SMILES IDX 56 56 6 57 7 58 8 59 9 61 10 62 11 63 30 64 27 65 29 66
REMARK SMILES IDX 31 67 28 68 12 69 13 70 14 71 15 72 26 73 16 74 25 75 17 76
REMARK SMILES IDX 18 77 19 78 24 79 20 80 22 81 21 82 23 83
REMARK H PARENT 3 6 73 24 51 35 7 60
REMARK Flexibility Score: inf
ROOT
ATOM      1  C   UNL A   1      31.366  32.071  26.503  1.00  0.00     0.042 C 
ENDROOT
BRANCH   1   2
ATOM      2  C   UNL A   1      32.638  32.531  27.194  1.00  0.00     0.118 C 
BRANCH   2   3
ATOM      3  N   UNL A   1      32.531  33.897  27.700  1.00  0.00    -0.352 N 
ATOM      4  O   UNL A   1      32.856  35.617  29.116  1.00  0.00    -0.269 OA
ATOM      5  C   UNL A   1      33.255  34.541  28.669  1.00  0.00     0.251 C 
ATOM      6  H   UNL A   1      31.827  34.440  27.279  1.00  0.00     0.163 HD
BRANCH   5   7
ATOM      7  C   UNL A   1      34.509  33.952  29.180  1.00  0.00     0.039 A 
ATOM      8  C   UNL A   1      34.477  32.992  30.191  1.00  0.00     0.014 A 
ATOM      9  C   UNL A   1      35.730  34.329  28.611  1.00  0.00     0.014 A 
ATOM     10  C   UNL A   1      35.662  32.525  30.740  1.00  0.00     0.010 A 
ATOM     11  C   UNL A   1      36.919  33.773  29.089  1.00  0.00     0.010 A 
ATOM     12  C   UNL A   1      36.895  32.884  30.174  1.00  0.00    -0.014 A 
BRANCH  12  13
ATOM     13  C   UNL A   1      38.130  32.241  30.682  1.00  0.00     0.031 A 
ATOM     14  C   UNL A   1      38.653  30.970  30.078  1.00  0.00     0.074 A 
ATOM     15  C   UNL A   1      38.796  32.844  31.685  1.00  0.00     0.049 A 
ATOM     16  N   UNL A   1      39.732  30.297  30.391  1.00  0.00    -0.248 NA
ATOM     17  C   UNL A   1      37.867  30.372  28.988  1.00  0.00     0.031 C 
ATOM     18  C   UNL A   1      38.382  34.086  32.348  1.00  0.00     0.029 A 
ATOM     19  N   UNL A   1      39.973  32.516  32.306  1.00  0.00    -0.354 N 
ATOM     20  C   UNL A   1      39.747  29.192  29.552  1.00  0.00     0.074 A 
ATOM     21  C   UNL A   1      38.554  29.266  28.735  1.00  0.00     0.031 C 
ATOM     22  C   UNL A   1      39.317  34.443  33.238  1.00  0.00     0.029 A 
ATOM     23  C   UNL A   1      40.355  33.421  33.267  1.00  0.00     0.049 A 
ATOM     24  H   UNL A   1      40.494  31.710  32.086  1.00  0.00     0.167 HD
ATOM     25  C   UNL A   1      40.675  28.206  29.470  1.00  0.00     0.031 A 
ATOM     26  C   UNL A   1      41.413  33.421  34.097  1.00  0.00     0.031 A 
ATOM     27  C   UNL A   1      41.853  28.135  30.295  1.00  0.00     0.049 A 
ATOM     28  C   UNL A   1      42.390  32.287  34.021  1.00  0.00     0.074 A 
ATOM     29  C   UNL A   1      42.863  27.189  30.275  1.00  0.00     0.029 A 
ATOM     30  N   UNL A   1      42.175  29.041  31.295  1.00  0.00    -0.354 N 
ATOM     31  N   UNL A   1      42.406  31.264  33.201  1.00  0.00    -0.248 NA
ATOM     32  C   UNL A   1      43.497  32.307  34.986  1.00  0.00     0.031 C 
ATOM     33  C   UNL A   1      43.765  27.488  31.302  1.00  0.00     0.029 A 
ATOM     34  C   UNL A   1      43.354  28.659  31.917  1.00  0.00     0.049 A 
ATOM     35  H   UNL A   1      41.646  29.837  31.528  1.00  0.00     0.167 HD
ATOM     36  C   UNL A   1      43.535  30.530  33.536  1.00  0.00     0.074 A 
ATOM     37  C   UNL A   1      44.189  31.239  34.617  1.00  0.00     0.031 C 
ATOM     38  C   UNL A   1      43.988  29.373  32.996  1.00  0.00     0.031 A 
BRANCH  25  39
ATOM     39  C   UNL A   1      40.435  27.105  28.472  1.00  0.00    -0.014 A 
ATOM     40  C   UNL A   1      39.674  25.972  28.801  1.00  0.00     0.009 A 
ATOM     41  C   UNL A   1      40.938  27.228  27.168  1.00  0.00     0.009 A 
ATOM     42  C   UNL A   1      39.450  24.970  27.853  1.00  0.00     0.001 A 
ATOM     43  C   UNL A   1      40.688  26.240  26.214  1.00  0.00     0.001 A 
ATOM     44  C   UNL A   1      39.953  25.108  26.559  1.00  0.00     0.000 A 
ENDBRANCH  25  39
BRANCH  26  45
ATOM     45  C   UNL A   1      41.584  34.521  35.081  1.00  0.00    -0.014 A 
ATOM     46  C   UNL A   1      42.309  35.674  34.746  1.00  0.00     0.009 A 
ATOM     47  C   UNL A   1      41.015  34.424  36.361  1.00  0.00     0.009 A 
ATOM     48  C   UNL A   1      42.482  36.696  35.683  1.00  0.00     0.001 A 
ATOM     49  C   UNL A   1      41.159  35.462  37.282  1.00  0.00     0.001 A 
ATOM     50  C   UNL A   1      41.903  36.592  36.947  1.00  0.00     0.000 A 
ENDBRANCH  26  45
BRANCH  38  51
ATOM     51  C   UNL A   1      45.273  28.823  33.547  1.00  0.00    -0.014 A 
ATOM     52  C   UNL A   1      46.516  29.179  33.000  1.00  0.00     0.009 A 
ATOM     53  C   UNL A   1      45.238  27.951  34.647  1.00  0.00     0.009 A 
ATOM     54  C   UNL A   1      47.695  28.644  33.521  1.00  0.00     0.001 A 
ATOM     55  C   UNL A   1      46.421  27.444  35.186  1.00  0.00     0.001 A 
ATOM     56  C   UNL A   1      47.647  27.782  34.616  1.00  0.00     0.000 A 
ENDBRANCH  38  51
ENDBRANCH  12  13
ENDBRANCH   5   7
ENDBRANCH   2   3
ENDBRANCH   1   2
BRANCH   1  57
ATOM     57  C   UNL A   1      31.478  30.663  25.943  1.00  0.00     0.117 C 
BRANCH  57  58
ATOM     58  N   UNL A   1      31.428  29.641  26.981  1.00  0.00    -0.356 N 
ATOM     59  C   UNL A   1      31.672  28.307  26.985  1.00  0.00     0.226 C 
ATOM     60  H   UNL A   1      31.163  29.991  27.862  1.00  0.00     0.163 HD
ATOM     61  O   UNL A   1      31.541  27.733  28.073  1.00  0.00    -0.275 OA
BRANCH  59  62
ATOM     62  C   UNL A   1      32.085  27.488  25.767  1.00  0.00     0.122 C 
ATOM     63  C   UNL A   1      32.163  25.981  25.987  1.00  0.00     0.122 C 
ATOM     64  C   UNL A   1      33.503  27.852  25.320  1.00  0.00     0.132 C 
ATOM     65  C   UNL A   1      33.612  25.696  25.533  1.00  0.00     0.132 C 
ATOM     66  C   UNL A   1      33.724  27.405  23.875  1.00  0.00     0.035 C 
ATOM     67  O   UNL A   1      34.304  26.876  26.023  1.00  0.00    -0.373 OA
ATOM     68  C   UNL A   1      33.854  25.889  24.034  1.00  0.00     0.035 C 
BRANCH  63  69
ATOM     69  C   UNL A   1      31.165  25.024  25.355  1.00  0.00     0.229 C 
ATOM     70  O   UNL A   1      30.147  25.460  24.812  1.00  0.00    -0.274 OA
ATOM     71  N   UNL A   1      31.586  23.729  25.119  1.00  0.00    -0.339 N 
ATOM     72  C   UNL A   1      31.157  23.084  23.872  1.00  0.00     0.141 C 
ATOM     73  C   UNL A   1      32.166  22.798  26.099  1.00  0.00     0.141 C 
ATOM     74  C   UNL A   1      32.325  22.312  23.230  1.00  0.00     0.138 C 
ATOM     75  C   UNL A   1      33.281  21.912  25.509  1.00  0.00     0.138 C 
ATOM     76  N   UNL A   1      32.879  21.368  24.206  1.00  0.00    -0.368 N 
BRANCH  76  77
ATOM     77  C   UNL A   1      32.980  20.032  23.895  1.00  0.00     0.038 A 
ATOM     78  C   UNL A   1      32.182  19.457  22.898  1.00  0.00     0.026 A 
ATOM     79  C   UNL A   1      33.922  19.214  24.533  1.00  0.00     0.046 A 
ATOM     80  C   UNL A   1      32.336  18.118  22.526  1.00  0.00     0.004 A 
ATOM     81  C   UNL A   1      34.063  17.872  24.178  1.00  0.00     0.043 A 
ATOM     82  C   UNL A   1      33.280  17.322  23.169  1.00  0.00     0.020 A 
ATOM     83  Cl  UNL A   1      35.220  16.892  24.993  1.00  0.00    -0.084 Cl
ENDBRANCH  76  77
ENDBRANCH  63  69
ENDBRANCH  59  62
ENDBRANCH  57  58
ENDBRANCH   1  57
TORSDOF 12
ENDMDL
