MODEL 1
REMARK VINA RESULT:     -11.3      0.000      0.000
REMARK SMILES CC(C)[NH2+][C@]1(C(=O)NCCCNC(=O)c2ccc(-c3c4nc(c(-c5ccccc5)c5ccc([nH]5)c(-c5ccccc5)c5nc(c(-c6ccccc6)c6ccc3[nH]6)C=C5)C=C4)cc2)CCC[C@H]([N@H+](C)C2CCCCC2)C1
REMARK SMILES IDX 10 1 9 2 8 3 6 4 7 5 5 7 63 8 75 9 64 10 66 11 65 12 4 13
REMARK SMILES IDX 2 16 1 17 3 18 67 19 68 20 69 22 70 23 74 24 71 25 73 26
REMARK SMILES IDX 72 27 11 28 12 29 13 30 14 32 15 33 16 34 62 35 17 36 61 37
REMARK SMILES IDX 18 38 19 39 20 40 55 41 21 42 60 43 54 44 56 45 22 46 59 47
REMARK SMILES IDX 53 48 52 49 23 51 45 52 30 53 44 54 31 55 34 56 43 57 57 58
REMARK SMILES IDX 32 59 33 60 42 62 58 63 35 64 24 65 25 66 29 67 26 68 28 69
REMARK SMILES IDX 27 70 46 71 47 72 51 73 48 74 50 75 49 76 36 77 37 78 41 79
REMARK SMILES IDX 38 80 40 81 39 82
REMARK H PARENT 8 6 4 14 4 15 67 21 12 31 56 50 34 61
REMARK Flexibility Score: inf
ROOT
ATOM      1  C   UNL A   1      37.331  19.510  24.968  1.00  0.00     0.042 C 
ENDROOT
BRANCH   1   2
ATOM      2  C   UNL A   1      36.082  20.378  25.014  1.00  0.00     0.118 C 
BRANCH   2   3
ATOM      3  N   UNL A   1      34.819  19.660  25.226  1.00  0.00    -0.351 N 
ATOM      4  C   UNL A   1      33.500  20.097  25.265  1.00  0.00     0.281 C 
ATOM      5  O   UNL A   1      32.614  19.248  25.366  1.00  0.00    -0.268 OA
ATOM      6  H   UNL A   1      34.926  18.691  25.365  1.00  0.00     0.163 HD
BRANCH   4   7
ATOM      7  C   UNL A   1      33.194  21.640  25.198  1.00  0.00     0.181 C 
ATOM      8  C   UNL A   1      31.681  21.685  25.645  1.00  0.00     0.079 C 
ATOM      9  C   UNL A   1      33.908  22.579  26.224  1.00  0.00     0.144 C 
ATOM     10  C   UNL A   1      31.027  23.034  25.879  1.00  0.00     0.013 C 
ATOM     11  C   UNL A   1      33.284  24.003  26.478  1.00  0.00     0.190 C 
ATOM     12  C   UNL A   1      31.815  23.842  26.890  1.00  0.00     0.065 C 
BRANCH   7  13
ATOM     13  N   UNL A   1      33.611  22.077  23.841  1.00  0.00    -0.331 N 
ATOM     14  H   UNL A   1      34.116  22.956  23.952  1.00  0.00     0.347 HD
ATOM     15  H   UNL A   1      34.146  21.287  23.482  1.00  0.00     0.347 HD
BRANCH  13  16
ATOM     16  C   UNL A   1      32.567  22.302  22.802  1.00  0.00     0.176 C 
ATOM     17  C   UNL A   1      33.130  23.282  21.763  1.00  0.00     0.075 C 
ATOM     18  C   UNL A   1      31.988  21.102  22.043  1.00  0.00     0.075 C 
ENDBRANCH  13  16
ENDBRANCH   7  13
BRANCH  11  19
ATOM     19  N   UNL A   1      33.344  25.120  25.502  1.00  0.00    -0.332 N 
ATOM     20  C   UNL A   1      34.506  25.265  24.656  1.00  0.00     0.333 C 
ATOM     21  H   UNL A   1      32.706  24.727  24.810  1.00  0.00     0.348 HD
BRANCH  19  22
ATOM     22  C   UNL A   1      32.700  26.383  25.921  1.00  0.00     0.184 C 
ATOM     23  C   UNL A   1      33.691  27.511  26.315  1.00  0.00     0.065 C 
ATOM     24  C   UNL A   1      31.805  26.871  24.761  1.00  0.00     0.065 C 
ATOM     25  C   UNL A   1      33.013  28.845  26.594  1.00  0.00     0.006 C 
ATOM     26  C   UNL A   1      31.163  28.232  25.028  1.00  0.00     0.006 C 
ATOM     27  C   UNL A   1      32.199  29.286  25.388  1.00  0.00     0.000 C 
ENDBRANCH  19  22
ENDBRANCH  11  19
ENDBRANCH   4   7
ENDBRANCH   2   3
ENDBRANCH   1   2
BRANCH   1  28
ATOM     28  C   UNL A   1      38.584  20.245  25.390  1.00  0.00     0.118 C 
BRANCH  28  29
ATOM     29  N   UNL A   1      39.662  19.310  25.673  1.00  0.00    -0.352 N 
ATOM     30  C   UNL A   1      40.969  19.553  26.020  1.00  0.00     0.251 C 
ATOM     31  H   UNL A   1      39.419  18.359  25.606  1.00  0.00     0.163 HD
ATOM     32  O   UNL A   1      41.803  18.663  25.888  1.00  0.00    -0.269 OA
BRANCH  30  33
ATOM     33  C   UNL A   1      41.382  20.872  26.555  1.00  0.00     0.039 A 
ATOM     34  C   UNL A   1      41.211  21.141  27.918  1.00  0.00     0.014 A 
ATOM     35  C   UNL A   1      41.855  21.877  25.709  1.00  0.00     0.014 A 
ATOM     36  C   UNL A   1      41.541  22.401  28.428  1.00  0.00     0.010 A 
ATOM     37  C   UNL A   1      42.282  23.092  26.233  1.00  0.00     0.010 A 
ATOM     38  C   UNL A   1      42.092  23.382  27.591  1.00  0.00    -0.014 A 
BRANCH  38  39
ATOM     39  C   UNL A   1      42.399  24.749  28.078  1.00  0.00     0.031 A 
ATOM     40  C   UNL A   1      43.810  25.092  28.484  1.00  0.00     0.074 A 
ATOM     41  C   UNL A   1      41.414  25.655  28.226  1.00  0.00     0.049 A 
ATOM     42  N   UNL A   1      44.269  26.183  29.043  1.00  0.00    -0.248 NA
ATOM     43  C   UNL A   1      44.835  24.055  28.268  1.00  0.00     0.031 C 
ATOM     44  C   UNL A   1      40.001  25.436  27.907  1.00  0.00     0.029 A 
ATOM     45  N   UNL A   1      41.455  26.944  28.694  1.00  0.00    -0.354 N 
ATOM     46  C   UNL A   1      45.618  25.944  29.282  1.00  0.00     0.074 A 
ATOM     47  C   UNL A   1      45.895  24.594  28.849  1.00  0.00     0.031 C 
ATOM     48  C   UNL A   1      39.316  26.563  28.164  1.00  0.00     0.029 A 
ATOM     49  C   UNL A   1      40.230  27.566  28.698  1.00  0.00     0.049 A 
ATOM     50  H   UNL A   1      42.283  27.382  28.997  1.00  0.00     0.167 HD
ATOM     51  C   UNL A   1      46.551  26.780  29.795  1.00  0.00     0.031 A 
ATOM     52  C   UNL A   1      39.886  28.806  29.092  1.00  0.00     0.031 A 
ATOM     53  C   UNL A   1      46.289  28.141  30.176  1.00  0.00     0.049 A 
ATOM     54  C   UNL A   1      40.947  29.729  29.623  1.00  0.00     0.074 A 
ATOM     55  C   UNL A   1      47.179  29.094  30.635  1.00  0.00     0.029 A 
ATOM     56  N   UNL A   1      45.043  28.743  30.125  1.00  0.00    -0.354 N 
ATOM     57  N   UNL A   1      42.227  29.505  29.792  1.00  0.00    -0.248 NA
ATOM     58  C   UNL A   1      40.515  31.081  30.006  1.00  0.00     0.031 C 
ATOM     59  C   UNL A   1      46.464  30.269  30.892  1.00  0.00     0.029 A 
ATOM     60  C   UNL A   1      45.137  30.055  30.554  1.00  0.00     0.049 A 
ATOM     61  H   UNL A   1      44.214  28.303  29.828  1.00  0.00     0.167 HD
ATOM     62  C   UNL A   1      42.757  30.694  30.275  1.00  0.00     0.074 A 
ATOM     63  C   UNL A   1      41.664  31.640  30.359  1.00  0.00     0.031 C 
ATOM     64  C   UNL A   1      44.036  30.978  30.620  1.00  0.00     0.031 A 
BRANCH  51  65
ATOM     65  C   UNL A   1      47.944  26.245  29.968  1.00  0.00    -0.014 A 
ATOM     66  C   UNL A   1      48.868  26.266  28.911  1.00  0.00     0.009 A 
ATOM     67  C   UNL A   1      48.348  25.738  31.213  1.00  0.00     0.009 A 
ATOM     68  C   UNL A   1      50.156  25.757  29.088  1.00  0.00     0.001 A 
ATOM     69  C   UNL A   1      49.646  25.256  31.395  1.00  0.00     0.001 A 
ATOM     70  C   UNL A   1      50.545  25.257  30.330  1.00  0.00     0.000 A 
ENDBRANCH  51  65
BRANCH  52  71
ATOM     71  C   UNL A   1      38.477  29.261  28.976  1.00  0.00    -0.014 A 
ATOM     72  C   UNL A   1      37.992  29.756  27.755  1.00  0.00     0.009 A 
ATOM     73  C   UNL A   1      37.613  29.210  30.081  1.00  0.00     0.009 A 
ATOM     74  C   UNL A   1      36.678  30.217  27.650  1.00  0.00     0.001 A 
ATOM     75  C   UNL A   1      36.291  29.648  29.965  1.00  0.00     0.001 A 
ATOM     76  C   UNL A   1      35.828  30.160  28.755  1.00  0.00     0.000 A 
ENDBRANCH  52  71
BRANCH  64  77
ATOM     77  C   UNL A   1      44.326  32.376  31.082  1.00  0.00    -0.014 A 
ATOM     78  C   UNL A   1      44.276  32.714  32.443  1.00  0.00     0.009 A 
ATOM     79  C   UNL A   1      44.695  33.353  30.146  1.00  0.00     0.009 A 
ATOM     80  C   UNL A   1      44.563  34.016  32.854  1.00  0.00     0.001 A 
ATOM     81  C   UNL A   1      45.005  34.649  30.563  1.00  0.00     0.001 A 
ATOM     82  C   UNL A   1      44.932  34.980  31.915  1.00  0.00     0.000 A 
ENDBRANCH  64  77
ENDBRANCH  38  39
ENDBRANCH  30  33
ENDBRANCH  28  29
ENDBRANCH   1  28
TORSDOF 14
ENDMDL
MODEL 2
REMARK VINA RESULT:     -11.2      0.449      5.937
REMARK SMILES CC(C)[NH2+][C@]1(C(=O)NCCCNC(=O)c2ccc(-c3c4nc(c(-c5ccccc5)c5ccc([nH]5)c(-c5ccccc5)c5nc(c(-c6ccccc6)c6ccc3[nH]6)C=C5)C=C4)cc2)CCC[C@H]([N@H+](C)C2CCCCC2)C1
REMARK SMILES IDX 10 1 9 2 8 3 6 4 7 5 5 7 63 8 75 9 64 10 66 11 65 12 4 13
REMARK SMILES IDX 2 16 1 17 3 18 67 19 68 20 69 22 70 23 74 24 71 25 73 26
REMARK SMILES IDX 72 27 11 28 12 29 13 30 14 32 15 33 16 34 62 35 17 36 61 37
REMARK SMILES IDX 18 38 19 39 20 40 55 41 21 42 60 43 54 44 56 45 22 46 59 47
REMARK SMILES IDX 53 48 52 49 23 51 45 52 30 53 44 54 31 55 34 56 43 57 57 58
REMARK SMILES IDX 32 59 33 60 42 62 58 63 35 64 24 65 25 66 29 67 26 68 28 69
REMARK SMILES IDX 27 70 46 71 47 72 51 73 48 74 50 75 49 76 36 77 37 78 41 79
REMARK SMILES IDX 38 80 40 81 39 82
REMARK H PARENT 8 6 4 14 4 15 67 21 12 31 56 50 34 61
REMARK Flexibility Score: inf
ROOT
ATOM      1  C   UNL A   1      37.414  19.901  24.875  1.00  0.00     0.042 C 
ENDROOT
BRANCH   1   2
ATOM      2  C   UNL A   1      36.144  20.716  25.067  1.00  0.00     0.118 C 
BRANCH   2   3
ATOM      3  N   UNL A   1      34.918  19.937  25.285  1.00  0.00    -0.351 N 
ATOM      4  C   UNL A   1      33.578  20.305  25.303  1.00  0.00     0.281 C 
ATOM      5  O   UNL A   1      32.736  19.414  25.416  1.00  0.00    -0.268 OA
ATOM      6  H   UNL A   1      35.075  18.979  25.447  1.00  0.00     0.163 HD
BRANCH   4   7
ATOM      7  C   UNL A   1      33.192  21.828  25.198  1.00  0.00     0.181 C 
ATOM      8  C   UNL A   1      31.672  21.802  25.622  1.00  0.00     0.079 C 
ATOM      9  C   UNL A   1      33.839  22.825  26.215  1.00  0.00     0.144 C 
ATOM     10  C   UNL A   1      30.945  23.120  25.817  1.00  0.00     0.013 C 
ATOM     11  C   UNL A   1      33.138  24.220  26.428  1.00  0.00     0.190 C 
ATOM     12  C   UNL A   1      31.672  23.989  26.822  1.00  0.00     0.065 C 
BRANCH   7  13
ATOM     13  N   UNL A   1      33.606  22.259  23.839  1.00  0.00    -0.331 N 
ATOM     14  H   UNL A   1      34.081  23.156  23.940  1.00  0.00     0.347 HD
ATOM     15  H   UNL A   1      34.170  21.482  23.497  1.00  0.00     0.347 HD
BRANCH  13  16
ATOM     16  C   UNL A   1      32.565  22.434  22.788  1.00  0.00     0.176 C 
ATOM     17  C   UNL A   1      33.134  23.357  21.700  1.00  0.00     0.075 C 
ATOM     18  C   UNL A   1      31.983  21.199  22.090  1.00  0.00     0.075 C 
ENDBRANCH  13  16
ENDBRANCH   7  13
BRANCH  11  19
ATOM     19  N   UNL A   1      33.154  25.317  25.430  1.00  0.00    -0.332 N 
ATOM     20  C   UNL A   1      34.285  25.456  24.542  1.00  0.00     0.333 C 
ATOM     21  H   UNL A   1      32.496  24.905  24.768  1.00  0.00     0.348 HD
BRANCH  19  22
ATOM     22  C   UNL A   1      32.512  26.582  25.846  1.00  0.00     0.184 C 
ATOM     23  C   UNL A   1      33.486  27.626  26.457  1.00  0.00     0.065 C 
ATOM     24  C   UNL A   1      31.815  27.194  24.611  1.00  0.00     0.065 C 
ATOM     25  C   UNL A   1      32.834  28.974  26.735  1.00  0.00     0.006 C 
ATOM     26  C   UNL A   1      31.202  28.567  24.885  1.00  0.00     0.006 C 
ATOM     27  C   UNL A   1      32.221  29.538  25.463  1.00  0.00     0.000 C 
ENDBRANCH  19  22
ENDBRANCH  11  19
ENDBRANCH   4   7
ENDBRANCH   2   3
ENDBRANCH   1   2
BRANCH   1  28
ATOM     28  C   UNL A   1      38.622  20.510  25.552  1.00  0.00     0.118 C 
BRANCH  28  29
ATOM     29  N   UNL A   1      39.668  19.515  25.738  1.00  0.00    -0.352 N 
ATOM     30  C   UNL A   1      41.002  19.684  26.022  1.00  0.00     0.251 C 
ATOM     31  H   UNL A   1      39.376  18.580  25.646  1.00  0.00     0.163 HD
ATOM     32  O   UNL A   1      41.783  18.763  25.808  1.00  0.00    -0.269 OA
BRANCH  30  33
ATOM     33  C   UNL A   1      41.504  20.959  26.587  1.00  0.00     0.039 A 
ATOM     34  C   UNL A   1      41.454  21.161  27.971  1.00  0.00     0.014 A 
ATOM     35  C   UNL A   1      41.944  21.991  25.756  1.00  0.00     0.014 A 
ATOM     36  C   UNL A   1      41.871  22.380  28.514  1.00  0.00     0.010 A 
ATOM     37  C   UNL A   1      42.457  23.162  26.303  1.00  0.00     0.010 A 
ATOM     38  C   UNL A   1      42.387  23.386  27.684  1.00  0.00    -0.014 A 
BRANCH  38  39
ATOM     39  C   UNL A   1      42.784  24.714  28.212  1.00  0.00     0.031 A 
ATOM     40  C   UNL A   1      41.728  25.766  28.442  1.00  0.00     0.074 A 
ATOM     41  C   UNL A   1      44.083  25.004  28.415  1.00  0.00     0.049 A 
ATOM     42  N   UNL A   1      41.871  27.022  28.783  1.00  0.00    -0.248 NA
ATOM     43  C   UNL A   1      40.329  25.363  28.221  1.00  0.00     0.031 C 
ATOM     44  C   UNL A   1      45.204  24.089  28.194  1.00  0.00     0.029 A 
ATOM     45  N   UNL A   1      44.678  26.162  28.847  1.00  0.00    -0.354 N 
ATOM     46  C   UNL A   1      40.590  27.562  28.774  1.00  0.00     0.074 A 
ATOM     47  C   UNL A   1      39.689  26.514  28.353  1.00  0.00     0.031 C 
ATOM     48  C   UNL A   1      46.349  24.713  28.518  1.00  0.00     0.029 A 
ATOM     49  C   UNL A   1      46.047  26.078  28.933  1.00  0.00     0.049 A 
ATOM     50  H   UNL A   1      44.173  26.976  29.076  1.00  0.00     0.167 HD
ATOM     51  C   UNL A   1      40.192  28.812  29.108  1.00  0.00     0.031 A 
ATOM     52  C   UNL A   1      46.953  27.002  29.301  1.00  0.00     0.031 A 
ATOM     53  C   UNL A   1      41.080  29.839  29.579  1.00  0.00     0.049 A 
ATOM     54  C   UNL A   1      46.484  28.372  29.703  1.00  0.00     0.074 A 
ATOM     55  C   UNL A   1      40.770  31.114  30.015  1.00  0.00     0.029 A 
ATOM     56  N   UNL A   1      42.454  29.699  29.689  1.00  0.00    -0.354 N 
ATOM     57  N   UNL A   1      45.264  28.850  29.741  1.00  0.00    -0.248 NA
ATOM     58  C   UNL A   1      47.519  29.327  30.127  1.00  0.00     0.031 C 
ATOM     59  C   UNL A   1      41.962  31.758  30.361  1.00  0.00     0.029 A 
ATOM     60  C   UNL A   1      43.009  30.868  30.177  1.00  0.00     0.049 A 
ATOM     61  H   UNL A   1      42.960  28.887  29.454  1.00  0.00     0.167 HD
ATOM     62  C   UNL A   1      45.382  30.149  30.216  1.00  0.00     0.074 A 
ATOM     63  C   UNL A   1      46.789  30.381  30.466  1.00  0.00     0.031 C 
ATOM     64  C   UNL A   1      44.410  31.070  30.426  1.00  0.00     0.031 A 
BRANCH  51  65
ATOM     65  C   UNL A   1      38.730  29.134  28.981  1.00  0.00    -0.014 A 
ATOM     66  C   UNL A   1      37.864  29.031  30.082  1.00  0.00     0.009 A 
ATOM     67  C   UNL A   1      38.217  29.573  27.751  1.00  0.00     0.009 A 
ATOM     68  C   UNL A   1      36.507  29.328  29.942  1.00  0.00     0.001 A 
ATOM     69  C   UNL A   1      36.864  29.896  27.622  1.00  0.00     0.001 A 
ATOM     70  C   UNL A   1      36.009  29.764  28.715  1.00  0.00     0.000 A 
ENDBRANCH  51  65
BRANCH  52  71
ATOM     71  C   UNL A   1      48.398  26.658  29.333  1.00  0.00    -0.014 A 
ATOM     72  C   UNL A   1      49.209  26.907  28.215  1.00  0.00     0.009 A 
ATOM     73  C   UNL A   1      48.971  26.074  30.473  1.00  0.00     0.009 A 
ATOM     74  C   UNL A   1      50.560  26.553  28.228  1.00  0.00     0.001 A 
ATOM     75  C   UNL A   1      50.328  25.745  30.492  1.00  0.00     0.001 A 
ATOM     76  C   UNL A   1      51.119  25.975  29.367  1.00  0.00     0.000 A 
ENDBRANCH  52  71
BRANCH  64  77
ATOM     77  C   UNL A   1      44.835  32.395  30.987  1.00  0.00    -0.014 A 
ATOM     78  C   UNL A   1      45.165  33.467  30.144  1.00  0.00     0.009 A 
ATOM     79  C   UNL A   1      44.861  32.584  32.377  1.00  0.00     0.009 A 
ATOM     80  C   UNL A   1      45.543  34.696  30.685  1.00  0.00     0.001 A 
ATOM     81  C   UNL A   1      45.216  33.822  32.914  1.00  0.00     0.001 A 
ATOM     82  C   UNL A   1      45.563  34.874  32.069  1.00  0.00     0.000 A 
ENDBRANCH  64  77
ENDBRANCH  38  39
ENDBRANCH  30  33
ENDBRANCH  28  29
ENDBRANCH   1  28
TORSDOF 14
ENDMDL
MODEL 3
REMARK VINA RESULT:     -11.0      3.588      8.761
REMARK SMILES CC(C)[NH2+][C@]1(C(=O)NCCCNC(=O)c2ccc(-c3c4nc(c(-c5ccccc5)c5ccc([nH]5)c(-c5ccccc5)c5nc(c(-c6ccccc6)c6ccc3[nH]6)C=C5)C=C4)cc2)CCC[C@H]([N@H+](C)C2CCCCC2)C1
REMARK SMILES IDX 10 1 9 2 8 3 6 4 7 5 5 7 63 8 75 9 64 10 66 11 65 12 4 13
REMARK SMILES IDX 2 16 1 17 3 18 67 19 68 20 69 22 70 23 74 24 71 25 73 26
REMARK SMILES IDX 72 27 11 28 12 29 13 30 14 32 15 33 16 34 62 35 17 36 61 37
REMARK SMILES IDX 18 38 19 39 20 40 55 41 21 42 60 43 54 44 56 45 22 46 59 47
REMARK SMILES IDX 53 48 52 49 23 51 45 52 30 53 44 54 31 55 34 56 43 57 57 58
REMARK SMILES IDX 32 59 33 60 42 62 58 63 35 64 24 65 25 66 29 67 26 68 28 69
REMARK SMILES IDX 27 70 46 71 47 72 51 73 48 74 50 75 49 76 36 77 37 78 41 79
REMARK SMILES IDX 38 80 40 81 39 82
REMARK H PARENT 8 6 4 14 4 15 67 21 12 31 56 50 34 61
REMARK Flexibility Score: inf
ROOT
ATOM      1  C   UNL A   1      31.130  31.725  26.145  1.00  0.00     0.042 C 
ENDROOT
BRANCH   1   2
ATOM      2  C   UNL A   1      31.287  30.388  25.435  1.00  0.00     0.118 C 
BRANCH   2   3
ATOM      3  N   UNL A   1      30.684  30.307  24.098  1.00  0.00    -0.351 N 
ATOM      4  C   UNL A   1      30.585  29.261  23.188  1.00  0.00     0.281 C 
ATOM      5  O   UNL A   1      29.930  29.448  22.163  1.00  0.00    -0.268 OA
ATOM      6  H   UNL A   1      30.275  31.148  23.790  1.00  0.00     0.163 HD
BRANCH   4   7
ATOM      7  C   UNL A   1      31.320  27.901  23.490  1.00  0.00     0.181 C 
ATOM      8  C   UNL A   1      31.209  27.163  22.100  1.00  0.00     0.079 C 
ATOM      9  C   UNL A   1      32.859  27.938  23.764  1.00  0.00     0.144 C 
ATOM     10  C   UNL A   1      31.951  25.854  21.906  1.00  0.00     0.013 C 
ATOM     11  C   UNL A   1      33.668  26.596  23.607  1.00  0.00     0.190 C 
ATOM     12  C   UNL A   1      33.426  26.026  22.202  1.00  0.00     0.065 C 
BRANCH   7  13
ATOM     13  N   UNL A   1      30.671  27.352  24.709  1.00  0.00    -0.331 N 
ATOM     14  H   UNL A   1      31.415  27.135  25.372  1.00  0.00     0.347 HD
ATOM     15  H   UNL A   1      30.014  28.081  24.986  1.00  0.00     0.347 HD
BRANCH  13  16
ATOM     16  C   UNL A   1      29.823  26.134  24.589  1.00  0.00     0.176 C 
ATOM     17  C   UNL A   1      29.838  25.406  25.941  1.00  0.00     0.075 C 
ATOM     18  C   UNL A   1      28.360  26.273  24.153  1.00  0.00     0.075 C 
ENDBRANCH  13  16
ENDBRANCH   7  13
BRANCH  11  19
ATOM     19  N   UNL A   1      33.584  25.461  24.559  1.00  0.00    -0.332 N 
ATOM     20  C   UNL A   1      33.630  25.718  25.980  1.00  0.00     0.333 C 
ATOM     21  H   UNL A   1      32.583  25.287  24.472  1.00  0.00     0.348 HD
BRANCH  19  22
ATOM     22  C   UNL A   1      34.215  24.198  24.120  1.00  0.00     0.184 C 
ATOM     23  C   UNL A   1      35.620  23.936  24.727  1.00  0.00     0.065 C 
ATOM     24  C   UNL A   1      33.270  23.035  24.495  1.00  0.00     0.065 C 
ATOM     25  C   UNL A   1      36.183  22.564  24.385  1.00  0.00     0.006 C 
ATOM     26  C   UNL A   1      33.860  21.659  24.190  1.00  0.00     0.006 C 
ATOM     27  C   UNL A   1      35.225  21.471  24.835  1.00  0.00     0.000 C 
ENDBRANCH  19  22
ENDBRANCH  11  19
ENDBRANCH   4   7
ENDBRANCH   2   3
ENDBRANCH   1   2
BRANCH   1  28
ATOM     28  C   UNL A   1      32.328  32.094  26.993  1.00  0.00     0.118 C 
BRANCH  28  29
ATOM     29  N   UNL A   1      32.272  33.493  27.387  1.00  0.00    -0.352 N 
ATOM     30  C   UNL A   1      33.032  34.180  28.303  1.00  0.00     0.251 C 
ATOM     31  H   UNL A   1      31.586  34.029  26.929  1.00  0.00     0.163 HD
ATOM     32  O   UNL A   1      32.623  35.250  28.742  1.00  0.00    -0.269 OA
BRANCH  30  33
ATOM     33  C   UNL A   1      34.337  33.648  28.762  1.00  0.00     0.039 A 
ATOM     34  C   UNL A   1      35.455  33.769  27.930  1.00  0.00     0.014 A 
ATOM     35  C   UNL A   1      34.448  32.953  29.968  1.00  0.00     0.014 A 
ATOM     36  C   UNL A   1      36.681  33.221  28.322  1.00  0.00     0.010 A 
ATOM     37  C   UNL A   1      35.688  32.502  30.406  1.00  0.00     0.010 A 
ATOM     38  C   UNL A   1      36.809  32.594  29.570  1.00  0.00    -0.014 A 
BRANCH  38  39
ATOM     39  C   UNL A   1      38.073  31.948  29.999  1.00  0.00     0.031 A 
ATOM     40  C   UNL A   1      38.989  32.670  30.956  1.00  0.00     0.074 A 
ATOM     41  C   UNL A   1      38.437  30.759  29.483  1.00  0.00     0.049 A 
ATOM     42  N   UNL A   1      40.188  32.339  31.364  1.00  0.00    -0.248 NA
ATOM     43  C   UNL A   1      38.508  33.954  31.494  1.00  0.00     0.031 C 
ATOM     44  C   UNL A   1      37.661  29.975  28.519  1.00  0.00     0.029 A 
ATOM     45  N   UNL A   1      39.564  30.005  29.694  1.00  0.00    -0.354 N 
ATOM     46  C   UNL A   1      40.615  33.390  32.167  1.00  0.00     0.074 A 
ATOM     47  C   UNL A   1      39.569  34.388  32.155  1.00  0.00     0.031 C 
ATOM     48  C   UNL A   1      38.323  28.839  28.245  1.00  0.00     0.029 A 
ATOM     49  C   UNL A   1      39.582  28.831  28.981  1.00  0.00     0.049 A 
ATOM     50  H   UNL A   1      40.290  30.279  30.301  1.00  0.00     0.167 HD
ATOM     51  C   UNL A   1      41.765  33.509  32.872  1.00  0.00     0.031 A 
ATOM     52  C   UNL A   1      40.514  27.862  28.926  1.00  0.00     0.031 A 
ATOM     53  C   UNL A   1      42.781  32.494  32.928  1.00  0.00     0.049 A 
ATOM     54  C   UNL A   1      41.766  27.998  29.746  1.00  0.00     0.074 A 
ATOM     55  C   UNL A   1      43.948  32.483  33.670  1.00  0.00     0.029 A 
ATOM     56  N   UNL A   1      42.740  31.303  32.221  1.00  0.00    -0.354 N 
ATOM     57  N   UNL A   1      42.129  28.974  30.543  1.00  0.00    -0.248 NA
ATOM     58  C   UNL A   1      42.729  26.891  29.670  1.00  0.00     0.031 C 
ATOM     59  C   UNL A   1      44.630  31.294  33.390  1.00  0.00     0.029 A 
ATOM     60  C   UNL A   1      43.866  30.551  32.503  1.00  0.00     0.049 A 
ATOM     61  H   UNL A   1      42.017  31.032  31.611  1.00  0.00     0.167 HD
ATOM     62  C   UNL A   1      43.349  28.587  31.081  1.00  0.00     0.074 A 
ATOM     63  C   UNL A   1      43.657  27.282  30.532  1.00  0.00     0.031 C 
ATOM     64  C   UNL A   1      44.145  29.253  31.951  1.00  0.00     0.031 A 
BRANCH  51  65
ATOM     65  C   UNL A   1      41.979  34.780  33.643  1.00  0.00    -0.014 A 
ATOM     66  C   UNL A   1      41.463  34.939  34.940  1.00  0.00     0.009 A 
ATOM     67  C   UNL A   1      42.731  35.821  33.079  1.00  0.00     0.009 A 
ATOM     68  C   UNL A   1      41.666  36.131  35.639  1.00  0.00     0.001 A 
ATOM     69  C   UNL A   1      42.957  37.000  33.792  1.00  0.00     0.001 A 
ATOM     70  C   UNL A   1      42.416  37.157  35.067  1.00  0.00     0.000 A 
ENDBRANCH  51  65
BRANCH  52  71
ATOM     71  C   UNL A   1      40.289  26.660  28.082  1.00  0.00    -0.014 A 
ATOM     72  C   UNL A   1      40.835  26.590  26.791  1.00  0.00     0.009 A 
ATOM     73  C   UNL A   1      39.525  25.582  28.558  1.00  0.00     0.009 A 
ATOM     74  C   UNL A   1      40.599  25.476  25.982  1.00  0.00     0.001 A 
ATOM     75  C   UNL A   1      39.312  24.459  27.754  1.00  0.00     0.001 A 
ATOM     76  C   UNL A   1      39.839  24.411  26.465  1.00  0.00     0.000 A 
ENDBRANCH  52  71
BRANCH  64  77
ATOM     77  C   UNL A   1      45.404  28.564  32.391  1.00  0.00    -0.014 A 
ATOM     78  C   UNL A   1      45.411  27.707  33.501  1.00  0.00     0.009 A 
ATOM     79  C   UNL A   1      46.586  28.745  31.657  1.00  0.00     0.009 A 
ATOM     80  C   UNL A   1      46.589  27.065  33.885  1.00  0.00     0.001 A 
ATOM     81  C   UNL A   1      47.756  28.082  32.029  1.00  0.00     0.001 A 
ATOM     82  C   UNL A   1      47.758  27.248  33.147  1.00  0.00     0.000 A 
ENDBRANCH  64  77
ENDBRANCH  38  39
ENDBRANCH  30  33
ENDBRANCH  28  29
ENDBRANCH   1  28
TORSDOF 14
ENDMDL
