MODEL 1
REMARK VINA RESULT:     -11.3      0.000      0.000
REMARK SMILES Cc1cccc([C@@H](CC(F)(F)F)C(=O)NCCCNC(=O)c2ccc(-c3c4nc(c(-c5ccccc5)c5ccc([nH]5)c(-c5ccccc5)c5nc(c(-c6ccccc6)c6ccc3[nH]6)C=C5)C=C4)cc2)c1
REMARK SMILES IDX 17 1 16 2 15 3 13 4 14 5 7 7 6 8 1 9 2 10 3 11 70 12 4 13
REMARK SMILES IDX 5 14 8 15 9 16 10 17 11 18 12 19 18 20 19 21 20 22 21 24
REMARK SMILES IDX 22 25 23 26 69 27 24 28 68 29 25 30 26 31 27 32 62 33 28 34
REMARK SMILES IDX 67 35 61 36 63 37 29 38 66 39 60 40 59 41 30 43 52 44 37 45
REMARK SMILES IDX 51 46 38 47 41 48 50 49 64 50 39 51 40 52 49 54 65 55 42 56
REMARK SMILES IDX 31 57 32 58 36 59 33 60 35 61 34 62 53 63 54 64 58 65 55 66
REMARK SMILES IDX 57 67 56 68 43 69 44 70 48 71 45 72 47 73 46 74
REMARK H PARENT 15 6 19 23 63 42 41 53
REMARK Flexibility Score: inf
ROOT
ATOM      1  C   UNL A   1      33.527  30.403  26.583  1.00  0.00     0.042 C 
ENDROOT
BRANCH   1   2
ATOM      2  C   UNL A   1      32.112  29.991  26.221  1.00  0.00     0.117 C 
BRANCH   2   3
ATOM      3  N   UNL A   1      31.963  28.555  26.077  1.00  0.00    -0.356 N 
ATOM      4  C   UNL A   1      31.636  27.748  25.041  1.00  0.00     0.227 C 
ATOM      5  O   UNL A   1      31.646  26.534  25.292  1.00  0.00    -0.274 OA
ATOM      6  H   UNL A   1      32.139  28.062  26.911  1.00  0.00     0.163 HD
BRANCH   4   7
ATOM      7  C   UNL A   1      31.280  28.205  23.619  1.00  0.00     0.117 C 
BRANCH   7   8
ATOM      8  C   UNL A   1      29.880  28.785  23.438  1.00  0.00    -0.035 A 
ATOM      9  C   UNL A   1      28.310  32.281  23.250  1.00  0.00     0.044 C 
ATOM     10  C   UNL A   1      28.468  30.790  23.216  1.00  0.00    -0.051 A 
ATOM     11  C   UNL A   1      27.353  29.977  23.002  1.00  0.00     0.003 A 
ATOM     12  C   UNL A   1      29.722  30.189  23.396  1.00  0.00     0.008 A 
ATOM     13  C   UNL A   1      27.484  28.594  23.057  1.00  0.00     0.001 A 
ATOM     14  C   UNL A   1      28.728  28.008  23.314  1.00  0.00     0.004 A 
ENDBRANCH   7   8
BRANCH   7  15
ATOM     15  C   UNL A   1      32.415  28.738  22.731  1.00  0.00     0.133 C 
BRANCH  15  16
ATOM     16  C   UNL A   1      33.778  28.106  22.787  1.00  0.00     0.390 C 
ATOM     17  F   UNL A   1      33.712  26.759  22.755  1.00  0.00    -0.171 F 
ATOM     18  F   UNL A   1      34.504  28.485  21.708  1.00  0.00    -0.171 F 
ATOM     19  F   UNL A   1      34.479  28.478  23.874  1.00  0.00    -0.171 F 
ENDBRANCH  15  16
ENDBRANCH   7  15
ENDBRANCH   4   7
ENDBRANCH   2   3
ENDBRANCH   1   2
BRANCH   1  20
ATOM     20  C   UNL A   1      33.789  30.410  28.075  1.00  0.00     0.118 C 
BRANCH  20  21
ATOM     21  N   UNL A   1      34.703  31.469  28.510  1.00  0.00    -0.352 N 
ATOM     22  C   UNL A   1      36.060  31.387  28.810  1.00  0.00     0.251 C 
ATOM     23  H   UNL A   1      34.302  32.364  28.603  1.00  0.00     0.163 HD
ATOM     24  O   UNL A   1      36.701  32.372  29.101  1.00  0.00    -0.269 OA
BRANCH  22  25
ATOM     25  C   UNL A   1      36.731  30.077  28.614  1.00  0.00     0.039 A 
ATOM     26  C   UNL A   1      36.942  29.302  29.756  1.00  0.00     0.014 A 
ATOM     27  C   UNL A   1      37.458  29.853  27.452  1.00  0.00     0.014 A 
ATOM     28  C   UNL A   1      38.095  28.531  29.831  1.00  0.00     0.010 A 
ATOM     29  C   UNL A   1      38.673  29.217  27.580  1.00  0.00     0.010 A 
ATOM     30  C   UNL A   1      39.024  28.622  28.798  1.00  0.00    -0.014 A 
BRANCH  30  31
ATOM     31  C   UNL A   1      40.424  28.243  28.956  1.00  0.00     0.031 A 
ATOM     32  C   UNL A   1      40.892  26.944  28.432  1.00  0.00     0.074 A 
ATOM     33  C   UNL A   1      41.302  29.082  29.555  1.00  0.00     0.049 A 
ATOM     34  N   UNL A   1      41.965  26.353  28.834  1.00  0.00    -0.248 NA
ATOM     35  C   UNL A   1      40.128  26.147  27.474  1.00  0.00     0.031 C 
ATOM     36  C   UNL A   1      42.760  28.996  29.554  1.00  0.00     0.029 A 
ATOM     37  N   UNL A   1      41.022  30.076  30.491  1.00  0.00    -0.354 N 
ATOM     38  C   UNL A   1      42.190  25.293  27.993  1.00  0.00     0.074 A 
ATOM     39  C   UNL A   1      40.962  25.125  27.262  1.00  0.00     0.031 C 
ATOM     40  C   UNL A   1      43.243  29.704  30.586  1.00  0.00     0.029 A 
ATOM     41  C   UNL A   1      42.111  30.154  31.376  1.00  0.00     0.049 A 
ATOM     42  H   UNL A   1      40.207  30.627  30.525  1.00  0.00     0.167 HD
ATOM     43  C   UNL A   1      43.444  24.774  27.911  1.00  0.00     0.031 A 
ATOM     44  C   UNL A   1      41.956  29.914  32.711  1.00  0.00     0.031 A 
ATOM     45  C   UNL A   1      44.298  25.259  28.994  1.00  0.00     0.049 A 
ATOM     46  C   UNL A   1      42.725  28.708  33.210  1.00  0.00     0.074 A 
ATOM     47  C   UNL A   1      45.346  26.161  29.055  1.00  0.00     0.029 A 
ATOM     48  N   UNL A   1      43.924  25.000  30.309  1.00  0.00    -0.354 N 
ATOM     49  N   UNL A   1      43.260  27.809  32.431  1.00  0.00    -0.248 NA
ATOM     50  C   UNL A   1      42.913  28.395  34.626  1.00  0.00     0.031 C 
ATOM     51  C   UNL A   1      45.535  26.515  30.420  1.00  0.00     0.029 A 
ATOM     52  C   UNL A   1      44.636  25.792  31.187  1.00  0.00     0.049 A 
ATOM     53  H   UNL A   1      43.243  24.341  30.578  1.00  0.00     0.167 HD
ATOM     54  C   UNL A   1      43.812  26.809  33.189  1.00  0.00     0.074 A 
ATOM     55  C   UNL A   1      43.589  27.233  34.558  1.00  0.00     0.031 C 
ATOM     56  C   UNL A   1      44.382  25.707  32.620  1.00  0.00     0.031 A 
BRANCH  43  57
ATOM     57  C   UNL A   1      43.962  24.001  26.718  1.00  0.00    -0.014 A 
ATOM     58  C   UNL A   1      43.712  22.620  26.631  1.00  0.00     0.009 A 
ATOM     59  C   UNL A   1      44.802  24.531  25.719  1.00  0.00     0.009 A 
ATOM     60  C   UNL A   1      44.280  21.821  25.625  1.00  0.00     0.001 A 
ATOM     61  C   UNL A   1      45.352  23.747  24.697  1.00  0.00     0.001 A 
ATOM     62  C   UNL A   1      45.100  22.387  24.656  1.00  0.00     0.000 A 
ENDBRANCH  43  57
BRANCH  44  63
ATOM     63  C   UNL A   1      40.645  30.372  33.247  1.00  0.00    -0.014 A 
ATOM     64  C   UNL A   1      40.392  31.758  33.285  1.00  0.00     0.009 A 
ATOM     65  C   UNL A   1      39.559  29.490  33.339  1.00  0.00     0.009 A 
ATOM     66  C   UNL A   1      39.082  32.247  33.289  1.00  0.00     0.001 A 
ATOM     67  C   UNL A   1      38.248  29.985  33.348  1.00  0.00     0.001 A 
ATOM     68  C   UNL A   1      38.010  31.359  33.287  1.00  0.00     0.000 A 
ENDBRANCH  44  63
BRANCH  56  69
ATOM     69  C   UNL A   1      44.801  24.447  33.345  1.00  0.00    -0.014 A 
ATOM     70  C   UNL A   1      46.095  24.194  33.819  1.00  0.00     0.009 A 
ATOM     71  C   UNL A   1      43.805  23.506  33.699  1.00  0.00     0.009 A 
ATOM     72  C   UNL A   1      46.388  23.043  34.566  1.00  0.00     0.001 A 
ATOM     73  C   UNL A   1      44.083  22.383  34.482  1.00  0.00     0.001 A 
ATOM     74  C   UNL A   1      45.381  22.144  34.906  1.00  0.00     0.000 A 
ENDBRANCH  56  69
ENDBRANCH  30  31
ENDBRANCH  22  25
ENDBRANCH  20  21
ENDBRANCH   1  20
TORSDOF 13
ENDMDL
MODEL 2
REMARK VINA RESULT:     -11.1      2.534      4.406
REMARK SMILES Cc1cccc([C@@H](CC(F)(F)F)C(=O)NCCCNC(=O)c2ccc(-c3c4nc(c(-c5ccccc5)c5ccc([nH]5)c(-c5ccccc5)c5nc(c(-c6ccccc6)c6ccc3[nH]6)C=C5)C=C4)cc2)c1
REMARK SMILES IDX 17 1 16 2 15 3 13 4 14 5 7 7 6 8 1 9 2 10 3 11 70 12 4 13
REMARK SMILES IDX 5 14 8 15 9 16 10 17 11 18 12 19 18 20 19 21 20 22 21 24
REMARK SMILES IDX 22 25 23 26 69 27 24 28 68 29 25 30 26 31 27 32 62 33 28 34
REMARK SMILES IDX 67 35 61 36 63 37 29 38 66 39 60 40 59 41 30 43 52 44 37 45
REMARK SMILES IDX 51 46 38 47 41 48 50 49 64 50 39 51 40 52 49 54 65 55 42 56
REMARK SMILES IDX 31 57 32 58 36 59 33 60 35 61 34 62 53 63 54 64 58 65 55 66
REMARK SMILES IDX 57 67 56 68 43 69 44 70 48 71 45 72 47 73 46 74
REMARK H PARENT 15 6 19 23 63 42 41 53
REMARK Flexibility Score: inf
ROOT
ATOM      1  C   UNL A   1      35.116  29.919  27.873  1.00  0.00     0.042 C 
ENDROOT
BRANCH   1   2
ATOM      2  C   UNL A   1      34.002  29.628  26.885  1.00  0.00     0.117 C 
BRANCH   2   3
ATOM      3  N   UNL A   1      32.820  29.073  27.517  1.00  0.00    -0.356 N 
ATOM      4  C   UNL A   1      31.954  28.088  27.180  1.00  0.00     0.227 C 
ATOM      5  O   UNL A   1      31.060  27.863  28.009  1.00  0.00    -0.274 OA
ATOM      6  H   UNL A   1      32.601  29.504  28.374  1.00  0.00     0.163 HD
BRANCH   4   7
ATOM      7  C   UNL A   1      32.003  27.244  25.898  1.00  0.00     0.117 C 
BRANCH   7   8
ATOM      8  C   UNL A   1      32.564  25.833  26.054  1.00  0.00    -0.035 A 
ATOM      9  C   UNL A   1      35.893  24.060  25.347  1.00  0.00     0.044 C 
ATOM     10  C   UNL A   1      34.492  24.319  25.816  1.00  0.00    -0.051 A 
ATOM     11  C   UNL A   1      33.749  23.289  26.393  1.00  0.00     0.003 A 
ATOM     12  C   UNL A   1      33.906  25.587  25.684  1.00  0.00     0.008 A 
ATOM     13  C   UNL A   1      32.423  23.505  26.749  1.00  0.00     0.001 A 
ATOM     14  C   UNL A   1      31.827  24.754  26.540  1.00  0.00     0.004 A 
ENDBRANCH   7   8
BRANCH   7  15
ATOM     15  C   UNL A   1      30.923  27.491  24.834  1.00  0.00     0.133 C 
BRANCH  15  16
ATOM     16  C   UNL A   1      31.154  27.065  23.411  1.00  0.00     0.390 C 
ATOM     17  F   UNL A   1      31.047  25.730  23.259  1.00  0.00    -0.171 F 
ATOM     18  F   UNL A   1      30.218  27.624  22.607  1.00  0.00    -0.171 F 
ATOM     19  F   UNL A   1      32.352  27.458  22.940  1.00  0.00    -0.171 F 
ENDBRANCH  15  16
ENDBRANCH   7  15
ENDBRANCH   4   7
ENDBRANCH   2   3
ENDBRANCH   1   2
BRANCH   1  20
ATOM     20  C   UNL A   1      35.521  31.378  27.910  1.00  0.00     0.118 C 
BRANCH  20  21
ATOM     21  N   UNL A   1      34.427  32.287  28.262  1.00  0.00    -0.352 N 
ATOM     22  C   UNL A   1      34.384  33.266  29.251  1.00  0.00     0.251 C 
ATOM     23  H   UNL A   1      33.608  32.192  27.723  1.00  0.00     0.163 HD
ATOM     24  O   UNL A   1      33.419  33.985  29.382  1.00  0.00    -0.269 OA
BRANCH  22  25
ATOM     25  C   UNL A   1      35.618  33.502  30.042  1.00  0.00     0.039 A 
ATOM     26  C   UNL A   1      36.670  34.146  29.386  1.00  0.00     0.014 A 
ATOM     27  C   UNL A   1      35.840  32.761  31.195  1.00  0.00     0.014 A 
ATOM     28  C   UNL A   1      37.971  33.778  29.700  1.00  0.00     0.010 A 
ATOM     29  C   UNL A   1      37.114  32.281  31.402  1.00  0.00     0.010 A 
ATOM     30  C   UNL A   1      38.169  32.734  30.599  1.00  0.00    -0.014 A 
BRANCH  30  31
ATOM     31  C   UNL A   1      39.411  31.971  30.667  1.00  0.00     0.031 A 
ATOM     32  C   UNL A   1      39.510  30.673  29.970  1.00  0.00     0.074 A 
ATOM     33  C   UNL A   1      40.480  32.455  31.341  1.00  0.00     0.049 A 
ATOM     34  N   UNL A   1      40.378  29.766  30.262  1.00  0.00    -0.248 NA
ATOM     35  C   UNL A   1      38.563  30.244  28.942  1.00  0.00     0.031 C 
ATOM     36  C   UNL A   1      41.860  31.978  31.286  1.00  0.00     0.029 A 
ATOM     37  N   UNL A   1      40.477  33.359  32.403  1.00  0.00    -0.354 N 
ATOM     38  C   UNL A   1      40.310  28.803  29.288  1.00  0.00     0.074 A 
ATOM     39  C   UNL A   1      39.087  29.071  28.578  1.00  0.00     0.031 C 
ATOM     40  C   UNL A   1      42.512  32.388  32.384  1.00  0.00     0.029 A 
ATOM     41  C   UNL A   1      41.541  33.023  33.257  1.00  0.00     0.049 A 
ATOM     42  H   UNL A   1      39.844  34.101  32.530  1.00  0.00     0.167 HD
ATOM     43  C   UNL A   1      41.375  27.978  29.104  1.00  0.00     0.031 A 
ATOM     44  C   UNL A   1      41.318  32.663  34.556  1.00  0.00     0.031 A 
ATOM     45  C   UNL A   1      42.323  28.068  30.215  1.00  0.00     0.049 A 
ATOM     46  C   UNL A   1      41.725  31.240  34.876  1.00  0.00     0.074 A 
ATOM     47  C   UNL A   1      43.576  28.636  30.358  1.00  0.00     0.029 A 
ATOM     48  N   UNL A   1      41.883  27.753  31.496  1.00  0.00    -0.354 N 
ATOM     49  N   UNL A   1      41.999  30.338  33.974  1.00  0.00    -0.248 NA
ATOM     50  C   UNL A   1      41.811  30.707  36.235  1.00  0.00     0.031 C 
ATOM     51  C   UNL A   1      43.847  28.746  31.751  1.00  0.00     0.029 A 
ATOM     52  C   UNL A   1      42.780  28.202  32.446  1.00  0.00     0.049 A 
ATOM     53  H   UNL A   1      41.047  27.275  31.700  1.00  0.00     0.167 HD
ATOM     54  C   UNL A   1      42.252  29.136  34.583  1.00  0.00     0.074 A 
ATOM     55  C   UNL A   1      42.145  29.424  36.001  1.00  0.00     0.031 C 
ATOM     56  C   UNL A   1      42.503  28.003  33.864  1.00  0.00     0.031 A 
BRANCH  43  57
ATOM     57  C   UNL A   1      41.670  27.254  27.809  1.00  0.00    -0.014 A 
ATOM     58  C   UNL A   1      41.908  25.869  27.833  1.00  0.00     0.009 A 
ATOM     59  C   UNL A   1      41.853  27.881  26.561  1.00  0.00     0.009 A 
ATOM     60  C   UNL A   1      42.322  25.163  26.691  1.00  0.00     0.001 A 
ATOM     61  C   UNL A   1      42.240  27.181  25.411  1.00  0.00     0.001 A 
ATOM     62  C   UNL A   1      42.486  25.821  25.478  1.00  0.00     0.000 A 
ENDBRANCH  43  57
BRANCH  44  63
ATOM     63  C   UNL A   1      40.178  33.386  35.184  1.00  0.00    -0.014 A 
ATOM     64  C   UNL A   1      38.938  32.721  35.270  1.00  0.00     0.009 A 
ATOM     65  C   UNL A   1      40.399  34.500  36.005  1.00  0.00     0.009 A 
ATOM     66  C   UNL A   1      37.997  33.084  36.238  1.00  0.00     0.001 A 
ATOM     67  C   UNL A   1      39.449  34.864  36.970  1.00  0.00     0.001 A 
ATOM     68  C   UNL A   1      38.268  34.134  37.110  1.00  0.00     0.000 A 
ENDBRANCH  44  63
BRANCH  56  69
ATOM     69  C   UNL A   1      42.557  26.595  34.411  1.00  0.00    -0.014 A 
ATOM     70  C   UNL A   1      41.548  26.000  35.180  1.00  0.00     0.009 A 
ATOM     71  C   UNL A   1      43.628  25.756  34.022  1.00  0.00     0.009 A 
ATOM     72  C   UNL A   1      41.625  24.656  35.576  1.00  0.00     0.001 A 
ATOM     73  C   UNL A   1      43.686  24.405  34.373  1.00  0.00     0.001 A 
ATOM     74  C   UNL A   1      42.687  23.857  35.164  1.00  0.00     0.000 A 
ENDBRANCH  56  69
ENDBRANCH  30  31
ENDBRANCH  22  25
ENDBRANCH  20  21
ENDBRANCH   1  20
TORSDOF 13
ENDMDL
MODEL 3
REMARK VINA RESULT:     -11.1      4.030      8.733
REMARK SMILES Cc1cccc([C@@H](CC(F)(F)F)C(=O)NCCCNC(=O)c2ccc(-c3c4nc(c(-c5ccccc5)c5ccc([nH]5)c(-c5ccccc5)c5nc(c(-c6ccccc6)c6ccc3[nH]6)C=C5)C=C4)cc2)c1
REMARK SMILES IDX 17 1 16 2 15 3 13 4 14 5 7 7 6 8 1 9 2 10 3 11 70 12 4 13
REMARK SMILES IDX 5 14 8 15 9 16 10 17 11 18 12 19 18 20 19 21 20 22 21 24
REMARK SMILES IDX 22 25 23 26 69 27 24 28 68 29 25 30 26 31 27 32 62 33 28 34
REMARK SMILES IDX 67 35 61 36 63 37 29 38 66 39 60 40 59 41 30 43 52 44 37 45
REMARK SMILES IDX 51 46 38 47 41 48 50 49 64 50 39 51 40 52 49 54 65 55 42 56
REMARK SMILES IDX 31 57 32 58 36 59 33 60 35 61 34 62 53 63 54 64 58 65 55 66
REMARK SMILES IDX 57 67 56 68 43 69 44 70 48 71 45 72 47 73 46 74
REMARK H PARENT 15 6 19 23 63 42 41 53
REMARK Flexibility Score: inf
ROOT
ATOM      1  C   UNL A   1      38.462  23.328  26.283  1.00  0.00     0.042 C 
ENDROOT
BRANCH   1   2
ATOM      2  C   UNL A   1      37.749  22.166  25.615  1.00  0.00     0.117 C 
BRANCH   2   3
ATOM      3  N   UNL A   1      37.432  22.426  24.223  1.00  0.00    -0.356 N 
ATOM      4  C   UNL A   1      36.301  22.790  23.574  1.00  0.00     0.227 C 
ATOM      5  O   UNL A   1      36.425  22.959  22.351  1.00  0.00    -0.274 OA
ATOM      6  H   UNL A   1      38.205  22.315  23.623  1.00  0.00     0.163 HD
BRANCH   4   7
ATOM      7  C   UNL A   1      34.926  23.017  24.216  1.00  0.00     0.117 C 
BRANCH   7   8
ATOM      8  C   UNL A   1      34.341  24.417  24.054  1.00  0.00    -0.035 A 
ATOM      9  C   UNL A   1      33.721  27.461  26.309  1.00  0.00     0.044 C 
ATOM     10  C   UNL A   1      33.809  26.587  25.093  1.00  0.00    -0.051 A 
ATOM     11  C   UNL A   1      33.382  27.070  23.856  1.00  0.00     0.003 A 
ATOM     12  C   UNL A   1      34.316  25.281  25.173  1.00  0.00     0.008 A 
ATOM     13  C   UNL A   1      33.383  26.233  22.746  1.00  0.00     0.001 A 
ATOM     14  C   UNL A   1      33.819  24.908  22.857  1.00  0.00     0.004 A 
ENDBRANCH   7   8
BRANCH   7  15
ATOM     15  C   UNL A   1      33.961  21.824  24.290  1.00  0.00     0.133 C 
BRANCH  15  16
ATOM     16  C   UNL A   1      34.233  20.692  25.240  1.00  0.00     0.390 C 
ATOM     17  F   UNL A   1      34.751  21.124  26.407  1.00  0.00    -0.171 F 
ATOM     18  F   UNL A   1      33.074  20.057  25.541  1.00  0.00    -0.171 F 
ATOM     19  F   UNL A   1      35.058  19.763  24.720  1.00  0.00    -0.171 F 
ENDBRANCH  15  16
ENDBRANCH   7  15
ENDBRANCH   4   7
ENDBRANCH   2   3
ENDBRANCH   1   2
BRANCH   1  20
ATOM     20  C   UNL A   1      39.835  22.967  26.812  1.00  0.00     0.118 C 
BRANCH  20  21
ATOM     21  N   UNL A   1      40.400  21.755  26.212  1.00  0.00    -0.352 N 
ATOM     22  C   UNL A   1      41.711  21.290  26.246  1.00  0.00     0.251 C 
ATOM     23  H   UNL A   1      39.762  21.192  25.717  1.00  0.00     0.163 HD
ATOM     24  O   UNL A   1      42.016  20.229  25.748  1.00  0.00    -0.269 OA
BRANCH  22  25
ATOM     25  C   UNL A   1      42.697  22.063  27.043  1.00  0.00     0.039 A 
ATOM     26  C   UNL A   1      42.559  22.012  28.432  1.00  0.00     0.014 A 
ATOM     27  C   UNL A   1      43.418  23.080  26.433  1.00  0.00     0.014 A 
ATOM     28  C   UNL A   1      42.865  23.146  29.171  1.00  0.00     0.010 A 
ATOM     29  C   UNL A   1      43.575  24.254  27.137  1.00  0.00     0.010 A 
ATOM     30  C   UNL A   1      43.224  24.307  28.491  1.00  0.00    -0.014 A 
BRANCH  30  31
ATOM     31  C   UNL A   1      43.127  25.636  29.085  1.00  0.00     0.031 A 
ATOM     32  C   UNL A   1      41.920  26.454  28.854  1.00  0.00     0.074 A 
ATOM     33  C   UNL A   1      44.122  26.114  29.869  1.00  0.00     0.049 A 
ATOM     34  N   UNL A   1      41.883  27.735  28.996  1.00  0.00    -0.248 NA
ATOM     35  C   UNL A   1      40.667  25.902  28.339  1.00  0.00     0.031 C 
ATOM     36  C   UNL A   1      44.081  27.275  30.754  1.00  0.00     0.029 A 
ATOM     37  N   UNL A   1      45.470  25.756  29.844  1.00  0.00    -0.354 N 
ATOM     38  C   UNL A   1      40.570  28.121  28.902  1.00  0.00     0.074 A 
ATOM     39  C   UNL A   1      39.880  26.981  28.360  1.00  0.00     0.031 C 
ATOM     40  C   UNL A   1      45.334  27.686  31.000  1.00  0.00     0.029 A 
ATOM     41  C   UNL A   1      46.225  26.895  30.169  1.00  0.00     0.049 A 
ATOM     42  H   UNL A   1      45.828  24.863  29.636  1.00  0.00     0.167 HD
ATOM     43  C   UNL A   1      40.198  29.316  29.433  1.00  0.00     0.031 A 
ATOM     44  C   UNL A   1      47.129  27.418  29.291  1.00  0.00     0.031 A 
ATOM     45  C   UNL A   1      41.358  30.145  29.758  1.00  0.00     0.049 A 
ATOM     46  C   UNL A   1      46.789  28.817  28.821  1.00  0.00     0.074 A 
ATOM     47  C   UNL A   1      41.969  30.511  30.945  1.00  0.00     0.029 A 
ATOM     48  N   UNL A   1      42.233  30.501  28.737  1.00  0.00    -0.354 N 
ATOM     49  N   UNL A   1      45.627  29.384  28.994  1.00  0.00    -0.248 NA
ATOM     50  C   UNL A   1      47.716  29.672  28.080  1.00  0.00     0.031 C 
ATOM     51  C   UNL A   1      43.265  31.007  30.630  1.00  0.00     0.029 A 
ATOM     52  C   UNL A   1      43.418  30.984  29.254  1.00  0.00     0.049 A 
ATOM     53  H   UNL A   1      42.034  30.420  27.776  1.00  0.00     0.167 HD
ATOM     54  C   UNL A   1      45.615  30.612  28.386  1.00  0.00     0.074 A 
ATOM     55  C   UNL A   1      46.955  30.757  27.847  1.00  0.00     0.031 C 
ATOM     56  C   UNL A   1      44.495  31.391  28.358  1.00  0.00     0.031 A 
BRANCH  43  57
ATOM     57  C   UNL A   1      38.786  29.644  29.867  1.00  0.00    -0.014 A 
ATOM     58  C   UNL A   1      38.046  30.595  29.143  1.00  0.00     0.009 A 
ATOM     59  C   UNL A   1      38.171  29.159  31.038  1.00  0.00     0.009 A 
ATOM     60  C   UNL A   1      36.787  31.045  29.572  1.00  0.00     0.001 A 
ATOM     61  C   UNL A   1      36.904  29.582  31.460  1.00  0.00     0.001 A 
ATOM     62  C   UNL A   1      36.215  30.536  30.732  1.00  0.00     0.000 A 
ENDBRANCH  43  57
BRANCH  44  63
ATOM     63  C   UNL A   1      47.822  26.387  28.469  1.00  0.00    -0.014 A 
ATOM     64  C   UNL A   1      47.486  26.292  27.104  1.00  0.00     0.009 A 
ATOM     65  C   UNL A   1      49.023  25.809  28.905  1.00  0.00     0.009 A 
ATOM     66  C   UNL A   1      48.382  25.744  26.182  1.00  0.00     0.001 A 
ATOM     67  C   UNL A   1      49.916  25.256  27.977  1.00  0.00     0.001 A 
ATOM     68  C   UNL A   1      49.612  25.257  26.616  1.00  0.00     0.000 A 
ENDBRANCH  44  63
BRANCH  56  69
ATOM     69  C   UNL A   1      44.297  32.637  27.524  1.00  0.00    -0.014 A 
ATOM     70  C   UNL A   1      44.351  32.675  26.125  1.00  0.00     0.009 A 
ATOM     71  C   UNL A   1      43.896  33.829  28.171  1.00  0.00     0.009 A 
ATOM     72  C   UNL A   1      44.064  33.850  25.413  1.00  0.00     0.001 A 
ATOM     73  C   UNL A   1      43.564  34.988  27.465  1.00  0.00     0.001 A 
ATOM     74  C   UNL A   1      43.661  35.002  26.081  1.00  0.00     0.000 A 
ENDBRANCH  56  69
ENDBRANCH  30  31
ENDBRANCH  22  25
ENDBRANCH  20  21
ENDBRANCH   1  20
TORSDOF 13
ENDMDL
