MODEL 1
REMARK VINA RESULT:      -9.7      0.000      0.000
REMARK SMILES CCc1ccc(S(=O)(=O)CC(=O)NCCCNC(=O)c2ccc(-c3c4nc(c(-c5ccccc5)c5ccc([nH]5)c(-c5ccccc5)c5nc(c(-c6ccccc6)c6ccc3[nH]6)C=C5)C=C4)cc2)cc1
REMARK SMILES IDX 14 1 13 2 11 3 12 4 10 6 7 7 8 8 9 9 6 10 3 11 4 12 69 13
REMARK SMILES IDX 5 14 68 15 2 16 1 17 15 18 16 19 17 20 18 21 19 23 20 24
REMARK SMILES IDX 21 25 67 26 22 27 66 28 23 29 24 30 25 31 60 32 26 33 65 34
REMARK SMILES IDX 59 35 61 36 27 37 64 38 58 39 57 40 28 42 50 43 35 44 49 45
REMARK SMILES IDX 36 46 39 47 48 48 62 49 37 50 38 51 47 53 63 54 40 55 29 56
REMARK SMILES IDX 30 57 34 58 31 59 33 60 32 61 51 62 52 63 56 64 53 65 55 66
REMARK SMILES IDX 54 67 41 68 42 69 46 70 43 71 45 72 44 73
REMARK H PARENT 13 5 17 22 61 41 39 52
REMARK Flexibility Score: inf
ROOT
ATOM      1  C   UNL A   1      33.770  35.274  29.718  1.00  0.00     0.117 C 
ENDROOT
BRANCH   1   2
ATOM      2  N   UNL A   1      32.683  35.352  30.679  1.00  0.00    -0.355 N 
ATOM      3  C   UNL A   1      32.700  35.272  32.033  1.00  0.00     0.235 C 
ATOM      4  O   UNL A   1      31.608  35.286  32.610  1.00  0.00    -0.274 OA
ATOM      5  H   UNL A   1      31.791  35.483  30.283  1.00  0.00     0.163 HD
BRANCH   3   6
ATOM      6  C   UNL A   1      33.971  35.287  32.815  1.00  0.00     0.241 C 
BRANCH   6   7
ATOM      7  S   UNL A   1      34.803  33.746  32.905  1.00  0.00     0.187 S 
ATOM      8  O   UNL A   1      34.000  32.786  32.171  1.00  0.00    -0.223 OA
ATOM      9  O   UNL A   1      35.099  33.499  34.309  1.00  0.00    -0.223 OA
BRANCH   7  10
ATOM     10  C   UNL A   1      36.362  33.806  32.064  1.00  0.00     0.067 A 
ATOM     11  C   UNL A   1      38.895  33.921  30.844  1.00  0.00    -0.048 A 
ATOM     12  C   UNL A   1      38.668  34.555  32.071  1.00  0.00     0.005 A 
ATOM     13  C   UNL A   1      37.828  33.235  30.239  1.00  0.00     0.005 A 
ATOM     14  C   UNL A   1      37.409  34.503  32.676  1.00  0.00     0.020 A 
ATOM     15  C   UNL A   1      36.572  33.156  30.852  1.00  0.00     0.020 A 
BRANCH  11  16
ATOM     16  C   UNL A   1      40.228  33.946  30.126  1.00  0.00     0.032 C 
ATOM     17  C   UNL A   1      41.460  34.242  30.972  1.00  0.00     0.009 C 
ENDBRANCH  11  16
ENDBRANCH   7  10
ENDBRANCH   6   7
ENDBRANCH   3   6
ENDBRANCH   1   2
BRANCH   1  18
ATOM     18  C   UNL A   1      33.444  34.306  28.583  1.00  0.00     0.042 C 
BRANCH  18  19
ATOM     19  C   UNL A   1      34.368  33.093  28.507  1.00  0.00     0.118 C 
BRANCH  19  20
ATOM     20  N   UNL A   1      33.759  31.956  27.834  1.00  0.00    -0.352 N 
ATOM     21  C   UNL A   1      34.264  30.704  27.583  1.00  0.00     0.251 C 
ATOM     22  H   UNL A   1      32.842  32.107  27.508  1.00  0.00     0.163 HD
ATOM     23  O   UNL A   1      33.649  29.935  26.850  1.00  0.00    -0.269 OA
BRANCH  21  24
ATOM     24  C   UNL A   1      35.556  30.279  28.169  1.00  0.00     0.039 A 
ATOM     25  C   UNL A   1      35.566  29.760  29.467  1.00  0.00     0.014 A 
ATOM     26  C   UNL A   1      36.755  30.414  27.464  1.00  0.00     0.014 A 
ATOM     27  C   UNL A   1      36.764  29.311  30.029  1.00  0.00     0.010 A 
ATOM     28  C   UNL A   1      37.936  29.902  27.997  1.00  0.00     0.010 A 
ATOM     29  C   UNL A   1      37.953  29.344  29.285  1.00  0.00    -0.014 A 
BRANCH  29  30
ATOM     30  C   UNL A   1      39.219  28.791  29.831  1.00  0.00     0.031 A 
ATOM     31  C   UNL A   1      39.853  29.400  31.051  1.00  0.00     0.074 A 
ATOM     32  C   UNL A   1      39.837  27.780  29.189  1.00  0.00     0.049 A 
ATOM     33  N   UNL A   1      40.987  29.095  31.632  1.00  0.00    -0.248 NA
ATOM     34  C   UNL A   1      39.132  30.512  31.690  1.00  0.00     0.031 C 
ATOM     35  C   UNL A   1      39.350  27.124  27.973  1.00  0.00     0.029 A 
ATOM     36  N   UNL A   1      41.014  27.132  29.467  1.00  0.00    -0.354 N 
ATOM     37  C   UNL A   1      41.123  29.988  32.687  1.00  0.00     0.074 A 
ATOM     38  C   UNL A   1      39.980  30.872  32.642  1.00  0.00     0.031 C 
ATOM     39  C   UNL A   1      40.208  26.152  27.625  1.00  0.00     0.029 A 
ATOM     40  C   UNL A   1      41.322  26.140  28.567  1.00  0.00     0.049 A 
ATOM     41  H   UNL A   1      41.583  27.356  30.237  1.00  0.00     0.167 HD
ATOM     42  C   UNL A   1      42.103  30.056  33.620  1.00  0.00     0.031 A 
ATOM     43  C   UNL A   1      42.386  25.317  28.502  1.00  0.00     0.031 A 
ATOM     44  C   UNL A   1      43.235  29.169  33.678  1.00  0.00     0.049 A 
ATOM     45  C   UNL A   1      43.461  25.416  29.546  1.00  0.00     0.074 A 
ATOM     46  C   UNL A   1      44.248  29.124  34.620  1.00  0.00     0.029 A 
ATOM     47  N   UNL A   1      43.501  28.171  32.755  1.00  0.00    -0.354 N 
ATOM     48  N   UNL A   1      43.542  26.226  30.573  1.00  0.00    -0.248 NA
ATOM     49  C   UNL A   1      44.587  24.478  29.427  1.00  0.00     0.031 C 
ATOM     50  C   UNL A   1      45.152  28.125  34.243  1.00  0.00     0.029 A 
ATOM     51  C   UNL A   1      44.675  27.517  33.094  1.00  0.00     0.049 A 
ATOM     52  H   UNL A   1      42.940  27.958  31.975  1.00  0.00     0.167 HD
ATOM     53  C   UNL A   1      44.712  25.878  31.237  1.00  0.00     0.074 A 
ATOM     54  C   UNL A   1      45.300  24.775  30.505  1.00  0.00     0.031 C 
ATOM     55  C   UNL A   1      45.247  26.422  32.357  1.00  0.00     0.031 A 
BRANCH  42  56
ATOM     56  C   UNL A   1      41.995  31.140  34.656  1.00  0.00    -0.014 A 
ATOM     57  C   UNL A   1      41.424  30.888  35.914  1.00  0.00     0.009 A 
ATOM     58  C   UNL A   1      42.504  32.420  34.386  1.00  0.00     0.009 A 
ATOM     59  C   UNL A   1      41.330  31.905  36.865  1.00  0.00     0.001 A 
ATOM     60  C   UNL A   1      42.433  33.428  35.349  1.00  0.00     0.001 A 
ATOM     61  C   UNL A   1      41.837  33.173  36.583  1.00  0.00     0.000 A 
ENDBRANCH  42  56
BRANCH  43  62
ATOM     62  C   UNL A   1      42.479  24.309  27.414  1.00  0.00    -0.014 A 
ATOM     63  C   UNL A   1      41.945  23.023  27.592  1.00  0.00     0.009 A 
ATOM     64  C   UNL A   1      43.102  24.625  26.198  1.00  0.00     0.009 A 
ATOM     65  C   UNL A   1      42.056  22.067  26.581  1.00  0.00     0.001 A 
ATOM     66  C   UNL A   1      43.187  23.674  25.179  1.00  0.00     0.001 A 
ATOM     67  C   UNL A   1      42.672  22.394  25.375  1.00  0.00     0.000 A 
ENDBRANCH  43  62
BRANCH  55  68
ATOM     68  C   UNL A   1      46.516  25.810  32.877  1.00  0.00    -0.014 A 
ATOM     69  C   UNL A   1      47.773  26.258  32.444  1.00  0.00     0.009 A 
ATOM     70  C   UNL A   1      46.450  24.796  33.846  1.00  0.00     0.009 A 
ATOM     71  C   UNL A   1      48.940  25.681  32.950  1.00  0.00     0.001 A 
ATOM     72  C   UNL A   1      47.618  24.239  34.369  1.00  0.00     0.001 A 
ATOM     73  C   UNL A   1      48.861  24.676  33.915  1.00  0.00     0.000 A 
ENDBRANCH  55  68
ENDBRANCH  29  30
ENDBRANCH  21  24
ENDBRANCH  19  20
ENDBRANCH  18  19
ENDBRANCH   1  18
TORSDOF 13
ENDMDL
MODEL 2
REMARK VINA RESULT:      -9.6      4.739      9.847
REMARK SMILES CCc1ccc(S(=O)(=O)CC(=O)NCCCNC(=O)c2ccc(-c3c4nc(c(-c5ccccc5)c5ccc([nH]5)c(-c5ccccc5)c5nc(c(-c6ccccc6)c6ccc3[nH]6)C=C5)C=C4)cc2)cc1
REMARK SMILES IDX 14 1 13 2 11 3 12 4 10 6 7 7 8 8 9 9 6 10 3 11 4 12 69 13
REMARK SMILES IDX 5 14 68 15 2 16 1 17 15 18 16 19 17 20 18 21 19 23 20 24
REMARK SMILES IDX 21 25 67 26 22 27 66 28 23 29 24 30 25 31 60 32 26 33 65 34
REMARK SMILES IDX 59 35 61 36 27 37 64 38 58 39 57 40 28 42 50 43 35 44 49 45
REMARK SMILES IDX 36 46 39 47 48 48 62 49 37 50 38 51 47 53 63 54 40 55 29 56
REMARK SMILES IDX 30 57 34 58 31 59 33 60 32 61 51 62 52 63 56 64 53 65 55 66
REMARK SMILES IDX 54 67 41 68 42 69 46 70 43 71 45 72 44 73
REMARK H PARENT 13 5 17 22 61 41 39 52
REMARK Flexibility Score: inf
ROOT
ATOM      1  C   UNL A   1      36.483  20.524  24.991  1.00  0.00     0.117 C 
ENDROOT
BRANCH   1   2
ATOM      2  N   UNL A   1      36.711  21.744  25.746  1.00  0.00    -0.355 N 
ATOM      3  C   UNL A   1      36.721  23.039  25.342  1.00  0.00     0.235 C 
ATOM      4  O   UNL A   1      37.027  23.888  26.185  1.00  0.00    -0.274 OA
ATOM      5  H   UNL A   1      36.887  21.609  26.706  1.00  0.00     0.163 HD
BRANCH   3   6
ATOM      6  C   UNL A   1      36.268  23.451  23.980  1.00  0.00     0.241 C 
BRANCH   6   7
ATOM      7  S   UNL A   1      34.548  23.758  23.834  1.00  0.00     0.187 S 
ATOM      8  O   UNL A   1      33.876  22.864  24.758  1.00  0.00    -0.223 OA
ATOM      9  O   UNL A   1      34.220  23.693  22.418  1.00  0.00    -0.223 OA
BRANCH   7  10
ATOM     10  C   UNL A   1      34.138  25.397  24.372  1.00  0.00     0.067 A 
ATOM     11  C   UNL A   1      33.424  28.015  25.116  1.00  0.00    -0.048 A 
ATOM     12  C   UNL A   1      33.482  27.650  23.766  1.00  0.00     0.005 A 
ATOM     13  C   UNL A   1      33.737  27.045  26.084  1.00  0.00     0.005 A 
ATOM     14  C   UNL A   1      33.841  26.351  23.395  1.00  0.00     0.020 A 
ATOM     15  C   UNL A   1      34.072  25.735  25.721  1.00  0.00     0.020 A 
BRANCH  11  16
ATOM     16  C   UNL A   1      33.055  29.404  25.589  1.00  0.00     0.032 C 
ATOM     17  C   UNL A   1      32.612  29.542  27.041  1.00  0.00     0.009 C 
ENDBRANCH  11  16
ENDBRANCH   7  10
ENDBRANCH   6   7
ENDBRANCH   3   6
ENDBRANCH   1   2
BRANCH   1  18
ATOM     18  C   UNL A   1      37.721  19.630  24.987  1.00  0.00     0.042 C 
BRANCH  18  19
ATOM     19  C   UNL A   1      38.913  20.204  25.747  1.00  0.00     0.118 C 
BRANCH  19  20
ATOM     20  N   UNL A   1      40.064  19.315  25.756  1.00  0.00    -0.352 N 
ATOM     21  C   UNL A   1      41.382  19.578  26.041  1.00  0.00     0.251 C 
ATOM     22  H   UNL A   1      39.869  18.379  25.521  1.00  0.00     0.163 HD
ATOM     23  O   UNL A   1      42.233  18.719  25.828  1.00  0.00    -0.269 OA
BRANCH  21  24
ATOM     24  C   UNL A   1      41.790  20.895  26.580  1.00  0.00     0.039 A 
ATOM     25  C   UNL A   1      42.266  21.865  25.691  1.00  0.00     0.014 A 
ATOM     26  C   UNL A   1      41.735  21.171  27.948  1.00  0.00     0.014 A 
ATOM     27  C   UNL A   1      42.617  23.131  26.166  1.00  0.00     0.010 A 
ATOM     28  C   UNL A   1      42.018  22.455  28.411  1.00  0.00     0.010 A 
ATOM     29  C   UNL A   1      42.461  23.449  27.524  1.00  0.00    -0.014 A 
BRANCH  29  30
ATOM     30  C   UNL A   1      42.745  24.815  28.033  1.00  0.00     0.031 A 
ATOM     31  C   UNL A   1      44.137  25.197  28.457  1.00  0.00     0.074 A 
ATOM     32  C   UNL A   1      41.736  25.696  28.177  1.00  0.00     0.049 A 
ATOM     33  N   UNL A   1      44.561  26.318  28.986  1.00  0.00    -0.248 NA
ATOM     34  C   UNL A   1      45.186  24.179  28.288  1.00  0.00     0.031 C 
ATOM     35  C   UNL A   1      40.333  25.442  27.842  1.00  0.00     0.029 A 
ATOM     36  N   UNL A   1      41.735  26.983  28.653  1.00  0.00    -0.354 N 
ATOM     37  C   UNL A   1      45.916  26.132  29.229  1.00  0.00     0.074 A 
ATOM     38  C   UNL A   1      46.234  24.778  28.831  1.00  0.00     0.031 C 
ATOM     39  C   UNL A   1      39.613  26.545  28.098  1.00  0.00     0.029 A 
ATOM     40  C   UNL A   1      40.492  27.570  28.651  1.00  0.00     0.049 A 
ATOM     41  H   UNL A   1      42.547  27.443  28.966  1.00  0.00     0.167 HD
ATOM     42  C   UNL A   1      46.818  27.013  29.725  1.00  0.00     0.031 A 
ATOM     43  C   UNL A   1      40.101  28.793  29.057  1.00  0.00     0.031 A 
ATOM     44  C   UNL A   1      46.508  28.365  30.108  1.00  0.00     0.049 A 
ATOM     45  C   UNL A   1      41.120  29.750  29.606  1.00  0.00     0.074 A 
ATOM     46  C   UNL A   1      47.368  29.350  30.565  1.00  0.00     0.029 A 
ATOM     47  N   UNL A   1      45.241  28.922  30.078  1.00  0.00    -0.354 N 
ATOM     48  N   UNL A   1      42.409  29.578  29.771  1.00  0.00    -0.248 NA
ATOM     49  C   UNL A   1      40.630  31.075  30.015  1.00  0.00     0.031 C 
ATOM     50  C   UNL A   1      46.611  30.491  30.853  1.00  0.00     0.029 A 
ATOM     51  C   UNL A   1      45.290  30.231  30.528  1.00  0.00     0.049 A 
ATOM     52  H   UNL A   1      44.426  28.457  29.780  1.00  0.00     0.167 HD
ATOM     53  C   UNL A   1      42.888  30.780  30.277  1.00  0.00     0.074 A 
ATOM     54  C   UNL A   1      41.754  31.676  30.379  1.00  0.00     0.031 C 
ATOM     55  C   UNL A   1      44.155  31.111  30.622  1.00  0.00     0.031 A 
BRANCH  42  56
ATOM     56  C   UNL A   1      48.233  26.533  29.887  1.00  0.00    -0.014 A 
ATOM     57  C   UNL A   1      48.650  25.881  31.058  1.00  0.00     0.009 A 
ATOM     58  C   UNL A   1      49.154  26.704  28.841  1.00  0.00     0.009 A 
ATOM     59  C   UNL A   1      49.968  25.443  31.194  1.00  0.00     0.001 A 
ATOM     60  C   UNL A   1      50.464  26.240  28.968  1.00  0.00     0.001 A 
ATOM     61  C   UNL A   1      50.873  25.620  30.148  1.00  0.00     0.000 A 
ENDBRANCH  42  56
BRANCH  43  62
ATOM     62  C   UNL A   1      38.674  29.193  28.939  1.00  0.00    -0.014 A 
ATOM     63  C   UNL A   1      37.816  29.091  30.045  1.00  0.00     0.009 A 
ATOM     64  C   UNL A   1      38.164  29.673  27.724  1.00  0.00     0.009 A 
ATOM     65  C   UNL A   1      36.469  29.441  29.928  1.00  0.00     0.001 A 
ATOM     66  C   UNL A   1      36.823  30.047  27.619  1.00  0.00     0.001 A 
ATOM     67  C   UNL A   1      35.975  29.922  28.718  1.00  0.00     0.000 A 
ENDBRANCH  43  62
BRANCH  55  68
ATOM     68  C   UNL A   1      44.389  32.512  31.110  1.00  0.00    -0.014 A 
ATOM     69  C   UNL A   1      44.334  32.828  32.476  1.00  0.00     0.009 A 
ATOM     70  C   UNL A   1      44.710  33.522  30.189  1.00  0.00     0.009 A 
ATOM     71  C   UNL A   1      44.566  34.136  32.908  1.00  0.00     0.001 A 
ATOM     72  C   UNL A   1      44.967  34.823  30.626  1.00  0.00     0.001 A 
ATOM     73  C   UNL A   1      44.887  35.130  31.983  1.00  0.00     0.000 A 
ENDBRANCH  55  68
ENDBRANCH  29  30
ENDBRANCH  21  24
ENDBRANCH  19  20
ENDBRANCH  18  19
ENDBRANCH   1  18
TORSDOF 13
ENDMDL
MODEL 3
REMARK VINA RESULT:      -9.5      4.931     11.196
REMARK SMILES CCc1ccc(S(=O)(=O)CC(=O)NCCCNC(=O)c2ccc(-c3c4nc(c(-c5ccccc5)c5ccc([nH]5)c(-c5ccccc5)c5nc(c(-c6ccccc6)c6ccc3[nH]6)C=C5)C=C4)cc2)cc1
REMARK SMILES IDX 14 1 13 2 11 3 12 4 10 6 7 7 8 8 9 9 6 10 3 11 4 12 69 13
REMARK SMILES IDX 5 14 68 15 2 16 1 17 15 18 16 19 17 20 18 21 19 23 20 24
REMARK SMILES IDX 21 25 67 26 22 27 66 28 23 29 24 30 25 31 60 32 26 33 65 34
REMARK SMILES IDX 59 35 61 36 27 37 64 38 58 39 57 40 28 42 50 43 35 44 49 45
REMARK SMILES IDX 36 46 39 47 48 48 62 49 37 50 38 51 47 53 63 54 40 55 29 56
REMARK SMILES IDX 30 57 34 58 31 59 33 60 32 61 51 62 52 63 56 64 53 65 55 66
REMARK SMILES IDX 54 67 41 68 42 69 46 70 43 71 45 72 44 73
REMARK H PARENT 13 5 17 22 61 41 39 52
REMARK Flexibility Score: inf
ROOT
ATOM      1  C   UNL A   1      42.988  19.793  26.179  1.00  0.00     0.117 C 
ENDROOT
BRANCH   1   2
ATOM      2  N   UNL A   1      43.432  19.404  24.851  1.00  0.00    -0.355 N 
ATOM      3  C   UNL A   1      44.432  19.900  24.079  1.00  0.00     0.235 C 
ATOM      4  O   UNL A   1      44.544  19.436  22.940  1.00  0.00    -0.274 OA
ATOM      5  H   UNL A   1      42.926  18.662  24.447  1.00  0.00     0.163 HD
BRANCH   3   6
ATOM      6  C   UNL A   1      45.434  20.874  24.604  1.00  0.00     0.241 C 
BRANCH   6   7
ATOM      7  S   UNL A   1      44.887  22.539  24.664  1.00  0.00     0.187 S 
ATOM      8  O   UNL A   1      43.475  22.535  24.329  1.00  0.00    -0.223 OA
ATOM      9  O   UNL A   1      45.807  23.322  23.853  1.00  0.00    -0.223 OA
BRANCH   7  10
ATOM     10  C   UNL A   1      44.985  23.190  26.310  1.00  0.00     0.067 A 
ATOM     11  C   UNL A   1      45.235  24.304  28.882  1.00  0.00    -0.048 A 
ATOM     12  C   UNL A   1      46.306  24.346  27.982  1.00  0.00     0.005 A 
ATOM     13  C   UNL A   1      44.041  23.687  28.470  1.00  0.00     0.005 A 
ATOM     14  C   UNL A   1      46.185  23.789  26.705  1.00  0.00     0.020 A 
ATOM     15  C   UNL A   1      43.904  23.151  27.185  1.00  0.00     0.020 A 
BRANCH  11  16
ATOM     16  C   UNL A   1      45.299  24.874  30.282  1.00  0.00     0.032 C 
ATOM     17  C   UNL A   1      44.426  24.208  31.338  1.00  0.00     0.009 C 
ENDBRANCH  11  16
ENDBRANCH   7  10
ENDBRANCH   6   7
ENDBRANCH   3   6
ENDBRANCH   1   2
BRANCH   1  18
ATOM     18  C   UNL A   1      41.465  19.875  26.257  1.00  0.00     0.042 C 
BRANCH  18  19
ATOM     19  C   UNL A   1      40.928  21.254  26.633  1.00  0.00     0.118 C 
BRANCH  19  20
ATOM     20  N   UNL A   1      39.600  21.511  26.101  1.00  0.00    -0.352 N 
ATOM     21  C   UNL A   1      38.831  22.649  26.156  1.00  0.00     0.251 C 
ATOM     22  H   UNL A   1      39.187  20.754  25.627  1.00  0.00     0.163 HD
ATOM     23  O   UNL A   1      37.661  22.610  25.787  1.00  0.00    -0.269 OA
BRANCH  21  24
ATOM     24  C   UNL A   1      39.392  23.915  26.678  1.00  0.00     0.039 A 
ATOM     25  C   UNL A   1      40.057  24.770  25.793  1.00  0.00     0.014 A 
ATOM     26  C   UNL A   1      39.295  24.253  28.031  1.00  0.00     0.014 A 
ATOM     27  C   UNL A   1      40.559  25.992  26.249  1.00  0.00     0.010 A 
ATOM     28  C   UNL A   1      39.732  25.501  28.469  1.00  0.00     0.010 A 
ATOM     29  C   UNL A   1      40.368  26.385  27.583  1.00  0.00    -0.014 A 
BRANCH  29  30
ATOM     30  C   UNL A   1      40.816  27.715  28.066  1.00  0.00     0.031 A 
ATOM     31  C   UNL A   1      42.281  28.053  28.121  1.00  0.00     0.074 A 
ATOM     32  C   UNL A   1      39.907  28.601  28.518  1.00  0.00     0.049 A 
ATOM     33  N   UNL A   1      42.862  29.137  28.573  1.00  0.00    -0.248 NA
ATOM     34  C   UNL A   1      43.217  27.032  27.626  1.00  0.00     0.031 C 
ATOM     35  C   UNL A   1      38.459  28.385  28.558  1.00  0.00     0.029 A 
ATOM     36  N   UNL A   1      40.069  29.859  29.042  1.00  0.00    -0.354 N 
ATOM     37  C   UNL A   1      44.227  28.919  28.436  1.00  0.00     0.074 A 
ATOM     38  C   UNL A   1      44.389  27.586  27.900  1.00  0.00     0.031 C 
ATOM     39  C   UNL A   1      37.864  29.482  29.052  1.00  0.00     0.029 A 
ATOM     40  C   UNL A   1      38.887  30.462  29.402  1.00  0.00     0.049 A 
ATOM     41  H   UNL A   1      40.947  30.289  29.149  1.00  0.00     0.167 HD
ATOM     42  C   UNL A   1      45.252  29.758  28.716  1.00  0.00     0.031 A 
ATOM     43  C   UNL A   1      38.653  31.666  29.957  1.00  0.00     0.031 A 
ATOM     44  C   UNL A   1      45.094  31.091  29.235  1.00  0.00     0.049 A 
ATOM     45  C   UNL A   1      39.808  32.576  30.262  1.00  0.00     0.074 A 
ATOM     46  C   UNL A   1      46.072  32.036  29.496  1.00  0.00     0.029 A 
ATOM     47  N   UNL A   1      43.880  31.666  29.574  1.00  0.00    -0.354 N 
ATOM     48  N   UNL A   1      41.089  32.378  30.068  1.00  0.00    -0.248 NA
ATOM     49  C   UNL A   1      39.482  33.882  30.853  1.00  0.00     0.031 C 
ATOM     50  C   UNL A   1      45.452  33.170  30.032  1.00  0.00     0.029 A 
ATOM     51  C   UNL A   1      44.085  32.948  30.059  1.00  0.00     0.049 A 
ATOM     52  H   UNL A   1      43.003  31.230  29.482  1.00  0.00     0.167 HD
ATOM     53  C   UNL A   1      41.719  33.542  30.488  1.00  0.00     0.074 A 
ATOM     54  C   UNL A   1      40.679  34.447  30.934  1.00  0.00     0.031 C 
ATOM     55  C   UNL A   1      43.042  33.836  30.498  1.00  0.00     0.031 A 
BRANCH  42  56
ATOM     56  C   UNL A   1      46.646  29.251  28.470  1.00  0.00    -0.014 A 
ATOM     57  C   UNL A   1      47.339  28.525  29.451  1.00  0.00     0.009 A 
ATOM     58  C   UNL A   1      47.261  29.471  27.228  1.00  0.00     0.009 A 
ATOM     59  C   UNL A   1      48.632  28.062  29.207  1.00  0.00     0.001 A 
ATOM     60  C   UNL A   1      48.545  28.983  26.976  1.00  0.00     0.001 A 
ATOM     61  C   UNL A   1      49.233  28.289  27.970  1.00  0.00     0.000 A 
ENDBRANCH  42  56
BRANCH  43  62
ATOM     62  C   UNL A   1      37.259  32.091  30.246  1.00  0.00    -0.014 A 
ATOM     63  C   UNL A   1      36.520  32.800  29.286  1.00  0.00     0.009 A 
ATOM     64  C   UNL A   1      36.661  31.793  31.480  1.00  0.00     0.009 A 
ATOM     65  C   UNL A   1      35.220  33.224  29.566  1.00  0.00     0.001 A 
ATOM     66  C   UNL A   1      35.351  32.196  31.746  1.00  0.00     0.001 A 
ATOM     67  C   UNL A   1      34.635  32.918  30.793  1.00  0.00     0.000 A 
ENDBRANCH  43  62
BRANCH  55  68
ATOM     68  C   UNL A   1      43.436  35.204  30.975  1.00  0.00    -0.014 A 
ATOM     69  C   UNL A   1      43.610  36.268  30.078  1.00  0.00     0.009 A 
ATOM     70  C   UNL A   1      43.596  35.439  32.351  1.00  0.00     0.009 A 
ATOM     71  C   UNL A   1      43.967  37.535  30.547  1.00  0.00     0.001 A 
ATOM     72  C   UNL A   1      43.927  36.711  32.818  1.00  0.00     0.001 A 
ATOM     73  C   UNL A   1      44.120  37.756  31.915  1.00  0.00     0.000 A 
ENDBRANCH  55  68
ENDBRANCH  29  30
ENDBRANCH  21  24
ENDBRANCH  19  20
ENDBRANCH  18  19
ENDBRANCH   1  18
TORSDOF 13
ENDMDL
