MODEL 1
REMARK VINA RESULT:     -12.0      0.000      0.000
REMARK SMILES COc1cccc(Cn2c(=O)c(=O)n(CC(=O)NCCCNC(=O)c3ccc(-c4c5nc(c(-c6ccccc6)c6ccc([nH]6)c(-c6ccccc6)c6nc(c(-c7ccccc7)c7ccc4[nH]7)C=C6)C=C5)cc3)c3ccccc32)c1
REMARK SMILES IDX 19 1 18 2 16 3 17 4 15 6 14 7 9 8 10 9 78 10 11 11 12 12
REMARK SMILES IDX 73 13 77 14 13 15 74 16 76 17 75 18 8 19 7 20 3 21 4 22
REMARK SMILES IDX 79 23 5 24 6 25 2 26 1 27 20 28 21 29 22 30 23 31 24 33
REMARK SMILES IDX 25 34 26 35 72 36 27 37 71 38 28 39 29 40 30 41 65 42 31 43
REMARK SMILES IDX 70 44 64 45 66 46 32 47 69 48 63 49 62 50 33 52 55 53 40 54
REMARK SMILES IDX 54 55 41 56 44 57 53 58 67 59 42 60 43 61 52 63 68 64 45 65
REMARK SMILES IDX 34 66 35 67 39 68 36 69 38 70 37 71 56 72 57 73 61 74 58 75
REMARK SMILES IDX 60 76 59 77 46 78 47 79 51 80 48 81 50 82 49 83
REMARK H PARENT 18 5 22 32 66 51 44 62
REMARK Flexibility Score: inf
ROOT
ATOM      1  C   UNL A   1      33.373  27.234  24.874  1.00  0.00     0.117 C 
ENDROOT
BRANCH   1   2
ATOM      2  N   UNL A   1      33.659  27.228  23.453  1.00  0.00    -0.354 N 
ATOM      3  C   UNL A   1      33.387  26.317  22.485  1.00  0.00     0.240 C 
ATOM      4  O   UNL A   1      33.787  26.600  21.347  1.00  0.00    -0.273 OA
ATOM      5  H   UNL A   1      34.135  28.029  23.132  1.00  0.00     0.163 HD
BRANCH   3   6
ATOM      6  C   UNL A   1      32.452  25.114  22.668  1.00  0.00     0.226 C 
BRANCH   6   7
ATOM      7  N   UNL A   1      32.692  24.018  23.600  1.00  0.00    -0.293 N 
ATOM      8  N   UNL A   1      33.370  21.958  25.401  1.00  0.00    -0.298 N 
ATOM      9  C   UNL A   1      34.383  22.609  24.719  1.00  0.00     0.317 A 
ATOM     10  C   UNL A   1      32.168  22.685  25.609  1.00  0.00     0.068 A 
ATOM     11  O   UNL A   1      35.577  22.548  25.001  1.00  0.00    -0.263 OA
ATOM     12  C   UNL A   1      33.920  23.375  23.487  1.00  0.00     0.317 A 
ATOM     13  C   UNL A   1      31.853  23.760  24.731  1.00  0.00     0.069 A 
ATOM     14  C   UNL A   1      31.383  22.466  26.750  1.00  0.00     0.028 A 
ATOM     15  O   UNL A   1      34.655  23.419  22.504  1.00  0.00    -0.263 OA
ATOM     16  C   UNL A   1      30.732  24.556  25.008  1.00  0.00     0.028 A 
ATOM     17  C   UNL A   1      30.314  23.316  27.042  1.00  0.00     0.002 A 
ATOM     18  C   UNL A   1      29.986  24.350  26.171  1.00  0.00     0.002 A 
BRANCH   8  19
ATOM     19  C   UNL A   1      33.648  20.611  25.899  1.00  0.00     0.162 C 
BRANCH  19  20
ATOM     20  C   UNL A   1      33.042  19.593  24.925  1.00  0.00    -0.024 A 
ATOM     21  C   UNL A   1      33.012  17.274  24.165  1.00  0.00     0.119 A 
ATOM     22  C   UNL A   1      32.583  17.702  22.913  1.00  0.00     0.046 A 
ATOM     23  C   UNL A   1      33.171  18.211  25.183  1.00  0.00     0.052 A 
ATOM     24  C   UNL A   1      32.307  19.050  22.682  1.00  0.00     0.004 A 
ATOM     25  C   UNL A   1      32.559  19.999  23.675  1.00  0.00     0.006 A 
BRANCH  21  26
ATOM     26  O   UNL A   1      33.401  15.966  24.235  1.00  0.00    -0.497 OA
ATOM     27  C   UNL A   1      32.829  15.173  25.267  1.00  0.00     0.278 C 
ENDBRANCH  21  26
ENDBRANCH  19  20
ENDBRANCH   8  19
ENDBRANCH   6   7
ENDBRANCH   3   6
ENDBRANCH   1   2
BRANCH   1  28
ATOM     28  C   UNL A   1      33.537  28.632  25.466  1.00  0.00     0.042 C 
BRANCH  28  29
ATOM     29  C   UNL A   1      33.664  28.646  26.991  1.00  0.00     0.118 C 
BRANCH  29  30
ATOM     30  N   UNL A   1      33.623  29.989  27.547  1.00  0.00    -0.352 N 
ATOM     31  C   UNL A   1      34.578  30.677  28.255  1.00  0.00     0.251 C 
ATOM     32  H   UNL A   1      32.782  30.479  27.394  1.00  0.00     0.163 HD
ATOM     33  O   UNL A   1      34.283  31.751  28.777  1.00  0.00    -0.269 OA
BRANCH  31  34
ATOM     34  C   UNL A   1      35.954  30.147  28.417  1.00  0.00     0.039 A 
ATOM     35  C   UNL A   1      36.308  29.586  29.652  1.00  0.00     0.014 A 
ATOM     36  C   UNL A   1      36.917  30.264  27.412  1.00  0.00     0.014 A 
ATOM     37  C   UNL A   1      37.609  29.125  29.869  1.00  0.00     0.010 A 
ATOM     38  C   UNL A   1      38.203  29.755  27.610  1.00  0.00     0.010 A 
ATOM     39  C   UNL A   1      38.566  29.197  28.845  1.00  0.00    -0.014 A 
BRANCH  39  40
ATOM     40  C   UNL A   1      39.960  28.739  29.067  1.00  0.00     0.031 A 
ATOM     41  C   UNL A   1      40.968  29.670  29.687  1.00  0.00     0.074 A 
ATOM     42  C   UNL A   1      40.337  27.508  28.671  1.00  0.00     0.049 A 
ATOM     43  N   UNL A   1      42.246  29.482  29.901  1.00  0.00    -0.248 NA
ATOM     44  C   UNL A   1      40.477  30.995  30.101  1.00  0.00     0.031 C 
ATOM     45  C   UNL A   1      39.465  26.519  28.036  1.00  0.00     0.029 A 
ATOM     46  N   UNL A   1      41.555  26.882  28.743  1.00  0.00    -0.354 N 
ATOM     47  C   UNL A   1      42.716  30.671  30.445  1.00  0.00     0.074 A 
ATOM     48  C   UNL A   1      41.594  31.584  30.500  1.00  0.00     0.031 C 
ATOM     49  C   UNL A   1      40.173  25.404  27.793  1.00  0.00     0.029 A 
ATOM     50  C   UNL A   1      41.551  25.609  28.226  1.00  0.00     0.049 A 
ATOM     51  H   UNL A   1      42.357  27.305  29.127  1.00  0.00     0.167 HD
ATOM     52  C   UNL A   1      43.964  30.973  30.874  1.00  0.00     0.031 A 
ATOM     53  C   UNL A   1      42.546  24.711  28.112  1.00  0.00     0.031 A 
ATOM     54  C   UNL A   1      45.073  30.059  30.850  1.00  0.00     0.049 A 
ATOM     55  C   UNL A   1      43.920  25.063  28.610  1.00  0.00     0.074 A 
ATOM     56  C   UNL A   1      46.363  30.252  31.316  1.00  0.00     0.029 A 
ATOM     57  N   UNL A   1      45.020  28.773  30.336  1.00  0.00    -0.354 N 
ATOM     58  N   UNL A   1      44.335  26.177  29.163  1.00  0.00    -0.248 NA
ATOM     59  C   UNL A   1      44.957  24.030  28.476  1.00  0.00     0.031 C 
ATOM     60  C   UNL A   1      47.099  29.091  31.055  1.00  0.00     0.029 A 
ATOM     61  C   UNL A   1      46.257  28.165  30.461  1.00  0.00     0.049 A 
ATOM     62  H   UNL A   1      44.221  28.355  29.941  1.00  0.00     0.167 HD
ATOM     63  C   UNL A   1      45.675  25.972  29.462  1.00  0.00     0.074 A 
ATOM     64  C   UNL A   1      46.000  24.625  29.041  1.00  0.00     0.031 C 
ATOM     65  C   UNL A   1      46.559  26.824  30.035  1.00  0.00     0.031 A 
BRANCH  52  66
ATOM     66  C   UNL A   1      44.193  32.360  31.405  1.00  0.00    -0.014 A 
ATOM     67  C   UNL A   1      44.022  32.656  32.766  1.00  0.00     0.009 A 
ATOM     68  C   UNL A   1      44.609  33.380  30.534  1.00  0.00     0.009 A 
ATOM     69  C   UNL A   1      44.227  33.953  33.239  1.00  0.00     0.001 A 
ATOM     70  C   UNL A   1      44.836  34.672  31.015  1.00  0.00     0.001 A 
ATOM     71  C   UNL A   1      44.636  34.959  32.364  1.00  0.00     0.000 A 
ENDBRANCH  52  66
BRANCH  53  72
ATOM     72  C   UNL A   1      42.276  23.378  27.516  1.00  0.00    -0.014 A 
ATOM     73  C   UNL A   1      41.700  22.360  28.291  1.00  0.00     0.009 A 
ATOM     74  C   UNL A   1      42.586  23.119  26.172  1.00  0.00     0.009 A 
ATOM     75  C   UNL A   1      41.456  21.102  27.736  1.00  0.00     0.001 A 
ATOM     76  C   UNL A   1      42.321  21.866  25.615  1.00  0.00     0.001 A 
ATOM     77  C   UNL A   1      41.763  20.858  26.398  1.00  0.00     0.000 A 
ENDBRANCH  53  72
BRANCH  65  78
ATOM     78  C   UNL A   1      47.952  26.314  30.261  1.00  0.00    -0.014 A 
ATOM     79  C   UNL A   1      48.332  25.777  31.500  1.00  0.00     0.009 A 
ATOM     80  C   UNL A   1      48.880  26.335  29.209  1.00  0.00     0.009 A 
ATOM     81  C   UNL A   1      49.627  25.291  31.688  1.00  0.00     0.001 A 
ATOM     82  C   UNL A   1      50.167  25.829  29.394  1.00  0.00     0.001 A 
ATOM     83  C   UNL A   1      50.541  25.315  30.635  1.00  0.00     0.000 A 
ENDBRANCH  65  78
ENDBRANCH  39  40
ENDBRANCH  31  34
ENDBRANCH  29  30
ENDBRANCH  28  29
ENDBRANCH   1  28
TORSDOF 14
ENDMDL
MODEL 2
REMARK VINA RESULT:     -12.0      1.491      2.416
REMARK SMILES COc1cccc(Cn2c(=O)c(=O)n(CC(=O)NCCCNC(=O)c3ccc(-c4c5nc(c(-c6ccccc6)c6ccc([nH]6)c(-c6ccccc6)c6nc(c(-c7ccccc7)c7ccc4[nH]7)C=C6)C=C5)cc3)c3ccccc32)c1
REMARK SMILES IDX 19 1 18 2 16 3 17 4 15 6 14 7 9 8 10 9 78 10 11 11 12 12
REMARK SMILES IDX 73 13 77 14 13 15 74 16 76 17 75 18 8 19 7 20 3 21 4 22
REMARK SMILES IDX 79 23 5 24 6 25 2 26 1 27 20 28 21 29 22 30 23 31 24 33
REMARK SMILES IDX 25 34 26 35 72 36 27 37 71 38 28 39 29 40 30 41 65 42 31 43
REMARK SMILES IDX 70 44 64 45 66 46 32 47 69 48 63 49 62 50 33 52 55 53 40 54
REMARK SMILES IDX 54 55 41 56 44 57 53 58 67 59 42 60 43 61 52 63 68 64 45 65
REMARK SMILES IDX 34 66 35 67 39 68 36 69 38 70 37 71 56 72 57 73 61 74 58 75
REMARK SMILES IDX 60 76 59 77 46 78 47 79 51 80 48 81 50 82 49 83
REMARK H PARENT 18 5 22 32 66 51 44 62
REMARK Flexibility Score: inf
ROOT
ATOM      1  C   UNL A   1      31.805  29.040  25.109  1.00  0.00     0.117 C 
ENDROOT
BRANCH   1   2
ATOM      2  N   UNL A   1      31.407  29.489  23.790  1.00  0.00    -0.354 N 
ATOM      3  C   UNL A   1      30.730  28.866  22.793  1.00  0.00     0.240 C 
ATOM      4  O   UNL A   1      30.560  29.524  21.758  1.00  0.00    -0.273 OA
ATOM      5  H   UNL A   1      31.675  30.414  23.579  1.00  0.00     0.163 HD
BRANCH   3   6
ATOM      6  C   UNL A   1      29.994  27.528  22.953  1.00  0.00     0.226 C 
BRANCH   6   7
ATOM      7  N   UNL A   1      30.652  26.229  23.019  1.00  0.00    -0.293 N 
ATOM      8  N   UNL A   1      32.102  23.811  23.052  1.00  0.00    -0.298 N 
ATOM      9  C   UNL A   1      32.574  24.861  22.285  1.00  0.00     0.317 A 
ATOM     10  C   UNL A   1      31.300  24.147  24.176  1.00  0.00     0.068 A 
ATOM     11  O   UNL A   1      33.701  24.934  21.803  1.00  0.00    -0.263 OA
ATOM     12  C   UNL A   1      31.537  25.936  21.986  1.00  0.00     0.317 A 
ATOM     13  C   UNL A   1      30.611  25.392  24.180  1.00  0.00     0.069 A 
ATOM     14  C   UNL A   1      31.312  23.353  25.331  1.00  0.00     0.028 A 
ATOM     15  O   UNL A   1      31.564  26.502  20.896  1.00  0.00    -0.263 OA
ATOM     16  C   UNL A   1      29.920  25.780  25.337  1.00  0.00     0.028 A 
ATOM     17  C   UNL A   1      30.675  23.794  26.493  1.00  0.00     0.002 A 
ATOM     18  C   UNL A   1      29.976  24.997  26.493  1.00  0.00     0.002 A 
BRANCH   8  19
ATOM     19  C   UNL A   1      32.522  22.460  22.679  1.00  0.00     0.162 C 
BRANCH  19  20
ATOM     20  C   UNL A   1      33.515  21.947  23.729  1.00  0.00    -0.024 A 
ATOM     21  C   UNL A   1      35.817  21.984  24.539  1.00  0.00     0.119 A 
ATOM     22  C   UNL A   1      35.629  20.723  25.095  1.00  0.00     0.046 A 
ATOM     23  C   UNL A   1      34.743  22.619  23.922  1.00  0.00     0.052 A 
ATOM     24  C   UNL A   1      34.380  20.106  25.043  1.00  0.00     0.004 A 
ATOM     25  C   UNL A   1      33.330  20.702  24.341  1.00  0.00     0.006 A 
BRANCH  21  26
ATOM     26  O   UNL A   1      37.110  22.424  24.508  1.00  0.00    -0.497 OA
ATOM     27  C   UNL A   1      38.058  21.708  25.290  1.00  0.00     0.278 C 
ENDBRANCH  21  26
ENDBRANCH  19  20
ENDBRANCH   8  19
ENDBRANCH   6   7
ENDBRANCH   3   6
ENDBRANCH   1   2
BRANCH   1  28
ATOM     28  C   UNL A   1      33.196  28.410  25.083  1.00  0.00     0.042 C 
BRANCH  28  29
ATOM     29  C   UNL A   1      33.990  28.615  26.375  1.00  0.00     0.118 C 
BRANCH  29  30
ATOM     30  N   UNL A   1      33.738  29.908  26.991  1.00  0.00    -0.352 N 
ATOM     31  C   UNL A   1      34.498  30.616  27.890  1.00  0.00     0.251 C 
ATOM     32  H   UNL A   1      32.895  30.341  26.723  1.00  0.00     0.163 HD
ATOM     33  O   UNL A   1      34.025  31.624  28.414  1.00  0.00    -0.269 OA
BRANCH  31  34
ATOM     34  C   UNL A   1      35.869  30.186  28.256  1.00  0.00     0.039 A 
ATOM     35  C   UNL A   1      36.880  30.303  27.293  1.00  0.00     0.014 A 
ATOM     36  C   UNL A   1      36.158  29.599  29.491  1.00  0.00     0.014 A 
ATOM     37  C   UNL A   1      38.176  29.860  27.573  1.00  0.00     0.010 A 
ATOM     38  C   UNL A   1      37.464  29.204  29.790  1.00  0.00     0.010 A 
ATOM     39  C   UNL A   1      38.481  29.314  28.829  1.00  0.00    -0.014 A 
BRANCH  39  40
ATOM     40  C   UNL A   1      39.843  28.810  29.135  1.00  0.00     0.031 A 
ATOM     41  C   UNL A   1      40.830  29.696  29.847  1.00  0.00     0.074 A 
ATOM     42  C   UNL A   1      40.211  27.578  28.737  1.00  0.00     0.049 A 
ATOM     43  N   UNL A   1      42.085  29.465  30.143  1.00  0.00    -0.248 NA
ATOM     44  C   UNL A   1      40.350  31.025  30.259  1.00  0.00     0.031 C 
ATOM     45  C   UNL A   1      39.357  26.630  28.018  1.00  0.00     0.029 A 
ATOM     46  N   UNL A   1      41.403  26.914  28.877  1.00  0.00    -0.354 N 
ATOM     47  C   UNL A   1      42.549  30.626  30.748  1.00  0.00     0.074 A 
ATOM     48  C   UNL A   1      41.453  31.571  30.748  1.00  0.00     0.031 C 
ATOM     49  C   UNL A   1      40.049  25.499  27.797  1.00  0.00     0.029 A 
ATOM     50  C   UNL A   1      41.399  25.654  28.329  1.00  0.00     0.049 A 
ATOM     51  H   UNL A   1      42.187  27.304  29.325  1.00  0.00     0.167 HD
ATOM     52  C   UNL A   1      43.773  30.881  31.270  1.00  0.00     0.031 A 
ATOM     53  C   UNL A   1      42.373  24.729  28.262  1.00  0.00     0.031 A 
ATOM     54  C   UNL A   1      44.854  29.935  31.300  1.00  0.00     0.049 A 
ATOM     55  C   UNL A   1      43.718  25.028  28.862  1.00  0.00     0.074 A 
ATOM     56  C   UNL A   1      46.113  30.078  31.858  1.00  0.00     0.029 A 
ATOM     57  N   UNL A   1      44.801  28.663  30.751  1.00  0.00    -0.354 N 
ATOM     58  N   UNL A   1      44.125  26.116  29.470  1.00  0.00    -0.248 NA
ATOM     59  C   UNL A   1      44.732  23.967  28.774  1.00  0.00     0.031 C 
ATOM     60  C   UNL A   1      46.833  28.901  31.619  1.00  0.00     0.029 A 
ATOM     61  C   UNL A   1      46.008  28.015  30.946  1.00  0.00     0.049 A 
ATOM     62  H   UNL A   1      44.020  28.278  30.292  1.00  0.00     0.167 HD
ATOM     63  C   UNL A   1      45.435  25.864  29.855  1.00  0.00     0.074 A 
ATOM     64  C   UNL A   1      45.750  24.517  29.425  1.00  0.00     0.031 C 
ATOM     65  C   UNL A   1      46.301  26.676  30.509  1.00  0.00     0.031 A 
BRANCH  52  66
ATOM     66  C   UNL A   1      44.004  32.248  31.849  1.00  0.00    -0.014 A 
ATOM     67  C   UNL A   1      43.789  32.506  33.212  1.00  0.00     0.009 A 
ATOM     68  C   UNL A   1      44.465  33.286  31.025  1.00  0.00     0.009 A 
ATOM     69  C   UNL A   1      43.996  33.786  33.730  1.00  0.00     0.001 A 
ATOM     70  C   UNL A   1      44.694  34.559  31.551  1.00  0.00     0.001 A 
ATOM     71  C   UNL A   1      44.451  34.810  32.901  1.00  0.00     0.000 A 
ENDBRANCH  52  66
BRANCH  53  72
ATOM     72  C   UNL A   1      42.107  23.419  27.616  1.00  0.00    -0.014 A 
ATOM     73  C   UNL A   1      41.486  22.388  28.336  1.00  0.00     0.009 A 
ATOM     74  C   UNL A   1      42.467  23.194  26.278  1.00  0.00     0.009 A 
ATOM     75  C   UNL A   1      41.246  21.150  27.734  1.00  0.00     0.001 A 
ATOM     76  C   UNL A   1      42.205  21.963  25.673  1.00  0.00     0.001 A 
ATOM     77  C   UNL A   1      41.602  20.941  26.403  1.00  0.00     0.000 A 
ENDBRANCH  53  72
BRANCH  65  78
ATOM     78  C   UNL A   1      47.659  26.119  30.818  1.00  0.00    -0.014 A 
ATOM     79  C   UNL A   1      48.663  26.080  29.840  1.00  0.00     0.009 A 
ATOM     80  C   UNL A   1      47.946  25.666  32.115  1.00  0.00     0.009 A 
ATOM     81  C   UNL A   1      49.927  25.574  30.150  1.00  0.00     0.001 A 
ATOM     82  C   UNL A   1      49.217  25.179  32.426  1.00  0.00     0.001 A 
ATOM     83  C   UNL A   1      50.203  25.127  31.442  1.00  0.00     0.000 A 
ENDBRANCH  65  78
ENDBRANCH  39  40
ENDBRANCH  31  34
ENDBRANCH  29  30
ENDBRANCH  28  29
ENDBRANCH   1  28
TORSDOF 14
ENDMDL
MODEL 3
REMARK VINA RESULT:     -11.9      2.225      7.836
REMARK SMILES COc1cccc(Cn2c(=O)c(=O)n(CC(=O)NCCCNC(=O)c3ccc(-c4c5nc(c(-c6ccccc6)c6ccc([nH]6)c(-c6ccccc6)c6nc(c(-c7ccccc7)c7ccc4[nH]7)C=C6)C=C5)cc3)c3ccccc32)c1
REMARK SMILES IDX 19 1 18 2 16 3 17 4 15 6 14 7 9 8 10 9 78 10 11 11 12 12
REMARK SMILES IDX 73 13 77 14 13 15 74 16 76 17 75 18 8 19 7 20 3 21 4 22
REMARK SMILES IDX 79 23 5 24 6 25 2 26 1 27 20 28 21 29 22 30 23 31 24 33
REMARK SMILES IDX 25 34 26 35 72 36 27 37 71 38 28 39 29 40 30 41 65 42 31 43
REMARK SMILES IDX 70 44 64 45 66 46 32 47 69 48 63 49 62 50 33 52 55 53 40 54
REMARK SMILES IDX 54 55 41 56 44 57 53 58 67 59 42 60 43 61 52 63 68 64 45 65
REMARK SMILES IDX 34 66 35 67 39 68 36 69 38 70 37 71 56 72 57 73 61 74 58 75
REMARK SMILES IDX 60 76 59 77 46 78 47 79 51 80 48 81 50 82 49 83
REMARK H PARENT 18 5 22 32 66 51 44 62
REMARK Flexibility Score: inf
ROOT
ATOM      1  C   UNL A   1      36.141  20.795  24.900  1.00  0.00     0.117 C 
ENDROOT
BRANCH   1   2
ATOM      2  N   UNL A   1      35.792  21.320  26.205  1.00  0.00    -0.354 N 
ATOM      3  C   UNL A   1      34.617  21.778  26.706  1.00  0.00     0.240 C 
ATOM      4  O   UNL A   1      34.648  22.185  27.875  1.00  0.00    -0.273 OA
ATOM      5  H   UNL A   1      36.542  21.349  26.843  1.00  0.00     0.163 HD
BRANCH   3   6
ATOM      6  C   UNL A   1      33.258  21.613  26.011  1.00  0.00     0.226 C 
BRANCH   6   7
ATOM      7  N   UNL A   1      32.433  22.720  25.542  1.00  0.00    -0.293 N 
ATOM      8  N   UNL A   1      30.880  24.962  24.828  1.00  0.00    -0.298 N 
ATOM      9  C   UNL A   1      31.254  24.803  26.150  1.00  0.00     0.317 A 
ATOM     10  C   UNL A   1      31.719  24.367  23.848  1.00  0.00     0.068 A 
ATOM     11  O   UNL A   1      31.186  25.674  27.014  1.00  0.00    -0.263 OA
ATOM     12  C   UNL A   1      31.698  23.393  26.513  1.00  0.00     0.317 A 
ATOM     13  C   UNL A   1      32.542  23.269  24.224  1.00  0.00     0.069 A 
ATOM     14  C   UNL A   1      31.864  24.945  22.579  1.00  0.00     0.028 A 
ATOM     15  O   UNL A   1      31.430  22.952  27.628  1.00  0.00    -0.263 OA
ATOM     16  C   UNL A   1      33.460  22.761  23.293  1.00  0.00     0.028 A 
ATOM     17  C   UNL A   1      32.834  24.466  21.696  1.00  0.00     0.002 A 
ATOM     18  C   UNL A   1      33.622  23.374  22.048  1.00  0.00     0.002 A 
BRANCH   8  19
ATOM     19  C   UNL A   1      29.696  25.777  24.555  1.00  0.00     0.162 C 
BRANCH  19  20
ATOM     20  C   UNL A   1      30.153  27.170  24.105  1.00  0.00    -0.024 A 
ATOM     21  C   UNL A   1      31.235  29.261  24.748  1.00  0.00     0.119 A 
ATOM     22  C   UNL A   1      30.524  29.922  23.751  1.00  0.00     0.046 A 
ATOM     23  C   UNL A   1      31.100  27.881  24.875  1.00  0.00     0.052 A 
ATOM     24  C   UNL A   1      29.695  29.211  22.884  1.00  0.00     0.004 A 
ATOM     25  C   UNL A   1      29.488  27.843  23.073  1.00  0.00     0.006 A 
BRANCH  21  26
ATOM     26  O   UNL A   1      31.890  30.069  25.634  1.00  0.00    -0.497 OA
ATOM     27  C   UNL A   1      31.927  29.648  26.991  1.00  0.00     0.278 C 
ENDBRANCH  21  26
ENDBRANCH  19  20
ENDBRANCH   8  19
ENDBRANCH   6   7
ENDBRANCH   3   6
ENDBRANCH   1   2
BRANCH   1  28
ATOM     28  C   UNL A   1      37.306  19.812  24.991  1.00  0.00     0.042 C 
BRANCH  28  29
ATOM     29  C   UNL A   1      38.578  20.416  25.591  1.00  0.00     0.118 C 
BRANCH  29  30
ATOM     30  N   UNL A   1      39.657  19.449  25.711  1.00  0.00    -0.352 N 
ATOM     31  C   UNL A   1      40.971  19.638  26.067  1.00  0.00     0.251 C 
ATOM     32  H   UNL A   1      39.409  18.518  25.505  1.00  0.00     0.163 HD
ATOM     33  O   UNL A   1      41.765  18.705  25.951  1.00  0.00    -0.269 OA
BRANCH  31  34
ATOM     34  C   UNL A   1      41.457  20.943  26.574  1.00  0.00     0.039 A 
ATOM     35  C   UNL A   1      41.525  21.133  27.961  1.00  0.00     0.014 A 
ATOM     36  C   UNL A   1      41.767  22.003  25.717  1.00  0.00     0.014 A 
ATOM     37  C   UNL A   1      41.925  22.366  28.485  1.00  0.00     0.010 A 
ATOM     38  C   UNL A   1      42.217  23.218  26.240  1.00  0.00     0.010 A 
ATOM     39  C   UNL A   1      42.284  23.417  27.627  1.00  0.00    -0.014 A 
BRANCH  39  40
ATOM     40  C   UNL A   1      42.682  24.742  28.165  1.00  0.00     0.031 A 
ATOM     41  C   UNL A   1      41.640  25.805  28.391  1.00  0.00     0.074 A 
ATOM     42  C   UNL A   1      43.979  25.009  28.407  1.00  0.00     0.049 A 
ATOM     43  N   UNL A   1      41.795  27.043  28.788  1.00  0.00    -0.248 NA
ATOM     44  C   UNL A   1      40.244  25.433  28.112  1.00  0.00     0.031 C 
ATOM     45  C   UNL A   1      45.088  24.075  28.207  1.00  0.00     0.029 A 
ATOM     46  N   UNL A   1      44.583  26.150  28.871  1.00  0.00    -0.354 N 
ATOM     47  C   UNL A   1      40.524  27.604  28.779  1.00  0.00     0.074 A 
ATOM     48  C   UNL A   1      39.614  26.582  28.307  1.00  0.00     0.031 C 
ATOM     49  C   UNL A   1      46.236  24.675  28.564  1.00  0.00     0.029 A 
ATOM     50  C   UNL A   1      45.947  26.042  28.988  1.00  0.00     0.049 A 
ATOM     51  H   UNL A   1      44.086  26.969  29.097  1.00  0.00     0.167 HD
ATOM     52  C   UNL A   1      40.143  28.852  29.143  1.00  0.00     0.031 A 
ATOM     53  C   UNL A   1      46.863  26.942  29.388  1.00  0.00     0.031 A 
ATOM     54  C   UNL A   1      41.039  29.859  29.641  1.00  0.00     0.049 A 
ATOM     55  C   UNL A   1      46.415  28.316  29.803  1.00  0.00     0.074 A 
ATOM     56  C   UNL A   1      40.742  31.135  30.091  1.00  0.00     0.029 A 
ATOM     57  N   UNL A   1      42.411  29.701  29.761  1.00  0.00    -0.354 N 
ATOM     58  N   UNL A   1      45.203  28.814  29.830  1.00  0.00    -0.248 NA
ATOM     59  C   UNL A   1      47.462  29.246  30.251  1.00  0.00     0.031 C 
ATOM     60  C   UNL A   1      41.940  31.759  30.455  1.00  0.00     0.029 A 
ATOM     61  C   UNL A   1      42.977  30.859  30.266  1.00  0.00     0.049 A 
ATOM     62  H   UNL A   1      42.909  28.885  29.524  1.00  0.00     0.167 HD
ATOM     63  C   UNL A   1      45.338  30.107  30.316  1.00  0.00     0.074 A 
ATOM     64  C   UNL A   1      46.747  30.312  30.584  1.00  0.00     0.031 C 
ATOM     65  C   UNL A   1      44.380  31.043  30.524  1.00  0.00     0.031 A 
BRANCH  52  66
ATOM     66  C   UNL A   1      38.687  29.195  29.008  1.00  0.00    -0.014 A 
ATOM     67  C   UNL A   1      37.817  29.119  30.107  1.00  0.00     0.009 A 
ATOM     68  C   UNL A   1      38.183  29.622  27.770  1.00  0.00     0.009 A 
ATOM     69  C   UNL A   1      36.464  29.429  29.960  1.00  0.00     0.001 A 
ATOM     70  C   UNL A   1      36.833  29.954  27.632  1.00  0.00     0.001 A 
ATOM     71  C   UNL A   1      35.974  29.849  28.725  1.00  0.00     0.000 A 
ENDBRANCH  52  66
BRANCH  53  72
ATOM     72  C   UNL A   1      48.299  26.567  29.437  1.00  0.00    -0.014 A 
ATOM     73  C   UNL A   1      49.133  26.817  28.337  1.00  0.00     0.009 A 
ATOM     74  C   UNL A   1      48.842  25.964  30.582  1.00  0.00     0.009 A 
ATOM     75  C   UNL A   1      50.481  26.454  28.377  1.00  0.00     0.001 A 
ATOM     76  C   UNL A   1      50.195  25.622  30.625  1.00  0.00     0.001 A 
ATOM     77  C   UNL A   1      51.011  25.860  29.521  1.00  0.00     0.000 A 
ENDBRANCH  53  72
BRANCH  65  78
ATOM     78  C   UNL A   1      44.822  32.360  31.089  1.00  0.00    -0.014 A 
ATOM     79  C   UNL A   1      45.246  33.400  30.250  1.00  0.00     0.009 A 
ATOM     80  C   UNL A   1      44.775  32.573  32.476  1.00  0.00     0.009 A 
ATOM     81  C   UNL A   1      45.638  34.626  30.792  1.00  0.00     0.001 A 
ATOM     82  C   UNL A   1      45.149  33.806  33.012  1.00  0.00     0.001 A 
ATOM     83  C   UNL A   1      45.586  34.827  32.171  1.00  0.00     0.000 A 
ENDBRANCH  65  78
ENDBRANCH  39  40
ENDBRANCH  31  34
ENDBRANCH  29  30
ENDBRANCH  28  29
ENDBRANCH   1  28
TORSDOF 14
ENDMDL
