MODEL 1
REMARK VINA RESULT:      -9.6      0.000      0.000
REMARK SMILES CCC(CC)[C@@H](C(=O)NCCCNC(=O)c1ccc(-c2c3nc(c(-c4ccccc4)c4ccc([nH]4)c(-c4ccccc4)c4nc(c(-c5ccccc5)c5ccc2[nH]5)C=C4)C=C3)cc1)c1ccccc1OC
REMARK SMILES IDX 11 1 10 2 9 3 7 4 8 5 6 7 3 8 2 9 1 10 4 11 5 12 64 13 65 14
REMARK SMILES IDX 69 15 66 16 68 17 67 18 70 19 71 20 12 21 13 22 14 23 15 25
REMARK SMILES IDX 16 26 17 27 63 28 18 29 62 30 19 31 20 32 21 33 56 34 22 35
REMARK SMILES IDX 61 36 55 37 57 38 23 39 60 40 54 41 53 42 24 44 46 45 31 46
REMARK SMILES IDX 45 47 32 48 35 49 44 50 58 51 33 52 34 53 43 55 59 56 36 57
REMARK SMILES IDX 25 58 26 59 30 60 27 61 29 62 28 63 47 64 48 65 52 66 49 67
REMARK SMILES IDX 51 68 50 69 37 70 38 71 42 72 39 73 41 74 40 75
REMARK H PARENT 9 6 13 24 57 43 35 54
REMARK Flexibility Score: inf
ROOT
ATOM      1  C   UNL A   1      32.087  28.218  27.649  1.00  0.00     0.042 C 
ENDROOT
BRANCH   1   2
ATOM      2  C   UNL A   1      31.331  27.512  26.516  1.00  0.00     0.117 C 
BRANCH   2   3
ATOM      3  N   UNL A   1      31.212  26.083  26.734  1.00  0.00    -0.355 N 
ATOM      4  C   UNL A   1      31.641  24.971  26.091  1.00  0.00     0.227 C 
ATOM      5  O   UNL A   1      31.539  23.961  26.802  1.00  0.00    -0.274 OA
ATOM      6  H   UNL A   1      30.694  25.870  27.544  1.00  0.00     0.163 HD
BRANCH   4   7
ATOM      7  C   UNL A   1      32.325  24.928  24.689  1.00  0.00     0.115 C 
BRANCH   7   8
ATOM      8  C   UNL A   1      31.660  25.501  23.382  1.00  0.00     0.005 C 
BRANCH   8   9
ATOM      9  C   UNL A   1      30.177  25.843  23.492  1.00  0.00     0.001 C 
ATOM     10  C   UNL A   1      29.812  27.274  23.115  1.00  0.00     0.004 C 
ENDBRANCH   8   9
BRANCH   8  11
ATOM     11  C   UNL A   1      32.497  26.666  22.777  1.00  0.00     0.001 C 
ATOM     12  C   UNL A   1      33.553  27.268  23.695  1.00  0.00     0.004 C 
ENDBRANCH   8  11
ENDBRANCH   7   8
BRANCH   7  13
ATOM     13  C   UNL A   1      32.739  23.465  24.389  1.00  0.00     0.007 A 
ATOM     14  C   UNL A   1      31.863  22.667  23.627  1.00  0.00     0.008 A 
ATOM     15  C   UNL A   1      33.925  22.866  24.874  1.00  0.00     0.122 A 
ATOM     16  C   UNL A   1      32.138  21.317  23.391  1.00  0.00     0.001 A 
ATOM     17  C   UNL A   1      34.190  21.514  24.637  1.00  0.00     0.047 A 
ATOM     18  C   UNL A   1      33.299  20.741  23.897  1.00  0.00     0.004 A 
BRANCH  15  19
ATOM     19  O   UNL A   1      34.785  23.475  25.754  1.00  0.00    -0.496 OA
ATOM     20  C   UNL A   1      34.739  22.937  27.072  1.00  0.00     0.278 C 
ENDBRANCH  15  19
ENDBRANCH   7  13
ENDBRANCH   4   7
ENDBRANCH   2   3
ENDBRANCH   1   2
BRANCH   1  21
ATOM     21  C   UNL A   1      33.425  28.836  27.247  1.00  0.00     0.118 C 
BRANCH  21  22
ATOM     22  N   UNL A   1      33.534  30.219  27.671  1.00  0.00    -0.352 N 
ATOM     23  C   UNL A   1      34.556  30.857  28.331  1.00  0.00     0.251 C 
ATOM     24  H   UNL A   1      32.758  30.785  27.453  1.00  0.00     0.163 HD
ATOM     25  O   UNL A   1      34.346  31.959  28.831  1.00  0.00    -0.269 OA
BRANCH  23  26
ATOM     26  C   UNL A   1      35.902  30.245  28.456  1.00  0.00     0.039 A 
ATOM     27  C   UNL A   1      36.279  29.708  29.692  1.00  0.00     0.014 A 
ATOM     28  C   UNL A   1      36.833  30.281  27.413  1.00  0.00     0.014 A 
ATOM     29  C   UNL A   1      37.569  29.197  29.877  1.00  0.00     0.010 A 
ATOM     30  C   UNL A   1      38.092  29.699  27.573  1.00  0.00     0.010 A 
ATOM     31  C   UNL A   1      38.487  29.181  28.816  1.00  0.00    -0.014 A 
BRANCH  31  32
ATOM     32  C   UNL A   1      39.883  28.704  29.012  1.00  0.00     0.031 A 
ATOM     33  C   UNL A   1      40.923  29.634  29.585  1.00  0.00     0.074 A 
ATOM     34  C   UNL A   1      40.235  27.454  28.650  1.00  0.00     0.049 A 
ATOM     35  N   UNL A   1      42.202  29.428  29.779  1.00  0.00    -0.248 NA
ATOM     36  C   UNL A   1      40.470  30.982  29.967  1.00  0.00     0.031 C 
ATOM     37  C   UNL A   1      39.343  26.457  28.057  1.00  0.00     0.029 A 
ATOM     38  N   UNL A   1      41.446  26.811  28.727  1.00  0.00    -0.354 N 
ATOM     39  C   UNL A   1      42.707  30.626  30.273  1.00  0.00     0.074 A 
ATOM     40  C   UNL A   1      41.609  31.566  30.309  1.00  0.00     0.031 C 
ATOM     41  C   UNL A   1      40.030  25.321  27.848  1.00  0.00     0.029 A 
ATOM     42  C   UNL A   1      41.416  25.519  28.260  1.00  0.00     0.049 A 
ATOM     43  H   UNL A   1      42.260  27.236  29.085  1.00  0.00     0.167 HD
ATOM     44  C   UNL A   1      43.967  30.917  30.680  1.00  0.00     0.031 A 
ATOM     45  C   UNL A   1      42.394  24.598  28.171  1.00  0.00     0.031 A 
ATOM     46  C   UNL A   1      45.056  29.978  30.685  1.00  0.00     0.049 A 
ATOM     47  C   UNL A   1      43.779  24.937  28.653  1.00  0.00     0.074 A 
ATOM     48  C   UNL A   1      46.352  30.165  31.132  1.00  0.00     0.029 A 
ATOM     49  N   UNL A   1      44.971  28.672  30.233  1.00  0.00    -0.354 N 
ATOM     50  N   UNL A   1      44.224  26.058  29.164  1.00  0.00    -0.248 NA
ATOM     51  C   UNL A   1      44.790  23.874  28.560  1.00  0.00     0.031 C 
ATOM     52  C   UNL A   1      47.062  28.978  30.919  1.00  0.00     0.029 A 
ATOM     53  C   UNL A   1      46.195  28.043  30.382  1.00  0.00     0.049 A 
ATOM     54  H   UNL A   1      44.161  28.254  29.860  1.00  0.00     0.167 HD
ATOM     55  C   UNL A   1      45.556  25.826  29.483  1.00  0.00     0.074 A 
ATOM     56  C   UNL A   1      45.843  24.454  29.119  1.00  0.00     0.031 C 
ATOM     57  C   UNL A   1      46.460  26.673  30.030  1.00  0.00     0.031 A 
BRANCH  44  58
ATOM     58  C   UNL A   1      44.235  32.318  31.156  1.00  0.00    -0.014 A 
ATOM     59  C   UNL A   1      44.103  32.663  32.511  1.00  0.00     0.009 A 
ATOM     60  C   UNL A   1      44.665  33.295  30.244  1.00  0.00     0.009 A 
ATOM     61  C   UNL A   1      44.361  33.967  32.936  1.00  0.00     0.001 A 
ATOM     62  C   UNL A   1      44.948  34.591  30.678  1.00  0.00     0.001 A 
ATOM     63  C   UNL A   1      44.788  34.929  32.021  1.00  0.00     0.000 A 
ENDBRANCH  44  58
BRANCH  45  64
ATOM     64  C   UNL A   1      42.101  23.247  27.626  1.00  0.00    -0.014 A 
ATOM     65  C   UNL A   1      42.280  22.977  26.260  1.00  0.00     0.009 A 
ATOM     66  C   UNL A   1      41.620  22.227  28.462  1.00  0.00     0.009 A 
ATOM     67  C   UNL A   1      41.955  21.723  25.738  1.00  0.00     0.001 A 
ATOM     68  C   UNL A   1      41.322  20.967  27.942  1.00  0.00     0.001 A 
ATOM     69  C   UNL A   1      41.480  20.719  26.579  1.00  0.00     0.000 A 
ENDBRANCH  45  64
BRANCH  57  70
ATOM     70  C   UNL A   1      47.829  26.128  30.317  1.00  0.00    -0.014 A 
ATOM     71  C   UNL A   1      48.819  26.081  29.324  1.00  0.00     0.009 A 
ATOM     72  C   UNL A   1      48.143  25.695  31.615  1.00  0.00     0.009 A 
ATOM     73  C   UNL A   1      50.089  25.578  29.619  1.00  0.00     0.001 A 
ATOM     74  C   UNL A   1      49.419  25.218  31.913  1.00  0.00     0.001 A 
ATOM     75  C   UNL A   1      50.389  25.152  30.913  1.00  0.00     0.000 A 
ENDBRANCH  57  70
ENDBRANCH  31  32
ENDBRANCH  23  26
ENDBRANCH  21  22
ENDBRANCH   1  21
TORSDOF 15
ENDMDL
MODEL 2
REMARK VINA RESULT:      -9.6      2.411      7.468
REMARK SMILES CCC(CC)[C@@H](C(=O)NCCCNC(=O)c1ccc(-c2c3nc(c(-c4ccccc4)c4ccc([nH]4)c(-c4ccccc4)c4nc(c(-c5ccccc5)c5ccc2[nH]5)C=C4)C=C3)cc1)c1ccccc1OC
REMARK SMILES IDX 11 1 10 2 9 3 7 4 8 5 6 7 3 8 2 9 1 10 4 11 5 12 64 13 65 14
REMARK SMILES IDX 69 15 66 16 68 17 67 18 70 19 71 20 12 21 13 22 14 23 15 25
REMARK SMILES IDX 16 26 17 27 63 28 18 29 62 30 19 31 20 32 21 33 56 34 22 35
REMARK SMILES IDX 61 36 55 37 57 38 23 39 60 40 54 41 53 42 24 44 46 45 31 46
REMARK SMILES IDX 45 47 32 48 35 49 44 50 58 51 33 52 34 53 43 55 59 56 36 57
REMARK SMILES IDX 25 58 26 59 30 60 27 61 29 62 28 63 47 64 48 65 52 66 49 67
REMARK SMILES IDX 51 68 50 69 37 70 38 71 42 72 39 73 41 74 40 75
REMARK H PARENT 9 6 13 24 57 43 35 54
REMARK Flexibility Score: inf
ROOT
ATOM      1  C   UNL A   1      35.894  23.831  26.020  1.00  0.00     0.042 C 
ENDROOT
BRANCH   1   2
ATOM      2  C   UNL A   1      34.737  22.824  25.999  1.00  0.00     0.117 C 
BRANCH   2   3
ATOM      3  N   UNL A   1      33.575  23.296  26.727  1.00  0.00    -0.355 N 
ATOM      4  C   UNL A   1      32.497  24.060  26.431  1.00  0.00     0.227 C 
ATOM      5  O   UNL A   1      31.615  23.965  27.297  1.00  0.00    -0.274 OA
ATOM      6  H   UNL A   1      33.569  22.988  27.662  1.00  0.00     0.163 HD
BRANCH   4   7
ATOM      7  C   UNL A   1      32.275  24.862  25.111  1.00  0.00     0.115 C 
BRANCH   7   8
ATOM      8  C   UNL A   1      33.050  24.561  23.773  1.00  0.00     0.005 C 
BRANCH   8   9
ATOM      9  C   UNL A   1      32.347  23.617  22.801  1.00  0.00     0.001 C 
ATOM     10  C   UNL A   1      32.688  22.142  22.971  1.00  0.00     0.004 C 
ENDBRANCH   8   9
BRANCH   8  11
ATOM     11  C   UNL A   1      33.536  25.871  23.085  1.00  0.00     0.001 C 
ATOM     12  C   UNL A   1      32.966  26.140  21.699  1.00  0.00     0.004 C 
ENDBRANCH   8  11
ENDBRANCH   7   8
BRANCH   7  13
ATOM     13  C   UNL A   1      32.456  26.370  25.416  1.00  0.00     0.007 A 
ATOM     14  C   UNL A   1      33.580  26.768  26.167  1.00  0.00     0.008 A 
ATOM     15  C   UNL A   1      31.535  27.370  25.024  1.00  0.00     0.122 A 
ATOM     16  C   UNL A   1      33.758  28.102  26.546  1.00  0.00     0.001 A 
ATOM     17  C   UNL A   1      31.718  28.700  25.412  1.00  0.00     0.047 A 
ATOM     18  C   UNL A   1      32.827  29.067  26.170  1.00  0.00     0.004 A 
BRANCH  15  19
ATOM     19  O   UNL A   1      30.326  27.105  24.431  1.00  0.00    -0.496 OA
ATOM     20  C   UNL A   1      30.003  27.985  23.359  1.00  0.00     0.278 C 
ENDBRANCH  15  19
ENDBRANCH   7  13
ENDBRANCH   4   7
ENDBRANCH   2   3
ENDBRANCH   1   2
BRANCH   1  21
ATOM     21  C   UNL A   1      36.982  23.587  24.977  1.00  0.00     0.118 C 
BRANCH  21  22
ATOM     22  N   UNL A   1      37.980  22.644  25.445  1.00  0.00    -0.352 N 
ATOM     23  C   UNL A   1      39.151  22.870  26.127  1.00  0.00     0.251 C 
ATOM     24  H   UNL A   1      37.789  21.699  25.245  1.00  0.00     0.163 HD
ATOM     25  O   UNL A   1      39.982  21.969  26.200  1.00  0.00    -0.269 OA
BRANCH  23  26
ATOM     26  C   UNL A   1      39.435  24.176  26.773  1.00  0.00     0.039 A 
ATOM     27  C   UNL A   1      40.158  25.134  26.053  1.00  0.00     0.014 A 
ATOM     28  C   UNL A   1      39.091  24.436  28.104  1.00  0.00     0.014 A 
ATOM     29  C   UNL A   1      40.518  26.345  26.654  1.00  0.00     0.010 A 
ATOM     30  C   UNL A   1      39.382  25.675  28.677  1.00  0.00     0.010 A 
ATOM     31  C   UNL A   1      40.128  26.631  27.971  1.00  0.00    -0.014 A 
BRANCH  31  32
ATOM     32  C   UNL A   1      40.559  27.884  28.648  1.00  0.00     0.031 A 
ATOM     33  C   UNL A   1      39.574  29.010  28.847  1.00  0.00     0.074 A 
ATOM     34  C   UNL A   1      41.834  28.036  29.058  1.00  0.00     0.049 A 
ATOM     35  N   UNL A   1      39.768  30.199  29.360  1.00  0.00    -0.248 NA
ATOM     36  C   UNL A   1      38.195  28.776  28.384  1.00  0.00     0.031 C 
ATOM     37  C   UNL A   1      42.899  27.044  28.905  1.00  0.00     0.029 A 
ATOM     38  N   UNL A   1      42.449  29.091  29.686  1.00  0.00    -0.354 N 
ATOM     39  C   UNL A   1      38.550  30.861  29.252  1.00  0.00     0.074 A 
ATOM     40  C   UNL A   1      37.636  29.959  28.588  1.00  0.00     0.031 C 
ATOM     41  C   UNL A   1      44.030  27.527  29.448  1.00  0.00     0.029 A 
ATOM     42  C   UNL A   1      43.779  28.872  29.956  1.00  0.00     0.049 A 
ATOM     43  H   UNL A   1      41.982  29.925  29.922  1.00  0.00     0.167 HD
ATOM     44  C   UNL A   1      38.211  32.100  29.683  1.00  0.00     0.031 A 
ATOM     45  C   UNL A   1      44.694  29.666  30.545  1.00  0.00     0.031 A 
ATOM     46  C   UNL A   1      39.101  32.988  30.381  1.00  0.00     0.049 A 
ATOM     47  C   UNL A   1      44.287  31.028  31.038  1.00  0.00     0.074 A 
ATOM     48  C   UNL A   1      38.831  34.240  30.906  1.00  0.00     0.029 A 
ATOM     49  N   UNL A   1      40.428  32.712  30.660  1.00  0.00    -0.354 N 
ATOM     50  N   UNL A   1      43.117  31.615  30.971  1.00  0.00    -0.248 NA
ATOM     51  C   UNL A   1      45.326  31.829  31.702  1.00  0.00     0.031 C 
ATOM     52  C   UNL A   1      40.008  34.737  31.476  1.00  0.00     0.029 A 
ATOM     53  C   UNL A   1      40.995  33.774  31.344  1.00  0.00     0.049 A 
ATOM     54  H   UNL A   1      40.899  31.885  30.409  1.00  0.00     0.167 HD
ATOM     55  C   UNL A   1      43.271  32.837  31.613  1.00  0.00     0.074 A 
ATOM     56  C   UNL A   1      44.643  32.903  32.071  1.00  0.00     0.031 C 
ATOM     57  C   UNL A   1      42.356  33.818  31.807  1.00  0.00     0.031 A 
BRANCH  44  58
ATOM     58  C   UNL A   1      36.809  32.570  29.410  1.00  0.00    -0.014 A 
ATOM     59  C   UNL A   1      36.475  33.197  28.200  1.00  0.00     0.009 A 
ATOM     60  C   UNL A   1      35.800  32.345  30.361  1.00  0.00     0.009 A 
ATOM     61  C   UNL A   1      35.166  33.623  27.961  1.00  0.00     0.001 A 
ATOM     62  C   UNL A   1      34.487  32.747  30.108  1.00  0.00     0.001 A 
ATOM     63  C   UNL A   1      34.173  33.393  28.913  1.00  0.00     0.000 A 
ENDBRANCH  44  58
BRANCH  45  64
ATOM     64  C   UNL A   1      46.089  29.189  30.729  1.00  0.00    -0.014 A 
ATOM     65  C   UNL A   1      47.056  29.417  29.738  1.00  0.00     0.009 A 
ATOM     66  C   UNL A   1      46.456  28.484  31.886  1.00  0.00     0.009 A 
ATOM     67  C   UNL A   1      48.354  28.924  29.887  1.00  0.00     0.001 A 
ATOM     68  C   UNL A   1      47.762  28.015  32.045  1.00  0.00     0.001 A 
ATOM     69  C   UNL A   1      48.706  28.227  31.041  1.00  0.00     0.000 A 
ENDBRANCH  45  64
BRANCH  57  70
ATOM     70  C   UNL A   1      42.793  35.022  32.590  1.00  0.00    -0.014 A 
ATOM     71  C   UNL A   1      43.470  36.086  31.976  1.00  0.00     0.009 A 
ATOM     72  C   UNL A   1      42.481  35.109  33.956  1.00  0.00     0.009 A 
ATOM     73  C   UNL A   1      43.856  37.201  32.725  1.00  0.00     0.001 A 
ATOM     74  C   UNL A   1      42.845  36.234  34.695  1.00  0.00     0.001 A 
ATOM     75  C   UNL A   1      43.540  37.276  34.081  1.00  0.00     0.000 A 
ENDBRANCH  57  70
ENDBRANCH  31  32
ENDBRANCH  23  26
ENDBRANCH  21  22
ENDBRANCH   1  21
TORSDOF 15
ENDMDL
MODEL 3
REMARK VINA RESULT:      -9.6      1.261      2.798
REMARK SMILES CCC(CC)[C@@H](C(=O)NCCCNC(=O)c1ccc(-c2c3nc(c(-c4ccccc4)c4ccc([nH]4)c(-c4ccccc4)c4nc(c(-c5ccccc5)c5ccc2[nH]5)C=C4)C=C3)cc1)c1ccccc1OC
REMARK SMILES IDX 11 1 10 2 9 3 7 4 8 5 6 7 3 8 2 9 1 10 4 11 5 12 64 13 65 14
REMARK SMILES IDX 69 15 66 16 68 17 67 18 70 19 71 20 12 21 13 22 14 23 15 25
REMARK SMILES IDX 16 26 17 27 63 28 18 29 62 30 19 31 20 32 21 33 56 34 22 35
REMARK SMILES IDX 61 36 55 37 57 38 23 39 60 40 54 41 53 42 24 44 46 45 31 46
REMARK SMILES IDX 45 47 32 48 35 49 44 50 58 51 33 52 34 53 43 55 59 56 36 57
REMARK SMILES IDX 25 58 26 59 30 60 27 61 29 62 28 63 47 64 48 65 52 66 49 67
REMARK SMILES IDX 51 68 50 69 37 70 38 71 42 72 39 73 41 74 40 75
REMARK H PARENT 9 6 13 24 57 43 35 54
REMARK Flexibility Score: inf
ROOT
ATOM      1  C   UNL A   1      33.172  28.277  26.969  1.00  0.00     0.042 C 
ENDROOT
BRANCH   1   2
ATOM      2  C   UNL A   1      31.686  28.027  26.682  1.00  0.00     0.117 C 
BRANCH   2   3
ATOM      3  N   UNL A   1      31.291  26.657  26.946  1.00  0.00    -0.355 N 
ATOM      4  C   UNL A   1      31.413  25.477  26.295  1.00  0.00     0.227 C 
ATOM      5  O   UNL A   1      31.170  24.514  27.038  1.00  0.00    -0.274 OA
ATOM      6  H   UNL A   1      30.820  26.563  27.806  1.00  0.00     0.163 HD
BRANCH   4   7
ATOM      7  C   UNL A   1      31.935  25.283  24.837  1.00  0.00     0.115 C 
BRANCH   7   8
ATOM      8  C   UNL A   1      33.443  24.998  24.486  1.00  0.00     0.005 C 
BRANCH   8   9
ATOM      9  C   UNL A   1      34.425  25.113  25.650  1.00  0.00     0.001 C 
ATOM     10  C   UNL A   1      35.521  24.056  25.679  1.00  0.00     0.004 C 
ENDBRANCH   8   9
BRANCH   8  11
ATOM     11  C   UNL A   1      33.607  23.664  23.699  1.00  0.00     0.001 C 
ATOM     12  C   UNL A   1      33.329  23.742  22.204  1.00  0.00     0.004 C 
ENDBRANCH   8  11
ENDBRANCH   7   8
BRANCH   7  13
ATOM     13  C   UNL A   1      31.490  26.501  23.989  1.00  0.00     0.007 A 
ATOM     14  C   UNL A   1      32.488  27.319  23.423  1.00  0.00     0.008 A 
ATOM     15  C   UNL A   1      30.139  26.869  23.787  1.00  0.00     0.122 A 
ATOM     16  C   UNL A   1      32.154  28.479  22.718  1.00  0.00     0.001 A 
ATOM     17  C   UNL A   1      29.816  28.034  23.084  1.00  0.00     0.047 A 
ATOM     18  C   UNL A   1      30.820  28.837  22.550  1.00  0.00     0.004 A 
BRANCH  15  19
ATOM     19  O   UNL A   1      29.079  26.258  24.408  1.00  0.00    -0.496 OA
ATOM     20  C   UNL A   1      27.809  26.631  23.882  1.00  0.00     0.278 C 
ENDBRANCH  15  19
ENDBRANCH   7  13
ENDBRANCH   4   7
ENDBRANCH   2   3
ENDBRANCH   1   2
BRANCH   1  21
ATOM     21  C   UNL A   1      33.792  29.442  26.199  1.00  0.00     0.118 C 
BRANCH  21  22
ATOM     22  N   UNL A   1      33.735  30.680  26.952  1.00  0.00    -0.352 N 
ATOM     23  C   UNL A   1      34.541  31.127  27.971  1.00  0.00     0.251 C 
ATOM     24  H   UNL A   1      33.010  31.295  26.692  1.00  0.00     0.163 HD
ATOM     25  O   UNL A   1      34.170  32.080  28.651  1.00  0.00    -0.269 OA
BRANCH  23  26
ATOM     26  C   UNL A   1      35.844  30.482  28.271  1.00  0.00     0.039 A 
ATOM     27  C   UNL A   1      35.983  29.785  29.476  1.00  0.00     0.014 A 
ATOM     28  C   UNL A   1      36.957  30.637  27.438  1.00  0.00     0.014 A 
ATOM     29  C   UNL A   1      37.218  29.235  29.836  1.00  0.00     0.010 A 
ATOM     30  C   UNL A   1      38.167  30.020  27.758  1.00  0.00     0.010 A 
ATOM     31  C   UNL A   1      38.322  29.341  28.976  1.00  0.00    -0.014 A 
BRANCH  31  32
ATOM     32  C   UNL A   1      39.660  28.820  29.371  1.00  0.00     0.031 A 
ATOM     33  C   UNL A   1      40.559  29.648  30.256  1.00  0.00     0.074 A 
ATOM     34  C   UNL A   1      40.089  27.626  28.919  1.00  0.00     0.049 A 
ATOM     35  N   UNL A   1      41.778  29.399  30.664  1.00  0.00    -0.248 NA
ATOM     36  C   UNL A   1      40.025  30.939  30.723  1.00  0.00     0.031 C 
ATOM     37  C   UNL A   1      39.340  26.732  28.034  1.00  0.00     0.029 A 
ATOM     38  N   UNL A   1      41.270  26.960  29.140  1.00  0.00    -0.354 N 
ATOM     39  C   UNL A   1      42.165  30.511  31.403  1.00  0.00     0.074 A 
ATOM     40  C   UNL A   1      41.069  31.454  31.354  1.00  0.00     0.031 C 
ATOM     41  C   UNL A   1      40.068  25.625  27.810  1.00  0.00     0.029 A 
ATOM     42  C   UNL A   1      41.345  25.744  28.505  1.00  0.00     0.049 A 
ATOM     43  H   UNL A   1      41.994  27.320  29.702  1.00  0.00     0.167 HD
ATOM     44  C   UNL A   1      43.318  30.725  32.081  1.00  0.00     0.031 A 
ATOM     45  C   UNL A   1      42.333  24.828  28.483  1.00  0.00     0.031 A 
ATOM     46  C   UNL A   1      44.396  29.778  32.169  1.00  0.00     0.049 A 
ATOM     47  C   UNL A   1      43.594  25.078  29.264  1.00  0.00     0.074 A 
ATOM     48  C   UNL A   1      45.580  29.883  32.879  1.00  0.00     0.029 A 
ATOM     49  N   UNL A   1      44.415  28.547  31.536  1.00  0.00    -0.354 N 
ATOM     50  N   UNL A   1      43.919  26.113  29.999  1.00  0.00    -0.248 NA
ATOM     51  C   UNL A   1      44.617  24.022  29.225  1.00  0.00     0.031 C 
ATOM     52  C   UNL A   1      46.331  28.725  32.649  1.00  0.00     0.029 A 
ATOM     53  C   UNL A   1      45.594  27.885  31.832  1.00  0.00     0.049 A 
ATOM     54  H   UNL A   1      43.698  28.195  30.961  1.00  0.00     0.167 HD
ATOM     55  C   UNL A   1      45.166  25.820  30.534  1.00  0.00     0.074 A 
ATOM     56  C   UNL A   1      45.534  24.506  30.050  1.00  0.00     0.031 C 
ATOM     57  C   UNL A   1      45.938  26.571  31.356  1.00  0.00     0.031 A 
BRANCH  44  58
ATOM     58  C   UNL A   1      43.473  32.044  32.786  1.00  0.00    -0.014 A 
ATOM     59  C   UNL A   1      43.069  32.207  34.121  1.00  0.00     0.009 A 
ATOM     60  C   UNL A   1      44.069  33.127  32.119  1.00  0.00     0.009 A 
ATOM     61  C   UNL A   1      43.225  33.438  34.761  1.00  0.00     0.001 A 
ATOM     62  C   UNL A   1      44.248  34.348  32.771  1.00  0.00     0.001 A 
ATOM     63  C   UNL A   1      43.819  34.505  34.088  1.00  0.00     0.000 A 
ENDBRANCH  44  58
BRANCH  45  64
ATOM     64  C   UNL A   1      42.166  23.569  27.712  1.00  0.00    -0.014 A 
ATOM     65  C   UNL A   1      42.583  23.492  26.374  1.00  0.00     0.009 A 
ATOM     66  C   UNL A   1      41.569  22.443  28.303  1.00  0.00     0.009 A 
ATOM     67  C   UNL A   1      42.380  22.325  25.635  1.00  0.00     0.001 A 
ATOM     68  C   UNL A   1      41.391  21.269  27.569  1.00  0.00     0.001 A 
ATOM     69  C   UNL A   1      41.787  21.214  26.233  1.00  0.00     0.000 A 
ENDBRANCH  45  64
BRANCH  57  70
ATOM     70  C   UNL A   1      47.232  25.972  31.825  1.00  0.00    -0.014 A 
ATOM     71  C   UNL A   1      48.411  26.100  31.075  1.00  0.00     0.009 A 
ATOM     72  C   UNL A   1      47.278  25.304  33.059  1.00  0.00     0.009 A 
ATOM     73  C   UNL A   1      49.605  25.542  31.539  1.00  0.00     0.001 A 
ATOM     74  C   UNL A   1      48.476  24.770  33.531  1.00  0.00     0.001 A 
ATOM     75  C   UNL A   1      49.638  24.882  32.767  1.00  0.00     0.000 A 
ENDBRANCH  57  70
ENDBRANCH  31  32
ENDBRANCH  23  26
ENDBRANCH  21  22
ENDBRANCH   1  21
TORSDOF 15
ENDMDL
