MODEL 1
REMARK VINA RESULT:     -11.3      0.000      0.000
REMARK SMILES CC(C)COC(=O)N[C@H](Cc1c[nH]c2ccccc12)C(=O)NCCCNC(=O)c1ccc(-c2c3nc(c(-c4ccccc4)c4ccc([nH]4)c(-c4ccccc4)c4nc(c(-c5ccccc5)c5ccc2[nH]5)C=C4)C=C3)cc1
REMARK SMILES IDX 23 1 22 2 20 3 21 4 9 6 8 7 6 8 7 9 5 11 4 12 2 13 1 14 3 15
REMARK SMILES IDX 10 16 11 17 12 18 19 19 13 20 14 21 18 22 15 24 17 25 16 26
REMARK SMILES IDX 24 27 25 28 26 29 27 30 28 32 29 33 30 34 76 35 31 36 75 37
REMARK SMILES IDX 32 38 33 39 34 40 69 41 35 42 74 43 68 44 70 45 36 46 73 47
REMARK SMILES IDX 67 48 66 49 37 51 59 52 44 53 58 54 45 55 48 56 57 57 71 58
REMARK SMILES IDX 46 59 47 60 56 62 72 63 49 64 38 65 39 66 43 67 40 68 42 69
REMARK SMILES IDX 41 70 60 71 61 72 65 73 62 74 64 75 63 76 50 77 51 78 55 79
REMARK SMILES IDX 52 80 54 81 53 82
REMARK H PARENT 22 5 8 10 13 23 26 31 70 50 48 61
REMARK Flexibility Score: inf
ROOT
ATOM      1  C   UNL A   1      36.260  20.053  24.996  1.00  0.00     0.117 C 
ENDROOT
BRANCH   1   2
ATOM      2  N   UNL A   1      36.191  21.352  25.655  1.00  0.00    -0.354 N 
ATOM      3  C   UNL A   1      35.169  22.127  26.118  1.00  0.00     0.243 C 
ATOM      4  O   UNL A   1      35.457  23.311  26.346  1.00  0.00    -0.273 OA
ATOM      5  H   UNL A   1      37.076  21.759  25.799  1.00  0.00     0.163 HD
BRANCH   3   6
ATOM      6  C   UNL A   1      33.698  21.665  26.274  1.00  0.00     0.179 C 
BRANCH   6   7
ATOM      7  N   UNL A   1      32.973  21.527  25.015  1.00  0.00    -0.309 N 
ATOM      8  C   UNL A   1      32.588  20.354  24.450  1.00  0.00     0.407 C 
ATOM      9  O   UNL A   1      32.398  20.274  23.238  1.00  0.00    -0.225 OA
ATOM     10  H   UNL A   1      32.743  22.356  24.535  1.00  0.00     0.167 HD
BRANCH   8  11
ATOM     11  O   UNL A   1      32.372  19.367  25.348  1.00  0.00    -0.449 OA
BRANCH  11  12
ATOM     12  C   UNL A   1      32.347  18.020  24.844  1.00  0.00     0.238 C 
BRANCH  12  13
ATOM     13  C   UNL A   1      33.762  17.456  24.607  1.00  0.00     0.021 C 
ATOM     14  C   UNL A   1      34.073  16.238  25.479  1.00  0.00     0.011 C 
ATOM     15  C   UNL A   1      33.937  17.079  23.135  1.00  0.00     0.011 C 
ENDBRANCH  12  13
ENDBRANCH  11  12
ENDBRANCH   8  11
ENDBRANCH   6   7
BRANCH   6  16
ATOM     16  C   UNL A   1      32.915  22.394  27.378  1.00  0.00     0.073 C 
BRANCH  16  17
ATOM     17  C   UNL A   1      31.785  23.277  26.947  1.00  0.00    -0.020 A 
ATOM     18  C   UNL A   1      30.434  22.989  27.005  1.00  0.00     0.087 A 
ATOM     19  C   UNL A   1      31.900  24.610  26.428  1.00  0.00     0.003 A 
ATOM     20  N   UNL A   1      29.740  24.078  26.543  1.00  0.00    -0.361 N 
ATOM     21  C   UNL A   1      30.610  25.067  26.148  1.00  0.00     0.046 A 
ATOM     22  C   UNL A   1      32.991  25.446  26.107  1.00  0.00     0.010 A 
ATOM     23  H   UNL A   1      28.758  24.142  26.501  1.00  0.00     0.166 HD
ATOM     24  C   UNL A   1      30.361  26.298  25.527  1.00  0.00     0.026 A 
ATOM     25  C   UNL A   1      32.760  26.672  25.475  1.00  0.00     0.001 A 
ATOM     26  C   UNL A   1      31.464  27.085  25.182  1.00  0.00     0.002 A 
ENDBRANCH  16  17
ENDBRANCH   6  16
ENDBRANCH   3   6
ENDBRANCH   1   2
BRANCH   1  27
ATOM     27  C   UNL A   1      37.702  19.632  24.721  1.00  0.00     0.042 C 
BRANCH  27  28
ATOM     28  C   UNL A   1      38.754  20.281  25.606  1.00  0.00     0.118 C 
BRANCH  28  29
ATOM     29  N   UNL A   1      39.885  19.399  25.826  1.00  0.00    -0.352 N 
ATOM     30  C   UNL A   1      41.205  19.638  26.115  1.00  0.00     0.251 C 
ATOM     31  H   UNL A   1      39.663  18.443  25.754  1.00  0.00     0.163 HD
ATOM     32  O   UNL A   1      41.989  18.696  25.986  1.00  0.00    -0.269 OA
BRANCH  30  33
ATOM     33  C   UNL A   1      41.746  20.954  26.564  1.00  0.00     0.039 A 
ATOM     34  C   UNL A   1      41.758  21.206  27.945  1.00  0.00     0.014 A 
ATOM     35  C   UNL A   1      42.101  21.995  25.704  1.00  0.00     0.014 A 
ATOM     36  C   UNL A   1      42.115  22.464  28.450  1.00  0.00     0.010 A 
ATOM     37  C   UNL A   1      42.537  23.230  26.211  1.00  0.00     0.010 A 
ATOM     38  C   UNL A   1      42.522  23.493  27.589  1.00  0.00    -0.014 A 
BRANCH  38  39
ATOM     39  C   UNL A   1      42.881  24.841  28.122  1.00  0.00     0.031 A 
ATOM     40  C   UNL A   1      41.821  25.895  28.347  1.00  0.00     0.074 A 
ATOM     41  C   UNL A   1      44.164  25.139  28.408  1.00  0.00     0.049 A 
ATOM     42  N   UNL A   1      41.954  27.122  28.793  1.00  0.00    -0.248 NA
ATOM     43  C   UNL A   1      40.435  25.531  28.012  1.00  0.00     0.031 C 
ATOM     44  C   UNL A   1      45.303  24.237  28.233  1.00  0.00     0.029 A 
ATOM     45  N   UNL A   1      44.727  26.287  28.913  1.00  0.00    -0.354 N 
ATOM     46  C   UNL A   1      40.679  27.677  28.773  1.00  0.00     0.074 A 
ATOM     47  C   UNL A   1      39.794  26.669  28.230  1.00  0.00     0.031 C 
ATOM     48  C   UNL A   1      46.420  24.852  28.654  1.00  0.00     0.029 A 
ATOM     49  C   UNL A   1      46.087  26.206  29.090  1.00  0.00     0.049 A 
ATOM     50  H   UNL A   1      44.203  27.094  29.127  1.00  0.00     0.167 HD
ATOM     51  C   UNL A   1      40.272  28.904  29.182  1.00  0.00     0.031 A 
ATOM     52  C   UNL A   1      46.974  27.112  29.546  1.00  0.00     0.031 A 
ATOM     53  C   UNL A   1      41.135  29.911  29.744  1.00  0.00     0.049 A 
ATOM     54  C   UNL A   1      46.501  28.474  29.972  1.00  0.00     0.074 A 
ATOM     55  C   UNL A   1      40.793  31.160  30.236  1.00  0.00     0.029 A 
ATOM     56  N   UNL A   1      42.506  29.788  29.888  1.00  0.00    -0.354 N 
ATOM     57  N   UNL A   1      45.284  28.957  29.997  1.00  0.00    -0.248 NA
ATOM     58  C   UNL A   1      47.531  29.413  30.445  1.00  0.00     0.031 C 
ATOM     59  C   UNL A   1      41.966  31.813  30.630  1.00  0.00     0.029 A 
ATOM     60  C   UNL A   1      43.030  30.949  30.435  1.00  0.00     0.049 A 
ATOM     61  H   UNL A   1      43.032  28.994  29.637  1.00  0.00     0.167 HD
ATOM     62  C   UNL A   1      45.398  30.244  30.509  1.00  0.00     0.074 A 
ATOM     63  C   UNL A   1      46.799  30.460  30.799  1.00  0.00     0.031 C 
ATOM     64  C   UNL A   1      44.425  31.163  30.720  1.00  0.00     0.031 A 
BRANCH  51  65
ATOM     65  C   UNL A   1      38.811  29.237  29.031  1.00  0.00    -0.014 A 
ATOM     66  C   UNL A   1      38.288  29.683  27.806  1.00  0.00     0.009 A 
ATOM     67  C   UNL A   1      37.938  29.052  30.114  1.00  0.00     0.009 A 
ATOM     68  C   UNL A   1      36.928  29.973  27.683  1.00  0.00     0.001 A 
ATOM     69  C   UNL A   1      36.575  29.315  29.979  1.00  0.00     0.001 A 
ATOM     70  C   UNL A   1      36.071  29.785  28.767  1.00  0.00     0.000 A 
ENDBRANCH  51  65
BRANCH  52  71
ATOM     71  C   UNL A   1      48.416  26.761  29.631  1.00  0.00    -0.014 A 
ATOM     72  C   UNL A   1      48.935  26.158  30.787  1.00  0.00     0.009 A 
ATOM     73  C   UNL A   1      49.283  27.043  28.564  1.00  0.00     0.009 A 
ATOM     74  C   UNL A   1      50.298  25.868  30.883  1.00  0.00     0.001 A 
ATOM     75  C   UNL A   1      50.639  26.724  28.650  1.00  0.00     0.001 A 
ATOM     76  C   UNL A   1      51.147  26.146  29.813  1.00  0.00     0.000 A 
ENDBRANCH  52  71
BRANCH  64  77
ATOM     77  C   UNL A   1      44.833  32.478  31.324  1.00  0.00    -0.014 A 
ATOM     78  C   UNL A   1      45.183  33.573  30.518  1.00  0.00     0.009 A 
ATOM     79  C   UNL A   1      44.837  32.632  32.719  1.00  0.00     0.009 A 
ATOM     80  C   UNL A   1      45.560  34.786  31.100  1.00  0.00     0.001 A 
ATOM     81  C   UNL A   1      45.188  33.853  33.297  1.00  0.00     0.001 A 
ATOM     82  C   UNL A   1      45.557  34.926  32.488  1.00  0.00     0.000 A 
ENDBRANCH  64  77
ENDBRANCH  38  39
ENDBRANCH  30  33
ENDBRANCH  28  29
ENDBRANCH  27  28
ENDBRANCH   1  27
TORSDOF 16
ENDMDL
MODEL 2
REMARK VINA RESULT:     -11.3      0.385      5.839
REMARK SMILES CC(C)COC(=O)N[C@H](Cc1c[nH]c2ccccc12)C(=O)NCCCNC(=O)c1ccc(-c2c3nc(c(-c4ccccc4)c4ccc([nH]4)c(-c4ccccc4)c4nc(c(-c5ccccc5)c5ccc2[nH]5)C=C4)C=C3)cc1
REMARK SMILES IDX 23 1 22 2 20 3 21 4 9 6 8 7 6 8 7 9 5 11 4 12 2 13 1 14 3 15
REMARK SMILES IDX 10 16 11 17 12 18 19 19 13 20 14 21 18 22 15 24 17 25 16 26
REMARK SMILES IDX 24 27 25 28 26 29 27 30 28 32 29 33 30 34 76 35 31 36 75 37
REMARK SMILES IDX 32 38 33 39 34 40 69 41 35 42 74 43 68 44 70 45 36 46 73 47
REMARK SMILES IDX 67 48 66 49 37 51 59 52 44 53 58 54 45 55 48 56 57 57 71 58
REMARK SMILES IDX 46 59 47 60 56 62 72 63 49 64 38 65 39 66 43 67 40 68 42 69
REMARK SMILES IDX 41 70 60 71 61 72 65 73 62 74 64 75 63 76 50 77 51 78 55 79
REMARK SMILES IDX 52 80 54 81 53 82
REMARK H PARENT 22 5 8 10 13 23 26 31 70 50 48 61
REMARK Flexibility Score: inf
ROOT
ATOM      1  C   UNL A   1      36.264  19.942  24.953  1.00  0.00     0.117 C 
ENDROOT
BRANCH   1   2
ATOM      2  N   UNL A   1      36.254  21.241  25.617  1.00  0.00    -0.354 N 
ATOM      3  C   UNL A   1      35.267  22.075  26.052  1.00  0.00     0.243 C 
ATOM      4  O   UNL A   1      35.620  23.238  26.295  1.00  0.00    -0.273 OA
ATOM      5  H   UNL A   1      37.158  21.592  25.790  1.00  0.00     0.163 HD
BRANCH   3   6
ATOM      6  C   UNL A   1      33.766  21.704  26.160  1.00  0.00     0.179 C 
BRANCH   6   7
ATOM      7  N   UNL A   1      33.062  21.665  24.882  1.00  0.00    -0.309 N 
ATOM      8  C   UNL A   1      32.507  20.560  24.320  1.00  0.00     0.407 C 
ATOM      9  O   UNL A   1      32.338  20.492  23.104  1.00  0.00    -0.225 OA
ATOM     10  H   UNL A   1      32.983  22.511  24.386  1.00  0.00     0.167 HD
BRANCH   8  11
ATOM     11  O   UNL A   1      32.110  19.636  25.223  1.00  0.00    -0.449 OA
BRANCH  11  12
ATOM     12  C   UNL A   1      32.977  18.505  25.424  1.00  0.00     0.238 C 
BRANCH  12  13
ATOM     13  C   UNL A   1      32.613  17.318  24.511  1.00  0.00     0.021 C 
ATOM     14  C   UNL A   1      33.601  17.127  23.358  1.00  0.00     0.011 C 
ATOM     15  C   UNL A   1      32.541  16.029  25.330  1.00  0.00     0.011 C 
ENDBRANCH  12  13
ENDBRANCH  11  12
ENDBRANCH   8  11
ENDBRANCH   6   7
BRANCH   6  16
ATOM     16  C   UNL A   1      33.007  22.436  27.278  1.00  0.00     0.073 C 
BRANCH  16  17
ATOM     17  C   UNL A   1      31.897  23.352  26.866  1.00  0.00    -0.020 A 
ATOM     18  C   UNL A   1      30.540  23.086  26.904  1.00  0.00     0.087 A 
ATOM     19  C   UNL A   1      32.039  24.698  26.388  1.00  0.00     0.003 A 
ATOM     20  N   UNL A   1      29.870  24.201  26.471  1.00  0.00    -0.361 N 
ATOM     21  C   UNL A   1      30.760  25.186  26.113  1.00  0.00     0.046 A 
ATOM     22  C   UNL A   1      33.148  25.524  26.102  1.00  0.00     0.010 A 
ATOM     23  H   UNL A   1      28.890  24.284  26.423  1.00  0.00     0.166 HD
ATOM     24  C   UNL A   1      30.537  26.440  25.527  1.00  0.00     0.026 A 
ATOM     25  C   UNL A   1      32.943  26.772  25.506  1.00  0.00     0.001 A 
ATOM     26  C   UNL A   1      31.657  27.218  25.215  1.00  0.00     0.002 A 
ENDBRANCH  16  17
ENDBRANCH   6  16
ENDBRANCH   3   6
ENDBRANCH   1   2
BRANCH   1  27
ATOM     27  C   UNL A   1      37.682  19.403  24.781  1.00  0.00     0.042 C 
BRANCH  27  28
ATOM     28  C   UNL A   1      38.754  20.108  25.596  1.00  0.00     0.118 C 
BRANCH  28  29
ATOM     29  N   UNL A   1      39.931  19.275  25.766  1.00  0.00    -0.352 N 
ATOM     30  C   UNL A   1      41.242  19.568  26.043  1.00  0.00     0.251 C 
ATOM     31  H   UNL A   1      39.753  18.312  25.662  1.00  0.00     0.163 HD
ATOM     32  O   UNL A   1      42.068  18.671  25.867  1.00  0.00    -0.269 OA
BRANCH  30  33
ATOM     33  C   UNL A   1      41.726  20.892  26.532  1.00  0.00     0.039 A 
ATOM     34  C   UNL A   1      41.581  21.162  27.902  1.00  0.00     0.014 A 
ATOM     35  C   UNL A   1      42.175  21.921  25.703  1.00  0.00     0.014 A 
ATOM     36  C   UNL A   1      41.877  22.429  28.426  1.00  0.00     0.010 A 
ATOM     37  C   UNL A   1      42.549  23.165  26.238  1.00  0.00     0.010 A 
ATOM     38  C   UNL A   1      42.377  23.446  27.602  1.00  0.00    -0.014 A 
BRANCH  38  39
ATOM     39  C   UNL A   1      42.671  24.803  28.154  1.00  0.00     0.031 A 
ATOM     40  C   UNL A   1      44.076  25.193  28.548  1.00  0.00     0.074 A 
ATOM     41  C   UNL A   1      41.678  25.701  28.313  1.00  0.00     0.049 A 
ATOM     42  N   UNL A   1      44.511  26.324  29.054  1.00  0.00    -0.248 NA
ATOM     43  C   UNL A   1      45.128  24.179  28.368  1.00  0.00     0.031 C 
ATOM     44  C   UNL A   1      40.269  25.472  27.994  1.00  0.00     0.029 A 
ATOM     45  N   UNL A   1      41.706  26.994  28.780  1.00  0.00    -0.354 N 
ATOM     46  C   UNL A   1      45.875  26.149  29.268  1.00  0.00     0.074 A 
ATOM     47  C   UNL A   1      46.186  24.790  28.879  1.00  0.00     0.031 C 
ATOM     48  C   UNL A   1      39.574  26.595  28.242  1.00  0.00     0.029 A 
ATOM     49  C   UNL A   1      40.477  27.610  28.777  1.00  0.00     0.049 A 
ATOM     50  H   UNL A   1      42.529  27.437  29.089  1.00  0.00     0.167 HD
ATOM     51  C   UNL A   1      46.791  27.035  29.729  1.00  0.00     0.031 A 
ATOM     52  C   UNL A   1      40.109  28.847  29.163  1.00  0.00     0.031 A 
ATOM     53  C   UNL A   1      46.503  28.397  30.100  1.00  0.00     0.049 A 
ATOM     54  C   UNL A   1      41.140  29.804  29.692  1.00  0.00     0.074 A 
ATOM     55  C   UNL A   1      47.384  29.378  30.523  1.00  0.00     0.029 A 
ATOM     56  N   UNL A   1      45.242  28.968  30.096  1.00  0.00    -0.354 N 
ATOM     57  N   UNL A   1      42.431  29.635  29.833  1.00  0.00    -0.248 NA
ATOM     58  C   UNL A   1      40.658  31.132  30.106  1.00  0.00     0.031 C 
ATOM     59  C   UNL A   1      46.648  30.529  30.824  1.00  0.00     0.029 A 
ATOM     60  C   UNL A   1      45.317  30.281  30.535  1.00  0.00     0.049 A 
ATOM     61  H   UNL A   1      44.414  28.510  29.822  1.00  0.00     0.167 HD
ATOM     62  C   UNL A   1      42.918  30.840  30.328  1.00  0.00     0.074 A 
ATOM     63  C   UNL A   1      41.789  31.736  30.444  1.00  0.00     0.031 C 
ATOM     64  C   UNL A   1      44.191  31.170  30.653  1.00  0.00     0.031 A 
BRANCH  51  65
ATOM     65  C   UNL A   1      48.212  26.557  29.867  1.00  0.00    -0.014 A 
ATOM     66  C   UNL A   1      49.164  26.798  28.863  1.00  0.00     0.009 A 
ATOM     67  C   UNL A   1      48.616  25.901  31.040  1.00  0.00     0.009 A 
ATOM     68  C   UNL A   1      50.480  26.357  29.016  1.00  0.00     0.001 A 
ATOM     69  C   UNL A   1      49.939  25.487  31.203  1.00  0.00     0.001 A 
ATOM     70  C   UNL A   1      50.868  25.707  30.187  1.00  0.00     0.000 A 
ENDBRANCH  51  65
BRANCH  52  71
ATOM     71  C   UNL A   1      38.685  29.264  29.059  1.00  0.00    -0.014 A 
ATOM     72  C   UNL A   1      37.823  29.136  30.159  1.00  0.00     0.009 A 
ATOM     73  C   UNL A   1      38.178  29.775  27.854  1.00  0.00     0.009 A 
ATOM     74  C   UNL A   1      36.476  29.487  30.047  1.00  0.00     0.001 A 
ATOM     75  C   UNL A   1      36.839  30.154  27.754  1.00  0.00     0.001 A 
ATOM     76  C   UNL A   1      35.987  30.001  28.847  1.00  0.00     0.000 A 
ENDBRANCH  52  71
BRANCH  64  77
ATOM     77  C   UNL A   1      44.440  32.571  31.139  1.00  0.00    -0.014 A 
ATOM     78  C   UNL A   1      44.706  33.618  30.241  1.00  0.00     0.009 A 
ATOM     79  C   UNL A   1      44.376  32.854  32.512  1.00  0.00     0.009 A 
ATOM     80  C   UNL A   1      44.934  34.912  30.714  1.00  0.00     0.001 A 
ATOM     81  C   UNL A   1      44.578  34.154  32.979  1.00  0.00     0.001 A 
ATOM     82  C   UNL A   1      44.866  35.180  32.081  1.00  0.00     0.000 A 
ENDBRANCH  64  77
ENDBRANCH  38  39
ENDBRANCH  30  33
ENDBRANCH  28  29
ENDBRANCH  27  28
ENDBRANCH   1  27
TORSDOF 16
ENDMDL
MODEL 3
REMARK VINA RESULT:     -11.0      2.495      4.488
REMARK SMILES CC(C)COC(=O)N[C@H](Cc1c[nH]c2ccccc12)C(=O)NCCCNC(=O)c1ccc(-c2c3nc(c(-c4ccccc4)c4ccc([nH]4)c(-c4ccccc4)c4nc(c(-c5ccccc5)c5ccc2[nH]5)C=C4)C=C3)cc1
REMARK SMILES IDX 23 1 22 2 20 3 21 4 9 6 8 7 6 8 7 9 5 11 4 12 2 13 1 14 3 15
REMARK SMILES IDX 10 16 11 17 12 18 19 19 13 20 14 21 18 22 15 24 17 25 16 26
REMARK SMILES IDX 24 27 25 28 26 29 27 30 28 32 29 33 30 34 76 35 31 36 75 37
REMARK SMILES IDX 32 38 33 39 34 40 69 41 35 42 74 43 68 44 70 45 36 46 73 47
REMARK SMILES IDX 67 48 66 49 37 51 59 52 44 53 58 54 45 55 48 56 57 57 71 58
REMARK SMILES IDX 46 59 47 60 56 62 72 63 49 64 38 65 39 66 43 67 40 68 42 69
REMARK SMILES IDX 41 70 60 71 61 72 65 73 62 74 64 75 63 76 50 77 51 78 55 79
REMARK SMILES IDX 52 80 54 81 53 82
REMARK H PARENT 22 5 8 10 13 23 26 31 70 50 48 61
REMARK Flexibility Score: inf
ROOT
ATOM      1  C   UNL A   1      34.959  22.091  25.657  1.00  0.00     0.117 C 
ENDROOT
BRANCH   1   2
ATOM      2  N   UNL A   1      33.892  21.165  25.292  1.00  0.00    -0.354 N 
ATOM      3  C   UNL A   1      32.563  21.310  25.024  1.00  0.00     0.243 C 
ATOM      4  O   UNL A   1      31.897  20.264  25.049  1.00  0.00    -0.273 OA
ATOM      5  H   UNL A   1      34.199  20.232  25.222  1.00  0.00     0.163 HD
BRANCH   3   6
ATOM      6  C   UNL A   1      31.838  22.661  24.800  1.00  0.00     0.179 C 
BRANCH   6   7
ATOM      7  N   UNL A   1      30.610  22.820  25.571  1.00  0.00    -0.309 N 
ATOM      8  C   UNL A   1      30.472  23.577  26.690  1.00  0.00     0.407 C 
ATOM      9  O   UNL A   1      29.593  23.329  27.513  1.00  0.00    -0.225 OA
ATOM     10  H   UNL A   1      29.812  22.338  25.253  1.00  0.00     0.167 HD
BRANCH   8  11
ATOM     11  O   UNL A   1      31.321  24.628  26.739  1.00  0.00    -0.449 OA
BRANCH  11  12
ATOM     12  C   UNL A   1      30.767  25.929  26.474  1.00  0.00     0.238 C 
BRANCH  12  13
ATOM     13  C   UNL A   1      31.854  27.012  26.339  1.00  0.00     0.021 C 
ATOM     14  C   UNL A   1      31.929  27.937  27.555  1.00  0.00     0.011 C 
ATOM     15  C   UNL A   1      33.220  26.361  26.118  1.00  0.00     0.011 C 
ENDBRANCH  12  13
ENDBRANCH  11  12
ENDBRANCH   8  11
ENDBRANCH   6   7
BRANCH   6  16
ATOM     16  C   UNL A   1      31.719  23.084  23.327  1.00  0.00     0.073 C 
BRANCH  16  17
ATOM     17  C   UNL A   1      32.112  24.487  22.984  1.00  0.00    -0.020 A 
ATOM     18  C   UNL A   1      33.350  24.923  22.549  1.00  0.00     0.087 A 
ATOM     19  C   UNL A   1      31.256  25.639  23.009  1.00  0.00     0.003 A 
ATOM     20  N   UNL A   1      33.276  26.272  22.317  1.00  0.00    -0.361 N 
ATOM     21  C   UNL A   1      32.021  26.742  22.626  1.00  0.00     0.046 A 
ATOM     22  C   UNL A   1      29.913  25.853  23.387  1.00  0.00     0.010 A 
ATOM     23  H   UNL A   1      34.017  26.826  21.978  1.00  0.00     0.166 HD
ATOM     24  C   UNL A   1      31.523  28.053  22.644  1.00  0.00     0.026 A 
ATOM     25  C   UNL A   1      29.404  27.155  23.421  1.00  0.00     0.001 A 
ATOM     26  C   UNL A   1      30.202  28.238  23.064  1.00  0.00     0.002 A 
ENDBRANCH  16  17
ENDBRANCH   6  16
ENDBRANCH   3   6
ENDBRANCH   1   2
BRANCH   1  27
ATOM     27  C   UNL A   1      35.738  22.569  24.435  1.00  0.00     0.042 C 
BRANCH  27  28
ATOM     28  C   UNL A   1      36.987  23.384  24.733  1.00  0.00     0.118 C 
BRANCH  28  29
ATOM     29  N   UNL A   1      38.048  22.556  25.278  1.00  0.00    -0.352 N 
ATOM     30  C   UNL A   1      39.160  22.848  26.027  1.00  0.00     0.251 C 
ATOM     31  H   UNL A   1      37.950  21.599  25.071  1.00  0.00     0.163 HD
ATOM     32  O   UNL A   1      40.021  21.972  26.120  1.00  0.00    -0.269 OA
BRANCH  30  33
ATOM     33  C   UNL A   1      39.392  24.148  26.723  1.00  0.00     0.039 A 
ATOM     34  C   UNL A   1      40.117  25.128  26.027  1.00  0.00     0.014 A 
ATOM     35  C   UNL A   1      39.065  24.396  28.057  1.00  0.00     0.014 A 
ATOM     36  C   UNL A   1      40.504  26.322  26.651  1.00  0.00     0.010 A 
ATOM     37  C   UNL A   1      39.381  25.625  28.659  1.00  0.00     0.010 A 
ATOM     38  C   UNL A   1      40.130  26.593  27.975  1.00  0.00    -0.014 A 
BRANCH  38  39
ATOM     39  C   UNL A   1      40.561  27.855  28.649  1.00  0.00     0.031 A 
ATOM     40  C   UNL A   1      39.589  28.991  28.864  1.00  0.00     0.074 A 
ATOM     41  C   UNL A   1      41.833  27.999  29.071  1.00  0.00     0.049 A 
ATOM     42  N   UNL A   1      39.793  30.162  29.421  1.00  0.00    -0.248 NA
ATOM     43  C   UNL A   1      38.214  28.796  28.378  1.00  0.00     0.031 C 
ATOM     44  C   UNL A   1      42.894  27.002  28.924  1.00  0.00     0.029 A 
ATOM     45  N   UNL A   1      42.449  29.044  29.719  1.00  0.00    -0.354 N 
ATOM     46  C   UNL A   1      38.584  30.845  29.333  1.00  0.00     0.074 A 
ATOM     47  C   UNL A   1      37.665  29.975  28.632  1.00  0.00     0.031 C 
ATOM     48  C   UNL A   1      44.017  27.468  29.494  1.00  0.00     0.029 A 
ATOM     49  C   UNL A   1      43.773  28.812  30.009  1.00  0.00     0.049 A 
ATOM     50  H   UNL A   1      41.986  29.882  29.951  1.00  0.00     0.167 HD
ATOM     51  C   UNL A   1      38.256  32.073  29.806  1.00  0.00     0.031 A 
ATOM     52  C   UNL A   1      44.692  29.587  30.616  1.00  0.00     0.031 A 
ATOM     53  C   UNL A   1      39.151  32.942  30.524  1.00  0.00     0.049 A 
ATOM     54  C   UNL A   1      44.311  30.955  31.110  1.00  0.00     0.074 A 
ATOM     55  C   UNL A   1      38.883  34.180  31.086  1.00  0.00     0.029 A 
ATOM     56  N   UNL A   1      40.485  32.671  30.779  1.00  0.00    -0.354 N 
ATOM     57  N   UNL A   1      43.148  31.556  31.066  1.00  0.00    -0.248 NA
ATOM     58  C   UNL A   1      45.374  31.746  31.749  1.00  0.00     0.031 C 
ATOM     59  C   UNL A   1      40.068  34.679  31.635  1.00  0.00     0.029 A 
ATOM     60  C   UNL A   1      41.060  33.728  31.465  1.00  0.00     0.049 A 
ATOM     61  H   UNL A   1      40.956  31.848  30.511  1.00  0.00     0.167 HD
ATOM     62  C   UNL A   1      43.333  32.783  31.691  1.00  0.00     0.074 A 
ATOM     63  C   UNL A   1      44.713  32.833  32.122  1.00  0.00     0.031 C 
ATOM     64  C   UNL A   1      42.434  33.778  31.890  1.00  0.00     0.031 A 
BRANCH  51  65
ATOM     65  C   UNL A   1      36.855  32.563  29.553  1.00  0.00    -0.014 A 
ATOM     66  C   UNL A   1      35.845  32.414  30.517  1.00  0.00     0.009 A 
ATOM     67  C   UNL A   1      36.555  33.228  28.354  1.00  0.00     0.009 A 
ATOM     68  C   UNL A   1      34.556  32.887  30.268  1.00  0.00     0.001 A 
ATOM     69  C   UNL A   1      35.273  33.726  28.120  1.00  0.00     0.001 A 
ATOM     70  C   UNL A   1      34.271  33.547  29.073  1.00  0.00     0.000 A 
ENDBRANCH  51  65
BRANCH  52  71
ATOM     71  C   UNL A   1      46.080  29.086  30.800  1.00  0.00    -0.014 A 
ATOM     72  C   UNL A   1      47.053  29.302  29.812  1.00  0.00     0.009 A 
ATOM     73  C   UNL A   1      46.433  28.375  31.957  1.00  0.00     0.009 A 
ATOM     74  C   UNL A   1      48.344  28.793  29.967  1.00  0.00     0.001 A 
ATOM     75  C   UNL A   1      47.733  27.894  32.124  1.00  0.00     0.001 A 
ATOM     76  C   UNL A   1      48.684  28.095  31.125  1.00  0.00     0.000 A 
ENDBRANCH  52  71
BRANCH  64  77
ATOM     77  C   UNL A   1      42.905  34.996  32.635  1.00  0.00    -0.014 A 
ATOM     78  C   UNL A   1      43.473  36.089  31.962  1.00  0.00     0.009 A 
ATOM     79  C   UNL A   1      42.747  35.065  34.028  1.00  0.00     0.009 A 
ATOM     80  C   UNL A   1      43.903  37.211  32.674  1.00  0.00     0.001 A 
ATOM     81  C   UNL A   1      43.153  36.198  34.734  1.00  0.00     0.001 A 
ATOM     82  C   UNL A   1      43.739  37.267  34.058  1.00  0.00     0.000 A 
ENDBRANCH  64  77
ENDBRANCH  38  39
ENDBRANCH  30  33
ENDBRANCH  28  29
ENDBRANCH  27  28
ENDBRANCH   1  27
TORSDOF 16
ENDMDL
