MODEL 1
REMARK VINA RESULT:     -11.5      0.000      0.000
REMARK SMILES Cc1cc([C@@H](C)NC(=O)N[C@H]2C=C[C@@H](C(=O)NCCCNC(=O)c3ccc(-c4c5nc(c(-c6ccccc6)c6ccc([nH]6)c(-c6ccccc6)c6nc(c(-c7ccccc7)c7ccc4[nH]7)C=C6)C=C5)cc3)C2)c(C)s1
REMARK SMILES IDX 18 1 17 2 15 3 16 4 14 6 11 7 12 8 72 9 13 10 10 11 7 12
REMARK SMILES IDX 8 13 9 15 5 17 6 18 4 19 1 20 2 21 3 22 75 23 73 24 74 25
REMARK SMILES IDX 19 26 20 27 21 28 22 29 23 31 24 32 25 33 71 34 26 35 70 36
REMARK SMILES IDX 27 37 28 38 29 39 64 40 30 41 69 42 63 43 65 44 31 45 68 46
REMARK SMILES IDX 62 47 61 48 32 50 54 51 39 52 53 53 40 54 43 55 52 56 66 57
REMARK SMILES IDX 41 58 42 59 51 61 67 62 44 63 33 64 34 65 38 66 35 67 37 68
REMARK SMILES IDX 36 69 55 70 56 71 60 72 57 73 59 74 58 75 45 76 46 77 50 78
REMARK SMILES IDX 47 79 49 80 48 81
REMARK H PARENT 17 5 7 14 10 16 21 30 65 49 43 60
REMARK Flexibility Score: inf
ROOT
ATOM      1  C   UNL A   1      37.375  20.538  24.897  1.00  0.00     0.117 C 
ENDROOT
BRANCH   1   2
ATOM      2  N   UNL A   1      36.020  20.050  25.045  1.00  0.00    -0.356 N 
ATOM      3  C   UNL A   1      34.832  20.697  24.912  1.00  0.00     0.227 C 
ATOM      4  O   UNL A   1      33.806  20.026  25.059  1.00  0.00    -0.274 OA
ATOM      5  H   UNL A   1      35.947  19.097  25.281  1.00  0.00     0.163 HD
BRANCH   3   6
ATOM      6  C   UNL A   1      34.731  22.209  24.694  1.00  0.00     0.103 C 
ATOM      7  C   UNL A   1      32.877  23.809  25.114  1.00  0.00     0.107 C 
ATOM      8  C   UNL A   1      34.042  24.008  26.039  1.00  0.00    -0.006 C 
ATOM      9  C   UNL A   1      33.320  22.611  24.271  1.00  0.00     0.047 C 
ATOM     10  C   UNL A   1      35.033  23.131  25.828  1.00  0.00    -0.016 C 
BRANCH   7  11
ATOM     11  N   UNL A   1      31.696  23.543  25.907  1.00  0.00    -0.332 N 
ATOM     12  N   UNL A   1      30.915  25.619  26.758  1.00  0.00    -0.332 N 
ATOM     13  C   UNL A   1      30.852  24.293  26.621  1.00  0.00     0.315 C 
ATOM     14  H   UNL A   1      30.179  25.964  27.313  1.00  0.00     0.165 HD
ATOM     15  O   UNL A   1      29.929  23.706  27.194  1.00  0.00    -0.249 OA
ATOM     16  H   UNL A   1      31.461  22.587  25.926  1.00  0.00     0.165 HD
BRANCH  12  17
ATOM     17  C   UNL A   1      31.791  26.685  26.296  1.00  0.00     0.112 C 
ATOM     18  C   UNL A   1      31.891  27.807  27.323  1.00  0.00     0.036 C 
BRANCH  17  19
ATOM     19  C   UNL A   1      31.314  27.125  24.921  1.00  0.00    -0.012 A 
ATOM     20  C   UNL A   1      28.419  28.430  22.821  1.00  0.00     0.056 C 
ATOM     21  C   UNL A   1      29.704  27.929  23.384  1.00  0.00     0.002 A 
ATOM     22  C   UNL A   1      29.931  27.418  24.640  1.00  0.00     0.021 A 
ATOM     23  S   UNL A   1      31.127  27.922  22.459  1.00  0.00    -0.146 S 
ATOM     24  C   UNL A   1      32.070  27.319  23.767  1.00  0.00     0.007 A 
ATOM     25  C   UNL A   1      33.521  27.080  23.506  1.00  0.00     0.057 C 
ENDBRANCH  17  19
ENDBRANCH  12  17
ENDBRANCH   7  11
ENDBRANCH   3   6
ENDBRANCH   1   2
BRANCH   1  26
ATOM     26  C   UNL A   1      38.420  19.457  25.119  1.00  0.00     0.042 C 
BRANCH  26  27
ATOM     27  C   UNL A   1      39.481  19.825  26.144  1.00  0.00     0.118 C 
BRANCH  27  28
ATOM     28  N   UNL A   1      40.762  19.179  25.882  1.00  0.00    -0.352 N 
ATOM     29  C   UNL A   1      42.029  19.695  25.881  1.00  0.00     0.251 C 
ATOM     30  H   UNL A   1      40.706  18.219  25.672  1.00  0.00     0.163 HD
ATOM     31  O   UNL A   1      42.956  19.026  25.413  1.00  0.00    -0.269 OA
BRANCH  29  32
ATOM     32  C   UNL A   1      42.303  21.034  26.435  1.00  0.00     0.039 A 
ATOM     33  C   UNL A   1      42.335  21.203  27.822  1.00  0.00     0.014 A 
ATOM     34  C   UNL A   1      42.473  22.138  25.595  1.00  0.00     0.014 A 
ATOM     35  C   UNL A   1      42.567  22.468  28.363  1.00  0.00     0.010 A 
ATOM     36  C   UNL A   1      42.800  23.377  26.131  1.00  0.00     0.010 A 
ATOM     37  C   UNL A   1      42.818  23.563  27.520  1.00  0.00    -0.014 A 
BRANCH  37  38
ATOM     38  C   UNL A   1      43.032  24.925  28.066  1.00  0.00     0.031 A 
ATOM     39  C   UNL A   1      44.416  25.358  28.469  1.00  0.00     0.074 A 
ATOM     40  C   UNL A   1      41.984  25.750  28.244  1.00  0.00     0.049 A 
ATOM     41  N   UNL A   1      44.805  26.486  29.010  1.00  0.00    -0.248 NA
ATOM     42  C   UNL A   1      45.503  24.387  28.266  1.00  0.00     0.031 C 
ATOM     43  C   UNL A   1      40.589  25.432  27.930  1.00  0.00     0.029 A 
ATOM     44  N   UNL A   1      41.931  27.029  28.734  1.00  0.00    -0.354 N 
ATOM     45  C   UNL A   1      46.169  26.344  29.234  1.00  0.00     0.074 A 
ATOM     46  C   UNL A   1      46.531  25.005  28.826  1.00  0.00     0.031 C 
ATOM     47  C   UNL A   1      39.823  26.501  28.205  1.00  0.00     0.029 A 
ATOM     48  C   UNL A   1      40.666  27.562  28.747  1.00  0.00     0.049 A 
ATOM     49  H   UNL A   1      42.726  27.518  29.049  1.00  0.00     0.167 HD
ATOM     50  C   UNL A   1      47.051  27.254  29.711  1.00  0.00     0.031 A 
ATOM     51  C   UNL A   1      40.236  28.773  29.145  1.00  0.00     0.031 A 
ATOM     52  C   UNL A   1      46.696  28.592  30.097  1.00  0.00     0.049 A 
ATOM     53  C   UNL A   1      41.236  29.772  29.659  1.00  0.00     0.074 A 
ATOM     54  C   UNL A   1      47.519  29.609  30.550  1.00  0.00     0.029 A 
ATOM     55  N   UNL A   1      45.407  29.102  30.069  1.00  0.00    -0.354 N 
ATOM     56  N   UNL A   1      42.533  29.644  29.810  1.00  0.00    -0.248 NA
ATOM     57  C   UNL A   1      40.713  31.092  30.035  1.00  0.00     0.031 C 
ATOM     58  C   UNL A   1      46.720  30.722  30.833  1.00  0.00     0.029 A 
ATOM     59  C   UNL A   1      45.410  30.416  30.503  1.00  0.00     0.049 A 
ATOM     60  H   UNL A   1      44.608  28.602  29.782  1.00  0.00     0.167 HD
ATOM     61  C   UNL A   1      42.985  30.877  30.261  1.00  0.00     0.074 A 
ATOM     62  C   UNL A   1      41.826  31.741  30.346  1.00  0.00     0.031 C 
ATOM     63  C   UNL A   1      44.246  31.262  30.573  1.00  0.00     0.031 A 
BRANCH  50  64
ATOM     64  C   UNL A   1      48.486  26.821  29.841  1.00  0.00    -0.014 A 
ATOM     65  C   UNL A   1      49.419  27.074  28.822  1.00  0.00     0.009 A 
ATOM     66  C   UNL A   1      48.916  26.161  31.003  1.00  0.00     0.009 A 
ATOM     67  C   UNL A   1      50.740  26.637  28.944  1.00  0.00     0.001 A 
ATOM     68  C   UNL A   1      50.244  25.753  31.137  1.00  0.00     0.001 A 
ATOM     69  C   UNL A   1      51.152  25.981  30.103  1.00  0.00     0.000 A 
ENDBRANCH  50  64
BRANCH  51  70
ATOM     70  C   UNL A   1      38.797  29.127  29.037  1.00  0.00    -0.014 A 
ATOM     71  C   UNL A   1      38.270  29.595  27.823  1.00  0.00     0.009 A 
ATOM     72  C   UNL A   1      37.946  29.009  30.146  1.00  0.00     0.009 A 
ATOM     73  C   UNL A   1      36.928  29.968  27.730  1.00  0.00     0.001 A 
ATOM     74  C   UNL A   1      36.596  29.355  30.042  1.00  0.00     0.001 A 
ATOM     75  C   UNL A   1      36.092  29.845  28.838  1.00  0.00     0.000 A 
ENDBRANCH  51  70
BRANCH  63  76
ATOM     76  C   UNL A   1      44.443  32.696  30.976  1.00  0.00    -0.014 A 
ATOM     77  C   UNL A   1      44.692  33.700  30.028  1.00  0.00     0.009 A 
ATOM     78  C   UNL A   1      44.354  33.048  32.333  1.00  0.00     0.009 A 
ATOM     79  C   UNL A   1      44.895  35.020  30.437  1.00  0.00     0.001 A 
ATOM     80  C   UNL A   1      44.525  34.372  32.735  1.00  0.00     0.001 A 
ATOM     81  C   UNL A   1      44.809  35.355  31.788  1.00  0.00     0.000 A 
ENDBRANCH  63  76
ENDBRANCH  37  38
ENDBRANCH  29  32
ENDBRANCH  27  28
ENDBRANCH  26  27
ENDBRANCH   1  26
TORSDOF 13
ENDMDL
MODEL 2
REMARK VINA RESULT:     -11.5      1.759      6.356
REMARK SMILES Cc1cc([C@@H](C)NC(=O)N[C@H]2C=C[C@@H](C(=O)NCCCNC(=O)c3ccc(-c4c5nc(c(-c6ccccc6)c6ccc([nH]6)c(-c6ccccc6)c6nc(c(-c7ccccc7)c7ccc4[nH]7)C=C6)C=C5)cc3)C2)c(C)s1
REMARK SMILES IDX 18 1 17 2 15 3 16 4 14 6 11 7 12 8 72 9 13 10 10 11 7 12
REMARK SMILES IDX 8 13 9 15 5 17 6 18 4 19 1 20 2 21 3 22 75 23 73 24 74 25
REMARK SMILES IDX 19 26 20 27 21 28 22 29 23 31 24 32 25 33 71 34 26 35 70 36
REMARK SMILES IDX 27 37 28 38 29 39 64 40 30 41 69 42 63 43 65 44 31 45 68 46
REMARK SMILES IDX 62 47 61 48 32 50 54 51 39 52 53 53 40 54 43 55 52 56 66 57
REMARK SMILES IDX 41 58 42 59 51 61 67 62 44 63 33 64 34 65 38 66 35 67 37 68
REMARK SMILES IDX 36 69 55 70 56 71 60 72 57 73 59 74 58 75 45 76 46 77 50 78
REMARK SMILES IDX 47 79 49 80 48 81
REMARK H PARENT 17 5 7 14 10 16 21 30 65 49 43 60
REMARK Flexibility Score: inf
ROOT
ATOM      1  C   UNL A   1      36.106  20.712  24.996  1.00  0.00     0.117 C 
ENDROOT
BRANCH   1   2
ATOM      2  N   UNL A   1      36.464  22.097  25.222  1.00  0.00    -0.356 N 
ATOM      3  C   UNL A   1      35.722  23.228  25.100  1.00  0.00     0.227 C 
ATOM      4  O   UNL A   1      36.270  24.296  25.395  1.00  0.00    -0.274 OA
ATOM      5  H   UNL A   1      37.394  22.242  25.510  1.00  0.00     0.163 HD
BRANCH   3   6
ATOM      6  C   UNL A   1      34.302  23.232  24.527  1.00  0.00     0.103 C 
ATOM      7  C   UNL A   1      33.113  24.877  23.094  1.00  0.00     0.107 C 
ATOM      8  C   UNL A   1      33.410  23.590  22.383  1.00  0.00    -0.006 C 
ATOM      9  C   UNL A   1      33.733  24.647  24.474  1.00  0.00     0.047 C 
ATOM     10  C   UNL A   1      34.072  22.710  23.148  1.00  0.00    -0.016 C 
BRANCH   7  11
ATOM     11  N   UNL A   1      33.731  25.962  22.363  1.00  0.00    -0.332 N 
ATOM     12  N   UNL A   1      32.332  27.870  22.581  1.00  0.00    -0.332 N 
ATOM     13  C   UNL A   1      33.415  27.238  22.124  1.00  0.00     0.315 C 
ATOM     14  H   UNL A   1      32.312  28.812  22.297  1.00  0.00     0.165 HD
ATOM     15  O   UNL A   1      34.201  27.889  21.428  1.00  0.00    -0.249 OA
ATOM     16  H   UNL A   1      34.582  25.699  21.944  1.00  0.00     0.165 HD
BRANCH  12  17
ATOM     17  C   UNL A   1      31.176  27.524  23.392  1.00  0.00     0.112 C 
ATOM     18  C   UNL A   1      29.891  28.094  22.801  1.00  0.00     0.036 C 
BRANCH  17  19
ATOM     19  C   UNL A   1      31.459  27.950  24.824  1.00  0.00    -0.012 A 
ATOM     20  C   UNL A   1      32.519  30.767  27.157  1.00  0.00     0.056 C 
ATOM     21  C   UNL A   1      32.089  29.502  26.496  1.00  0.00     0.002 A 
ATOM     22  C   UNL A   1      32.028  29.235  25.149  1.00  0.00     0.021 A 
ATOM     23  S   UNL A   1      31.609  28.152  27.406  1.00  0.00    -0.146 S 
ATOM     24  C   UNL A   1      31.232  27.237  25.999  1.00  0.00     0.007 A 
ATOM     25  C   UNL A   1      30.736  25.843  26.206  1.00  0.00     0.057 C 
ENDBRANCH  17  19
ENDBRANCH  12  17
ENDBRANCH   7  11
ENDBRANCH   3   6
ENDBRANCH   1   2
BRANCH   1  26
ATOM     26  C   UNL A   1      37.311  19.787  24.967  1.00  0.00     0.042 C 
BRANCH  26  27
ATOM     27  C   UNL A   1      38.589  20.422  25.494  1.00  0.00     0.118 C 
BRANCH  27  28
ATOM     28  N   UNL A   1      39.657  19.451  25.695  1.00  0.00    -0.352 N 
ATOM     29  C   UNL A   1      40.961  19.633  26.070  1.00  0.00     0.251 C 
ATOM     30  H   UNL A   1      39.400  18.514  25.536  1.00  0.00     0.163 HD
ATOM     31  O   UNL A   1      41.758  18.697  25.964  1.00  0.00    -0.269 OA
BRANCH  29  32
ATOM     32  C   UNL A   1      41.422  20.929  26.602  1.00  0.00     0.039 A 
ATOM     33  C   UNL A   1      41.402  21.143  27.983  1.00  0.00     0.014 A 
ATOM     34  C   UNL A   1      41.821  21.956  25.743  1.00  0.00     0.014 A 
ATOM     35  C   UNL A   1      41.810  22.373  28.500  1.00  0.00     0.010 A 
ATOM     36  C   UNL A   1      42.320  23.145  26.263  1.00  0.00     0.010 A 
ATOM     37  C   UNL A   1      42.288  23.378  27.644  1.00  0.00    -0.014 A 
BRANCH  37  38
ATOM     38  C   UNL A   1      42.695  24.706  28.164  1.00  0.00     0.031 A 
ATOM     39  C   UNL A   1      41.659  25.778  28.365  1.00  0.00     0.074 A 
ATOM     40  C   UNL A   1      43.994  24.963  28.406  1.00  0.00     0.049 A 
ATOM     41  N   UNL A   1      41.815  27.017  28.762  1.00  0.00    -0.248 NA
ATOM     42  C   UNL A   1      40.265  25.424  28.051  1.00  0.00     0.031 C 
ATOM     43  C   UNL A   1      45.098  24.022  28.211  1.00  0.00     0.029 A 
ATOM     44  N   UNL A   1      44.604  26.100  28.870  1.00  0.00    -0.354 N 
ATOM     45  C   UNL A   1      40.549  27.589  28.718  1.00  0.00     0.074 A 
ATOM     46  C   UNL A   1      39.646  26.584  28.203  1.00  0.00     0.031 C 
ATOM     47  C   UNL A   1      46.247  24.609  28.586  1.00  0.00     0.029 A 
ATOM     48  C   UNL A   1      45.964  25.976  29.010  1.00  0.00     0.049 A 
ATOM     49  H   UNL A   1      44.113  26.928  29.082  1.00  0.00     0.167 HD
ATOM     50  C   UNL A   1      40.164  28.830  29.097  1.00  0.00     0.031 A 
ATOM     51  C   UNL A   1      46.879  26.865  29.439  1.00  0.00     0.031 A 
ATOM     52  C   UNL A   1      41.057  29.822  29.630  1.00  0.00     0.049 A 
ATOM     53  C   UNL A   1      46.425  28.234  29.868  1.00  0.00     0.074 A 
ATOM     54  C   UNL A   1      40.764  31.094  30.088  1.00  0.00     0.029 A 
ATOM     55  N   UNL A   1      42.425  29.647  29.781  1.00  0.00    -0.354 N 
ATOM     56  N   UNL A   1      45.216  28.740  29.875  1.00  0.00    -0.248 NA
ATOM     57  C   UNL A   1      47.464  29.143  30.369  1.00  0.00     0.031 C 
ATOM     58  C   UNL A   1      41.961  31.703  30.479  1.00  0.00     0.029 A 
ATOM     59  C   UNL A   1      42.990  30.790  30.318  1.00  0.00     0.049 A 
ATOM     60  H   UNL A   1      42.920  28.830  29.542  1.00  0.00     0.167 HD
ATOM     61  C   UNL A   1      45.343  30.013  30.417  1.00  0.00     0.074 A 
ATOM     62  C   UNL A   1      46.744  30.193  30.737  1.00  0.00     0.031 C 
ATOM     63  C   UNL A   1      44.385  30.947  30.636  1.00  0.00     0.031 A 
BRANCH  50  64
ATOM     64  C   UNL A   1      38.708  29.177  28.943  1.00  0.00    -0.014 A 
ATOM     65  C   UNL A   1      38.200  29.664  27.728  1.00  0.00     0.009 A 
ATOM     66  C   UNL A   1      37.829  29.003  30.024  1.00  0.00     0.009 A 
ATOM     67  C   UNL A   1      36.852  30.012  27.611  1.00  0.00     0.001 A 
ATOM     68  C   UNL A   1      36.476  29.322  29.895  1.00  0.00     0.001 A 
ATOM     69  C   UNL A   1      35.991  29.836  28.693  1.00  0.00     0.000 A 
ENDBRANCH  50  64
BRANCH  51  70
ATOM     70  C   UNL A   1      48.311  26.480  29.524  1.00  0.00    -0.014 A 
ATOM     71  C   UNL A   1      48.813  25.862  30.681  1.00  0.00     0.009 A 
ATOM     72  C   UNL A   1      49.186  26.733  28.457  1.00  0.00     0.009 A 
ATOM     73  C   UNL A   1      50.168  25.537  30.780  1.00  0.00     0.001 A 
ATOM     74  C   UNL A   1      50.535  26.381  28.547  1.00  0.00     0.001 A 
ATOM     75  C   UNL A   1      51.026  25.793  29.712  1.00  0.00     0.000 A 
ENDBRANCH  51  70
BRANCH  63  76
ATOM     76  C   UNL A   1      44.816  32.222  31.305  1.00  0.00    -0.014 A 
ATOM     77  C   UNL A   1      44.980  32.305  32.696  1.00  0.00     0.009 A 
ATOM     78  C   UNL A   1      45.083  33.354  30.520  1.00  0.00     0.009 A 
ATOM     79  C   UNL A   1      45.356  33.512  33.291  1.00  0.00     0.001 A 
ATOM     80  C   UNL A   1      45.491  34.549  31.113  1.00  0.00     0.001 A 
ATOM     81  C   UNL A   1      45.613  34.630  32.499  1.00  0.00     0.000 A 
ENDBRANCH  63  76
ENDBRANCH  37  38
ENDBRANCH  29  32
ENDBRANCH  27  28
ENDBRANCH  26  27
ENDBRANCH   1  26
TORSDOF 13
ENDMDL
MODEL 3
REMARK VINA RESULT:     -11.3      3.955      9.311
REMARK SMILES Cc1cc([C@@H](C)NC(=O)N[C@H]2C=C[C@@H](C(=O)NCCCNC(=O)c3ccc(-c4c5nc(c(-c6ccccc6)c6ccc([nH]6)c(-c6ccccc6)c6nc(c(-c7ccccc7)c7ccc4[nH]7)C=C6)C=C5)cc3)C2)c(C)s1
REMARK SMILES IDX 18 1 17 2 15 3 16 4 14 6 11 7 12 8 72 9 13 10 10 11 7 12
REMARK SMILES IDX 8 13 9 15 5 17 6 18 4 19 1 20 2 21 3 22 75 23 73 24 74 25
REMARK SMILES IDX 19 26 20 27 21 28 22 29 23 31 24 32 25 33 71 34 26 35 70 36
REMARK SMILES IDX 27 37 28 38 29 39 64 40 30 41 69 42 63 43 65 44 31 45 68 46
REMARK SMILES IDX 62 47 61 48 32 50 54 51 39 52 53 53 40 54 43 55 52 56 66 57
REMARK SMILES IDX 41 58 42 59 51 61 67 62 44 63 33 64 34 65 38 66 35 67 37 68
REMARK SMILES IDX 36 69 55 70 56 71 60 72 57 73 59 74 58 75 45 76 46 77 50 78
REMARK SMILES IDX 47 79 49 80 48 81
REMARK H PARENT 17 5 7 14 10 16 21 30 65 49 43 60
REMARK Flexibility Score: inf
ROOT
ATOM      1  C   UNL A   1      31.435  30.898  26.410  1.00  0.00     0.117 C 
ENDROOT
BRANCH   1   2
ATOM      2  N   UNL A   1      31.192  30.485  25.044  1.00  0.00    -0.356 N 
ATOM      3  C   UNL A   1      31.293  29.261  24.463  1.00  0.00     0.227 C 
ATOM      4  O   UNL A   1      30.988  29.177  23.269  1.00  0.00    -0.274 OA
ATOM      5  H   UNL A   1      30.910  31.208  24.437  1.00  0.00     0.163 HD
BRANCH   3   6
ATOM      6  C   UNL A   1      31.856  28.039  25.195  1.00  0.00     0.103 C 
ATOM      7  C   UNL A   1      32.488  25.781  24.377  1.00  0.00     0.107 C 
ATOM      8  C   UNL A   1      33.670  26.599  24.808  1.00  0.00    -0.006 C 
ATOM      9  C   UNL A   1      31.319  26.743  24.596  1.00  0.00     0.047 C 
ATOM     10  C   UNL A   1      33.332  27.826  25.228  1.00  0.00    -0.016 C 
BRANCH   7  11
ATOM     11  N   UNL A   1      32.667  25.405  22.991  1.00  0.00    -0.332 N 
ATOM     12  N   UNL A   1      33.986  23.430  22.941  1.00  0.00    -0.332 N 
ATOM     13  C   UNL A   1      33.305  24.417  22.357  1.00  0.00     0.315 C 
ATOM     14  H   UNL A   1      34.358  22.802  22.282  1.00  0.00     0.165 HD
ATOM     15  O   UNL A   1      33.248  24.415  21.123  1.00  0.00    -0.249 OA
ATOM     16  H   UNL A   1      32.213  26.021  22.371  1.00  0.00     0.165 HD
BRANCH  12  17
ATOM     17  C   UNL A   1      34.318  23.043  24.304  1.00  0.00     0.112 C 
ATOM     18  C   UNL A   1      35.820  23.118  24.553  1.00  0.00     0.036 C 
BRANCH  17  19
ATOM     19  C   UNL A   1      33.698  21.680  24.573  1.00  0.00    -0.012 A 
ATOM     20  C   UNL A   1      32.189  18.519  23.081  1.00  0.00     0.056 C 
ATOM     21  C   UNL A   1      32.724  19.622  23.927  1.00  0.00     0.002 A 
ATOM     22  C   UNL A   1      33.114  20.878  23.527  1.00  0.00     0.021 A 
ATOM     23  S   UNL A   1      32.906  19.436  25.605  1.00  0.00    -0.146 S 
ATOM     24  C   UNL A   1      33.592  21.004  25.785  1.00  0.00     0.007 A 
ATOM     25  C   UNL A   1      33.966  21.427  27.168  1.00  0.00     0.057 C 
ENDBRANCH  17  19
ENDBRANCH  12  17
ENDBRANCH   7  11
ENDBRANCH   3   6
ENDBRANCH   1   2
BRANCH   1  26
ATOM     26  C   UNL A   1      31.417  32.408  26.583  1.00  0.00     0.042 C 
BRANCH  26  27
ATOM     27  C   UNL A   1      32.723  32.985  27.107  1.00  0.00     0.118 C 
BRANCH  27  28
ATOM     28  N   UNL A   1      32.527  34.207  27.878  1.00  0.00    -0.352 N 
ATOM     29  C   UNL A   1      33.168  34.658  29.000  1.00  0.00     0.251 C 
ATOM     30  H   UNL A   1      31.821  34.803  27.538  1.00  0.00     0.163 HD
ATOM     31  O   UNL A   1      32.696  35.613  29.625  1.00  0.00    -0.269 OA
BRANCH  29  32
ATOM     32  C   UNL A   1      34.414  34.023  29.468  1.00  0.00     0.039 A 
ATOM     33  C   UNL A   1      35.597  34.240  28.756  1.00  0.00     0.014 A 
ATOM     34  C   UNL A   1      34.413  33.167  30.573  1.00  0.00     0.014 A 
ATOM     35  C   UNL A   1      36.779  33.625  29.170  1.00  0.00     0.010 A 
ATOM     36  C   UNL A   1      35.607  32.634  31.043  1.00  0.00     0.010 A 
ATOM     37  C   UNL A   1      36.796  32.830  30.328  1.00  0.00    -0.014 A 
BRANCH  37  38
ATOM     38  C   UNL A   1      38.030  32.137  30.771  1.00  0.00     0.031 A 
ATOM     39  C   UNL A   1      38.838  32.704  31.907  1.00  0.00     0.074 A 
ATOM     40  C   UNL A   1      38.448  31.032  30.126  1.00  0.00     0.049 A 
ATOM     41  N   UNL A   1      39.969  32.278  32.411  1.00  0.00    -0.248 NA
ATOM     42  C   UNL A   1      38.325  33.930  32.541  1.00  0.00     0.031 C 
ATOM     43  C   UNL A   1      37.775  30.408  28.985  1.00  0.00     0.029 A 
ATOM     44  N   UNL A   1      39.545  30.238  30.341  1.00  0.00    -0.354 N 
ATOM     45  C   UNL A   1      40.310  33.196  33.398  1.00  0.00     0.074 A 
ATOM     46  C   UNL A   1      39.301  34.231  33.383  1.00  0.00     0.031 C 
ATOM     47  C   UNL A   1      38.456  29.308  28.622  1.00  0.00     0.029 A 
ATOM     48  C   UNL A   1      39.629  29.172  29.480  1.00  0.00     0.049 A 
ATOM     49  H   UNL A   1      40.209  30.416  31.046  1.00  0.00     0.167 HD
ATOM     50  C   UNL A   1      41.354  33.169  34.259  1.00  0.00     0.031 A 
ATOM     51  C   UNL A   1      40.548  28.193  29.395  1.00  0.00     0.031 A 
ATOM     52  C   UNL A   1      42.345  32.129  34.289  1.00  0.00     0.049 A 
ATOM     53  C   UNL A   1      41.692  28.176  30.372  1.00  0.00     0.074 A 
ATOM     54  C   UNL A   1      43.418  31.980  35.151  1.00  0.00     0.029 A 
ATOM     55  N   UNL A   1      42.380  31.051  33.416  1.00  0.00    -0.354 N 
ATOM     56  N   UNL A   1      41.969  29.019  31.337  1.00  0.00    -0.248 NA
ATOM     57  C   UNL A   1      42.635  27.056  30.259  1.00  0.00     0.031 C 
ATOM     58  C   UNL A   1      44.125  30.833  34.773  1.00  0.00     0.029 A 
ATOM     59  C   UNL A   1      43.459  30.238  33.714  1.00  0.00     0.049 A 
ATOM     60  H   UNL A   1      41.732  30.890  32.692  1.00  0.00     0.167 HD
ATOM     61  C   UNL A   1      43.095  28.511  31.971  1.00  0.00     0.074 A 
ATOM     62  C   UNL A   1      43.441  27.281  31.288  1.00  0.00     0.031 C 
ATOM     63  C   UNL A   1      43.781  29.014  33.027  1.00  0.00     0.031 A 
BRANCH  50  64
ATOM     64  C   UNL A   1      41.470  34.306  35.238  1.00  0.00    -0.014 A 
ATOM     65  C   UNL A   1      40.881  34.235  36.511  1.00  0.00     0.009 A 
ATOM     66  C   UNL A   1      42.189  35.460  34.888  1.00  0.00     0.009 A 
ATOM     67  C   UNL A   1      40.970  35.312  37.396  1.00  0.00     0.001 A 
ATOM     68  C   UNL A   1      42.304  36.522  35.786  1.00  0.00     0.001 A 
ATOM     69  C   UNL A   1      41.685  36.453  37.034  1.00  0.00     0.000 A 
ENDBRANCH  50  64
BRANCH  51  70
ATOM     70  C   UNL A   1      40.406  27.122  28.376  1.00  0.00    -0.014 A 
ATOM     71  C   UNL A   1      41.066  27.225  27.140  1.00  0.00     0.009 A 
ATOM     72  C   UNL A   1      39.605  25.997  28.625  1.00  0.00     0.009 A 
ATOM     73  C   UNL A   1      40.900  26.241  26.164  1.00  0.00     0.001 A 
ATOM     74  C   UNL A   1      39.465  24.999  27.657  1.00  0.00     0.001 A 
ATOM     75  C   UNL A   1      40.104  25.127  26.424  1.00  0.00     0.000 A 
ENDBRANCH  51  70
BRANCH  63  76
ATOM     76  C   UNL A   1      44.935  28.201  33.542  1.00  0.00    -0.014 A 
ATOM     77  C   UNL A   1      44.763  27.222  34.532  1.00  0.00     0.009 A 
ATOM     78  C   UNL A   1      46.216  28.407  33.004  1.00  0.00     0.009 A 
ATOM     79  C   UNL A   1      45.860  26.500  35.008  1.00  0.00     0.001 A 
ATOM     80  C   UNL A   1      47.304  27.662  33.458  1.00  0.00     0.001 A 
ATOM     81  C   UNL A   1      47.127  26.719  34.469  1.00  0.00     0.000 A 
ENDBRANCH  63  76
ENDBRANCH  37  38
ENDBRANCH  29  32
ENDBRANCH  27  28
ENDBRANCH  26  27
ENDBRANCH   1  26
TORSDOF 13
ENDMDL
