MODEL 1
REMARK VINA RESULT:     -10.1      0.000      0.000
REMARK SMILES C[C@H]([NH3+])C(=O)N1CCC[C@H]1C(=O)NCCCNC(=O)c1ccc(-c2c3nc(c(-c4ccccc4)c4ccc([nH]4)c(-c4ccccc4)c4nc(c(-c5ccccc5)c5ccc2[nH]5)C=C4)C=C3)cc1
REMARK SMILES IDX 14 1 13 2 11 3 12 4 10 6 6 7 7 8 8 9 9 10 4 11 5 12 2 13
REMARK SMILES IDX 1 14 3 15 15 19 16 20 17 21 18 22 19 24 20 25 21 26 67 27
REMARK SMILES IDX 22 28 66 29 23 30 24 31 25 32 60 33 26 34 65 35 59 36 61 37
REMARK SMILES IDX 27 38 64 39 58 40 57 41 28 43 50 44 35 45 49 46 36 47 39 48
REMARK SMILES IDX 48 49 62 50 37 51 38 52 47 54 63 55 40 56 29 57 30 58 34 59
REMARK SMILES IDX 31 60 33 61 32 62 51 63 52 64 56 65 53 66 55 67 54 68 41 69
REMARK SMILES IDX 42 70 46 71 43 72 45 73 44 74
REMARK H PARENT 13 5 3 16 3 17 3 18 17 23 61 42 39 53
REMARK Flexibility Score: inf
ROOT
ATOM      1  C   UNL A   1      36.574  20.616  24.701  1.00  0.00     0.117 C 
ENDROOT
BRANCH   1   2
ATOM      2  N   UNL A   1      35.840  20.849  25.932  1.00  0.00    -0.354 N 
ATOM      3  C   UNL A   1      34.705  21.580  26.161  1.00  0.00     0.242 C 
ATOM      4  O   UNL A   1      34.451  21.849  27.338  1.00  0.00    -0.273 OA
ATOM      5  H   UNL A   1      36.219  20.412  26.729  1.00  0.00     0.163 HD
BRANCH   3   6
ATOM      6  C   UNL A   1      33.779  21.989  24.982  1.00  0.00     0.174 C 
ATOM      7  N   UNL A   1      32.582  21.137  24.887  1.00  0.00    -0.326 N 
ATOM      8  C   UNL A   1      31.421  21.859  25.363  1.00  0.00     0.120 C 
ATOM      9  C   UNL A   1      31.697  23.267  24.893  1.00  0.00     0.024 C 
ATOM     10  C   UNL A   1      33.196  23.406  25.112  1.00  0.00     0.037 C 
BRANCH   7  11
ATOM     11  C   UNL A   1      32.665  19.905  24.273  1.00  0.00     0.281 C 
ATOM     12  O   UNL A   1      32.176  19.734  23.149  1.00  0.00    -0.268 OA
BRANCH  11  13
ATOM     13  C   UNL A   1      33.192  18.676  25.049  1.00  0.00     0.268 C 
ATOM     14  C   UNL A   1      32.822  17.412  24.273  1.00  0.00     0.086 C 
BRANCH  13  15
ATOM     15  N   UNL A   1      32.775  18.609  26.459  1.00  0.00    -0.348 N 
ATOM     16  H   UNL A   1      33.431  18.026  26.981  1.00  0.00     0.345 HD
ATOM     17  H   UNL A   1      31.840  18.206  26.519  1.00  0.00     0.345 HD
ATOM     18  H   UNL A   1      32.766  19.549  26.856  1.00  0.00     0.345 HD
ENDBRANCH  13  15
ENDBRANCH  11  13
ENDBRANCH   7  11
ENDBRANCH   3   6
ENDBRANCH   1   2
BRANCH   1  19
ATOM     19  C   UNL A   1      37.743  19.654  24.939  1.00  0.00     0.042 C 
BRANCH  19  20
ATOM     20  C   UNL A   1      38.883  20.259  25.750  1.00  0.00     0.118 C 
BRANCH  20  21
ATOM     21  N   UNL A   1      40.012  19.354  25.853  1.00  0.00    -0.352 N 
ATOM     22  C   UNL A   1      41.337  19.618  26.095  1.00  0.00     0.251 C 
ATOM     23  H   UNL A   1      39.794  18.402  25.729  1.00  0.00     0.163 HD
ATOM     24  O   UNL A   1      42.165  18.733  25.903  1.00  0.00    -0.269 OA
BRANCH  22  25
ATOM     25  C   UNL A   1      41.787  20.948  26.576  1.00  0.00     0.039 A 
ATOM     26  C   UNL A   1      41.710  21.217  27.946  1.00  0.00     0.014 A 
ATOM     27  C   UNL A   1      42.200  21.955  25.698  1.00  0.00     0.014 A 
ATOM     28  C   UNL A   1      42.065  22.477  28.436  1.00  0.00     0.010 A 
ATOM     29  C   UNL A   1      42.622  23.190  26.194  1.00  0.00     0.010 A 
ATOM     30  C   UNL A   1      42.540  23.471  27.566  1.00  0.00    -0.014 A 
BRANCH  30  31
ATOM     31  C   UNL A   1      42.910  24.817  28.076  1.00  0.00     0.031 A 
ATOM     32  C   UNL A   1      41.850  25.859  28.312  1.00  0.00     0.074 A 
ATOM     33  C   UNL A   1      44.204  25.114  28.301  1.00  0.00     0.049 A 
ATOM     34  N   UNL A   1      41.982  27.089  28.742  1.00  0.00    -0.248 NA
ATOM     35  C   UNL A   1      40.461  25.479  28.005  1.00  0.00     0.031 C 
ATOM     36  C   UNL A   1      45.333  24.206  28.085  1.00  0.00     0.029 A 
ATOM     37  N   UNL A   1      44.788  26.266  28.765  1.00  0.00    -0.354 N 
ATOM     38  C   UNL A   1      40.703  27.632  28.738  1.00  0.00     0.074 A 
ATOM     39  C   UNL A   1      39.813  26.613  28.224  1.00  0.00     0.031 C 
ATOM     40  C   UNL A   1      46.469  24.826  28.448  1.00  0.00     0.029 A 
ATOM     41  C   UNL A   1      46.153  26.181  28.889  1.00  0.00     0.049 A 
ATOM     42  H   UNL A   1      44.276  27.076  28.990  1.00  0.00     0.167 HD
ATOM     43  C   UNL A   1      40.299  28.861  29.140  1.00  0.00     0.031 A 
ATOM     44  C   UNL A   1      47.051  27.091  29.311  1.00  0.00     0.031 A 
ATOM     45  C   UNL A   1      41.175  29.869  29.674  1.00  0.00     0.049 A 
ATOM     46  C   UNL A   1      46.577  28.447  29.753  1.00  0.00     0.074 A 
ATOM     47  C   UNL A   1      40.849  31.119  30.170  1.00  0.00     0.029 A 
ATOM     48  N   UNL A   1      42.550  29.740  29.781  1.00  0.00    -0.354 N 
ATOM     49  N   UNL A   1      45.355  28.917  29.806  1.00  0.00    -0.248 NA
ATOM     50  C   UNL A   1      47.610  29.392  30.203  1.00  0.00     0.031 C 
ATOM     51  C   UNL A   1      42.034  31.764  30.539  1.00  0.00     0.029 A 
ATOM     52  C   UNL A   1      43.091  30.897  30.315  1.00  0.00     0.049 A 
ATOM     53  H   UNL A   1      43.066  28.944  29.518  1.00  0.00     0.167 HD
ATOM     54  C   UNL A   1      45.469  30.202  30.322  1.00  0.00     0.074 A 
ATOM     55  C   UNL A   1      46.876  30.432  30.576  1.00  0.00     0.031 C 
ATOM     56  C   UNL A   1      44.492  31.110  30.564  1.00  0.00     0.031 A 
BRANCH  43  57
ATOM     57  C   UNL A   1      38.837  29.186  29.011  1.00  0.00    -0.014 A 
ATOM     58  C   UNL A   1      37.957  29.023  30.093  1.00  0.00     0.009 A 
ATOM     59  C   UNL A   1      38.342  29.701  27.803  1.00  0.00     0.009 A 
ATOM     60  C   UNL A   1      36.603  29.336  29.956  1.00  0.00     0.001 A 
ATOM     61  C   UNL A   1      36.992  30.037  27.677  1.00  0.00     0.001 A 
ATOM     62  C   UNL A   1      36.123  29.846  28.750  1.00  0.00     0.000 A 
ENDBRANCH  43  57
BRANCH  44  63
ATOM     63  C   UNL A   1      48.494  26.742  29.364  1.00  0.00    -0.014 A 
ATOM     64  C   UNL A   1      49.326  26.999  28.261  1.00  0.00     0.009 A 
ATOM     65  C   UNL A   1      49.045  26.143  30.506  1.00  0.00     0.009 A 
ATOM     66  C   UNL A   1      50.675  26.641  28.296  1.00  0.00     0.001 A 
ATOM     67  C   UNL A   1      50.401  25.810  30.546  1.00  0.00     0.001 A 
ATOM     68  C   UNL A   1      51.212  26.051  29.438  1.00  0.00     0.000 A 
ENDBRANCH  44  63
BRANCH  56  69
ATOM     69  C   UNL A   1      44.909  32.421  31.164  1.00  0.00    -0.014 A 
ATOM     70  C   UNL A   1      45.231  33.521  30.355  1.00  0.00     0.009 A 
ATOM     71  C   UNL A   1      44.944  32.566  32.561  1.00  0.00     0.009 A 
ATOM     72  C   UNL A   1      45.609  34.734  30.934  1.00  0.00     0.001 A 
ATOM     73  C   UNL A   1      45.297  33.787  33.135  1.00  0.00     0.001 A 
ATOM     74  C   UNL A   1      45.638  34.867  32.323  1.00  0.00     0.000 A 
ENDBRANCH  56  69
ENDBRANCH  30  31
ENDBRANCH  22  25
ENDBRANCH  20  21
ENDBRANCH  19  20
ENDBRANCH   1  19
TORSDOF 13
ENDMDL
MODEL 2
REMARK VINA RESULT:     -10.0      0.937      6.381
REMARK SMILES C[C@H]([NH3+])C(=O)N1CCC[C@H]1C(=O)NCCCNC(=O)c1ccc(-c2c3nc(c(-c4ccccc4)c4ccc([nH]4)c(-c4ccccc4)c4nc(c(-c5ccccc5)c5ccc2[nH]5)C=C4)C=C3)cc1
REMARK SMILES IDX 14 1 13 2 11 3 12 4 10 6 6 7 7 8 8 9 9 10 4 11 5 12 2 13
REMARK SMILES IDX 1 14 3 15 15 19 16 20 17 21 18 22 19 24 20 25 21 26 67 27
REMARK SMILES IDX 22 28 66 29 23 30 24 31 25 32 60 33 26 34 65 35 59 36 61 37
REMARK SMILES IDX 27 38 64 39 58 40 57 41 28 43 50 44 35 45 49 46 36 47 39 48
REMARK SMILES IDX 48 49 62 50 37 51 38 52 47 54 63 55 40 56 29 57 30 58 34 59
REMARK SMILES IDX 31 60 33 61 32 62 51 63 52 64 56 65 53 66 55 67 54 68 41 69
REMARK SMILES IDX 42 70 46 71 43 72 45 73 44 74
REMARK H PARENT 13 5 3 16 3 17 3 18 17 23 61 42 39 53
REMARK Flexibility Score: inf
ROOT
ATOM      1  C   UNL A   1      36.915  20.704  24.547  1.00  0.00     0.117 C 
ENDROOT
BRANCH   1   2
ATOM      2  N   UNL A   1      35.743  20.495  25.378  1.00  0.00    -0.354 N 
ATOM      3  C   UNL A   1      34.802  21.385  25.823  1.00  0.00     0.242 C 
ATOM      4  O   UNL A   1      34.075  21.004  26.744  1.00  0.00    -0.273 OA
ATOM      5  H   UNL A   1      35.603  19.564  25.670  1.00  0.00     0.163 HD
BRANCH   3   6
ATOM      6  C   UNL A   1      34.650  22.775  25.146  1.00  0.00     0.174 C 
ATOM      7  N   UNL A   1      33.346  22.935  24.481  1.00  0.00    -0.326 N 
ATOM      8  C   UNL A   1      32.495  23.806  25.265  1.00  0.00     0.120 C 
ATOM      9  C   UNL A   1      33.476  24.811  25.817  1.00  0.00     0.024 C 
ATOM     10  C   UNL A   1      34.693  23.954  26.131  1.00  0.00     0.037 C 
BRANCH   7  11
ATOM     11  C   UNL A   1      33.148  22.405  23.223  1.00  0.00     0.281 C 
ATOM     12  O   UNL A   1      33.727  22.889  22.244  1.00  0.00    -0.268 OA
BRANCH  11  13
ATOM     13  C   UNL A   1      32.059  21.332  22.988  1.00  0.00     0.268 C 
ATOM     14  C   UNL A   1      32.479  20.046  23.701  1.00  0.00     0.086 C 
BRANCH  13  15
ATOM     15  N   UNL A   1      31.712  21.102  21.577  1.00  0.00    -0.348 N 
ATOM     16  H   UNL A   1      32.281  20.341  21.205  1.00  0.00     0.345 HD
ATOM     17  H   UNL A   1      31.888  21.952  21.041  1.00  0.00     0.345 HD
ATOM     18  H   UNL A   1      30.725  20.854  21.505  1.00  0.00     0.345 HD
ENDBRANCH  13  15
ENDBRANCH  11  13
ENDBRANCH   7  11
ENDBRANCH   3   6
ENDBRANCH   1   2
BRANCH   1  19
ATOM     19  C   UNL A   1      37.985  19.648  24.839  1.00  0.00     0.042 C 
BRANCH  19  20
ATOM     20  C   UNL A   1      38.994  20.073  25.901  1.00  0.00     0.118 C 
BRANCH  20  21
ATOM     21  N   UNL A   1      40.208  19.279  25.840  1.00  0.00    -0.352 N 
ATOM     22  C   UNL A   1      41.520  19.660  25.972  1.00  0.00     0.251 C 
ATOM     23  H   UNL A   1      40.069  18.318  25.679  1.00  0.00     0.163 HD
ATOM     24  O   UNL A   1      42.404  18.873  25.648  1.00  0.00    -0.269 OA
BRANCH  22  25
ATOM     25  C   UNL A   1      41.890  21.001  26.490  1.00  0.00     0.039 A 
ATOM     26  C   UNL A   1      41.814  21.222  27.869  1.00  0.00     0.014 A 
ATOM     27  C   UNL A   1      42.225  22.059  25.640  1.00  0.00     0.014 A 
ATOM     28  C   UNL A   1      42.093  22.486  28.395  1.00  0.00     0.010 A 
ATOM     29  C   UNL A   1      42.574  23.303  26.170  1.00  0.00     0.010 A 
ATOM     30  C   UNL A   1      42.491  23.535  27.551  1.00  0.00    -0.014 A 
BRANCH  30  31
ATOM     31  C   UNL A   1      42.781  24.886  28.099  1.00  0.00     0.031 A 
ATOM     32  C   UNL A   1      44.189  25.272  28.463  1.00  0.00     0.074 A 
ATOM     33  C   UNL A   1      41.774  25.759  28.296  1.00  0.00     0.049 A 
ATOM     34  N   UNL A   1      44.633  26.399  28.964  1.00  0.00    -0.248 NA
ATOM     35  C   UNL A   1      45.233  24.255  28.260  1.00  0.00     0.031 C 
ATOM     36  C   UNL A   1      40.360  25.500  28.014  1.00  0.00     0.029 A 
ATOM     37  N   UNL A   1      41.787  27.043  28.780  1.00  0.00    -0.354 N 
ATOM     38  C   UNL A   1      45.998  26.218  29.152  1.00  0.00     0.074 A 
ATOM     39  C   UNL A   1      46.304  24.861  28.752  1.00  0.00     0.031 C 
ATOM     40  C   UNL A   1      39.648  26.603  28.298  1.00  0.00     0.029 A 
ATOM     41  C   UNL A   1      40.547  27.632  28.812  1.00  0.00     0.049 A 
ATOM     42  H   UNL A   1      42.608  27.499  29.074  1.00  0.00     0.167 HD
ATOM     43  C   UNL A   1      46.919  27.103  29.602  1.00  0.00     0.031 A 
ATOM     44  C   UNL A   1      40.174  28.863  29.210  1.00  0.00     0.031 A 
ATOM     45  C   UNL A   1      46.626  28.460  29.978  1.00  0.00     0.049 A 
ATOM     46  C   UNL A   1      41.216  29.827  29.704  1.00  0.00     0.074 A 
ATOM     47  C   UNL A   1      47.503  29.452  30.382  1.00  0.00     0.029 A 
ATOM     48  N   UNL A   1      45.356  29.015  29.995  1.00  0.00    -0.354 N 
ATOM     49  N   UNL A   1      42.511  29.660  29.811  1.00  0.00    -0.248 NA
ATOM     50  C   UNL A   1      40.741  31.154  30.123  1.00  0.00     0.031 C 
ATOM     51  C   UNL A   1      46.758  30.596  30.685  1.00  0.00     0.029 A 
ATOM     52  C   UNL A   1      45.423  30.329  30.425  1.00  0.00     0.049 A 
ATOM     53  H   UNL A   1      44.530  28.545  29.741  1.00  0.00     0.167 HD
ATOM     54  C   UNL A   1      43.010  30.868  30.280  1.00  0.00     0.074 A 
ATOM     55  C   UNL A   1      41.879  31.762  30.427  1.00  0.00     0.031 C 
ATOM     56  C   UNL A   1      44.291  31.206  30.563  1.00  0.00     0.031 A 
BRANCH  43  57
ATOM     57  C   UNL A   1      48.341  26.626  29.717  1.00  0.00    -0.014 A 
ATOM     58  C   UNL A   1      49.240  26.753  28.647  1.00  0.00     0.009 A 
ATOM     59  C   UNL A   1      48.795  26.079  30.927  1.00  0.00     0.009 A 
ATOM     60  C   UNL A   1      50.558  26.309  28.775  1.00  0.00     0.001 A 
ATOM     61  C   UNL A   1      50.121  25.659  31.060  1.00  0.00     0.001 A 
ATOM     62  C   UNL A   1      50.998  25.766  29.981  1.00  0.00     0.000 A 
ENDBRANCH  43  57
BRANCH  44  63
ATOM     63  C   UNL A   1      38.746  29.268  29.134  1.00  0.00    -0.014 A 
ATOM     64  C   UNL A   1      38.236  29.848  27.961  1.00  0.00     0.009 A 
ATOM     65  C   UNL A   1      37.892  29.088  30.232  1.00  0.00     0.009 A 
ATOM     66  C   UNL A   1      36.904  30.260  27.899  1.00  0.00     0.001 A 
ATOM     67  C   UNL A   1      36.553  29.479  30.157  1.00  0.00     0.001 A 
ATOM     68  C   UNL A   1      36.062  30.072  28.995  1.00  0.00     0.000 A 
ENDBRANCH  44  63
BRANCH  56  69
ATOM     69  C   UNL A   1      44.542  32.612  31.028  1.00  0.00    -0.014 A 
ATOM     70  C   UNL A   1      44.529  32.940  32.392  1.00  0.00     0.009 A 
ATOM     71  C   UNL A   1      44.831  33.613  30.087  1.00  0.00     0.009 A 
ATOM     72  C   UNL A   1      44.774  34.252  32.802  1.00  0.00     0.001 A 
ATOM     73  C   UNL A   1      45.099  34.917  30.502  1.00  0.00     0.001 A 
ATOM     74  C   UNL A   1      45.062  35.237  31.858  1.00  0.00     0.000 A 
ENDBRANCH  56  69
ENDBRANCH  30  31
ENDBRANCH  22  25
ENDBRANCH  20  21
ENDBRANCH  19  20
ENDBRANCH   1  19
TORSDOF 13
ENDMDL
MODEL 3
REMARK VINA RESULT:      -9.9      3.724      8.248
REMARK SMILES C[C@H]([NH3+])C(=O)N1CCC[C@H]1C(=O)NCCCNC(=O)c1ccc(-c2c3nc(c(-c4ccccc4)c4ccc([nH]4)c(-c4ccccc4)c4nc(c(-c5ccccc5)c5ccc2[nH]5)C=C4)C=C3)cc1
REMARK SMILES IDX 14 1 13 2 11 3 12 4 10 6 6 7 7 8 8 9 9 10 4 11 5 12 2 13
REMARK SMILES IDX 1 14 3 15 15 19 16 20 17 21 18 22 19 24 20 25 21 26 67 27
REMARK SMILES IDX 22 28 66 29 23 30 24 31 25 32 60 33 26 34 65 35 59 36 61 37
REMARK SMILES IDX 27 38 64 39 58 40 57 41 28 43 50 44 35 45 49 46 36 47 39 48
REMARK SMILES IDX 48 49 62 50 37 51 38 52 47 54 63 55 40 56 29 57 30 58 34 59
REMARK SMILES IDX 31 60 33 61 32 62 51 63 52 64 56 65 53 66 55 67 54 68 41 69
REMARK SMILES IDX 42 70 46 71 43 72 45 73 44 74
REMARK H PARENT 13 5 3 16 3 17 3 18 17 23 61 42 39 53
REMARK Flexibility Score: inf
ROOT
ATOM      1  C   UNL A   1      31.900  29.709  25.760  1.00  0.00     0.117 C 
ENDROOT
BRANCH   1   2
ATOM      2  N   UNL A   1      32.709  29.724  24.555  1.00  0.00    -0.354 N 
ATOM      3  C   UNL A   1      33.052  28.705  23.706  1.00  0.00     0.242 C 
ATOM      4  O   UNL A   1      33.978  28.930  22.922  1.00  0.00    -0.273 OA
ATOM      5  H   UNL A   1      33.068  30.607  24.308  1.00  0.00     0.163 HD
BRANCH   3   6
ATOM      6  C   UNL A   1      32.264  27.367  23.721  1.00  0.00     0.174 C 
ATOM      7  N   UNL A   1      31.199  27.332  22.705  1.00  0.00    -0.326 N 
ATOM      8  C   UNL A   1      31.595  26.482  21.602  1.00  0.00     0.120 C 
ATOM      9  C   UNL A   1      32.363  25.383  22.296  1.00  0.00     0.024 C 
ATOM     10  C   UNL A   1      33.120  26.137  23.379  1.00  0.00     0.037 C 
BRANCH   7  11
ATOM     11  C   UNL A   1      29.988  27.941  22.960  1.00  0.00     0.281 C 
ATOM     12  O   UNL A   1      29.019  27.270  23.335  1.00  0.00    -0.268 OA
BRANCH  11  13
ATOM     13  C   UNL A   1      29.767  29.428  22.598  1.00  0.00     0.268 C 
ATOM     14  C   UNL A   1      28.287  29.639  22.278  1.00  0.00     0.086 C 
BRANCH  13  15
ATOM     15  N   UNL A   1      30.648  29.944  21.538  1.00  0.00    -0.348 N 
ATOM     16  H   UNL A   1      31.006  30.861  21.810  1.00  0.00     0.345 HD
ATOM     17  H   UNL A   1      30.121  30.029  20.669  1.00  0.00     0.345 HD
ATOM     18  H   UNL A   1      31.429  29.302  21.402  1.00  0.00     0.345 HD
ENDBRANCH  13  15
ENDBRANCH  11  13
ENDBRANCH   7  11
ENDBRANCH   3   6
ENDBRANCH   1   2
BRANCH   1  19
ATOM     19  C   UNL A   1      32.329  28.571  26.691  1.00  0.00     0.042 C 
BRANCH  19  20
ATOM     20  C   UNL A   1      33.587  28.877  27.497  1.00  0.00     0.118 C 
BRANCH  20  21
ATOM     21  N   UNL A   1      33.632  30.265  27.919  1.00  0.00    -0.352 N 
ATOM     22  C   UNL A   1      34.633  30.964  28.546  1.00  0.00     0.251 C 
ATOM     23  H   UNL A   1      32.819  30.785  27.727  1.00  0.00     0.163 HD
ATOM     24  O   UNL A   1      34.377  32.063  29.030  1.00  0.00    -0.269 OA
BRANCH  22  25
ATOM     25  C   UNL A   1      36.009  30.421  28.656  1.00  0.00     0.039 A 
ATOM     26  C   UNL A   1      36.416  29.895  29.886  1.00  0.00     0.014 A 
ATOM     27  C   UNL A   1      36.926  30.498  27.602  1.00  0.00     0.014 A 
ATOM     28  C   UNL A   1      37.723  29.428  30.054  1.00  0.00     0.010 A 
ATOM     29  C   UNL A   1      38.209  29.967  27.748  1.00  0.00     0.010 A 
ATOM     30  C   UNL A   1      38.628  29.446  28.981  1.00  0.00    -0.014 A 
BRANCH  30  31
ATOM     31  C   UNL A   1      40.022  28.962  29.151  1.00  0.00     0.031 A 
ATOM     32  C   UNL A   1      41.070  29.859  29.755  1.00  0.00     0.074 A 
ATOM     33  C   UNL A   1      40.356  27.724  28.739  1.00  0.00     0.049 A 
ATOM     34  N   UNL A   1      42.339  29.616  29.973  1.00  0.00    -0.248 NA
ATOM     35  C   UNL A   1      40.644  31.212  30.146  1.00  0.00     0.031 C 
ATOM     36  C   UNL A   1      39.445  26.765  28.110  1.00  0.00     0.029 A 
ATOM     37  N   UNL A   1      41.556  27.060  28.789  1.00  0.00    -0.354 N 
ATOM     38  C   UNL A   1      42.863  30.788  30.505  1.00  0.00     0.074 A 
ATOM     39  C   UNL A   1      41.787  31.754  30.539  1.00  0.00     0.031 C 
ATOM     40  C   UNL A   1      40.111  25.624  27.865  1.00  0.00     0.029 A 
ATOM     41  C   UNL A   1      41.500  25.783  28.285  1.00  0.00     0.049 A 
ATOM     42  H   UNL A   1      42.378  27.460  29.152  1.00  0.00     0.167 HD
ATOM     43  C   UNL A   1      44.121  31.035  30.942  1.00  0.00     0.031 A 
ATOM     44  C   UNL A   1      42.458  24.844  28.175  1.00  0.00     0.031 A 
ATOM     45  C   UNL A   1      45.188  30.071  30.933  1.00  0.00     0.049 A 
ATOM     46  C   UNL A   1      43.846  25.143  28.668  1.00  0.00     0.074 A 
ATOM     47  C   UNL A   1      46.478  30.208  31.416  1.00  0.00     0.029 A 
ATOM     48  N   UNL A   1      45.087  28.790  30.414  1.00  0.00    -0.354 N 
ATOM     49  N   UNL A   1      44.305  26.234  29.231  1.00  0.00    -0.248 NA
ATOM     50  C   UNL A   1      44.844  24.074  28.520  1.00  0.00     0.031 C 
ATOM     51  C   UNL A   1      47.171  29.022  31.151  1.00  0.00     0.029 A 
ATOM     52  C   UNL A   1      46.298  28.133  30.545  1.00  0.00     0.049 A 
ATOM     53  H   UNL A   1      44.275  28.405  30.013  1.00  0.00     0.167 HD
ATOM     54  C   UNL A   1      45.636  25.973  29.529  1.00  0.00     0.074 A 
ATOM     55  C   UNL A   1      45.907  24.618  29.096  1.00  0.00     0.031 C 
ATOM     56  C   UNL A   1      46.551  26.784  30.112  1.00  0.00     0.031 A 
BRANCH  43  57
ATOM     57  C   UNL A   1      44.414  32.414  31.465  1.00  0.00    -0.014 A 
ATOM     58  C   UNL A   1      44.262  32.725  32.825  1.00  0.00     0.009 A 
ATOM     59  C   UNL A   1      44.887  33.404  30.590  1.00  0.00     0.009 A 
ATOM     60  C   UNL A   1      44.544  34.010  33.293  1.00  0.00     0.001 A 
ATOM     61  C   UNL A   1      45.194  34.682  31.065  1.00  0.00     0.001 A 
ATOM     62  C   UNL A   1      45.013  34.985  32.414  1.00  0.00     0.000 A 
ENDBRANCH  43  57
BRANCH  44  63
ATOM     63  C   UNL A   1      42.134  23.515  27.596  1.00  0.00    -0.014 A 
ATOM     64  C   UNL A   1      41.637  22.487  28.414  1.00  0.00     0.009 A 
ATOM     65  C   UNL A   1      42.326  23.264  26.229  1.00  0.00     0.009 A 
ATOM     66  C   UNL A   1      41.363  21.227  27.878  1.00  0.00     0.001 A 
ATOM     67  C   UNL A   1      42.027  22.010  25.692  1.00  0.00     0.001 A 
ATOM     68  C   UNL A   1      41.555  20.991  26.517  1.00  0.00     0.000 A 
ENDBRANCH  44  63
BRANCH  56  69
ATOM     69  C   UNL A   1      47.922  26.216  30.344  1.00  0.00    -0.014 A 
ATOM     70  C   UNL A   1      48.289  25.693  31.594  1.00  0.00     0.009 A 
ATOM     71  C   UNL A   1      48.843  26.170  29.286  1.00  0.00     0.009 A 
ATOM     72  C   UNL A   1      49.566  25.163  31.786  1.00  0.00     0.001 A 
ATOM     73  C   UNL A   1      50.109  25.616  29.476  1.00  0.00     0.001 A 
ATOM     74  C   UNL A   1      50.472  25.121  30.727  1.00  0.00     0.000 A 
ENDBRANCH  56  69
ENDBRANCH  30  31
ENDBRANCH  22  25
ENDBRANCH  20  21
ENDBRANCH  19  20
ENDBRANCH   1  19
TORSDOF 13
ENDMDL
