MODEL 1
REMARK VINA RESULT:     -12.2      0.000      0.000
REMARK SMILES CC(=O)Nc1cccc(-c2cc(F)ccc2C(=O)NCCCNC(=O)c2ccc(-c3c4nc(c(-c5ccccc5)c5ccc([nH]5)c(-c5ccccc5)c5nc(c(-c6ccccc6)c6ccc3[nH]6)C=C5)C=C4)cc2)c1
REMARK SMILES IDX 21 1 20 2 19 3 17 4 18 5 16 7 10 8 11 9 12 10 15 11 13 12
REMARK SMILES IDX 14 13 9 14 5 15 6 16 74 17 7 18 8 19 4 20 1 21 2 22 3 23
REMARK SMILES IDX 22 25 23 26 24 27 25 29 26 30 27 31 73 32 28 33 72 34 29 35
REMARK SMILES IDX 30 36 31 37 66 38 32 39 71 40 65 41 67 42 33 43 70 44 64 45
REMARK SMILES IDX 63 46 34 48 56 49 41 50 55 51 42 52 45 53 54 54 68 55 43 56
REMARK SMILES IDX 44 57 53 59 69 60 46 61 35 62 36 63 40 64 37 65 39 66 38 67
REMARK SMILES IDX 57 68 58 69 62 70 59 71 61 72 60 73 47 74 48 75 52 76 49 77
REMARK SMILES IDX 51 78 50 79
REMARK H PARENT 19 6 4 24 23 28 67 47 45 58
REMARK Flexibility Score: inf
ROOT
ATOM      1  C   UNL A   1      32.014  29.520  26.808  1.00  0.00     0.042 C 
ENDROOT
BRANCH   1   2
ATOM      2  C   UNL A   1      31.855  28.268  27.631  1.00  0.00     0.118 C 
BRANCH   2   3
ATOM      3  N   UNL A   1      30.839  27.324  27.293  1.00  0.00    -0.352 N 
ATOM      4  C   UNL A   1      30.769  26.530  26.170  1.00  0.00     0.251 C 
ATOM      5  O   UNL A   1      29.962  25.596  26.234  1.00  0.00    -0.269 OA
ATOM      6  H   UNL A   1      30.101  27.228  27.939  1.00  0.00     0.163 HD
BRANCH   4   7
ATOM      7  C   UNL A   1      31.487  26.759  24.850  1.00  0.00     0.047 A 
ATOM      8  C   UNL A   1      31.127  27.496  23.680  1.00  0.00    -0.003 A 
ATOM      9  C   UNL A   1      32.058  27.536  22.607  1.00  0.00     0.048 A 
ATOM     10  C   UNL A   1      33.285  26.890  22.667  1.00  0.00     0.123 A 
ATOM     11  C   UNL A   1      32.759  26.118  24.864  1.00  0.00     0.017 A 
ATOM     12  F   UNL A   1      34.119  26.954  21.622  1.00  0.00    -0.207 F 
ATOM     13  C   UNL A   1      33.647  26.178  23.789  1.00  0.00     0.040 A 
BRANCH   8  14
ATOM     14  C   UNL A   1      29.860  28.214  23.417  1.00  0.00    -0.015 A 
ATOM     15  C   UNL A   1      28.567  30.284  23.296  1.00  0.00     0.041 A 
ATOM     16  C   UNL A   1      27.381  29.541  23.367  1.00  0.00     0.026 A 
ATOM     17  C   UNL A   1      29.802  29.611  23.272  1.00  0.00     0.034 A 
ATOM     18  C   UNL A   1      27.415  28.149  23.392  1.00  0.00     0.003 A 
ATOM     19  C   UNL A   1      28.645  27.493  23.413  1.00  0.00     0.009 A 
BRANCH  15  20
ATOM     20  N   UNL A   1      28.447  31.674  23.484  1.00  0.00    -0.326 N 
ATOM     21  C   UNL A   1      28.192  32.479  21.146  1.00  0.00     0.114 C 
ATOM     22  C   UNL A   1      28.492  32.713  22.599  1.00  0.00     0.221 C 
ATOM     23  O   UNL A   1      28.741  33.848  23.008  1.00  0.00    -0.275 OA
ATOM     24  H   UNL A   1      28.303  31.945  24.419  1.00  0.00     0.169 HD
ENDBRANCH  15  20
ENDBRANCH   8  14
ENDBRANCH   4   7
ENDBRANCH   2   3
ENDBRANCH   1   2
BRANCH   1  25
ATOM     25  C   UNL A   1      33.423  30.091  26.760  1.00  0.00     0.118 C 
BRANCH  25  26
ATOM     26  N   UNL A   1      33.590  31.364  27.469  1.00  0.00    -0.352 N 
ATOM     27  C   UNL A   1      34.490  31.834  28.398  1.00  0.00     0.251 C 
ATOM     28  H   UNL A   1      32.905  32.029  27.228  1.00  0.00     0.163 HD
ATOM     29  O   UNL A   1      34.205  32.859  29.015  1.00  0.00    -0.269 OA
BRANCH  27  30
ATOM     30  C   UNL A   1      35.751  31.124  28.729  1.00  0.00     0.039 A 
ATOM     31  C   UNL A   1      36.977  31.759  28.484  1.00  0.00     0.014 A 
ATOM     32  C   UNL A   1      35.764  29.841  29.259  1.00  0.00     0.014 A 
ATOM     33  C   UNL A   1      38.177  31.149  28.869  1.00  0.00     0.010 A 
ATOM     34  C   UNL A   1      36.928  29.317  29.804  1.00  0.00     0.010 A 
ATOM     35  C   UNL A   1      38.157  29.949  29.593  1.00  0.00    -0.014 A 
BRANCH  35  36
ATOM     36  C   UNL A   1      39.392  29.307  30.109  1.00  0.00     0.031 A 
ATOM     37  C   UNL A   1      40.058  29.840  31.354  1.00  0.00     0.074 A 
ATOM     38  C   UNL A   1      39.967  28.307  29.411  1.00  0.00     0.049 A 
ATOM     39  N   UNL A   1      41.195  29.488  31.901  1.00  0.00    -0.248 NA
ATOM     40  C   UNL A   1      39.384  30.949  32.051  1.00  0.00     0.031 C 
ATOM     41  C   UNL A   1      39.463  27.745  28.155  1.00  0.00     0.029 A 
ATOM     42  N   UNL A   1      41.108  27.588  29.657  1.00  0.00    -0.354 N 
ATOM     43  C   UNL A   1      41.382  30.354  32.973  1.00  0.00     0.074 A 
ATOM     44  C   UNL A   1      40.286  31.295  32.955  1.00  0.00     0.031 C 
ATOM     45  C   UNL A   1      40.262  26.738  27.769  1.00  0.00     0.029 A 
ATOM     46  C   UNL A   1      41.361  26.617  28.718  1.00  0.00     0.049 A 
ATOM     47  H   UNL A   1      41.692  27.753  30.433  1.00  0.00     0.167 HD
ATOM     48  C   UNL A   1      42.354  30.348  33.914  1.00  0.00     0.031 A 
ATOM     49  C   UNL A   1      42.367  25.728  28.632  1.00  0.00     0.031 A 
ATOM     50  C   UNL A   1      43.425  29.389  33.951  1.00  0.00     0.049 A 
ATOM     51  C   UNL A   1      43.423  25.723  29.703  1.00  0.00     0.074 A 
ATOM     52  C   UNL A   1      44.427  29.247  34.893  1.00  0.00     0.029 A 
ATOM     53  N   UNL A   1      43.624  28.399  33.000  1.00  0.00    -0.354 N 
ATOM     54  N   UNL A   1      43.546  26.505  30.748  1.00  0.00    -0.248 NA
ATOM     55  C   UNL A   1      44.467  24.696  29.588  1.00  0.00     0.031 C 
ATOM     56  C   UNL A   1      45.264  28.202  34.484  1.00  0.00     0.029 A 
ATOM     57  C   UNL A   1      44.744  27.652  33.324  1.00  0.00     0.049 A 
ATOM     58  H   UNL A   1      43.054  28.250  32.211  1.00  0.00     0.167 HD
ATOM     59  C   UNL A   1      44.664  26.046  31.433  1.00  0.00     0.074 A 
ATOM     60  C   UNL A   1      45.164  24.903  30.696  1.00  0.00     0.031 C 
ATOM     61  C   UNL A   1      45.227  26.524  32.570  1.00  0.00     0.031 A 
BRANCH  48  62
ATOM     62  C   UNL A   1      42.295  31.410  34.980  1.00  0.00    -0.014 A 
ATOM     63  C   UNL A   1      41.609  31.198  36.188  1.00  0.00     0.009 A 
ATOM     64  C   UNL A   1      42.945  32.639  34.782  1.00  0.00     0.009 A 
ATOM     65  C   UNL A   1      41.533  32.208  37.150  1.00  0.00     0.001 A 
ATOM     66  C   UNL A   1      42.899  33.633  35.762  1.00  0.00     0.001 A 
ATOM     67  C   UNL A   1      42.182  33.422  36.938  1.00  0.00     0.000 A 
ENDBRANCH  48  62
BRANCH  49  68
ATOM     68  C   UNL A   1      42.406  24.748  27.514  1.00  0.00    -0.014 A 
ATOM     69  C   UNL A   1      43.125  25.033  26.342  1.00  0.00     0.009 A 
ATOM     70  C   UNL A   1      41.725  23.524  27.608  1.00  0.00     0.009 A 
ATOM     71  C   UNL A   1      43.132  24.131  25.277  1.00  0.00     0.001 A 
ATOM     72  C   UNL A   1      41.761  22.610  26.554  1.00  0.00     0.001 A 
ATOM     73  C   UNL A   1      42.453  22.918  25.385  1.00  0.00     0.000 A 
ENDBRANCH  49  68
BRANCH  61  74
ATOM     74  C   UNL A   1      46.422  25.781  33.100  1.00  0.00    -0.014 A 
ATOM     75  C   UNL A   1      47.729  26.123  32.718  1.00  0.00     0.009 A 
ATOM     76  C   UNL A   1      46.233  24.723  34.003  1.00  0.00     0.009 A 
ATOM     77  C   UNL A   1      48.817  25.386  33.188  1.00  0.00     0.001 A 
ATOM     78  C   UNL A   1      47.325  24.012  34.500  1.00  0.00     0.001 A 
ATOM     79  C   UNL A   1      48.615  24.334  34.079  1.00  0.00     0.000 A 
ENDBRANCH  61  74
ENDBRANCH  35  36
ENDBRANCH  27  30
ENDBRANCH  25  26
ENDBRANCH   1  25
TORSDOF 12
ENDMDL
MODEL 2
REMARK VINA RESULT:     -12.1      5.014      9.118
REMARK SMILES CC(=O)Nc1cccc(-c2cc(F)ccc2C(=O)NCCCNC(=O)c2ccc(-c3c4nc(c(-c5ccccc5)c5ccc([nH]5)c(-c5ccccc5)c5nc(c(-c6ccccc6)c6ccc3[nH]6)C=C5)C=C4)cc2)c1
REMARK SMILES IDX 21 1 20 2 19 3 17 4 18 5 16 7 10 8 11 9 12 10 15 11 13 12
REMARK SMILES IDX 14 13 9 14 5 15 6 16 74 17 7 18 8 19 4 20 1 21 2 22 3 23
REMARK SMILES IDX 22 25 23 26 24 27 25 29 26 30 27 31 73 32 28 33 72 34 29 35
REMARK SMILES IDX 30 36 31 37 66 38 32 39 71 40 65 41 67 42 33 43 70 44 64 45
REMARK SMILES IDX 63 46 34 48 56 49 41 50 55 51 42 52 45 53 54 54 68 55 43 56
REMARK SMILES IDX 44 57 53 59 69 60 46 61 35 62 36 63 40 64 37 65 39 66 38 67
REMARK SMILES IDX 57 68 58 69 62 70 59 71 61 72 60 73 47 74 48 75 52 76 49 77
REMARK SMILES IDX 51 78 50 79
REMARK H PARENT 19 6 4 24 23 28 67 47 45 58
REMARK Flexibility Score: inf
ROOT
ATOM      1  C   UNL A   1      37.631  19.921  24.975  1.00  0.00     0.042 C 
ENDROOT
BRANCH   1   2
ATOM      2  C   UNL A   1      36.382  20.762  25.038  1.00  0.00     0.118 C 
BRANCH   2   3
ATOM      3  N   UNL A   1      36.103  21.693  23.991  1.00  0.00    -0.352 N 
ATOM      4  C   UNL A   1      35.071  22.602  23.928  1.00  0.00     0.251 C 
ATOM      5  O   UNL A   1      35.200  23.488  23.075  1.00  0.00    -0.269 OA
ATOM      6  H   UNL A   1      36.723  21.685  23.226  1.00  0.00     0.163 HD
BRANCH   4   7
ATOM      7  C   UNL A   1      33.767  22.551  24.706  1.00  0.00     0.047 A 
ATOM      8  C   UNL A   1      32.763  21.541  24.828  1.00  0.00    -0.003 A 
ATOM      9  C   UNL A   1      31.657  21.802  25.679  1.00  0.00     0.048 A 
ATOM     10  C   UNL A   1      31.529  22.991  26.384  1.00  0.00     0.123 A 
ATOM     11  C   UNL A   1      33.592  23.751  25.454  1.00  0.00     0.017 A 
ATOM     12  F   UNL A   1      30.460  23.186  27.166  1.00  0.00    -0.207 F 
ATOM     13  C   UNL A   1      32.489  23.972  26.280  1.00  0.00     0.040 A 
BRANCH   8  14
ATOM     14  C   UNL A   1      32.706  20.234  24.134  1.00  0.00    -0.015 A 
ATOM     15  C   UNL A   1      33.497  17.941  23.834  1.00  0.00     0.041 A 
ATOM     16  C   UNL A   1      32.931  17.920  22.553  1.00  0.00     0.026 A 
ATOM     17  C   UNL A   1      33.338  19.085  24.639  1.00  0.00     0.034 A 
ATOM     18  C   UNL A   1      32.199  19.006  22.080  1.00  0.00     0.003 A 
ATOM     19  C   UNL A   1      32.085  20.151  22.867  1.00  0.00     0.009 A 
BRANCH  15  20
ATOM     20  N   UNL A   1      34.386  16.895  24.144  1.00  0.00    -0.326 N 
ATOM     21  C   UNL A   1      32.905  15.319  25.367  1.00  0.00     0.114 C 
ATOM     22  C   UNL A   1      34.266  15.825  24.982  1.00  0.00     0.221 C 
ATOM     23  O   UNL A   1      35.279  15.252  25.387  1.00  0.00    -0.275 OA
ATOM     24  H   UNL A   1      35.248  16.943  23.671  1.00  0.00     0.169 HD
ENDBRANCH  15  20
ENDBRANCH   8  14
ENDBRANCH   4   7
ENDBRANCH   2   3
ENDBRANCH   1   2
BRANCH   1  25
ATOM     25  C   UNL A   1      38.829  20.481  25.725  1.00  0.00     0.118 C 
BRANCH  25  26
ATOM     26  N   UNL A   1      39.968  19.563  25.828  1.00  0.00    -0.352 N 
ATOM     27  C   UNL A   1      41.309  19.722  26.099  1.00  0.00     0.251 C 
ATOM     28  H   UNL A   1      39.719  18.625  25.667  1.00  0.00     0.163 HD
ATOM     29  O   UNL A   1      42.067  18.790  25.842  1.00  0.00    -0.269 OA
BRANCH  27  30
ATOM     30  C   UNL A   1      41.879  20.989  26.624  1.00  0.00     0.039 A 
ATOM     31  C   UNL A   1      42.286  21.981  25.720  1.00  0.00     0.014 A 
ATOM     32  C   UNL A   1      42.042  21.223  27.982  1.00  0.00     0.014 A 
ATOM     33  C   UNL A   1      42.742  23.219  26.189  1.00  0.00     0.010 A 
ATOM     34  C   UNL A   1      42.318  22.501  28.447  1.00  0.00     0.010 A 
ATOM     35  C   UNL A   1      42.699  23.512  27.560  1.00  0.00    -0.014 A 
BRANCH  35  36
ATOM     36  C   UNL A   1      43.081  24.839  28.104  1.00  0.00     0.031 A 
ATOM     37  C   UNL A   1      42.021  25.882  28.368  1.00  0.00     0.074 A 
ATOM     38  C   UNL A   1      44.384  25.142  28.274  1.00  0.00     0.049 A 
ATOM     39  N   UNL A   1      42.162  27.130  28.739  1.00  0.00    -0.248 NA
ATOM     40  C   UNL A   1      40.621  25.486  28.137  1.00  0.00     0.031 C 
ATOM     41  C   UNL A   1      45.510  24.249  27.990  1.00  0.00     0.029 A 
ATOM     42  N   UNL A   1      44.981  26.292  28.722  1.00  0.00    -0.354 N 
ATOM     43  C   UNL A   1      40.879  27.667  28.747  1.00  0.00     0.074 A 
ATOM     44  C   UNL A   1      39.984  26.638  28.271  1.00  0.00     0.031 C 
ATOM     45  C   UNL A   1      46.657  24.866  28.318  1.00  0.00     0.029 A 
ATOM     46  C   UNL A   1      46.352  26.212  28.784  1.00  0.00     0.049 A 
ATOM     47  H   UNL A   1      44.476  27.098  28.975  1.00  0.00     0.167 HD
ATOM     48  C   UNL A   1      40.471  28.893  29.150  1.00  0.00     0.031 A 
ATOM     49  C   UNL A   1      47.262  27.124  29.175  1.00  0.00     0.031 A 
ATOM     50  C   UNL A   1      41.359  29.905  29.656  1.00  0.00     0.049 A 
ATOM     51  C   UNL A   1      46.784  28.471  29.642  1.00  0.00     0.074 A 
ATOM     52  C   UNL A   1      41.048  31.157  30.153  1.00  0.00     0.029 A 
ATOM     53  N   UNL A   1      42.736  29.770  29.735  1.00  0.00    -0.354 N 
ATOM     54  N   UNL A   1      45.560  28.938  29.708  1.00  0.00    -0.248 NA
ATOM     55  C   UNL A   1      47.815  29.407  30.107  1.00  0.00     0.031 C 
ATOM     56  C   UNL A   1      42.245  31.801  30.486  1.00  0.00     0.029 A 
ATOM     57  C   UNL A   1      43.294  30.924  30.259  1.00  0.00     0.049 A 
ATOM     58  H   UNL A   1      43.244  28.972  29.460  1.00  0.00     0.167 HD
ATOM     59  C   UNL A   1      45.671  30.212  30.250  1.00  0.00     0.074 A 
ATOM     60  C   UNL A   1      47.079  30.429  30.517  1.00  0.00     0.031 C 
ATOM     61  C   UNL A   1      44.698  31.121  30.507  1.00  0.00     0.031 A 
BRANCH  48  62
ATOM     62  C   UNL A   1      38.999  29.198  29.060  1.00  0.00    -0.014 A 
ATOM     63  C   UNL A   1      38.149  29.033  30.167  1.00  0.00     0.009 A 
ATOM     64  C   UNL A   1      38.452  29.669  27.856  1.00  0.00     0.009 A 
ATOM     65  C   UNL A   1      36.779  29.286  30.057  1.00  0.00     0.001 A 
ATOM     66  C   UNL A   1      37.089  29.956  27.759  1.00  0.00     0.001 A 
ATOM     67  C   UNL A   1      36.252  29.752  28.854  1.00  0.00     0.000 A 
ENDBRANCH  48  62
BRANCH  49  68
ATOM     68  C   UNL A   1      48.709  26.784  29.174  1.00  0.00    -0.014 A 
ATOM     69  C   UNL A   1      49.507  27.069  28.054  1.00  0.00     0.009 A 
ATOM     70  C   UNL A   1      49.303  26.171  30.288  1.00  0.00     0.009 A 
ATOM     71  C   UNL A   1      50.858  26.716  28.036  1.00  0.00     0.001 A 
ATOM     72  C   UNL A   1      50.662  25.849  30.280  1.00  0.00     0.001 A 
ATOM     73  C   UNL A   1      51.436  26.111  29.151  1.00  0.00     0.000 A 
ENDBRANCH  49  68
BRANCH  61  74
ATOM     74  C   UNL A   1      45.128  32.414  31.143  1.00  0.00    -0.014 A 
ATOM     75  C   UNL A   1      45.193  32.561  32.538  1.00  0.00     0.009 A 
ATOM     76  C   UNL A   1      45.481  33.501  30.329  1.00  0.00     0.009 A 
ATOM     77  C   UNL A   1      45.549  33.787  33.102  1.00  0.00     0.001 A 
ATOM     78  C   UNL A   1      45.873  34.714  30.895  1.00  0.00     0.001 A 
ATOM     79  C   UNL A   1      45.891  34.860  32.282  1.00  0.00     0.000 A 
ENDBRANCH  61  74
ENDBRANCH  35  36
ENDBRANCH  27  30
ENDBRANCH  25  26
ENDBRANCH   1  25
TORSDOF 12
ENDMDL
MODEL 3
REMARK VINA RESULT:     -12.1      1.922      6.562
REMARK SMILES CC(=O)Nc1cccc(-c2cc(F)ccc2C(=O)NCCCNC(=O)c2ccc(-c3c4nc(c(-c5ccccc5)c5ccc([nH]5)c(-c5ccccc5)c5nc(c(-c6ccccc6)c6ccc3[nH]6)C=C5)C=C4)cc2)c1
REMARK SMILES IDX 21 1 20 2 19 3 17 4 18 5 16 7 10 8 11 9 12 10 15 11 13 12
REMARK SMILES IDX 14 13 9 14 5 15 6 16 74 17 7 18 8 19 4 20 1 21 2 22 3 23
REMARK SMILES IDX 22 25 23 26 24 27 25 29 26 30 27 31 73 32 28 33 72 34 29 35
REMARK SMILES IDX 30 36 31 37 66 38 32 39 71 40 65 41 67 42 33 43 70 44 64 45
REMARK SMILES IDX 63 46 34 48 56 49 41 50 55 51 42 52 45 53 54 54 68 55 43 56
REMARK SMILES IDX 44 57 53 59 69 60 46 61 35 62 36 63 40 64 37 65 39 66 38 67
REMARK SMILES IDX 57 68 58 69 62 70 59 71 61 72 60 73 47 74 48 75 52 76 49 77
REMARK SMILES IDX 51 78 50 79
REMARK H PARENT 19 6 4 24 23 28 67 47 45 58
REMARK Flexibility Score: inf
ROOT
ATOM      1  C   UNL A   1      31.527  31.508  26.441  1.00  0.00     0.042 C 
ENDROOT
BRANCH   1   2
ATOM      2  C   UNL A   1      31.739  30.180  25.761  1.00  0.00     0.118 C 
BRANCH   2   3
ATOM      3  N   UNL A   1      31.371  28.975  26.434  1.00  0.00    -0.352 N 
ATOM      4  C   UNL A   1      31.542  27.681  25.994  1.00  0.00     0.251 C 
ATOM      5  O   UNL A   1      31.414  26.809  26.861  1.00  0.00    -0.269 OA
ATOM      6  H   UNL A   1      30.946  29.081  27.316  1.00  0.00     0.163 HD
BRANCH   4   7
ATOM      7  C   UNL A   1      31.752  27.230  24.558  1.00  0.00     0.047 A 
ATOM      8  C   UNL A   1      31.004  27.463  23.363  1.00  0.00    -0.003 A 
ATOM      9  C   UNL A   1      31.499  26.912  22.151  1.00  0.00     0.048 A 
ATOM     10  C   UNL A   1      32.670  26.168  22.100  1.00  0.00     0.123 A 
ATOM     11  C   UNL A   1      32.948  26.465  24.451  1.00  0.00     0.017 A 
ATOM     12  F   UNL A   1      33.084  25.665  20.930  1.00  0.00    -0.207 F 
ATOM     13  C   UNL A   1      33.403  25.938  23.242  1.00  0.00     0.040 A 
BRANCH   8  14
ATOM     14  C   UNL A   1      29.724  28.195  23.224  1.00  0.00    -0.015 A 
ATOM     15  C   UNL A   1      28.456  30.283  23.175  1.00  0.00     0.041 A 
ATOM     16  C   UNL A   1      27.277  29.566  23.417  1.00  0.00     0.026 A 
ATOM     17  C   UNL A   1      29.670  29.586  23.031  1.00  0.00     0.034 A 
ATOM     18  C   UNL A   1      27.294  28.175  23.493  1.00  0.00     0.003 A 
ATOM     19  C   UNL A   1      28.507  27.497  23.394  1.00  0.00     0.009 A 
BRANCH  15  20
ATOM     20  N   UNL A   1      28.379  31.681  23.321  1.00  0.00    -0.326 N 
ATOM     21  C   UNL A   1      28.025  32.413  20.972  1.00  0.00     0.114 C 
ATOM     22  C   UNL A   1      28.404  32.688  22.400  1.00  0.00     0.221 C 
ATOM     23  O   UNL A   1      28.700  33.830  22.755  1.00  0.00    -0.275 OA
ATOM     24  H   UNL A   1      28.289  31.987  24.252  1.00  0.00     0.169 HD
ENDBRANCH  15  20
ENDBRANCH   8  14
ENDBRANCH   4   7
ENDBRANCH   2   3
ENDBRANCH   1   2
BRANCH   1  25
ATOM     25  C   UNL A   1      32.789  32.188  26.948  1.00  0.00     0.118 C 
BRANCH  25  26
ATOM     26  N   UNL A   1      32.574  33.514  27.537  1.00  0.00    -0.352 N 
ATOM     27  C   UNL A   1      33.166  34.217  28.561  1.00  0.00     0.251 C 
ATOM     28  H   UNL A   1      31.843  34.010  27.104  1.00  0.00     0.163 HD
ATOM     29  O   UNL A   1      32.580  35.204  29.003  1.00  0.00    -0.269 OA
BRANCH  27  30
ATOM     30  C   UNL A   1      34.443  33.797  29.193  1.00  0.00     0.039 A 
ATOM     31  C   UNL A   1      34.408  32.919  30.286  1.00  0.00     0.014 A 
ATOM     32  C   UNL A   1      35.676  34.257  28.752  1.00  0.00     0.014 A 
ATOM     33  C   UNL A   1      35.599  32.437  30.842  1.00  0.00     0.010 A 
ATOM     34  C   UNL A   1      36.847  33.646  29.177  1.00  0.00     0.010 A 
ATOM     35  C   UNL A   1      36.831  32.747  30.247  1.00  0.00    -0.014 A 
BRANCH  35  36
ATOM     36  C   UNL A   1      38.116  32.189  30.737  1.00  0.00     0.031 A 
ATOM     37  C   UNL A   1      38.691  30.945  30.102  1.00  0.00     0.074 A 
ATOM     38  C   UNL A   1      38.719  32.741  31.808  1.00  0.00     0.049 A 
ATOM     39  N   UNL A   1      39.740  30.245  30.453  1.00  0.00    -0.248 NA
ATOM     40  C   UNL A   1      37.964  30.385  28.950  1.00  0.00     0.031 C 
ATOM     41  C   UNL A   1      38.232  33.903  32.556  1.00  0.00     0.029 A 
ATOM     42  N   UNL A   1      39.875  32.393  32.459  1.00  0.00    -0.354 N 
ATOM     43  C   UNL A   1      39.770  29.153  29.593  1.00  0.00     0.074 A 
ATOM     44  C   UNL A   1      38.596  29.239  28.756  1.00  0.00     0.031 C 
ATOM     45  C   UNL A   1      39.106  34.200  33.530  1.00  0.00     0.029 A 
ATOM     46  C   UNL A   1      40.187  33.223  33.509  1.00  0.00     0.049 A 
ATOM     47  H   UNL A   1      40.429  31.622  32.198  1.00  0.00     0.167 HD
ATOM     48  C   UNL A   1      40.708  28.184  29.479  1.00  0.00     0.031 A 
ATOM     49  C   UNL A   1      41.229  33.198  34.361  1.00  0.00     0.031 A 
ATOM     50  C   UNL A   1      41.894  28.119  30.290  1.00  0.00     0.049 A 
ATOM     51  C   UNL A   1      42.271  32.127  34.199  1.00  0.00     0.074 A 
ATOM     52  C   UNL A   1      42.943  27.221  30.217  1.00  0.00     0.029 A 
ATOM     53  N   UNL A   1      42.188  29.000  31.319  1.00  0.00    -0.354 N 
ATOM     54  N   UNL A   1      42.319  31.141  33.335  1.00  0.00    -0.248 NA
ATOM     55  C   UNL A   1      43.414  32.180  35.120  1.00  0.00     0.031 C 
ATOM     56  C   UNL A   1      43.849  27.528  31.239  1.00  0.00     0.029 A 
ATOM     57  C   UNL A   1      43.397  28.657  31.902  1.00  0.00     0.049 A 
ATOM     58  H   UNL A   1      41.623  29.758  31.595  1.00  0.00     0.167 HD
ATOM     59  C   UNL A   1      43.511  30.475  33.588  1.00  0.00     0.074 A 
ATOM     60  C   UNL A   1      44.164  31.186  34.669  1.00  0.00     0.031 C 
ATOM     61  C   UNL A   1      44.022  29.374  32.983  1.00  0.00     0.031 A 
BRANCH  48  62
ATOM     62  C   UNL A   1      40.484  27.122  28.435  1.00  0.00    -0.014 A 
ATOM     63  C   UNL A   1      41.030  27.236  27.145  1.00  0.00     0.009 A 
ATOM     64  C   UNL A   1      39.725  25.982  28.746  1.00  0.00     0.009 A 
ATOM     65  C   UNL A   1      40.782  26.259  26.178  1.00  0.00     0.001 A 
ATOM     66  C   UNL A   1      39.509  24.989  27.788  1.00  0.00     0.001 A 
ATOM     67  C   UNL A   1      40.026  25.134  26.502  1.00  0.00     0.000 A 
ENDBRANCH  48  62
BRANCH  49  68
ATOM     68  C   UNL A   1      41.357  34.237  35.417  1.00  0.00    -0.014 A 
ATOM     69  C   UNL A   1      42.040  35.436  35.157  1.00  0.00     0.009 A 
ATOM     70  C   UNL A   1      40.802  34.038  36.691  1.00  0.00     0.009 A 
ATOM     71  C   UNL A   1      42.193  36.397  36.159  1.00  0.00     0.001 A 
ATOM     72  C   UNL A   1      40.929  35.014  37.680  1.00  0.00     0.001 A 
ATOM     73  C   UNL A   1      41.634  36.187  37.418  1.00  0.00     0.000 A 
ENDBRANCH  49  68
BRANCH  61  74
ATOM     74  C   UNL A   1      45.370  28.904  33.455  1.00  0.00    -0.014 A 
ATOM     75  C   UNL A   1      45.500  27.965  34.489  1.00  0.00     0.009 A 
ATOM     76  C   UNL A   1      46.530  29.409  32.845  1.00  0.00     0.009 A 
ATOM     77  C   UNL A   1      46.765  27.583  34.940  1.00  0.00     0.001 A 
ATOM     78  C   UNL A   1      47.792  28.996  33.272  1.00  0.00     0.001 A 
ATOM     79  C   UNL A   1      47.908  28.096  34.330  1.00  0.00     0.000 A 
ENDBRANCH  61  74
ENDBRANCH  35  36
ENDBRANCH  27  30
ENDBRANCH  25  26
ENDBRANCH   1  25
TORSDOF 12
ENDMDL
