MODEL 1
REMARK VINA RESULT:     -12.6      0.000      0.000
REMARK SMILES O=C(NCCCNC(=O)c1ccc(F)c(S(=O)(=O)N2CCOc3ccccc32)c1)c1ccc(-c2c3nc(c(-c4ccccc4)c4ccc([nH]4)c(-c4ccccc4)c4nc(c(-c5ccccc5)c5ccc2[nH]5)C=C4)C=C3)cc1
REMARK SMILES IDX 5 1 4 2 3 3 1 4 2 5 30 7 31 8 77 9 32 10 76 11 33 12 34 13
REMARK SMILES IDX 35 14 70 15 36 16 75 17 69 18 71 19 37 20 74 21 68 22 67 23
REMARK SMILES IDX 38 25 60 26 45 27 59 28 46 29 49 30 58 31 72 32 47 33 48 34
REMARK SMILES IDX 57 36 73 37 50 38 39 39 40 40 44 41 41 42 43 43 42 44 61 45
REMARK SMILES IDX 62 46 66 47 63 48 65 49 64 50 51 51 52 52 56 53 53 54 55 55
REMARK SMILES IDX 54 56 6 57 7 58 8 59 9 61 10 62 11 63 29 64 12 65 15 66
REMARK SMILES IDX 13 67 14 68 16 69 17 70 18 71 19 72 20 73 28 74 21 75 23 76
REMARK SMILES IDX 27 77 22 78 24 79 26 80 25 81
REMARK H PARENT 3 6 71 24 49 35 7 60
REMARK Flexibility Score: inf
ROOT
ATOM      1  C   UNL A   1      37.122  20.134  24.701  1.00  0.00     0.042 C 
ENDROOT
BRANCH   1   2
ATOM      2  C   UNL A   1      38.305  20.574  25.548  1.00  0.00     0.118 C 
BRANCH   2   3
ATOM      3  N   UNL A   1      39.385  19.594  25.578  1.00  0.00    -0.352 N 
ATOM      4  O   UNL A   1      41.477  18.784  25.730  1.00  0.00    -0.269 OA
ATOM      5  C   UNL A   1      40.705  19.714  25.943  1.00  0.00     0.251 C 
ATOM      6  H   UNL A   1      39.124  18.691  25.286  1.00  0.00     0.163 HD
BRANCH   5   7
ATOM      7  C   UNL A   1      41.213  20.962  26.556  1.00  0.00     0.039 A 
ATOM      8  C   UNL A   1      41.169  21.160  27.934  1.00  0.00     0.014 A 
ATOM      9  C   UNL A   1      41.762  21.953  25.734  1.00  0.00     0.014 A 
ATOM     10  C   UNL A   1      41.470  22.409  28.465  1.00  0.00     0.010 A 
ATOM     11  C   UNL A   1      42.177  23.170  26.285  1.00  0.00     0.010 A 
ATOM     12  C   UNL A   1      41.983  23.429  27.649  1.00  0.00    -0.014 A 
BRANCH  12  13
ATOM     13  C   UNL A   1      42.326  24.740  28.264  1.00  0.00     0.031 A 
ATOM     14  C   UNL A   1      43.747  25.087  28.620  1.00  0.00     0.074 A 
ATOM     15  C   UNL A   1      41.348  25.650  28.440  1.00  0.00     0.049 A 
ATOM     16  N   UNL A   1      44.225  26.215  29.084  1.00  0.00    -0.248 NA
ATOM     17  C   UNL A   1      44.761  24.036  28.445  1.00  0.00     0.031 C 
ATOM     18  C   UNL A   1      39.930  25.437  28.141  1.00  0.00     0.029 A 
ATOM     19  N   UNL A   1      41.403  26.951  28.876  1.00  0.00    -0.354 N 
ATOM     20  C   UNL A   1      45.584  26.002  29.283  1.00  0.00     0.074 A 
ATOM     21  C   UNL A   1      45.853  24.630  28.910  1.00  0.00     0.031 C 
ATOM     22  C   UNL A   1      39.263  26.585  28.328  1.00  0.00     0.029 A 
ATOM     23  C   UNL A   1      40.190  27.595  28.823  1.00  0.00     0.049 A 
ATOM     24  H   UNL A   1      42.229  27.380  29.195  1.00  0.00     0.167 HD
ATOM     25  C   UNL A   1      46.525  26.869  29.729  1.00  0.00     0.031 A 
ATOM     26  C   UNL A   1      39.855  28.859  29.138  1.00  0.00     0.031 A 
ATOM     27  C   UNL A   1      46.265  28.240  30.085  1.00  0.00     0.049 A 
ATOM     28  C   UNL A   1      40.916  29.795  29.637  1.00  0.00     0.074 A 
ATOM     29  C   UNL A   1      47.162  29.206  30.508  1.00  0.00     0.029 A 
ATOM     30  N   UNL A   1      45.015  28.839  30.059  1.00  0.00    -0.354 N 
ATOM     31  N   UNL A   1      42.201  29.583  29.783  1.00  0.00    -0.248 NA
ATOM     32  C   UNL A   1      40.477  31.144  30.014  1.00  0.00     0.031 C 
ATOM     33  C   UNL A   1      46.448  30.377  30.785  1.00  0.00     0.029 A 
ATOM     34  C   UNL A   1      45.114  30.154  30.482  1.00  0.00     0.049 A 
ATOM     35  H   UNL A   1      44.181  28.396  29.782  1.00  0.00     0.167 HD
ATOM     36  C   UNL A   1      42.728  30.779  30.250  1.00  0.00     0.074 A 
ATOM     37  C   UNL A   1      41.627  31.717  30.341  1.00  0.00     0.031 C 
ATOM     38  C   UNL A   1      44.010  31.074  30.573  1.00  0.00     0.031 A 
BRANCH  25  39
ATOM     39  C   UNL A   1      47.929  26.351  29.889  1.00  0.00    -0.014 A 
ATOM     40  C   UNL A   1      48.384  25.830  31.109  1.00  0.00     0.009 A 
ATOM     41  C   UNL A   1      48.796  26.347  28.783  1.00  0.00     0.009 A 
ATOM     42  C   UNL A   1      49.690  25.346  31.228  1.00  0.00     0.001 A 
ATOM     43  C   UNL A   1      50.091  25.838  28.898  1.00  0.00     0.001 A 
ATOM     44  C   UNL A   1      50.539  25.346  30.122  1.00  0.00     0.000 A 
ENDBRANCH  25  39
BRANCH  26  45
ATOM     45  C   UNL A   1      38.449  29.312  28.986  1.00  0.00    -0.014 A 
ATOM     46  C   UNL A   1      37.982  29.787  27.752  1.00  0.00     0.009 A 
ATOM     47  C   UNL A   1      37.564  29.262  30.075  1.00  0.00     0.009 A 
ATOM     48  C   UNL A   1      36.662  30.222  27.615  1.00  0.00     0.001 A 
ATOM     49  C   UNL A   1      36.237  29.670  29.927  1.00  0.00     0.001 A 
ATOM     50  C   UNL A   1      35.791  30.159  28.701  1.00  0.00     0.000 A 
ENDBRANCH  26  45
BRANCH  38  51
ATOM     51  C   UNL A   1      44.291  32.479  31.023  1.00  0.00    -0.014 A 
ATOM     52  C   UNL A   1      44.217  32.839  32.378  1.00  0.00     0.009 A 
ATOM     53  C   UNL A   1      44.650  33.452  30.077  1.00  0.00     0.009 A 
ATOM     54  C   UNL A   1      44.457  34.157  32.770  1.00  0.00     0.001 A 
ATOM     55  C   UNL A   1      44.918  34.762  30.476  1.00  0.00     0.001 A 
ATOM     56  C   UNL A   1      44.811  35.116  31.820  1.00  0.00     0.000 A 
ENDBRANCH  38  51
ENDBRANCH  12  13
ENDBRANCH   5   7
ENDBRANCH   2   3
ENDBRANCH   1   2
BRANCH   1  57
ATOM     57  C   UNL A   1      35.801  20.768  25.104  1.00  0.00     0.118 C 
BRANCH  57  58
ATOM     58  N   UNL A   1      34.766  19.780  25.386  1.00  0.00    -0.352 N 
ATOM     59  C   UNL A   1      33.399  19.867  25.315  1.00  0.00     0.251 C 
ATOM     60  H   UNL A   1      35.106  18.903  25.673  1.00  0.00     0.163 HD
ATOM     61  O   UNL A   1      32.706  18.967  25.780  1.00  0.00    -0.269 OA
BRANCH  59  62
ATOM     62  C   UNL A   1      32.745  21.042  24.698  1.00  0.00     0.041 A 
ATOM     63  C   UNL A   1      32.405  21.046  23.342  1.00  0.00     0.017 A 
ATOM     64  C   UNL A   1      32.428  22.145  25.501  1.00  0.00     0.039 A 
ATOM     65  C   UNL A   1      31.904  22.204  22.757  1.00  0.00     0.041 A 
ATOM     66  C   UNL A   1      31.864  23.288  24.915  1.00  0.00     0.124 A 
ATOM     67  C   UNL A   1      31.664  23.330  23.541  1.00  0.00     0.143 A 
ATOM     68  F   UNL A   1      31.245  24.423  22.898  1.00  0.00    -0.205 F 
BRANCH  66  69
ATOM     69  S   UNL A   1      31.432  24.630  25.993  1.00  0.00     0.267 S 
ATOM     70  O   UNL A   1      30.242  25.227  25.411  1.00  0.00    -0.201 OA
ATOM     71  O   UNL A   1      31.389  24.049  27.315  1.00  0.00    -0.201 OA
BRANCH  69  72
ATOM     72  N   UNL A   1      32.682  25.755  25.846  1.00  0.00    -0.259 N 
ATOM     73  C   UNL A   1      33.790  25.430  24.909  1.00  0.00     0.177 C 
ATOM     74  C   UNL A   1      32.500  27.163  26.107  1.00  0.00     0.094 A 
ATOM     75  C   UNL A   1      33.788  26.442  23.776  1.00  0.00     0.252 C 
ATOM     76  C   UNL A   1      33.218  28.098  25.335  1.00  0.00     0.143 A 
ATOM     77  C   UNL A   1      31.760  27.633  27.196  1.00  0.00     0.031 A 
ATOM     78  O   UNL A   1      34.025  27.766  24.268  1.00  0.00    -0.489 OA
ATOM     79  C   UNL A   1      33.182  29.460  25.644  1.00  0.00     0.049 A 
ATOM     80  C   UNL A   1      31.697  29.001  27.482  1.00  0.00     0.002 A 
ATOM     81  C   UNL A   1      32.411  29.913  26.710  1.00  0.00     0.004 A 
ENDBRANCH  69  72
ENDBRANCH  66  69
ENDBRANCH  59  62
ENDBRANCH  57  58
ENDBRANCH   1  57
TORSDOF 12
ENDMDL
MODEL 2
REMARK VINA RESULT:     -12.4      0.390      5.810
REMARK SMILES O=C(NCCCNC(=O)c1ccc(F)c(S(=O)(=O)N2CCOc3ccccc32)c1)c1ccc(-c2c3nc(c(-c4ccccc4)c4ccc([nH]4)c(-c4ccccc4)c4nc(c(-c5ccccc5)c5ccc2[nH]5)C=C4)C=C3)cc1
REMARK SMILES IDX 5 1 4 2 3 3 1 4 2 5 30 7 31 8 77 9 32 10 76 11 33 12 34 13
REMARK SMILES IDX 35 14 70 15 36 16 75 17 69 18 71 19 37 20 74 21 68 22 67 23
REMARK SMILES IDX 38 25 60 26 45 27 59 28 46 29 49 30 58 31 72 32 47 33 48 34
REMARK SMILES IDX 57 36 73 37 50 38 39 39 40 40 44 41 41 42 43 43 42 44 61 45
REMARK SMILES IDX 62 46 66 47 63 48 65 49 64 50 51 51 52 52 56 53 53 54 55 55
REMARK SMILES IDX 54 56 6 57 7 58 8 59 9 61 10 62 11 63 29 64 12 65 15 66
REMARK SMILES IDX 13 67 14 68 16 69 17 70 18 71 19 72 20 73 28 74 21 75 23 76
REMARK SMILES IDX 27 77 22 78 24 79 26 80 25 81
REMARK H PARENT 3 6 71 24 49 35 7 60
REMARK Flexibility Score: inf
ROOT
ATOM      1  C   UNL A   1      37.223  20.180  24.683  1.00  0.00     0.042 C 
ENDROOT
BRANCH   1   2
ATOM      2  C   UNL A   1      38.383  20.618  25.562  1.00  0.00     0.118 C 
BRANCH   2   3
ATOM      3  N   UNL A   1      39.444  19.621  25.649  1.00  0.00    -0.352 N 
ATOM      4  O   UNL A   1      41.520  18.782  25.857  1.00  0.00    -0.269 OA
ATOM      5  C   UNL A   1      40.764  19.736  26.016  1.00  0.00     0.251 C 
ATOM      6  H   UNL A   1      39.168  18.709  25.403  1.00  0.00     0.163 HD
BRANCH   5   7
ATOM      7  C   UNL A   1      41.292  21.005  26.566  1.00  0.00     0.039 A 
ATOM      8  C   UNL A   1      41.235  21.279  27.931  1.00  0.00     0.014 A 
ATOM      9  C   UNL A   1      41.874  21.936  25.699  1.00  0.00     0.014 A 
ATOM     10  C   UNL A   1      41.556  22.550  28.396  1.00  0.00     0.010 A 
ATOM     11  C   UNL A   1      42.309  23.173  26.188  1.00  0.00     0.010 A 
ATOM     12  C   UNL A   1      42.103  23.512  27.533  1.00  0.00    -0.014 A 
BRANCH  12  13
ATOM     13  C   UNL A   1      42.467  24.847  28.079  1.00  0.00     0.031 A 
ATOM     14  C   UNL A   1      41.421  25.902  28.325  1.00  0.00     0.074 A 
ATOM     15  C   UNL A   1      43.750  25.083  28.416  1.00  0.00     0.049 A 
ATOM     16  N   UNL A   1      41.560  27.084  28.872  1.00  0.00    -0.248 NA
ATOM     17  C   UNL A   1      40.047  25.600  27.896  1.00  0.00     0.031 C 
ATOM     18  C   UNL A   1      44.861  24.147  28.224  1.00  0.00     0.029 A 
ATOM     19  N   UNL A   1      44.332  26.165  29.028  1.00  0.00    -0.354 N 
ATOM     20  C   UNL A   1      40.304  27.676  28.827  1.00  0.00     0.074 A 
ATOM     21  C   UNL A   1      39.418  26.734  28.179  1.00  0.00     0.031 C 
ATOM     22  C   UNL A   1      45.970  24.660  28.774  1.00  0.00     0.029 A 
ATOM     23  C   UNL A   1      45.667  25.987  29.298  1.00  0.00     0.049 A 
ATOM     24  H   UNL A   1      43.841  26.988  29.251  1.00  0.00     0.167 HD
ATOM     25  C   UNL A   1      39.919  28.892  29.287  1.00  0.00     0.031 A 
ATOM     26  C   UNL A   1      46.556  26.798  29.899  1.00  0.00     0.031 A 
ATOM     27  C   UNL A   1      40.794  29.825  29.948  1.00  0.00     0.049 A 
ATOM     28  C   UNL A   1      46.104  28.140  30.392  1.00  0.00     0.074 A 
ATOM     29  C   UNL A   1      40.485  31.064  30.485  1.00  0.00     0.029 A 
ATOM     30  N   UNL A   1      42.149  29.624  30.161  1.00  0.00    -0.354 N 
ATOM     31  N   UNL A   1      44.904  28.666  30.371  1.00  0.00    -0.248 NA
ATOM     32  C   UNL A   1      47.132  29.001  30.991  1.00  0.00     0.031 C 
ATOM     33  C   UNL A   1      41.663  31.633  30.981  1.00  0.00     0.029 A 
ATOM     34  C   UNL A   1      42.694  30.725  30.800  1.00  0.00     0.049 A 
ATOM     35  H   UNL A   1      42.649  28.818  29.897  1.00  0.00     0.167 HD
ATOM     36  C   UNL A   1      45.028  29.911  30.973  1.00  0.00     0.074 A 
ATOM     37  C   UNL A   1      46.416  30.051  31.366  1.00  0.00     0.031 C 
ATOM     38  C   UNL A   1      44.077  30.853  31.181  1.00  0.00     0.031 A 
BRANCH  25  39
ATOM     39  C   UNL A   1      38.488  29.299  29.065  1.00  0.00    -0.014 A 
ATOM     40  C   UNL A   1      37.534  29.214  30.091  1.00  0.00     0.009 A 
ATOM     41  C   UNL A   1      38.099  29.815  27.818  1.00  0.00     0.009 A 
ATOM     42  C   UNL A   1      36.212  29.608  29.862  1.00  0.00     0.001 A 
ATOM     43  C   UNL A   1      36.785  30.233  27.601  1.00  0.00     0.001 A 
ATOM     44  C   UNL A   1      35.841  30.122  28.619  1.00  0.00     0.000 A 
ENDBRANCH  25  39
BRANCH  26  45
ATOM     45  C   UNL A   1      47.963  26.357  30.070  1.00  0.00    -0.014 A 
ATOM     46  C   UNL A   1      48.900  26.548  29.044  1.00  0.00     0.009 A 
ATOM     47  C   UNL A   1      48.379  25.752  31.267  1.00  0.00     0.009 A 
ATOM     48  C   UNL A   1      50.221  26.123  29.205  1.00  0.00     0.001 A 
ATOM     49  C   UNL A   1      49.706  25.355  31.436  1.00  0.00     0.001 A 
ATOM     50  C   UNL A   1      50.623  25.532  30.402  1.00  0.00     0.000 A 
ENDBRANCH  26  45
BRANCH  38  51
ATOM     51  C   UNL A   1      44.504  32.103  31.896  1.00  0.00    -0.014 A 
ATOM     52  C   UNL A   1      44.459  32.193  33.296  1.00  0.00     0.009 A 
ATOM     53  C   UNL A   1      44.971  33.200  31.156  1.00  0.00     0.009 A 
ATOM     54  C   UNL A   1      44.836  33.374  33.938  1.00  0.00     0.001 A 
ATOM     55  C   UNL A   1      45.375  34.369  31.803  1.00  0.00     0.001 A 
ATOM     56  C   UNL A   1      45.297  34.459  33.192  1.00  0.00     0.000 A 
ENDBRANCH  38  51
ENDBRANCH  12  13
ENDBRANCH   5   7
ENDBRANCH   2   3
ENDBRANCH   1   2
BRANCH   1  57
ATOM     57  C   UNL A   1      35.883  20.779  25.079  1.00  0.00     0.118 C 
BRANCH  57  58
ATOM     58  N   UNL A   1      34.873  19.764  25.354  1.00  0.00    -0.352 N 
ATOM     59  C   UNL A   1      33.504  19.820  25.287  1.00  0.00     0.251 C 
ATOM     60  H   UNL A   1      35.234  18.893  25.634  1.00  0.00     0.163 HD
ATOM     61  O   UNL A   1      32.834  18.899  25.745  1.00  0.00    -0.269 OA
BRANCH  59  62
ATOM     62  C   UNL A   1      32.822  20.983  24.680  1.00  0.00     0.041 A 
ATOM     63  C   UNL A   1      32.454  20.980  23.331  1.00  0.00     0.017 A 
ATOM     64  C   UNL A   1      32.504  22.083  25.487  1.00  0.00     0.039 A 
ATOM     65  C   UNL A   1      31.925  22.129  22.755  1.00  0.00     0.041 A 
ATOM     66  C   UNL A   1      31.912  23.217  24.910  1.00  0.00     0.124 A 
ATOM     67  C   UNL A   1      31.685  23.253  23.540  1.00  0.00     0.143 A 
ATOM     68  F   UNL A   1      31.237  24.338  22.904  1.00  0.00    -0.205 F 
BRANCH  66  69
ATOM     69  S   UNL A   1      31.483  24.555  25.994  1.00  0.00     0.267 S 
ATOM     70  O   UNL A   1      30.268  25.129  25.440  1.00  0.00    -0.201 OA
ATOM     71  O   UNL A   1      31.481  23.978  27.319  1.00  0.00    -0.201 OA
BRANCH  69  72
ATOM     72  N   UNL A   1      32.709  25.701  25.814  1.00  0.00    -0.259 N 
ATOM     73  C   UNL A   1      33.798  25.394  24.849  1.00  0.00     0.177 C 
ATOM     74  C   UNL A   1      32.509  27.106  26.078  1.00  0.00     0.094 A 
ATOM     75  C   UNL A   1      33.749  26.403  23.715  1.00  0.00     0.252 C 
ATOM     76  C   UNL A   1      33.191  28.052  25.287  1.00  0.00     0.143 A 
ATOM     77  C   UNL A   1      31.789  27.566  27.185  1.00  0.00     0.031 A 
ATOM     78  O   UNL A   1      33.976  27.732  24.200  1.00  0.00    -0.489 OA
ATOM     79  C   UNL A   1      33.139  29.414  25.595  1.00  0.00     0.049 A 
ATOM     80  C   UNL A   1      31.710  28.932  27.471  1.00  0.00     0.002 A 
ATOM     81  C   UNL A   1      32.388  29.855  26.680  1.00  0.00     0.004 A 
ENDBRANCH  69  72
ENDBRANCH  66  69
ENDBRANCH  59  62
ENDBRANCH  57  58
ENDBRANCH   1  57
TORSDOF 12
ENDMDL
MODEL 3
REMARK VINA RESULT:     -12.4      2.990      8.581
REMARK SMILES O=C(NCCCNC(=O)c1ccc(F)c(S(=O)(=O)N2CCOc3ccccc32)c1)c1ccc(-c2c3nc(c(-c4ccccc4)c4ccc([nH]4)c(-c4ccccc4)c4nc(c(-c5ccccc5)c5ccc2[nH]5)C=C4)C=C3)cc1
REMARK SMILES IDX 5 1 4 2 3 3 1 4 2 5 30 7 31 8 77 9 32 10 76 11 33 12 34 13
REMARK SMILES IDX 35 14 70 15 36 16 75 17 69 18 71 19 37 20 74 21 68 22 67 23
REMARK SMILES IDX 38 25 60 26 45 27 59 28 46 29 49 30 58 31 72 32 47 33 48 34
REMARK SMILES IDX 57 36 73 37 50 38 39 39 40 40 44 41 41 42 43 43 42 44 61 45
REMARK SMILES IDX 62 46 66 47 63 48 65 49 64 50 51 51 52 52 56 53 53 54 55 55
REMARK SMILES IDX 54 56 6 57 7 58 8 59 9 61 10 62 11 63 29 64 12 65 15 66
REMARK SMILES IDX 13 67 14 68 16 69 17 70 18 71 19 72 20 73 28 74 21 75 23 76
REMARK SMILES IDX 27 77 22 78 24 79 26 80 25 81
REMARK H PARENT 3 6 71 24 49 35 7 60
REMARK Flexibility Score: inf
ROOT
ATOM      1  C   UNL A   1      31.247  30.940  26.276  1.00  0.00     0.042 C 
ENDROOT
BRANCH   1   2
ATOM      2  C   UNL A   1      32.481  31.611  26.857  1.00  0.00     0.118 C 
BRANCH   2   3
ATOM      3  N   UNL A   1      32.236  32.981  27.293  1.00  0.00    -0.352 N 
ATOM      4  O   UNL A   1      32.477  34.879  28.475  1.00  0.00    -0.269 OA
ATOM      5  C   UNL A   1      32.964  33.812  28.112  1.00  0.00     0.251 C 
ATOM      6  H   UNL A   1      31.408  33.379  26.942  1.00  0.00     0.163 HD
BRANCH   5   7
ATOM      7  C   UNL A   1      34.309  33.420  28.590  1.00  0.00     0.039 A 
ATOM      8  C   UNL A   1      35.458  33.791  27.894  1.00  0.00     0.014 A 
ATOM      9  C   UNL A   1      34.426  32.678  29.770  1.00  0.00     0.014 A 
ATOM     10  C   UNL A   1      36.689  33.251  28.251  1.00  0.00     0.010 A 
ATOM     11  C   UNL A   1      35.683  32.234  30.196  1.00  0.00     0.010 A 
ATOM     12  C   UNL A   1      36.819  32.470  29.410  1.00  0.00    -0.014 A 
BRANCH  12  13
ATOM     13  C   UNL A   1      38.161  31.941  29.776  1.00  0.00     0.031 A 
ATOM     14  C   UNL A   1      39.040  32.661  30.765  1.00  0.00     0.074 A 
ATOM     15  C   UNL A   1      38.559  30.764  29.257  1.00  0.00     0.049 A 
ATOM     16  N   UNL A   1      40.198  32.291  31.254  1.00  0.00    -0.248 NA
ATOM     17  C   UNL A   1      38.569  33.962  31.263  1.00  0.00     0.031 C 
ATOM     18  C   UNL A   1      37.804  29.970  28.284  1.00  0.00     0.029 A 
ATOM     19  N   UNL A   1      39.678  30.008  29.502  1.00  0.00    -0.354 N 
ATOM     20  C   UNL A   1      40.606  33.323  32.091  1.00  0.00     0.074 A 
ATOM     21  C   UNL A   1      39.583  34.345  32.028  1.00  0.00     0.031 C 
ATOM     22  C   UNL A   1      38.440  28.808  28.074  1.00  0.00     0.029 A 
ATOM     23  C   UNL A   1      39.679  28.803  28.843  1.00  0.00     0.049 A 
ATOM     24  H   UNL A   1      40.409  30.301  30.093  1.00  0.00     0.167 HD
ATOM     25  C   UNL A   1      41.726  33.412  32.847  1.00  0.00     0.031 A 
ATOM     26  C   UNL A   1      40.575  27.800  28.851  1.00  0.00     0.031 A 
ATOM     27  C   UNL A   1      42.738  32.390  32.926  1.00  0.00     0.049 A 
ATOM     28  C   UNL A   1      41.810  27.929  29.692  1.00  0.00     0.074 A 
ATOM     29  C   UNL A   1      43.888  32.374  33.697  1.00  0.00     0.029 A 
ATOM     30  N   UNL A   1      42.722  31.205  32.208  1.00  0.00    -0.354 N 
ATOM     31  N   UNL A   1      42.158  28.897  30.503  1.00  0.00    -0.248 NA
ATOM     32  C   UNL A   1      42.774  26.824  29.617  1.00  0.00     0.031 C 
ATOM     33  C   UNL A   1      44.592  31.200  33.410  1.00  0.00     0.029 A 
ATOM     34  C   UNL A   1      43.853  30.461  32.500  1.00  0.00     0.049 A 
ATOM     35  H   UNL A   1      42.012  30.933  31.583  1.00  0.00     0.167 HD
ATOM     36  C   UNL A   1      43.373  28.509  31.052  1.00  0.00     0.074 A 
ATOM     37  C   UNL A   1      43.689  27.208  30.496  1.00  0.00     0.031 C 
ATOM     38  C   UNL A   1      44.157  29.171  31.936  1.00  0.00     0.031 A 
BRANCH  25  39
ATOM     39  C   UNL A   1      41.936  34.677  33.635  1.00  0.00    -0.014 A 
ATOM     40  C   UNL A   1      42.699  35.740  33.127  1.00  0.00     0.009 A 
ATOM     41  C   UNL A   1      41.322  34.822  34.890  1.00  0.00     0.009 A 
ATOM     42  C   UNL A   1      42.870  36.908  33.874  1.00  0.00     0.001 A 
ATOM     43  C   UNL A   1      41.472  36.001  35.622  1.00  0.00     0.001 A 
ATOM     44  C   UNL A   1      42.253  37.039  35.118  1.00  0.00     0.000 A 
ENDBRANCH  25  39
BRANCH  26  45
ATOM     45  C   UNL A   1      40.331  26.583  28.036  1.00  0.00    -0.014 A 
ATOM     46  C   UNL A   1      39.536  25.540  28.531  1.00  0.00     0.009 A 
ATOM     47  C   UNL A   1      40.887  26.463  26.752  1.00  0.00     0.009 A 
ATOM     48  C   UNL A   1      39.317  24.392  27.766  1.00  0.00     0.001 A 
ATOM     49  C   UNL A   1      40.643  25.328  25.978  1.00  0.00     0.001 A 
ATOM     50  C   UNL A   1      39.867  24.290  26.489  1.00  0.00     0.000 A 
ENDBRANCH  26  45
BRANCH  38  51
ATOM     51  C   UNL A   1      45.414  28.480  32.381  1.00  0.00    -0.014 A 
ATOM     52  C   UNL A   1      45.425  27.641  33.506  1.00  0.00     0.009 A 
ATOM     53  C   UNL A   1      46.600  28.661  31.653  1.00  0.00     0.009 A 
ATOM     54  C   UNL A   1      46.611  27.029  33.917  1.00  0.00     0.001 A 
ATOM     55  C   UNL A   1      47.777  28.026  32.050  1.00  0.00     0.001 A 
ATOM     56  C   UNL A   1      47.784  27.219  33.186  1.00  0.00     0.000 A 
ENDBRANCH  38  51
ENDBRANCH  12  13
ENDBRANCH   5   7
ENDBRANCH   2   3
ENDBRANCH   1   2
BRANCH   1  57
ATOM     57  C   UNL A   1      31.551  29.872  25.238  1.00  0.00     0.118 C 
BRANCH  57  58
ATOM     58  N   UNL A   1      30.876  30.113  23.968  1.00  0.00    -0.352 N 
ATOM     59  C   UNL A   1      30.463  29.243  22.991  1.00  0.00     0.251 C 
ATOM     60  H   UNL A   1      30.684  31.060  23.781  1.00  0.00     0.163 HD
ATOM     61  O   UNL A   1      30.081  29.678  21.909  1.00  0.00    -0.269 OA
BRANCH  59  62
ATOM     62  C   UNL A   1      30.486  27.782  23.220  1.00  0.00     0.041 A 
ATOM     63  C   UNL A   1      29.352  27.108  23.683  1.00  0.00     0.017 A 
ATOM     64  C   UNL A   1      31.652  27.064  22.924  1.00  0.00     0.039 A 
ATOM     65  C   UNL A   1      29.433  25.758  24.006  1.00  0.00     0.041 A 
ATOM     66  C   UNL A   1      31.706  25.688  23.194  1.00  0.00     0.124 A 
ATOM     67  C   UNL A   1      30.618  25.061  23.789  1.00  0.00     0.143 A 
ATOM     68  F   UNL A   1      30.639  23.786  24.184  1.00  0.00    -0.205 F 
BRANCH  66  69
ATOM     69  S   UNL A   1      33.189  24.825  22.745  1.00  0.00     0.267 S 
ATOM     70  O   UNL A   1      32.759  23.496  22.347  1.00  0.00    -0.201 OA
ATOM     71  O   UNL A   1      33.856  25.692  21.801  1.00  0.00    -0.201 OA
BRANCH  69  72
ATOM     72  N   UNL A   1      34.073  24.661  24.174  1.00  0.00    -0.259 N 
ATOM     73  C   UNL A   1      33.461  25.185  25.423  1.00  0.00     0.177 C 
ATOM     74  C   UNL A   1      35.056  23.622  24.369  1.00  0.00     0.094 A 
ATOM     75  C   UNL A   1      33.194  24.024  26.365  1.00  0.00     0.252 C 
ATOM     76  C   UNL A   1      35.211  23.061  25.653  1.00  0.00     0.143 A 
ATOM     77  C   UNL A   1      35.968  23.257  23.374  1.00  0.00     0.031 A 
ATOM     78  O   UNL A   1      34.415  23.372  26.734  1.00  0.00    -0.489 OA
ATOM     79  C   UNL A   1      36.241  22.157  25.920  1.00  0.00     0.049 A 
ATOM     80  C   UNL A   1      36.978  22.325  23.634  1.00  0.00     0.002 A 
ATOM     81  C   UNL A   1      37.117  21.779  24.908  1.00  0.00     0.004 A 
ENDBRANCH  69  72
ENDBRANCH  66  69
ENDBRANCH  59  62
ENDBRANCH  57  58
ENDBRANCH   1  57
TORSDOF 12
ENDMDL
