MODEL 1
REMARK VINA RESULT:     -11.6      0.000      0.000
REMARK SMILES CC[C@@H](C(=O)NCCCNC(=O)c1ccc(-c2c3nc(c(-c4ccccc4)c4ccc([nH]4)c(-c4ccccc4)c4nc(c(-c5ccccc5)c5ccc2[nH]5)C=C4)C=C3)cc1)N1C(=O)/C(=C\c2ccc(C(=O)OC)cc2)SC1=S
REMARK SMILES IDX 7 1 6 2 4 3 5 4 3 6 2 7 1 8 61 9 62 10 77 11 63 12 64 13
REMARK SMILES IDX 76 14 78 15 65 16 66 17 67 18 75 19 68 20 74 21 69 22 70 23
REMARK SMILES IDX 71 24 72 25 73 26 8 27 9 28 10 29 11 30 12 32 13 33 14 34
REMARK SMILES IDX 60 35 15 36 59 37 16 38 17 39 18 40 53 41 19 42 58 43 52 44
REMARK SMILES IDX 54 45 20 46 57 47 51 48 50 49 21 51 43 52 28 53 42 54 29 55
REMARK SMILES IDX 32 56 41 57 55 58 30 59 31 60 40 62 56 63 33 64 22 65 23 66
REMARK SMILES IDX 27 67 24 68 26 69 25 70 44 71 45 72 49 73 46 74 48 75 47 76
REMARK SMILES IDX 34 77 35 78 39 79 36 80 38 81 37 82
REMARK H PARENT 6 5 10 31 54 50 32 61
REMARK Flexibility Score: inf
ROOT
ATOM      1  C   UNL A   1      32.118  27.638  27.073  1.00  0.00     0.117 C 
ENDROOT
BRANCH   1   2
ATOM      2  N   UNL A   1      31.419  26.378  26.868  1.00  0.00    -0.354 N 
ATOM      3  C   UNL A   1      30.349  26.108  26.063  1.00  0.00     0.243 C 
ATOM      4  O   UNL A   1      29.509  25.325  26.515  1.00  0.00    -0.273 OA
ATOM      5  H   UNL A   1      31.767  25.613  27.380  1.00  0.00     0.163 HD
BRANCH   3   6
ATOM      6  C   UNL A   1      30.192  26.774  24.681  1.00  0.00     0.181 C 
BRANCH   6   7
ATOM      7  C   UNL A   1      28.799  26.378  24.118  1.00  0.00     0.032 C 
ATOM      8  C   UNL A   1      28.052  27.524  23.455  1.00  0.00     0.006 C 
ENDBRANCH   6   7
BRANCH   6   9
ATOM      9  N   UNL A   1      31.215  26.531  23.606  1.00  0.00    -0.280 N 
ATOM     10  C   UNL A   1      31.572  25.193  23.446  1.00  0.00     0.266 C 
ATOM     11  C   UNL A   1      31.949  27.419  22.850  1.00  0.00     0.149 C 
ATOM     12  O   UNL A   1      30.916  24.253  23.874  1.00  0.00    -0.268 OA
ATOM     13  C   UNL A   1      32.866  25.056  22.720  1.00  0.00     0.081 C 
ATOM     14  S   UNL A   1      33.355  26.603  22.154  1.00  0.00    -0.054 SA
ATOM     15  S   UNL A   1      31.655  29.003  22.430  1.00  0.00    -0.052 S 
ATOM     16  C   UNL A   1      33.627  23.961  22.556  1.00  0.00     0.029 C 
BRANCH  16  17
ATOM     17  C   UNL A   1      33.324  22.604  23.025  1.00  0.00    -0.024 A 
ATOM     18  C   UNL A   1      32.417  21.806  22.316  1.00  0.00     0.009 A 
ATOM     19  C   UNL A   1      33.898  22.101  24.196  1.00  0.00     0.009 A 
ATOM     20  C   UNL A   1      32.141  20.501  22.741  1.00  0.00     0.016 A 
ATOM     21  C   UNL A   1      33.640  20.794  24.612  1.00  0.00     0.016 A 
ATOM     22  C   UNL A   1      32.768  19.980  23.880  1.00  0.00     0.060 A 
BRANCH  22  23
ATOM     23  C   UNL A   1      32.491  18.572  24.273  1.00  0.00     0.337 C 
ATOM     24  O   UNL A   1      32.051  18.246  25.365  1.00  0.00    -0.246 OA
BRANCH  23  25
ATOM     25  O   UNL A   1      32.775  17.735  23.245  1.00  0.00    -0.465 OA
ATOM     26  C   UNL A   1      33.575  16.608  23.606  1.00  0.00     0.282 C 
ENDBRANCH  23  25
ENDBRANCH  22  23
ENDBRANCH  16  17
ENDBRANCH   6   9
ENDBRANCH   3   6
ENDBRANCH   1   2
BRANCH   1  27
ATOM     27  C   UNL A   1      33.576  27.551  26.608  1.00  0.00     0.042 C 
BRANCH  27  28
ATOM     28  C   UNL A   1      34.082  28.766  25.835  1.00  0.00     0.118 C 
BRANCH  28  29
ATOM     29  N   UNL A   1      33.740  30.020  26.480  1.00  0.00    -0.352 N 
ATOM     30  C   UNL A   1      34.364  30.671  27.519  1.00  0.00     0.251 C 
ATOM     31  H   UNL A   1      32.941  30.472  26.122  1.00  0.00     0.163 HD
ATOM     32  O   UNL A   1      33.803  31.617  28.064  1.00  0.00    -0.269 OA
BRANCH  30  33
ATOM     33  C   UNL A   1      35.695  30.231  28.002  1.00  0.00     0.039 A 
ATOM     34  C   UNL A   1      35.795  29.676  29.282  1.00  0.00     0.014 A 
ATOM     35  C   UNL A   1      36.846  30.397  27.228  1.00  0.00     0.014 A 
ATOM     36  C   UNL A   1      37.035  29.238  29.759  1.00  0.00     0.010 A 
ATOM     37  C   UNL A   1      38.066  29.886  27.671  1.00  0.00     0.010 A 
ATOM     38  C   UNL A   1      38.177  29.310  28.946  1.00  0.00    -0.014 A 
BRANCH  38  39
ATOM     39  C   UNL A   1      39.493  28.802  29.416  1.00  0.00     0.031 A 
ATOM     40  C   UNL A   1      40.320  29.607  30.382  1.00  0.00     0.074 A 
ATOM     41  C   UNL A   1      39.972  27.637  28.939  1.00  0.00     0.049 A 
ATOM     42  N   UNL A   1      41.504  29.345  30.877  1.00  0.00    -0.248 NA
ATOM     43  C   UNL A   1      39.750  30.886  30.835  1.00  0.00     0.031 C 
ATOM     44  C   UNL A   1      39.285  26.765  27.984  1.00  0.00     0.029 A 
ATOM     45  N   UNL A   1      41.151  26.982  29.197  1.00  0.00    -0.354 N 
ATOM     46  C   UNL A   1      41.825  30.430  31.684  1.00  0.00     0.074 A 
ATOM     47  C   UNL A   1      40.738  31.377  31.566  1.00  0.00     0.031 C 
ATOM     48  C   UNL A   1      40.035  25.672  27.770  1.00  0.00     0.029 A 
ATOM     49  C   UNL A   1      41.273  25.786  28.533  1.00  0.00     0.049 A 
ATOM     50  H   UNL A   1      41.843  27.336  29.801  1.00  0.00     0.167 HD
ATOM     51  C   UNL A   1      42.914  30.616  32.471  1.00  0.00     0.031 A 
ATOM     52  C   UNL A   1      42.271  24.881  28.536  1.00  0.00     0.031 A 
ATOM     53  C   UNL A   1      43.999  29.679  32.586  1.00  0.00     0.049 A 
ATOM     54  C   UNL A   1      43.495  25.134  29.370  1.00  0.00     0.074 A 
ATOM     55  C   UNL A   1      45.125  29.755  33.389  1.00  0.00     0.029 A 
ATOM     56  N   UNL A   1      44.100  28.497  31.868  1.00  0.00    -0.354 N 
ATOM     57  N   UNL A   1      43.755  26.136  30.176  1.00  0.00    -0.248 NA
ATOM     58  C   UNL A   1      44.562  24.126  29.298  1.00  0.00     0.031 C 
ATOM     59  C   UNL A   1      45.936  28.649  33.110  1.00  0.00     0.029 A 
ATOM     60  C   UNL A   1      45.284  27.851  32.183  1.00  0.00     0.049 A 
ATOM     61  H   UNL A   1      43.429  28.165  31.228  1.00  0.00     0.167 HD
ATOM     62  C   UNL A   1      44.999  25.863  30.730  1.00  0.00     0.074 A 
ATOM     63  C   UNL A   1      45.436  24.597  30.177  1.00  0.00     0.031 C 
ATOM     64  C   UNL A   1      45.713  26.595  31.621  1.00  0.00     0.031 A 
BRANCH  51  65
ATOM     65  C   UNL A   1      42.983  31.902  33.252  1.00  0.00    -0.014 A 
ATOM     66  C   UNL A   1      43.622  33.040  32.732  1.00  0.00     0.009 A 
ATOM     67  C   UNL A   1      42.401  31.978  34.527  1.00  0.00     0.009 A 
ATOM     68  C   UNL A   1      43.728  34.205  33.494  1.00  0.00     0.001 A 
ATOM     69  C   UNL A   1      42.476  33.156  35.273  1.00  0.00     0.001 A 
ATOM     70  C   UNL A   1      43.153  34.264  34.763  1.00  0.00     0.000 A 
ENDBRANCH  51  65
BRANCH  52  71
ATOM     71  C   UNL A   1      42.140  23.630  27.744  1.00  0.00    -0.014 A 
ATOM     72  C   UNL A   1      42.574  23.592  26.410  1.00  0.00     0.009 A 
ATOM     73  C   UNL A   1      41.590  22.470  28.312  1.00  0.00     0.009 A 
ATOM     74  C   UNL A   1      42.444  22.423  25.656  1.00  0.00     0.001 A 
ATOM     75  C   UNL A   1      41.488  21.295  27.564  1.00  0.00     0.001 A 
ATOM     76  C   UNL A   1      41.907  21.275  26.234  1.00  0.00     0.000 A 
ENDBRANCH  52  71
BRANCH  64  77
ATOM     77  C   UNL A   1      47.027  26.027  32.082  1.00  0.00    -0.014 A 
ATOM     78  C   UNL A   1      47.113  25.215  33.223  1.00  0.00     0.009 A 
ATOM     79  C   UNL A   1      48.190  26.279  31.338  1.00  0.00     0.009 A 
ATOM     80  C   UNL A   1      48.344  24.692  33.627  1.00  0.00     0.001 A 
ATOM     81  C   UNL A   1      49.413  25.731  31.726  1.00  0.00     0.001 A 
ATOM     82  C   UNL A   1      49.491  24.946  32.875  1.00  0.00     0.000 A 
ENDBRANCH  64  77
ENDBRANCH  38  39
ENDBRANCH  30  33
ENDBRANCH  28  29
ENDBRANCH  27  28
ENDBRANCH   1  27
TORSDOF 15
ENDMDL
MODEL 2
REMARK VINA RESULT:     -10.8      3.042      7.810
REMARK SMILES CC[C@@H](C(=O)NCCCNC(=O)c1ccc(-c2c3nc(c(-c4ccccc4)c4ccc([nH]4)c(-c4ccccc4)c4nc(c(-c5ccccc5)c5ccc2[nH]5)C=C4)C=C3)cc1)N1C(=O)/C(=C\c2ccc(C(=O)OC)cc2)SC1=S
REMARK SMILES IDX 7 1 6 2 4 3 5 4 3 6 2 7 1 8 61 9 62 10 77 11 63 12 64 13
REMARK SMILES IDX 76 14 78 15 65 16 66 17 67 18 75 19 68 20 74 21 69 22 70 23
REMARK SMILES IDX 71 24 72 25 73 26 8 27 9 28 10 29 11 30 12 32 13 33 14 34
REMARK SMILES IDX 60 35 15 36 59 37 16 38 17 39 18 40 53 41 19 42 58 43 52 44
REMARK SMILES IDX 54 45 20 46 57 47 51 48 50 49 21 51 43 52 28 53 42 54 29 55
REMARK SMILES IDX 32 56 41 57 55 58 30 59 31 60 40 62 56 63 33 64 22 65 23 66
REMARK SMILES IDX 27 67 24 68 26 69 25 70 44 71 45 72 49 73 46 74 48 75 47 76
REMARK SMILES IDX 34 77 35 78 39 79 36 80 38 81 37 82
REMARK H PARENT 6 5 10 31 54 50 32 61
REMARK Flexibility Score: inf
ROOT
ATOM      1  C   UNL A   1      36.130  23.322  23.807  1.00  0.00     0.117 C 
ENDROOT
BRANCH   1   2
ATOM      2  N   UNL A   1      35.071  23.849  22.959  1.00  0.00    -0.354 N 
ATOM      3  C   UNL A   1      33.967  23.213  22.466  1.00  0.00     0.243 C 
ATOM      4  O   UNL A   1      33.637  23.505  21.314  1.00  0.00    -0.273 OA
ATOM      5  H   UNL A   1      35.163  24.795  22.706  1.00  0.00     0.163 HD
BRANCH   3   6
ATOM      6  C   UNL A   1      33.200  22.167  23.302  1.00  0.00     0.181 C 
BRANCH   6   7
ATOM      7  C   UNL A   1      32.149  21.496  22.373  1.00  0.00     0.032 C 
ATOM      8  C   UNL A   1      32.105  19.982  22.484  1.00  0.00     0.006 C 
ENDBRANCH   6   7
BRANCH   6   9
ATOM      9  N   UNL A   1      32.506  22.577  24.571  1.00  0.00    -0.280 N 
ATOM     10  C   UNL A   1      31.806  23.779  24.480  1.00  0.00     0.266 C 
ATOM     11  C   UNL A   1      32.557  22.032  25.836  1.00  0.00     0.149 C 
ATOM     12  O   UNL A   1      31.485  24.306  23.423  1.00  0.00    -0.268 OA
ATOM     13  C   UNL A   1      31.528  24.352  25.827  1.00  0.00     0.081 C 
ATOM     14  S   UNL A   1      31.994  23.213  27.025  1.00  0.00    -0.054 SA
ATOM     15  S   UNL A   1      32.929  20.494  26.351  1.00  0.00    -0.052 S 
ATOM     16  C   UNL A   1      31.066  25.574  26.142  1.00  0.00     0.029 C 
BRANCH  16  17
ATOM     17  C   UNL A   1      30.673  26.632  25.204  1.00  0.00    -0.024 A 
ATOM     18  C   UNL A   1      29.508  26.490  24.439  1.00  0.00     0.009 A 
ATOM     19  C   UNL A   1      31.464  27.771  25.029  1.00  0.00     0.009 A 
ATOM     20  C   UNL A   1      29.110  27.505  23.561  1.00  0.00     0.016 A 
ATOM     21  C   UNL A   1      31.061  28.793  24.168  1.00  0.00     0.016 A 
ATOM     22  C   UNL A   1      29.874  28.673  23.437  1.00  0.00     0.060 A 
BRANCH  22  23
ATOM     23  C   UNL A   1      29.394  29.752  22.533  1.00  0.00     0.337 C 
ATOM     24  O   UNL A   1      29.271  29.621  21.325  1.00  0.00    -0.246 OA
BRANCH  23  25
ATOM     25  O   UNL A   1      29.101  30.867  23.248  1.00  0.00    -0.465 OA
ATOM     26  C   UNL A   1      27.710  31.050  23.512  1.00  0.00     0.282 C 
ENDBRANCH  23  25
ENDBRANCH  22  23
ENDBRANCH  16  17
ENDBRANCH   6   9
ENDBRANCH   3   6
ENDBRANCH   1   2
BRANCH   1  27
ATOM     27  C   UNL A   1      36.193  24.062  25.148  1.00  0.00     0.042 C 
BRANCH  27  28
ATOM     28  C   UNL A   1      36.483  23.181  26.361  1.00  0.00     0.118 C 
BRANCH  28  29
ATOM     29  N   UNL A   1      37.682  22.380  26.193  1.00  0.00    -0.352 N 
ATOM     30  C   UNL A   1      39.003  22.745  26.303  1.00  0.00     0.251 C 
ATOM     31  H   UNL A   1      37.526  21.434  25.965  1.00  0.00     0.163 HD
ATOM     32  O   UNL A   1      39.878  21.974  25.920  1.00  0.00    -0.269 OA
BRANCH  30  33
ATOM     33  C   UNL A   1      39.384  24.065  26.859  1.00  0.00     0.039 A 
ATOM     34  C   UNL A   1      39.101  24.336  28.202  1.00  0.00     0.014 A 
ATOM     35  C   UNL A   1      39.977  25.051  26.065  1.00  0.00     0.014 A 
ATOM     36  C   UNL A   1      39.463  25.567  28.759  1.00  0.00     0.010 A 
ATOM     37  C   UNL A   1      40.410  26.246  26.641  1.00  0.00     0.010 A 
ATOM     38  C   UNL A   1      40.150  26.522  27.992  1.00  0.00    -0.014 A 
BRANCH  38  39
ATOM     39  C   UNL A   1      40.588  27.815  28.580  1.00  0.00     0.031 A 
ATOM     40  C   UNL A   1      39.606  28.941  28.763  1.00  0.00     0.074 A 
ATOM     41  C   UNL A   1      41.881  27.999  28.909  1.00  0.00     0.049 A 
ATOM     42  N   UNL A   1      39.809  30.150  29.226  1.00  0.00    -0.248 NA
ATOM     43  C   UNL A   1      38.218  28.681  28.352  1.00  0.00     0.031 C 
ATOM     44  C   UNL A   1      42.943  27.000  28.766  1.00  0.00     0.029 A 
ATOM     45  N   UNL A   1      42.524  29.092  29.435  1.00  0.00    -0.354 N 
ATOM     46  C   UNL A   1      38.581  30.796  29.147  1.00  0.00     0.074 A 
ATOM     47  C   UNL A   1      37.656  29.865  28.539  1.00  0.00     0.031 C 
ATOM     48  C   UNL A   1      44.093  27.512  29.233  1.00  0.00     0.029 A 
ATOM     49  C   UNL A   1      43.863  28.887  29.663  1.00  0.00     0.049 A 
ATOM     50  H   UNL A   1      42.068  29.943  29.630  1.00  0.00     0.167 HD
ATOM     51  C   UNL A   1      38.244  32.043  29.561  1.00  0.00     0.031 A 
ATOM     52  C   UNL A   1      44.803  29.713  30.162  1.00  0.00     0.031 A 
ATOM     53  C   UNL A   1      39.164  32.973  30.160  1.00  0.00     0.049 A 
ATOM     54  C   UNL A   1      44.420  31.111  30.561  1.00  0.00     0.074 A 
ATOM     55  C   UNL A   1      38.911  34.241  30.653  1.00  0.00     0.029 A 
ATOM     56  N   UNL A   1      40.519  32.738  30.339  1.00  0.00    -0.354 N 
ATOM     57  N   UNL A   1      43.241  31.685  30.537  1.00  0.00    -0.248 NA
ATOM     58  C   UNL A   1      45.500  31.972  31.061  1.00  0.00     0.031 C 
ATOM     59  C   UNL A   1      40.125  34.797  31.074  1.00  0.00     0.029 A 
ATOM     60  C   UNL A   1      41.122  33.849  30.904  1.00  0.00     0.049 A 
ATOM     61  H   UNL A   1      40.984  31.903  30.100  1.00  0.00     0.167 HD
ATOM     62  C   UNL A   1      43.432  32.963  31.047  1.00  0.00     0.074 A 
ATOM     63  C   UNL A   1      44.838  33.075  31.383  1.00  0.00     0.031 C 
ATOM     64  C   UNL A   1      42.523  33.952  31.227  1.00  0.00     0.031 A 
BRANCH  51  65
ATOM     65  C   UNL A   1      36.816  32.470  29.353  1.00  0.00    -0.014 A 
ATOM     66  C   UNL A   1      36.397  33.064  28.150  1.00  0.00     0.009 A 
ATOM     67  C   UNL A   1      35.873  32.279  30.374  1.00  0.00     0.009 A 
ATOM     68  C   UNL A   1      35.083  33.509  27.997  1.00  0.00     0.001 A 
ATOM     69  C   UNL A   1      34.549  32.691  30.206  1.00  0.00     0.001 A 
ATOM     70  C   UNL A   1      34.159  33.320  29.024  1.00  0.00     0.000 A 
ENDBRANCH  51  65
BRANCH  52  71
ATOM     71  C   UNL A   1      46.196  29.228  30.344  1.00  0.00    -0.014 A 
ATOM     72  C   UNL A   1      47.127  29.355  29.302  1.00  0.00     0.009 A 
ATOM     73  C   UNL A   1      46.604  28.645  31.553  1.00  0.00     0.009 A 
ATOM     74  C   UNL A   1      48.436  28.892  29.462  1.00  0.00     0.001 A 
ATOM     75  C   UNL A   1      47.921  28.208  31.719  1.00  0.00     0.001 A 
ATOM     76  C   UNL A   1      48.833  28.324  30.671  1.00  0.00     0.000 A 
ENDBRANCH  52  71
BRANCH  64  77
ATOM     77  C   UNL A   1      43.012  35.233  31.846  1.00  0.00    -0.014 A 
ATOM     78  C   UNL A   1      42.914  35.462  33.227  1.00  0.00     0.009 A 
ATOM     79  C   UNL A   1      43.616  36.208  31.037  1.00  0.00     0.009 A 
ATOM     80  C   UNL A   1      43.383  36.656  33.779  1.00  0.00     0.001 A 
ATOM     81  C   UNL A   1      44.112  37.386  31.595  1.00  0.00     0.001 A 
ATOM     82  C   UNL A   1      43.985  37.614  32.965  1.00  0.00     0.000 A 
ENDBRANCH  64  77
ENDBRANCH  38  39
ENDBRANCH  30  33
ENDBRANCH  28  29
ENDBRANCH  27  28
ENDBRANCH   1  27
TORSDOF 15
ENDMDL
MODEL 3
REMARK VINA RESULT:     -10.7      3.046      8.167
REMARK SMILES CC[C@@H](C(=O)NCCCNC(=O)c1ccc(-c2c3nc(c(-c4ccccc4)c4ccc([nH]4)c(-c4ccccc4)c4nc(c(-c5ccccc5)c5ccc2[nH]5)C=C4)C=C3)cc1)N1C(=O)/C(=C\c2ccc(C(=O)OC)cc2)SC1=S
REMARK SMILES IDX 7 1 6 2 4 3 5 4 3 6 2 7 1 8 61 9 62 10 77 11 63 12 64 13
REMARK SMILES IDX 76 14 78 15 65 16 66 17 67 18 75 19 68 20 74 21 69 22 70 23
REMARK SMILES IDX 71 24 72 25 73 26 8 27 9 28 10 29 11 30 12 32 13 33 14 34
REMARK SMILES IDX 60 35 15 36 59 37 16 38 17 39 18 40 53 41 19 42 58 43 52 44
REMARK SMILES IDX 54 45 20 46 57 47 51 48 50 49 21 51 43 52 28 53 42 54 29 55
REMARK SMILES IDX 32 56 41 57 55 58 30 59 31 60 40 62 56 63 33 64 22 65 23 66
REMARK SMILES IDX 27 67 24 68 26 69 25 70 44 71 45 72 49 73 46 74 48 75 47 76
REMARK SMILES IDX 34 77 35 78 39 79 36 80 38 81 37 82
REMARK H PARENT 6 5 10 31 54 50 32 61
REMARK Flexibility Score: inf
ROOT
ATOM      1  C   UNL A   1      36.143  23.315  23.509  1.00  0.00     0.117 C 
ENDROOT
BRANCH   1   2
ATOM      2  N   UNL A   1      34.980  23.787  22.773  1.00  0.00    -0.354 N 
ATOM      3  C   UNL A   1      33.852  23.104  22.415  1.00  0.00     0.243 C 
ATOM      4  O   UNL A   1      33.389  23.359  21.301  1.00  0.00    -0.273 OA
ATOM      5  H   UNL A   1      35.010  24.730  22.494  1.00  0.00     0.163 HD
BRANCH   3   6
ATOM      6  C   UNL A   1      33.219  22.051  23.348  1.00  0.00     0.181 C 
BRANCH   6   7
ATOM      7  C   UNL A   1      32.130  21.292  22.539  1.00  0.00     0.032 C 
ATOM      8  C   UNL A   1      32.170  19.784  22.712  1.00  0.00     0.006 C 
ENDBRANCH   6   7
BRANCH   6   9
ATOM      9  N   UNL A   1      32.617  22.470  24.660  1.00  0.00    -0.280 N 
ATOM     10  C   UNL A   1      31.906  23.668  24.609  1.00  0.00     0.266 C 
ATOM     11  C   UNL A   1      32.761  21.938  25.923  1.00  0.00     0.149 C 
ATOM     12  O   UNL A   1      31.508  24.184  23.573  1.00  0.00    -0.268 OA
ATOM     13  C   UNL A   1      31.724  24.254  25.967  1.00  0.00     0.081 C 
ATOM     14  S   UNL A   1      32.279  23.128  27.139  1.00  0.00    -0.054 SA
ATOM     15  S   UNL A   1      33.175  20.406  26.425  1.00  0.00    -0.052 S 
ATOM     16  C   UNL A   1      31.280  25.477  26.302  1.00  0.00     0.029 C 
BRANCH  16  17
ATOM     17  C   UNL A   1      30.816  26.524  25.385  1.00  0.00    -0.024 A 
ATOM     18  C   UNL A   1      29.627  26.346  24.666  1.00  0.00     0.009 A 
ATOM     19  C   UNL A   1      31.562  27.690  25.185  1.00  0.00     0.009 A 
ATOM     20  C   UNL A   1      29.162  27.350  23.808  1.00  0.00     0.016 A 
ATOM     21  C   UNL A   1      31.091  28.701  24.345  1.00  0.00     0.016 A 
ATOM     22  C   UNL A   1      29.882  28.543  23.660  1.00  0.00     0.060 A 
BRANCH  22  23
ATOM     23  C   UNL A   1      29.331  29.609  22.780  1.00  0.00     0.337 C 
ATOM     24  O   UNL A   1      29.162  29.476  21.578  1.00  0.00    -0.246 OA
BRANCH  23  25
ATOM     25  O   UNL A   1      29.035  30.713  23.510  1.00  0.00    -0.465 OA
ATOM     26  C   UNL A   1      27.679  31.145  23.403  1.00  0.00     0.282 C 
ENDBRANCH  23  25
ENDBRANCH  22  23
ENDBRANCH  16  17
ENDBRANCH   6   9
ENDBRANCH   3   6
ENDBRANCH   1   2
BRANCH   1  27
ATOM     27  C   UNL A   1      36.265  24.012  24.869  1.00  0.00     0.042 C 
BRANCH  27  28
ATOM     28  C   UNL A   1      36.353  23.074  26.071  1.00  0.00     0.118 C 
BRANCH  28  29
ATOM     29  N   UNL A   1      37.529  22.224  26.029  1.00  0.00    -0.352 N 
ATOM     30  C   UNL A   1      38.852  22.548  26.220  1.00  0.00     0.251 C 
ATOM     31  H   UNL A   1      37.354  21.275  25.833  1.00  0.00     0.163 HD
ATOM     32  O   UNL A   1      39.722  21.729  25.938  1.00  0.00    -0.269 OA
BRANCH  30  33
ATOM     33  C   UNL A   1      39.242  23.879  26.742  1.00  0.00     0.039 A 
ATOM     34  C   UNL A   1      38.934  24.197  28.069  1.00  0.00     0.014 A 
ATOM     35  C   UNL A   1      39.869  24.829  25.931  1.00  0.00     0.014 A 
ATOM     36  C   UNL A   1      39.304  25.439  28.594  1.00  0.00     0.010 A 
ATOM     37  C   UNL A   1      40.309  26.034  26.478  1.00  0.00     0.010 A 
ATOM     38  C   UNL A   1      40.023  26.358  27.813  1.00  0.00    -0.014 A 
BRANCH  38  39
ATOM     39  C   UNL A   1      40.470  27.662  28.370  1.00  0.00     0.031 A 
ATOM     40  C   UNL A   1      41.915  27.883  28.731  1.00  0.00     0.074 A 
ATOM     41  C   UNL A   1      39.570  28.639  28.597  1.00  0.00     0.049 A 
ATOM     42  N   UNL A   1      42.485  28.938  29.258  1.00  0.00    -0.248 NA
ATOM     43  C   UNL A   1      42.836  26.762  28.486  1.00  0.00     0.031 C 
ATOM     44  C   UNL A   1      38.136  28.553  28.313  1.00  0.00     0.029 A 
ATOM     45  N   UNL A   1      39.730  29.899  29.118  1.00  0.00    -0.354 N 
ATOM     46  C   UNL A   1      43.824  28.602  29.422  1.00  0.00     0.074 A 
ATOM     47  C   UNL A   1      43.967  27.228  28.992  1.00  0.00     0.031 C 
ATOM     48  C   UNL A   1      37.557  29.724  28.623  1.00  0.00     0.029 A 
ATOM     49  C   UNL A   1      38.566  30.625  29.170  1.00  0.00     0.049 A 
ATOM     50  H   UNL A   1      40.598  30.249  29.425  1.00  0.00     0.167 HD
ATOM     51  C   UNL A   1      44.848  29.370  29.868  1.00  0.00     0.031 A 
ATOM     52  C   UNL A   1      38.333  31.876  29.611  1.00  0.00     0.031 A 
ATOM     53  C   UNL A   1      44.708  30.735  30.302  1.00  0.00     0.049 A 
ATOM     54  C   UNL A   1      39.473  32.690  30.156  1.00  0.00     0.074 A 
ATOM     55  C   UNL A   1      45.690  31.611  30.729  1.00  0.00     0.029 A 
ATOM     56  N   UNL A   1      43.504  31.420  30.373  1.00  0.00    -0.354 N 
ATOM     57  N   UNL A   1      40.743  32.379  30.247  1.00  0.00    -0.248 NA
ATOM     58  C   UNL A   1      39.144  34.033  30.656  1.00  0.00     0.031 C 
ATOM     59  C   UNL A   1      45.073  32.805  31.117  1.00  0.00     0.029 A 
ATOM     60  C   UNL A   1      43.714  32.695  30.869  1.00  0.00     0.049 A 
ATOM     61  H   UNL A   1      42.628  31.052  30.110  1.00  0.00     0.167 HD
ATOM     62  C   UNL A   1      41.370  33.497  30.783  1.00  0.00     0.074 A 
ATOM     63  C   UNL A   1      40.341  34.497  30.987  1.00  0.00     0.031 C 
ATOM     64  C   UNL A   1      42.681  33.680  31.075  1.00  0.00     0.031 A 
BRANCH  51  65
ATOM     65  C   UNL A   1      46.210  28.729  29.926  1.00  0.00    -0.014 A 
ATOM     66  C   UNL A   1      46.660  28.069  31.081  1.00  0.00     0.009 A 
ATOM     67  C   UNL A   1      47.057  28.787  28.808  1.00  0.00     0.009 A 
ATOM     68  C   UNL A   1      47.947  27.533  31.137  1.00  0.00     0.001 A 
ATOM     69  C   UNL A   1      48.332  28.217  28.853  1.00  0.00     0.001 A 
ATOM     70  C   UNL A   1      48.782  27.605  30.023  1.00  0.00     0.000 A 
ENDBRANCH  51  65
BRANCH  52  71
ATOM     71  C   UNL A   1      36.965  32.451  29.525  1.00  0.00    -0.014 A 
ATOM     72  C   UNL A   1      36.070  32.302  30.596  1.00  0.00     0.009 A 
ATOM     73  C   UNL A   1      36.548  33.153  28.384  1.00  0.00     0.009 A 
ATOM     74  C   UNL A   1      34.778  32.831  30.518  1.00  0.00     0.001 A 
ATOM     75  C   UNL A   1      35.265  33.704  28.321  1.00  0.00     0.001 A 
ATOM     76  C   UNL A   1      34.380  33.535  29.384  1.00  0.00     0.000 A 
ENDBRANCH  52  71
BRANCH  64  77
ATOM     77  C   UNL A   1      43.086  35.024  31.614  1.00  0.00    -0.014 A 
ATOM     78  C   UNL A   1      43.607  36.022  30.777  1.00  0.00     0.009 A 
ATOM     79  C   UNL A   1      42.904  35.308  32.977  1.00  0.00     0.009 A 
ATOM     80  C   UNL A   1      43.968  37.266  31.301  1.00  0.00     0.001 A 
ATOM     81  C   UNL A   1      43.236  36.561  33.492  1.00  0.00     0.001 A 
ATOM     82  C   UNL A   1      43.777  37.536  32.655  1.00  0.00     0.000 A 
ENDBRANCH  64  77
ENDBRANCH  38  39
ENDBRANCH  30  33
ENDBRANCH  28  29
ENDBRANCH  27  28
ENDBRANCH   1  27
TORSDOF 15
ENDMDL
