MODEL 1
REMARK VINA RESULT:     -10.5      0.000      0.000
REMARK SMILES COc1ccc(NC(C)(C)C2=N[C@@H](C(=O)NCCCNC(=O)c3ccc(-c4c5nc(c(-c6ccccc6)c6ccc([nH]6)c(-c6ccccc6)c6nc(c(-c7ccccc7)c7ccc4[nH]7)C=C6)C=C5)cc3)CS2)cc1
REMARK SMILES IDX 17 1 16 2 14 3 15 4 13 6 11 7 12 8 72 9 71 10 8 11 9 12
REMARK SMILES IDX 10 13 7 14 6 16 3 17 4 18 74 19 5 20 73 21 2 22 1 23 18 24
REMARK SMILES IDX 19 25 20 26 21 27 22 29 23 30 24 31 70 32 25 33 69 34 26 35
REMARK SMILES IDX 27 36 28 37 63 38 29 39 68 40 62 41 64 42 30 43 67 44 61 45
REMARK SMILES IDX 60 46 31 48 53 49 38 50 52 51 39 52 42 53 51 54 65 55 40 56
REMARK SMILES IDX 41 57 50 59 66 60 43 61 32 62 33 63 37 64 34 65 36 66 35 67
REMARK SMILES IDX 54 68 55 69 59 70 56 71 58 72 57 73 44 74 45 75 49 76 46 77
REMARK SMILES IDX 48 78 47 79
REMARK H PARENT 16 5 7 15 20 28 64 47 42 58
REMARK Flexibility Score: inf
ROOT
ATOM      1  C   UNL A   1      31.178  30.753  25.403  1.00  0.00     0.117 C 
ENDROOT
BRANCH   1   2
ATOM      2  N   UNL A   1      32.444  30.071  25.556  1.00  0.00    -0.354 N 
ATOM      3  C   UNL A   1      32.944  28.961  24.949  1.00  0.00     0.245 C 
ATOM      4  O   UNL A   1      34.064  28.589  25.319  1.00  0.00    -0.273 OA
ATOM      5  H   UNL A   1      33.051  30.482  26.215  1.00  0.00     0.163 HD
BRANCH   3   6
ATOM      6  C   UNL A   1      32.169  28.147  23.908  1.00  0.00     0.205 C 
ATOM      7  C   UNL A   1      32.419  25.908  23.435  1.00  0.00     0.094 C 
ATOM      8  N   UNL A   1      31.987  26.739  24.331  1.00  0.00    -0.266 NA
ATOM      9  S   UNL A   1      33.271  26.598  22.059  1.00  0.00    -0.106 SA
ATOM     10  C   UNL A   1      32.716  28.257  22.496  1.00  0.00     0.113 C 
BRANCH   7  11
ATOM     11  C   UNL A   1      32.248  24.376  23.566  1.00  0.00     0.080 C 
ATOM     12  C   UNL A   1      32.990  23.653  22.428  1.00  0.00     0.042 C 
ATOM     13  C   UNL A   1      30.748  24.042  23.438  1.00  0.00     0.042 C 
BRANCH  11  14
ATOM     14  N   UNL A   1      32.730  23.803  24.842  1.00  0.00    -0.374 N 
ATOM     15  H   UNL A   1      32.095  23.839  25.594  1.00  0.00     0.161 HD
BRANCH  14  16
ATOM     16  C   UNL A   1      33.952  23.225  25.116  1.00  0.00     0.035 A 
ATOM     17  C   UNL A   1      36.589  22.235  25.195  1.00  0.00     0.119 A 
ATOM     18  C   UNL A   1      35.523  21.366  25.002  1.00  0.00     0.048 A 
ATOM     19  C   UNL A   1      36.352  23.587  25.415  1.00  0.00     0.048 A 
ATOM     20  C   UNL A   1      34.214  21.855  25.003  1.00  0.00     0.029 A 
ATOM     21  C   UNL A   1      35.040  24.071  25.380  1.00  0.00     0.029 A 
BRANCH  17  22
ATOM     22  O   UNL A   1      37.851  21.738  25.030  1.00  0.00    -0.497 OA
ATOM     23  C   UNL A   1      37.850  20.320  24.896  1.00  0.00     0.278 C 
ENDBRANCH  17  22
ENDBRANCH  14  16
ENDBRANCH  11  14
ENDBRANCH   7  11
ENDBRANCH   3   6
ENDBRANCH   1   2
BRANCH   1  24
ATOM     24  C   UNL A   1      31.066  31.972  26.314  1.00  0.00     0.042 C 
BRANCH  24  25
ATOM     25  C   UNL A   1      32.406  32.442  26.864  1.00  0.00     0.118 C 
BRANCH  25  26
ATOM     26  N   UNL A   1      32.313  33.760  27.474  1.00  0.00    -0.352 N 
ATOM     27  C   UNL A   1      33.085  34.343  28.441  1.00  0.00     0.251 C 
ATOM     28  H   UNL A   1      31.576  34.321  27.137  1.00  0.00     0.163 HD
ATOM     29  O   UNL A   1      32.695  35.384  28.972  1.00  0.00    -0.269 OA
BRANCH  27  30
ATOM     30  C   UNL A   1      34.369  33.744  28.861  1.00  0.00     0.039 A 
ATOM     31  C   UNL A   1      35.470  33.868  28.009  1.00  0.00     0.014 A 
ATOM     32  C   UNL A   1      34.485  33.013  30.047  1.00  0.00     0.014 A 
ATOM     33  C   UNL A   1      36.689  33.289  28.359  1.00  0.00     0.010 A 
ATOM     34  C   UNL A   1      35.722  32.504  30.435  1.00  0.00     0.010 A 
ATOM     35  C   UNL A   1      36.832  32.619  29.586  1.00  0.00    -0.014 A 
BRANCH  35  36
ATOM     36  C   UNL A   1      38.134  32.026  29.973  1.00  0.00     0.031 A 
ATOM     37  C   UNL A   1      39.043  32.739  30.935  1.00  0.00     0.074 A 
ATOM     38  C   UNL A   1      38.509  30.849  29.434  1.00  0.00     0.049 A 
ATOM     39  N   UNL A   1      40.199  32.355  31.417  1.00  0.00    -0.248 NA
ATOM     40  C   UNL A   1      38.614  34.069  31.399  1.00  0.00     0.031 C 
ATOM     41  C   UNL A   1      37.743  30.088  28.446  1.00  0.00     0.029 A 
ATOM     42  N   UNL A   1      39.626  30.085  29.650  1.00  0.00    -0.354 N 
ATOM     43  C   UNL A   1      40.638  33.398  32.223  1.00  0.00     0.074 A 
ATOM     44  C   UNL A   1      39.653  34.451  32.127  1.00  0.00     0.031 C 
ATOM     45  C   UNL A   1      38.392  28.946  28.172  1.00  0.00     0.029 A 
ATOM     46  C   UNL A   1      39.630  28.907  28.943  1.00  0.00     0.049 A 
ATOM     47  H   UNL A   1      40.357  30.355  30.253  1.00  0.00     0.167 HD
ATOM     48  C   UNL A   1      41.752  33.465  32.992  1.00  0.00     0.031 A 
ATOM     49  C   UNL A   1      40.524  27.901  28.929  1.00  0.00     0.031 A 
ATOM     50  C   UNL A   1      42.724  32.410  33.099  1.00  0.00     0.049 A 
ATOM     51  C   UNL A   1      41.733  27.982  29.817  1.00  0.00     0.074 A 
ATOM     52  C   UNL A   1      43.853  32.353  33.897  1.00  0.00     0.029 A 
ATOM     53  N   UNL A   1      42.678  31.222  32.385  1.00  0.00    -0.354 N 
ATOM     54  N   UNL A   1      42.091  28.940  30.636  1.00  0.00    -0.248 NA
ATOM     55  C   UNL A   1      42.646  26.832  29.794  1.00  0.00     0.031 C 
ATOM     56  C   UNL A   1      44.515  31.149  33.633  1.00  0.00     0.029 A 
ATOM     57  C   UNL A   1      43.768  30.433  32.710  1.00  0.00     0.049 A 
ATOM     58  H   UNL A   1      41.975  30.977  31.741  1.00  0.00     0.167 HD
ATOM     59  C   UNL A   1      43.256  28.497  31.248  1.00  0.00     0.074 A 
ATOM     60  C   UNL A   1      43.533  27.178  30.715  1.00  0.00     0.031 C 
ATOM     61  C   UNL A   1      44.028  29.124  32.170  1.00  0.00     0.031 A 
BRANCH  48  62
ATOM     62  C   UNL A   1      41.975  34.729  33.776  1.00  0.00    -0.014 A 
ATOM     63  C   UNL A   1      42.658  35.821  33.216  1.00  0.00     0.009 A 
ATOM     64  C   UNL A   1      41.474  34.839  35.081  1.00  0.00     0.009 A 
ATOM     65  C   UNL A   1      42.868  36.983  33.962  1.00  0.00     0.001 A 
ATOM     66  C   UNL A   1      41.660  36.013  35.815  1.00  0.00     0.001 A 
ATOM     67  C   UNL A   1      42.365  37.079  35.259  1.00  0.00     0.000 A 
ENDBRANCH  48  62
BRANCH  49  68
ATOM     68  C   UNL A   1      40.279  26.708  28.078  1.00  0.00    -0.014 A 
ATOM     69  C   UNL A   1      40.831  26.629  26.790  1.00  0.00     0.009 A 
ATOM     70  C   UNL A   1      39.505  25.640  28.553  1.00  0.00     0.009 A 
ATOM     71  C   UNL A   1      40.590  25.514  25.985  1.00  0.00     0.001 A 
ATOM     72  C   UNL A   1      39.289  24.513  27.756  1.00  0.00     0.001 A 
ATOM     73  C   UNL A   1      39.824  24.455  26.471  1.00  0.00     0.000 A 
ENDBRANCH  49  68
BRANCH  61  74
ATOM     74  C   UNL A   1      45.222  28.374  32.686  1.00  0.00    -0.014 A 
ATOM     75  C   UNL A   1      46.492  28.543  32.115  1.00  0.00     0.009 A 
ATOM     76  C   UNL A   1      45.074  27.504  33.776  1.00  0.00     0.009 A 
ATOM     77  C   UNL A   1      47.585  27.824  32.604  1.00  0.00     0.001 A 
ATOM     78  C   UNL A   1      46.173  26.808  34.281  1.00  0.00     0.001 A 
ATOM     79  C   UNL A   1      47.426  26.961  33.687  1.00  0.00     0.000 A 
ENDBRANCH  61  74
ENDBRANCH  35  36
ENDBRANCH  27  30
ENDBRANCH  25  26
ENDBRANCH  24  25
ENDBRANCH   1  24
TORSDOF 14
ENDMDL
MODEL 2
REMARK VINA RESULT:     -10.5      1.434      6.189
REMARK SMILES COc1ccc(NC(C)(C)C2=N[C@@H](C(=O)NCCCNC(=O)c3ccc(-c4c5nc(c(-c6ccccc6)c6ccc([nH]6)c(-c6ccccc6)c6nc(c(-c7ccccc7)c7ccc4[nH]7)C=C6)C=C5)cc3)CS2)cc1
REMARK SMILES IDX 17 1 16 2 14 3 15 4 13 6 11 7 12 8 72 9 71 10 8 11 9 12
REMARK SMILES IDX 10 13 7 14 6 16 3 17 4 18 74 19 5 20 73 21 2 22 1 23 18 24
REMARK SMILES IDX 19 25 20 26 21 27 22 29 23 30 24 31 70 32 25 33 69 34 26 35
REMARK SMILES IDX 27 36 28 37 63 38 29 39 68 40 62 41 64 42 30 43 67 44 61 45
REMARK SMILES IDX 60 46 31 48 53 49 38 50 52 51 39 52 42 53 51 54 65 55 40 56
REMARK SMILES IDX 41 57 50 59 66 60 43 61 32 62 33 63 37 64 34 65 36 66 35 67
REMARK SMILES IDX 54 68 55 69 59 70 56 71 58 72 57 73 44 74 45 75 49 76 46 77
REMARK SMILES IDX 48 78 47 79
REMARK H PARENT 16 5 7 15 20 28 64 47 42 58
REMARK Flexibility Score: inf
ROOT
ATOM      1  C   UNL A   1      31.404  30.373  26.065  1.00  0.00     0.117 C 
ENDROOT
BRANCH   1   2
ATOM      2  N   UNL A   1      31.319  30.077  24.652  1.00  0.00    -0.354 N 
ATOM      3  C   UNL A   1      31.110  28.906  23.991  1.00  0.00     0.245 C 
ATOM      4  O   UNL A   1      31.124  28.961  22.756  1.00  0.00    -0.273 OA
ATOM      5  H   UNL A   1      31.433  30.861  24.065  1.00  0.00     0.163 HD
BRANCH   3   6
ATOM      6  C   UNL A   1      30.928  27.559  24.698  1.00  0.00     0.205 C 
ATOM      7  C   UNL A   1      32.112  25.623  24.314  1.00  0.00     0.094 C 
ATOM      8  N   UNL A   1      32.205  26.817  24.810  1.00  0.00    -0.266 NA
ATOM      9  S   UNL A   1      30.617  25.228  23.474  1.00  0.00    -0.106 SA
ATOM     10  C   UNL A   1      29.812  26.701  24.130  1.00  0.00     0.113 C 
BRANCH   7  11
ATOM     11  C   UNL A   1      33.261  24.591  24.400  1.00  0.00     0.080 C 
ATOM     12  C   UNL A   1      34.485  25.206  25.102  1.00  0.00     0.042 C 
ATOM     13  C   UNL A   1      33.681  24.210  22.966  1.00  0.00     0.042 C 
BRANCH  11  14
ATOM     14  N   UNL A   1      32.923  23.341  25.118  1.00  0.00    -0.374 N 
ATOM     15  H   UNL A   1      32.363  23.446  25.920  1.00  0.00     0.161 HD
BRANCH  14  16
ATOM     16  C   UNL A   1      33.291  22.048  24.809  1.00  0.00     0.035 A 
ATOM     17  C   UNL A   1      33.772  19.279  24.620  1.00  0.00     0.119 A 
ATOM     18  C   UNL A   1      34.794  20.140  24.997  1.00  0.00     0.048 A 
ATOM     19  C   UNL A   1      32.527  19.789  24.270  1.00  0.00     0.048 A 
ATOM     20  C   UNL A   1      34.563  21.517  25.052  1.00  0.00     0.029 A 
ATOM     21  C   UNL A   1      32.296  21.165  24.361  1.00  0.00     0.029 A 
BRANCH  17  22
ATOM     22  O   UNL A   1      34.000  17.936  24.733  1.00  0.00    -0.497 OA
ATOM     23  C   UNL A   1      32.812  17.221  25.059  1.00  0.00     0.278 C 
ENDBRANCH  17  22
ENDBRANCH  14  16
ENDBRANCH  11  14
ENDBRANCH   7  11
ENDBRANCH   3   6
ENDBRANCH   1   2
BRANCH   1  24
ATOM     24  C   UNL A   1      31.365  31.872  26.344  1.00  0.00     0.042 C 
BRANCH  24  25
ATOM     25  C   UNL A   1      32.678  32.421  26.886  1.00  0.00     0.118 C 
BRANCH  25  26
ATOM     26  N   UNL A   1      32.509  33.730  27.499  1.00  0.00    -0.352 N 
ATOM     27  C   UNL A   1      33.176  34.309  28.543  1.00  0.00     0.251 C 
ATOM     28  H   UNL A   1      31.803  34.288  27.098  1.00  0.00     0.163 HD
ATOM     29  O   UNL A   1      32.725  35.340  29.045  1.00  0.00    -0.269 OA
BRANCH  27  30
ATOM     30  C   UNL A   1      34.421  33.720  29.079  1.00  0.00     0.039 A 
ATOM     31  C   UNL A   1      35.629  34.028  28.446  1.00  0.00     0.014 A 
ATOM     32  C   UNL A   1      34.406  32.823  30.151  1.00  0.00     0.014 A 
ATOM     33  C   UNL A   1      36.818  33.464  28.907  1.00  0.00     0.010 A 
ATOM     34  C   UNL A   1      35.602  32.325  30.661  1.00  0.00     0.010 A 
ATOM     35  C   UNL A   1      36.818  32.623  30.032  1.00  0.00    -0.014 A 
BRANCH  35  36
ATOM     36  C   UNL A   1      38.085  32.045  30.540  1.00  0.00     0.031 A 
ATOM     37  C   UNL A   1      38.643  30.782  29.943  1.00  0.00     0.074 A 
ATOM     38  C   UNL A   1      38.722  32.648  31.563  1.00  0.00     0.049 A 
ATOM     39  N   UNL A   1      39.755  30.155  30.233  1.00  0.00    -0.248 NA
ATOM     40  C   UNL A   1      37.837  30.123  28.902  1.00  0.00     0.031 C 
ATOM     41  C   UNL A   1      38.252  33.843  32.266  1.00  0.00     0.029 A 
ATOM     42  N   UNL A   1      39.905  32.341  32.183  1.00  0.00    -0.354 N 
ATOM     43  C   UNL A   1      39.773  29.024  29.425  1.00  0.00     0.074 A 
ATOM     44  C   UNL A   1      38.540  29.023  28.671  1.00  0.00     0.031 C 
ATOM     45  C   UNL A   1      39.159  34.192  33.192  1.00  0.00     0.029 A 
ATOM     46  C   UNL A   1      40.257  33.233  33.167  1.00  0.00     0.049 A 
ATOM     47  H   UNL A   1      40.451  31.556  31.946  1.00  0.00     0.167 HD
ATOM     48  C   UNL A   1      40.739  28.082  29.306  1.00  0.00     0.031 A 
ATOM     49  C   UNL A   1      41.350  33.281  33.950  1.00  0.00     0.031 A 
ATOM     50  C   UNL A   1      41.973  28.092  30.046  1.00  0.00     0.049 A 
ATOM     51  C   UNL A   1      42.424  32.246  33.774  1.00  0.00     0.074 A 
ATOM     52  C   UNL A   1      43.042  27.219  29.953  1.00  0.00     0.029 A 
ATOM     53  N   UNL A   1      42.301  29.027  31.015  1.00  0.00    -0.354 N 
ATOM     54  N   UNL A   1      42.462  31.229  32.948  1.00  0.00    -0.248 NA
ATOM     55  C   UNL A   1      43.614  32.379  34.625  1.00  0.00     0.031 C 
ATOM     56  C   UNL A   1      44.001  27.601  30.899  1.00  0.00     0.029 A 
ATOM     57  C   UNL A   1      43.550  28.743  31.542  1.00  0.00     0.049 A 
ATOM     58  H   UNL A   1      41.731  29.781  31.290  1.00  0.00     0.167 HD
ATOM     59  C   UNL A   1      43.692  30.619  33.157  1.00  0.00     0.074 A 
ATOM     60  C   UNL A   1      44.373  31.390  34.178  1.00  0.00     0.031 C 
ATOM     61  C   UNL A   1      44.212  29.520  32.557  1.00  0.00     0.031 A 
BRANCH  48  62
ATOM     62  C   UNL A   1      40.492  26.958  28.338  1.00  0.00    -0.014 A 
ATOM     63  C   UNL A   1      39.725  25.839  28.701  1.00  0.00     0.009 A 
ATOM     64  C   UNL A   1      41.011  27.031  27.036  1.00  0.00     0.009 A 
ATOM     65  C   UNL A   1      39.517  24.798  27.794  1.00  0.00     0.001 A 
ATOM     66  C   UNL A   1      40.775  26.002  26.121  1.00  0.00     0.001 A 
ATOM     67  C   UNL A   1      40.038  24.883  26.504  1.00  0.00     0.000 A 
ENDBRANCH  48  62
BRANCH  49  68
ATOM     68  C   UNL A   1      41.502  34.379  34.938  1.00  0.00    -0.014 A 
ATOM     69  C   UNL A   1      42.073  35.604  34.557  1.00  0.00     0.009 A 
ATOM     70  C   UNL A   1      41.068  34.215  36.262  1.00  0.00     0.009 A 
ATOM     71  C   UNL A   1      42.229  36.632  35.489  1.00  0.00     0.001 A 
ATOM     72  C   UNL A   1      41.199  35.255  37.184  1.00  0.00     0.001 A 
ATOM     73  C   UNL A   1      41.787  36.459  36.800  1.00  0.00     0.000 A 
ENDBRANCH  49  68
BRANCH  61  74
ATOM     74  C   UNL A   1      45.598  29.111  32.965  1.00  0.00    -0.014 A 
ATOM     75  C   UNL A   1      46.731  29.621  32.313  1.00  0.00     0.009 A 
ATOM     76  C   UNL A   1      45.770  28.220  34.035  1.00  0.00     0.009 A 
ATOM     77  C   UNL A   1      48.010  29.215  32.701  1.00  0.00     0.001 A 
ATOM     78  C   UNL A   1      47.049  27.837  34.439  1.00  0.00     0.001 A 
ATOM     79  C   UNL A   1      48.167  28.327  33.765  1.00  0.00     0.000 A 
ENDBRANCH  61  74
ENDBRANCH  35  36
ENDBRANCH  27  30
ENDBRANCH  25  26
ENDBRANCH  24  25
ENDBRANCH   1  24
TORSDOF 14
ENDMDL
MODEL 3
REMARK VINA RESULT:     -10.5      1.484      1.890
REMARK SMILES COc1ccc(NC(C)(C)C2=N[C@@H](C(=O)NCCCNC(=O)c3ccc(-c4c5nc(c(-c6ccccc6)c6ccc([nH]6)c(-c6ccccc6)c6nc(c(-c7ccccc7)c7ccc4[nH]7)C=C6)C=C5)cc3)CS2)cc1
REMARK SMILES IDX 17 1 16 2 14 3 15 4 13 6 11 7 12 8 72 9 71 10 8 11 9 12
REMARK SMILES IDX 10 13 7 14 6 16 3 17 4 18 74 19 5 20 73 21 2 22 1 23 18 24
REMARK SMILES IDX 19 25 20 26 21 27 22 29 23 30 24 31 70 32 25 33 69 34 26 35
REMARK SMILES IDX 27 36 28 37 63 38 29 39 68 40 62 41 64 42 30 43 67 44 61 45
REMARK SMILES IDX 60 46 31 48 53 49 38 50 52 51 39 52 42 53 51 54 65 55 40 56
REMARK SMILES IDX 41 57 50 59 66 60 43 61 32 62 33 63 37 64 34 65 36 66 35 67
REMARK SMILES IDX 54 68 55 69 59 70 56 71 58 72 57 73 44 74 45 75 49 76 46 77
REMARK SMILES IDX 48 78 47 79
REMARK H PARENT 16 5 7 15 20 28 64 47 42 58
REMARK Flexibility Score: inf
ROOT
ATOM      1  C   UNL A   1      31.532  29.686  25.399  1.00  0.00     0.117 C 
ENDROOT
BRANCH   1   2
ATOM      2  N   UNL A   1      32.614  29.558  24.447  1.00  0.00    -0.354 N 
ATOM      3  C   UNL A   1      33.070  28.485  23.746  1.00  0.00     0.245 C 
ATOM      4  O   UNL A   1      34.052  28.679  23.020  1.00  0.00    -0.273 OA
ATOM      5  H   UNL A   1      33.105  30.395  24.276  1.00  0.00     0.163 HD
BRANCH   3   6
ATOM      6  C   UNL A   1      32.470  27.080  23.868  1.00  0.00     0.205 C 
ATOM      7  C   UNL A   1      33.615  25.084  23.889  1.00  0.00     0.094 C 
ATOM      8  N   UNL A   1      33.378  26.153  24.583  1.00  0.00    -0.266 NA
ATOM      9  S   UNL A   1      32.999  25.054  22.242  1.00  0.00    -0.106 SA
ATOM     10  C   UNL A   1      31.969  26.499  22.559  1.00  0.00     0.113 C 
BRANCH   7  11
ATOM     11  C   UNL A   1      34.438  23.896  24.442  1.00  0.00     0.080 C 
ATOM     12  C   UNL A   1      35.338  24.359  25.602  1.00  0.00     0.042 C 
ATOM     13  C   UNL A   1      35.352  23.372  23.316  1.00  0.00     0.042 C 
BRANCH  11  14
ATOM     14  N   UNL A   1      33.633  22.757  24.935  1.00  0.00    -0.374 N 
ATOM     15  H   UNL A   1      33.074  22.937  25.725  1.00  0.00     0.161 HD
BRANCH  14  16
ATOM     16  C   UNL A   1      33.565  21.473  24.433  1.00  0.00     0.035 A 
ATOM     17  C   UNL A   1      32.976  18.819  23.697  1.00  0.00     0.119 A 
ATOM     18  C   UNL A   1      34.017  19.084  24.576  1.00  0.00     0.048 A 
ATOM     19  C   UNL A   1      32.264  19.868  23.126  1.00  0.00     0.048 A 
ATOM     20  C   UNL A   1      34.332  20.405  24.909  1.00  0.00     0.029 A 
ATOM     21  C   UNL A   1      32.565  21.184  23.492  1.00  0.00     0.029 A 
BRANCH  17  22
ATOM     22  O   UNL A   1      32.607  17.514  23.525  1.00  0.00    -0.497 OA
ATOM     23  C   UNL A   1      33.682  16.619  23.792  1.00  0.00     0.278 C 
ENDBRANCH  17  22
ENDBRANCH  14  16
ENDBRANCH  11  14
ENDBRANCH   7  11
ENDBRANCH   3   6
ENDBRANCH   1   2
BRANCH   1  24
ATOM     24  C   UNL A   1      31.371  31.117  25.901  1.00  0.00     0.042 C 
BRANCH  24  25
ATOM     25  C   UNL A   1      32.402  31.508  26.953  1.00  0.00     0.118 C 
BRANCH  25  26
ATOM     26  N   UNL A   1      32.333  32.924  27.283  1.00  0.00    -0.352 N 
ATOM     27  C   UNL A   1      33.129  33.681  28.098  1.00  0.00     0.251 C 
ATOM     28  H   UNL A   1      31.596  33.415  26.850  1.00  0.00     0.163 HD
ATOM     29  O   UNL A   1      32.760  34.814  28.410  1.00  0.00    -0.269 OA
BRANCH  27  30
ATOM     30  C   UNL A   1      34.415  33.163  28.609  1.00  0.00     0.039 A 
ATOM     31  C   UNL A   1      35.579  33.445  27.889  1.00  0.00     0.014 A 
ATOM     32  C   UNL A   1      34.479  32.355  29.748  1.00  0.00     0.014 A 
ATOM     33  C   UNL A   1      36.806  32.946  28.327  1.00  0.00     0.010 A 
ATOM     34  C   UNL A   1      35.713  31.924  30.230  1.00  0.00     0.010 A 
ATOM     35  C   UNL A   1      36.886  32.198  29.514  1.00  0.00    -0.014 A 
BRANCH  35  36
ATOM     36  C   UNL A   1      38.192  31.689  29.996  1.00  0.00     0.031 A 
ATOM     37  C   UNL A   1      38.949  32.422  31.069  1.00  0.00     0.074 A 
ATOM     38  C   UNL A   1      38.710  30.574  29.444  1.00  0.00     0.049 A 
ATOM     39  N   UNL A   1      40.084  32.105  31.640  1.00  0.00    -0.248 NA
ATOM     40  C   UNL A   1      38.371  33.688  31.548  1.00  0.00     0.031 C 
ATOM     41  C   UNL A   1      38.102  29.807  28.356  1.00  0.00     0.029 A 
ATOM     42  N   UNL A   1      39.863  29.890  29.731  1.00  0.00    -0.354 N 
ATOM     43  C   UNL A   1      40.362  33.136  32.529  1.00  0.00     0.074 A 
ATOM     44  C   UNL A   1      39.306  34.113  32.386  1.00  0.00     0.031 C 
ATOM     45  C   UNL A   1      38.865  28.734  28.096  1.00  0.00     0.029 A 
ATOM     46  C   UNL A   1      40.028  28.753  28.977  1.00  0.00     0.049 A 
ATOM     47  H   UNL A   1      40.511  30.184  30.411  1.00  0.00     0.167 HD
ATOM     48  C   UNL A   1      41.392  33.251  33.402  1.00  0.00     0.031 A 
ATOM     49  C   UNL A   1      40.998  27.822  29.003  1.00  0.00     0.031 A 
ATOM     50  C   UNL A   1      42.434  32.270  33.554  1.00  0.00     0.049 A 
ATOM     51  C   UNL A   1      42.111  27.952  30.004  1.00  0.00     0.074 A 
ATOM     52  C   UNL A   1      43.486  32.262  34.451  1.00  0.00     0.029 A 
ATOM     53  N   UNL A   1      42.550  31.121  32.788  1.00  0.00    -0.354 N 
ATOM     54  N   UNL A   1      42.314  28.892  30.894  1.00  0.00    -0.248 NA
ATOM     55  C   UNL A   1      43.114  26.879  30.017  1.00  0.00     0.031 C 
ATOM     56  C   UNL A   1      44.267  31.127  34.199  1.00  0.00     0.029 A 
ATOM     57  C   UNL A   1      43.668  30.404  33.180  1.00  0.00     0.049 A 
ATOM     58  H   UNL A   1      41.931  30.854  32.070  1.00  0.00     0.167 HD
ATOM     59  C   UNL A   1      43.452  28.510  31.594  1.00  0.00     0.074 A 
ATOM     60  C   UNL A   1      43.883  27.245  31.033  1.00  0.00     0.031 C 
ATOM     61  C   UNL A   1      44.082  29.148  32.610  1.00  0.00     0.031 A 
BRANCH  48  62
ATOM     62  C   UNL A   1      41.439  34.487  34.257  1.00  0.00    -0.014 A 
ATOM     63  C   UNL A   1      42.148  35.628  33.849  1.00  0.00     0.009 A 
ATOM     64  C   UNL A   1      40.742  34.520  35.475  1.00  0.00     0.009 A 
ATOM     65  C   UNL A   1      42.192  36.763  34.662  1.00  0.00     0.001 A 
ATOM     66  C   UNL A   1      40.763  35.668  36.271  1.00  0.00     0.001 A 
ATOM     67  C   UNL A   1      41.497  36.783  35.869  1.00  0.00     0.000 A 
ENDBRANCH  48  62
BRANCH  49  68
ATOM     68  C   UNL A   1      40.931  26.658  28.083  1.00  0.00    -0.014 A 
ATOM     69  C   UNL A   1      41.523  26.722  26.812  1.00  0.00     0.009 A 
ATOM     70  C   UNL A   1      40.285  25.476  28.473  1.00  0.00     0.009 A 
ATOM     71  C   UNL A   1      41.449  25.633  25.941  1.00  0.00     0.001 A 
ATOM     72  C   UNL A   1      40.236  24.379  27.610  1.00  0.00     0.001 A 
ATOM     73  C   UNL A   1      40.810  24.461  26.343  1.00  0.00     0.000 A 
ENDBRANCH  49  68
BRANCH  61  74
ATOM     74  C   UNL A   1      45.282  28.468  33.204  1.00  0.00    -0.014 A 
ATOM     75  C   UNL A   1      46.576  28.717  32.720  1.00  0.00     0.009 A 
ATOM     76  C   UNL A   1      45.115  27.583  34.279  1.00  0.00     0.009 A 
ATOM     77  C   UNL A   1      47.675  28.062  33.279  1.00  0.00     0.001 A 
ATOM     78  C   UNL A   1      46.218  26.951  34.854  1.00  0.00     0.001 A 
ATOM     79  C   UNL A   1      47.496  27.184  34.347  1.00  0.00     0.000 A 
ENDBRANCH  61  74
ENDBRANCH  35  36
ENDBRANCH  27  30
ENDBRANCH  25  26
ENDBRANCH  24  25
ENDBRANCH   1  24
TORSDOF 14
ENDMDL
