MODEL 1
REMARK VINA RESULT:      -9.7      0.000      0.000
REMARK SMILES O=C(CC[N@@H+]1CCc2ccccc2C1)NCCCNC(=O)c1ccc(-c2c3nc(c(-c4ccccc4)c4ccc([nH]4)c(-c4ccccc4)c4nc(c(-c5ccccc5)c5ccc2[nH]5)C=C4)C=C3)cc1
REMARK SMILES IDX 17 1 16 2 15 3 1 4 2 5 3 7 4 8 5 9 6 10 14 11 7 13 13 14
REMARK SMILES IDX 8 15 12 16 9 17 11 18 10 19 18 20 19 21 20 22 21 24 22 25
REMARK SMILES IDX 23 26 69 27 24 28 68 29 25 30 26 31 27 32 62 33 28 34 67 35
REMARK SMILES IDX 61 36 63 37 29 38 66 39 60 40 59 41 30 43 52 44 37 45 51 46
REMARK SMILES IDX 38 47 41 48 50 49 64 50 39 51 40 52 49 54 65 55 42 56 31 57
REMARK SMILES IDX 32 58 36 59 33 60 35 61 34 62 53 63 54 64 58 65 55 66 57 67
REMARK SMILES IDX 56 68 43 69 44 70 48 71 45 72 47 73 46 74
REMARK H PARENT 15 6 5 12 19 23 63 42 41 53
REMARK Flexibility Score: inf
ROOT
ATOM      1  C   UNL A   1      44.904  19.710  24.158  1.00  0.00     0.042 C 
ENDROOT
BRANCH   1   2
ATOM      2  C   UNL A   1      46.321  20.278  24.228  1.00  0.00     0.117 C 
BRANCH   2   3
ATOM      3  N   UNL A   1      46.404  21.468  25.050  1.00  0.00    -0.356 N 
ATOM      4  O   UNL A   1      45.410  22.860  23.535  1.00  0.00    -0.275 OA
ATOM      5  C   UNL A   1      45.936  22.688  24.633  1.00  0.00     0.225 C 
ATOM      6  H   UNL A   1      46.812  21.398  25.943  1.00  0.00     0.163 HD
BRANCH   5   7
ATOM      7  C   UNL A   1      46.213  23.863  25.551  1.00  0.00     0.161 C 
BRANCH   7   8
ATOM      8  C   UNL A   1      46.748  25.148  24.913  1.00  0.00     0.272 C 
BRANCH   8   9
ATOM      9  N   UNL A   1      45.894  26.351  24.992  1.00  0.00    -0.330 N 
ATOM     10  C   UNL A   1      46.565  27.402  25.809  1.00  0.00     0.267 C 
ATOM     11  C   UNL A   1      44.517  26.066  25.446  1.00  0.00     0.299 C 
ATOM     12  H   UNL A   1      45.780  26.708  24.043  1.00  0.00     0.348 HD
ATOM     13  C   UNL A   1      45.793  27.921  27.041  1.00  0.00     0.097 C 
ATOM     14  C   UNL A   1      43.753  27.327  25.782  1.00  0.00     0.010 A 
ATOM     15  C   UNL A   1      44.383  28.248  26.635  1.00  0.00    -0.034 A 
ATOM     16  C   UNL A   1      42.457  27.581  25.328  1.00  0.00     0.010 A 
ATOM     17  C   UNL A   1      43.712  29.396  27.055  1.00  0.00     0.004 A 
ATOM     18  C   UNL A   1      41.802  28.751  25.715  1.00  0.00     0.001 A 
ATOM     19  C   UNL A   1      42.424  29.650  26.584  1.00  0.00     0.000 A 
ENDBRANCH   8   9
ENDBRANCH   7   8
ENDBRANCH   5   7
ENDBRANCH   2   3
ENDBRANCH   1   2
BRANCH   1  20
ATOM     20  C   UNL A   1      44.358  19.195  25.489  1.00  0.00     0.118 C 
BRANCH  20  21
ATOM     21  N   UNL A   1      42.945  18.850  25.445  1.00  0.00    -0.352 N 
ATOM     22  C   UNL A   1      41.840  19.525  25.891  1.00  0.00     0.251 C 
ATOM     23  H   UNL A   1      42.750  17.982  25.022  1.00  0.00     0.163 HD
ATOM     24  O   UNL A   1      40.737  18.971  25.853  1.00  0.00    -0.269 OA
BRANCH  22  25
ATOM     25  C   UNL A   1      41.937  20.893  26.446  1.00  0.00     0.039 A 
ATOM     26  C   UNL A   1      41.631  21.084  27.798  1.00  0.00     0.014 A 
ATOM     27  C   UNL A   1      42.280  21.992  25.654  1.00  0.00     0.014 A 
ATOM     28  C   UNL A   1      41.749  22.351  28.373  1.00  0.00     0.010 A 
ATOM     29  C   UNL A   1      42.447  23.250  26.237  1.00  0.00     0.010 A 
ATOM     30  C   UNL A   1      42.203  23.438  27.607  1.00  0.00    -0.014 A 
BRANCH  30  31
ATOM     31  C   UNL A   1      42.500  24.747  28.243  1.00  0.00     0.031 A 
ATOM     32  C   UNL A   1      43.839  25.027  28.864  1.00  0.00     0.074 A 
ATOM     33  C   UNL A   1      41.523  25.672  28.319  1.00  0.00     0.049 A 
ATOM     34  N   UNL A   1      44.239  26.092  29.513  1.00  0.00    -0.248 NA
ATOM     35  C   UNL A   1      44.856  23.971  28.753  1.00  0.00     0.031 C 
ATOM     36  C   UNL A   1      40.169  25.519  27.780  1.00  0.00     0.029 A 
ATOM     37  N   UNL A   1      41.513  26.920  28.891  1.00  0.00    -0.354 N 
ATOM     38  C   UNL A   1      45.549  25.834  29.895  1.00  0.00     0.074 A 
ATOM     39  C   UNL A   1      45.864  24.497  29.435  1.00  0.00     0.031 C 
ATOM     40  C   UNL A   1      39.467  26.635  28.034  1.00  0.00     0.029 A 
ATOM     41  C   UNL A   1      40.303  27.562  28.790  1.00  0.00     0.049 A 
ATOM     42  H   UNL A   1      42.299  27.317  29.332  1.00  0.00     0.167 HD
ATOM     43  C   UNL A   1      46.413  26.640  30.558  1.00  0.00     0.031 A 
ATOM     44  C   UNL A   1      39.900  28.755  29.266  1.00  0.00     0.031 A 
ATOM     45  C   UNL A   1      46.101  27.967  31.023  1.00  0.00     0.049 A 
ATOM     46  C   UNL A   1      40.863  29.607  30.041  1.00  0.00     0.074 A 
ATOM     47  C   UNL A   1      46.933  28.876  31.658  1.00  0.00     0.029 A 
ATOM     48  N   UNL A   1      44.860  28.573  30.915  1.00  0.00    -0.354 N 
ATOM     49  N   UNL A   1      42.117  29.373  30.336  1.00  0.00    -0.248 NA
ATOM     50  C   UNL A   1      40.353  30.891  30.542  1.00  0.00     0.031 C 
ATOM     51  C   UNL A   1      46.180  30.008  31.984  1.00  0.00     0.029 A 
ATOM     52  C   UNL A   1      44.893  29.828  31.504  1.00  0.00     0.049 A 
ATOM     53  H   UNL A   1      44.071  28.171  30.485  1.00  0.00     0.167 HD
ATOM     54  C   UNL A   1      42.554  30.488  31.041  1.00  0.00     0.074 A 
ATOM     55  C   UNL A   1      41.435  31.405  31.110  1.00  0.00     0.031 C 
ATOM     56  C   UNL A   1      43.772  30.729  31.580  1.00  0.00     0.031 A 
BRANCH  43  57
ATOM     57  C   UNL A   1      47.789  26.100  30.839  1.00  0.00    -0.014 A 
ATOM     58  C   UNL A   1      48.779  26.078  29.844  1.00  0.00     0.009 A 
ATOM     59  C   UNL A   1      48.115  25.658  32.131  1.00  0.00     0.009 A 
ATOM     60  C   UNL A   1      50.057  25.591  30.129  1.00  0.00     0.001 A 
ATOM     61  C   UNL A   1      49.401  25.197  32.419  1.00  0.00     0.001 A 
ATOM     62  C   UNL A   1      50.367  25.156  31.416  1.00  0.00     0.000 A 
ENDBRANCH  43  57
BRANCH  44  63
ATOM     63  C   UNL A   1      38.507  29.214  29.029  1.00  0.00    -0.014 A 
ATOM     64  C   UNL A   1      38.134  29.737  27.781  1.00  0.00     0.009 A 
ATOM     65  C   UNL A   1      37.546  29.137  30.049  1.00  0.00     0.009 A 
ATOM     66  C   UNL A   1      36.832  30.195  27.569  1.00  0.00     0.001 A 
ATOM     67  C   UNL A   1      36.238  29.569  29.824  1.00  0.00     0.001 A 
ATOM     68  C   UNL A   1      35.884  30.106  28.588  1.00  0.00     0.000 A 
ENDBRANCH  44  63
BRANCH  56  69
ATOM     69  C   UNL A   1      43.965  32.046  32.278  1.00  0.00    -0.014 A 
ATOM     70  C   UNL A   1      44.424  33.177  31.584  1.00  0.00     0.009 A 
ATOM     71  C   UNL A   1      43.658  32.164  33.643  1.00  0.00     0.009 A 
ATOM     72  C   UNL A   1      44.601  34.390  32.251  1.00  0.00     0.001 A 
ATOM     73  C   UNL A   1      43.809  33.385  34.301  1.00  0.00     0.001 A 
ATOM     74  C   UNL A   1      44.288  34.495  33.607  1.00  0.00     0.000 A 
ENDBRANCH  56  69
ENDBRANCH  30  31
ENDBRANCH  22  25
ENDBRANCH  20  21
ENDBRANCH   1  20
TORSDOF 12
ENDMDL
MODEL 2
REMARK VINA RESULT:      -9.1      0.725      6.200
REMARK SMILES O=C(CC[N@@H+]1CCc2ccccc2C1)NCCCNC(=O)c1ccc(-c2c3nc(c(-c4ccccc4)c4ccc([nH]4)c(-c4ccccc4)c4nc(c(-c5ccccc5)c5ccc2[nH]5)C=C4)C=C3)cc1
REMARK SMILES IDX 17 1 16 2 15 3 1 4 2 5 3 7 4 8 5 9 6 10 14 11 7 13 13 14
REMARK SMILES IDX 8 15 12 16 9 17 11 18 10 19 18 20 19 21 20 22 21 24 22 25
REMARK SMILES IDX 23 26 69 27 24 28 68 29 25 30 26 31 27 32 62 33 28 34 67 35
REMARK SMILES IDX 61 36 63 37 29 38 66 39 60 40 59 41 30 43 52 44 37 45 51 46
REMARK SMILES IDX 38 47 41 48 50 49 64 50 39 51 40 52 49 54 65 55 42 56 31 57
REMARK SMILES IDX 32 58 36 59 33 60 35 61 34 62 53 63 54 64 58 65 55 66 57 67
REMARK SMILES IDX 56 68 43 69 44 70 48 71 45 72 47 73 46 74
REMARK H PARENT 15 6 5 12 19 23 63 42 41 53
REMARK Flexibility Score: inf
ROOT
ATOM      1  C   UNL A   1      44.671  19.812  24.678  1.00  0.00     0.042 C 
ENDROOT
BRANCH   1   2
ATOM      2  C   UNL A   1      45.972  20.514  25.063  1.00  0.00     0.117 C 
BRANCH   2   3
ATOM      3  N   UNL A   1      45.751  21.846  25.591  1.00  0.00    -0.356 N 
ATOM      4  O   UNL A   1      45.618  22.877  23.556  1.00  0.00    -0.275 OA
ATOM      5  C   UNL A   1      45.590  22.943  24.784  1.00  0.00     0.225 C 
ATOM      6  H   UNL A   1      45.714  21.967  26.567  1.00  0.00     0.163 HD
BRANCH   5   7
ATOM      7  C   UNL A   1      45.499  24.285  25.485  1.00  0.00     0.161 C 
BRANCH   7   8
ATOM      8  C   UNL A   1      46.474  25.380  25.045  1.00  0.00     0.272 C 
BRANCH   8   9
ATOM      9  N   UNL A   1      46.035  26.782  25.206  1.00  0.00    -0.330 N 
ATOM     10  C   UNL A   1      47.217  27.664  25.432  1.00  0.00     0.267 C 
ATOM     11  C   UNL A   1      44.987  26.958  26.231  1.00  0.00     0.299 C 
ATOM     12  H   UNL A   1      45.588  27.064  24.333  1.00  0.00     0.348 HD
ATOM     13  C   UNL A   1      47.218  28.502  26.728  1.00  0.00     0.097 C 
ATOM     14  C   UNL A   1      44.756  28.412  26.571  1.00  0.00     0.010 A 
ATOM     15  C   UNL A   1      45.888  29.186  26.873  1.00  0.00    -0.034 A 
ATOM     16  C   UNL A   1      43.486  28.990  26.641  1.00  0.00     0.010 A 
ATOM     17  C   UNL A   1      45.750  30.515  27.273  1.00  0.00     0.004 A 
ATOM     18  C   UNL A   1      43.352  30.332  27.001  1.00  0.00     0.001 A 
ATOM     19  C   UNL A   1      44.480  31.089  27.326  1.00  0.00     0.000 A 
ENDBRANCH   8   9
ENDBRANCH   7   8
ENDBRANCH   5   7
ENDBRANCH   2   3
ENDBRANCH   1   2
BRANCH   1  20
ATOM     20  C   UNL A   1      44.027  19.003  25.803  1.00  0.00     0.118 C 
BRANCH  20  21
ATOM     21  N   UNL A   1      42.603  18.772  25.613  1.00  0.00    -0.352 N 
ATOM     22  C   UNL A   1      41.516  19.532  25.955  1.00  0.00     0.251 C 
ATOM     23  H   UNL A   1      42.383  17.924  25.162  1.00  0.00     0.163 HD
ATOM     24  O   UNL A   1      40.381  19.068  25.800  1.00  0.00    -0.269 OA
BRANCH  22  25
ATOM     25  C   UNL A   1      41.665  20.885  26.533  1.00  0.00     0.039 A 
ATOM     26  C   UNL A   1      41.476  21.042  27.912  1.00  0.00     0.014 A 
ATOM     27  C   UNL A   1      41.944  22.003  25.743  1.00  0.00     0.014 A 
ATOM     28  C   UNL A   1      41.648  22.295  28.505  1.00  0.00     0.010 A 
ATOM     29  C   UNL A   1      42.165  23.246  26.341  1.00  0.00     0.010 A 
ATOM     30  C   UNL A   1      42.039  23.400  27.730  1.00  0.00    -0.014 A 
BRANCH  30  31
ATOM     31  C   UNL A   1      42.393  24.692  28.371  1.00  0.00     0.031 A 
ATOM     32  C   UNL A   1      41.385  25.798  28.507  1.00  0.00     0.074 A 
ATOM     33  C   UNL A   1      43.662  24.894  28.775  1.00  0.00     0.049 A 
ATOM     34  N   UNL A   1      41.548  27.007  28.983  1.00  0.00    -0.248 NA
ATOM     35  C   UNL A   1      40.021  25.514  28.037  1.00  0.00     0.031 C 
ATOM     36  C   UNL A   1      44.747  23.914  28.678  1.00  0.00     0.029 A 
ATOM     37  N   UNL A   1      44.260  25.996  29.337  1.00  0.00    -0.354 N 
ATOM     38  C   UNL A   1      40.313  27.632  28.864  1.00  0.00     0.074 A 
ATOM     39  C   UNL A   1      39.420  26.679  28.238  1.00  0.00     0.031 C 
ATOM     40  C   UNL A   1      45.871  24.453  29.177  1.00  0.00     0.029 A 
ATOM     41  C   UNL A   1      45.600  25.826  29.588  1.00  0.00     0.049 A 
ATOM     42  H   UNL A   1      43.773  26.827  29.542  1.00  0.00     0.167 HD
ATOM     43  C   UNL A   1      39.955  28.881  29.250  1.00  0.00     0.031 A 
ATOM     44  C   UNL A   1      46.516  26.684  30.076  1.00  0.00     0.031 A 
ATOM     45  C   UNL A   1      40.842  29.834  29.866  1.00  0.00     0.049 A 
ATOM     46  C   UNL A   1      46.102  28.077  30.450  1.00  0.00     0.074 A 
ATOM     47  C   UNL A   1      40.549  31.103  30.338  1.00  0.00     0.029 A 
ATOM     48  N   UNL A   1      42.194  29.629  30.087  1.00  0.00    -0.354 N 
ATOM     49  N   UNL A   1      44.915  28.629  30.390  1.00  0.00    -0.248 NA
ATOM     50  C   UNL A   1      47.156  28.964  30.964  1.00  0.00     0.031 C 
ATOM     51  C   UNL A   1      41.736  31.688  30.792  1.00  0.00     0.029 A 
ATOM     52  C   UNL A   1      42.757  30.762  30.654  1.00  0.00     0.049 A 
ATOM     53  H   UNL A   1      42.683  28.802  29.871  1.00  0.00     0.167 HD
ATOM     54  C   UNL A   1      45.074  29.920  30.876  1.00  0.00     0.074 A 
ATOM     55  C   UNL A   1      46.467  30.062  31.245  1.00  0.00     0.031 C 
ATOM     56  C   UNL A   1      44.147  30.899  31.006  1.00  0.00     0.031 A 
BRANCH  43  57
ATOM     57  C   UNL A   1      38.532  29.301  29.001  1.00  0.00    -0.014 A 
ATOM     58  C   UNL A   1      38.109  29.722  27.730  1.00  0.00     0.009 A 
ATOM     59  C   UNL A   1      37.589  29.224  30.039  1.00  0.00     0.009 A 
ATOM     60  C   UNL A   1      36.779  30.089  27.514  1.00  0.00     0.001 A 
ATOM     61  C   UNL A   1      36.255  29.566  29.813  1.00  0.00     0.001 A 
ATOM     62  C   UNL A   1      35.853  30.006  28.553  1.00  0.00     0.000 A 
ENDBRANCH  43  57
BRANCH  44  63
ATOM     63  C   UNL A   1      47.927  26.247  30.233  1.00  0.00    -0.014 A 
ATOM     64  C   UNL A   1      48.401  25.807  31.479  1.00  0.00     0.009 A 
ATOM     65  C   UNL A   1      48.809  26.274  29.141  1.00  0.00     0.009 A 
ATOM     66  C   UNL A   1      49.736  25.425  31.632  1.00  0.00     0.001 A 
ATOM     67  C   UNL A   1      50.135  25.863  29.291  1.00  0.00     0.001 A 
ATOM     68  C   UNL A   1      50.599  25.448  30.537  1.00  0.00     0.000 A 
ENDBRANCH  44  63
BRANCH  56  69
ATOM     69  C   UNL A   1      44.607  32.206  31.588  1.00  0.00    -0.014 A 
ATOM     70  C   UNL A   1      44.987  33.276  30.763  1.00  0.00     0.009 A 
ATOM     71  C   UNL A   1      44.635  32.378  32.981  1.00  0.00     0.009 A 
ATOM     72  C   UNL A   1      45.415  34.481  31.323  1.00  0.00     0.001 A 
ATOM     73  C   UNL A   1      45.037  33.593  33.538  1.00  0.00     0.001 A 
ATOM     74  C   UNL A   1      45.435  34.641  32.709  1.00  0.00     0.000 A 
ENDBRANCH  56  69
ENDBRANCH  30  31
ENDBRANCH  22  25
ENDBRANCH  20  21
ENDBRANCH   1  20
TORSDOF 12
ENDMDL
MODEL 3
REMARK VINA RESULT:      -8.9      4.289      9.685
REMARK SMILES O=C(CC[N@@H+]1CCc2ccccc2C1)NCCCNC(=O)c1ccc(-c2c3nc(c(-c4ccccc4)c4ccc([nH]4)c(-c4ccccc4)c4nc(c(-c5ccccc5)c5ccc2[nH]5)C=C4)C=C3)cc1
REMARK SMILES IDX 17 1 16 2 15 3 1 4 2 5 3 7 4 8 5 9 6 10 14 11 7 13 13 14
REMARK SMILES IDX 8 15 12 16 9 17 11 18 10 19 18 20 19 21 20 22 21 24 22 25
REMARK SMILES IDX 23 26 69 27 24 28 68 29 25 30 26 31 27 32 62 33 28 34 67 35
REMARK SMILES IDX 61 36 63 37 29 38 66 39 60 40 59 41 30 43 52 44 37 45 51 46
REMARK SMILES IDX 38 47 41 48 50 49 64 50 39 51 40 52 49 54 65 55 42 56 31 57
REMARK SMILES IDX 32 58 36 59 33 60 35 61 34 62 53 63 54 64 58 65 55 66 57 67
REMARK SMILES IDX 56 68 43 69 44 70 48 71 45 72 47 73 46 74
REMARK H PARENT 15 6 5 12 19 23 63 42 41 53
REMARK Flexibility Score: inf
ROOT
ATOM      1  C   UNL A   1      31.865  28.263  27.558  1.00  0.00     0.042 C 
ENDROOT
BRANCH   1   2
ATOM      2  C   UNL A   1      31.376  27.358  26.428  1.00  0.00     0.117 C 
BRANCH   2   3
ATOM      3  N   UNL A   1      31.538  25.951  26.732  1.00  0.00    -0.356 N 
ATOM      4  O   UNL A   1      30.501  25.189  24.844  1.00  0.00    -0.275 OA
ATOM      5  C   UNL A   1      31.079  24.958  25.905  1.00  0.00     0.225 C 
ATOM      6  H   UNL A   1      31.996  25.698  27.567  1.00  0.00     0.163 HD
BRANCH   5   7
ATOM      7  C   UNL A   1      31.207  23.539  26.424  1.00  0.00     0.161 C 
BRANCH   7   8
ATOM      8  C   UNL A   1      31.699  22.470  25.445  1.00  0.00     0.272 C 
BRANCH   8   9
ATOM      9  N   UNL A   1      33.130  22.496  25.075  1.00  0.00    -0.330 N 
ATOM     10  C   UNL A   1      33.503  21.227  24.386  1.00  0.00     0.267 C 
ATOM     11  C   UNL A   1      34.024  22.818  26.205  1.00  0.00     0.299 C 
ATOM     12  H   UNL A   1      33.261  23.267  24.418  1.00  0.00     0.348 HD
ATOM     13  C   UNL A   1      34.648  20.407  25.018  1.00  0.00     0.097 C 
ATOM     14  C   UNL A   1      35.478  22.569  25.873  1.00  0.00     0.010 A 
ATOM     15  C   UNL A   1      35.802  21.322  25.315  1.00  0.00    -0.034 A 
ATOM     16  C   UNL A   1      36.493  23.491  26.139  1.00  0.00     0.010 A 
ATOM     17  C   UNL A   1      37.131  20.987  25.055  1.00  0.00     0.004 A 
ATOM     18  C   UNL A   1      37.818  23.171  25.840  1.00  0.00     0.001 A 
ATOM     19  C   UNL A   1      38.137  21.920  25.310  1.00  0.00     0.000 A 
ENDBRANCH   8   9
ENDBRANCH   7   8
ENDBRANCH   5   7
ENDBRANCH   2   3
ENDBRANCH   1   2
BRANCH   1  20
ATOM     20  C   UNL A   1      33.286  28.794  27.379  1.00  0.00     0.118 C 
BRANCH  20  21
ATOM     21  N   UNL A   1      33.431  30.200  27.725  1.00  0.00    -0.352 N 
ATOM     22  C   UNL A   1      34.486  30.891  28.257  1.00  0.00     0.251 C 
ATOM     23  H   UNL A   1      32.632  30.749  27.546  1.00  0.00     0.163 HD
ATOM     24  O   UNL A   1      34.332  32.073  28.583  1.00  0.00    -0.269 OA
BRANCH  22  25
ATOM     25  C   UNL A   1      35.801  30.251  28.481  1.00  0.00     0.039 A 
ATOM     26  C   UNL A   1      36.714  30.223  27.420  1.00  0.00     0.014 A 
ATOM     27  C   UNL A   1      36.133  29.644  29.694  1.00  0.00     0.014 A 
ATOM     28  C   UNL A   1      37.981  29.665  27.600  1.00  0.00     0.010 A 
ATOM     29  C   UNL A   1      37.418  29.130  29.891  1.00  0.00     0.010 A 
ATOM     30  C   UNL A   1      38.361  29.154  28.852  1.00  0.00    -0.014 A 
BRANCH  30  31
ATOM     31  C   UNL A   1      39.758  28.718  29.106  1.00  0.00     0.031 A 
ATOM     32  C   UNL A   1      40.775  29.659  29.688  1.00  0.00     0.074 A 
ATOM     33  C   UNL A   1      40.131  27.476  28.743  1.00  0.00     0.049 A 
ATOM     34  N   UNL A   1      42.049  29.458  29.914  1.00  0.00    -0.248 NA
ATOM     35  C   UNL A   1      40.303  31.003  30.053  1.00  0.00     0.031 C 
ATOM     36  C   UNL A   1      39.251  26.470  28.143  1.00  0.00     0.029 A 
ATOM     37  N   UNL A   1      41.351  26.850  28.813  1.00  0.00    -0.354 N 
ATOM     38  C   UNL A   1      42.535  30.649  30.439  1.00  0.00     0.074 A 
ATOM     39  C   UNL A   1      41.425  31.579  30.466  1.00  0.00     0.031 C 
ATOM     40  C   UNL A   1      39.956  25.351  27.915  1.00  0.00     0.029 A 
ATOM     41  C   UNL A   1      41.343  25.572  28.309  1.00  0.00     0.049 A 
ATOM     42  H   UNL A   1      42.155  27.276  29.190  1.00  0.00     0.167 HD
ATOM     43  C   UNL A   1      43.787  30.937  30.869  1.00  0.00     0.031 A 
ATOM     44  C   UNL A   1      42.341  24.681  28.162  1.00  0.00     0.031 A 
ATOM     45  C   UNL A   1      44.895  30.017  30.838  1.00  0.00     0.049 A 
ATOM     46  C   UNL A   1      43.730  25.044  28.601  1.00  0.00     0.074 A 
ATOM     47  C   UNL A   1      46.187  30.207  31.303  1.00  0.00     0.029 A 
ATOM     48  N   UNL A   1      44.849  28.739  30.305  1.00  0.00    -0.354 N 
ATOM     49  N   UNL A   1      44.156  26.152  29.155  1.00  0.00    -0.248 NA
ATOM     50  C   UNL A   1      44.773  24.028  28.399  1.00  0.00     0.031 C 
ATOM     51  C   UNL A   1      46.936  29.066  30.999  1.00  0.00     0.029 A 
ATOM     52  C   UNL A   1      46.098  28.143  30.396  1.00  0.00     0.049 A 
ATOM     53  H   UNL A   1      44.048  28.317  29.918  1.00  0.00     0.167 HD
ATOM     54  C   UNL A   1      45.512  25.961  29.386  1.00  0.00     0.074 A 
ATOM     55  C   UNL A   1      45.832  24.624  28.930  1.00  0.00     0.031 C 
ATOM     56  C   UNL A   1      46.411  26.817  29.928  1.00  0.00     0.031 A 
BRANCH  43  57
ATOM     57  C   UNL A   1      44.036  32.321  31.402  1.00  0.00    -0.014 A 
ATOM     58  C   UNL A   1      44.415  33.371  30.551  1.00  0.00     0.009 A 
ATOM     59  C   UNL A   1      43.836  32.591  32.765  1.00  0.00     0.009 A 
ATOM     60  C   UNL A   1      44.621  34.655  31.061  1.00  0.00     0.001 A 
ATOM     61  C   UNL A   1      44.017  33.881  33.267  1.00  0.00     0.001 A 
ATOM     62  C   UNL A   1      44.418  34.909  32.417  1.00  0.00     0.000 A 
ENDBRANCH  43  57
BRANCH  44  63
ATOM     63  C   UNL A   1      42.062  23.351  27.560  1.00  0.00    -0.014 A 
ATOM     64  C   UNL A   1      41.541  22.311  28.344  1.00  0.00     0.009 A 
ATOM     65  C   UNL A   1      42.322  23.114  26.200  1.00  0.00     0.009 A 
ATOM     66  C   UNL A   1      41.308  21.053  27.783  1.00  0.00     0.001 A 
ATOM     67  C   UNL A   1      42.059  21.864  25.637  1.00  0.00     0.001 A 
ATOM     68  C   UNL A   1      41.562  20.833  26.430  1.00  0.00     0.000 A 
ENDBRANCH  44  63
BRANCH  56  69
ATOM     69  C   UNL A   1      47.823  26.327  30.075  1.00  0.00    -0.014 A 
ATOM     70  C   UNL A   1      48.745  26.436  29.022  1.00  0.00     0.009 A 
ATOM     71  C   UNL A   1      48.246  25.773  31.294  1.00  0.00     0.009 A 
ATOM     72  C   UNL A   1      50.052  25.970  29.176  1.00  0.00     0.001 A 
ATOM     73  C   UNL A   1      49.561  25.334  31.455  1.00  0.00     0.001 A 
ATOM     74  C   UNL A   1      50.461  25.425  30.394  1.00  0.00     0.000 A 
ENDBRANCH  56  69
ENDBRANCH  30  31
ENDBRANCH  22  25
ENDBRANCH  20  21
ENDBRANCH   1  20
TORSDOF 12
ENDMDL
