MODEL 1
REMARK VINA RESULT:     -12.4      0.000      0.000
REMARK SMILES CC(C)(C)c1cc2c(cc1Cl)C=C(C(=O)NCCCNC(=O)c1ccc(-c3c4nc(c(-c5ccccc5)c5ccc([nH]5)c(-c5ccccc5)c5nc(c(-c6ccccc6)c6ccc3[nH]6)C=C5)C=C4)cc1)[C@@H](C(F)(F)F)O2
REMARK SMILES IDX 18 1 17 2 16 3 14 4 15 5 13 7 5 8 6 9 10 10 7 11 9 12 11 13
REMARK SMILES IDX 8 14 76 15 12 16 71 17 2 18 1 19 3 20 4 21 72 22 73 23 74 24
REMARK SMILES IDX 75 25 19 26 20 27 21 28 22 30 23 31 24 32 70 33 25 34 69 35
REMARK SMILES IDX 26 36 27 37 28 38 63 39 29 40 68 41 62 42 64 43 30 44 67 45
REMARK SMILES IDX 61 46 60 47 31 49 53 50 38 51 52 52 39 53 42 54 51 55 65 56
REMARK SMILES IDX 40 57 41 58 50 60 66 61 43 62 32 63 33 64 37 65 34 66 36 67
REMARK SMILES IDX 35 68 54 69 55 70 59 71 56 72 58 73 57 74 44 75 45 76 49 77
REMARK SMILES IDX 46 78 48 79 47 80
REMARK H PARENT 16 6 20 29 64 48 42 59
REMARK Flexibility Score: inf
ROOT
ATOM      1  C   UNL A   1      37.890  19.637  25.019  1.00  0.00     0.042 C 
ENDROOT
BRANCH   1   2
ATOM      2  C   UNL A   1      36.897  20.764  24.775  1.00  0.00     0.118 C 
BRANCH   2   3
ATOM      3  N   UNL A   1      35.531  20.355  25.067  1.00  0.00    -0.352 N 
ATOM      4  C   UNL A   1      34.306  20.926  25.089  1.00  0.00     0.251 C 
ATOM      5  O   UNL A   1      33.386  20.176  25.432  1.00  0.00    -0.270 OA
ATOM      6  H   UNL A   1      35.488  19.403  25.316  1.00  0.00     0.163 HD
BRANCH   4   7
ATOM      7  C   UNL A   1      34.012  22.345  24.741  1.00  0.00     0.067 C 
ATOM      8  C   UNL A   1      32.757  27.270  24.853  1.00  0.00    -0.020 A 
ATOM      9  C   UNL A   1      33.432  26.412  23.956  1.00  0.00     0.053 A 
ATOM     10  C   UNL A   1      32.339  26.681  26.072  1.00  0.00     0.045 A 
ATOM     11  C   UNL A   1      33.684  25.072  24.254  1.00  0.00     0.128 A 
ATOM     12  C   UNL A   1      32.638  25.339  26.383  1.00  0.00     0.032 A 
ATOM     13  Cl  UNL A   1      31.389  27.492  27.267  1.00  0.00    -0.084 Cl
ATOM     14  C   UNL A   1      33.309  24.529  25.474  1.00  0.00     0.019 A 
ATOM     15  O   UNL A   1      34.332  24.341  23.297  1.00  0.00    -0.475 OA
ATOM     16  C   UNL A   1      33.634  23.139  25.763  1.00  0.00     0.025 C 
ATOM     17  C   UNL A   1      34.081  22.908  23.350  1.00  0.00     0.314 C 
BRANCH   8  18
ATOM     18  C   UNL A   1      32.475  28.731  24.419  1.00  0.00    -0.012 C 
ATOM     19  C   UNL A   1      32.919  29.775  25.484  1.00  0.00     0.016 C 
ATOM     20  C   UNL A   1      30.978  29.030  24.176  1.00  0.00     0.016 C 
ATOM     21  C   UNL A   1      33.281  29.025  23.137  1.00  0.00     0.016 C 
ENDBRANCH   8  18
BRANCH  17  22
ATOM     22  C   UNL A   1      32.835  22.566  22.507  1.00  0.00     0.429 C 
ATOM     23  F   UNL A   1      31.765  23.282  22.936  1.00  0.00    -0.167 F 
ATOM     24  F   UNL A   1      32.997  22.868  21.197  1.00  0.00    -0.167 F 
ATOM     25  F   UNL A   1      32.499  21.260  22.567  1.00  0.00    -0.167 F 
ENDBRANCH  17  22
ENDBRANCH   4   7
ENDBRANCH   2   3
ENDBRANCH   1   2
BRANCH   1  26
ATOM     26  C   UNL A   1      39.124  20.108  25.779  1.00  0.00     0.118 C 
BRANCH  26  27
ATOM     27  N   UNL A   1      40.169  19.086  25.820  1.00  0.00    -0.352 N 
ATOM     28  C   UNL A   1      41.529  19.207  25.967  1.00  0.00     0.251 C 
ATOM     29  H   UNL A   1      39.844  18.161  25.730  1.00  0.00     0.163 HD
ATOM     30  O   UNL A   1      42.257  18.243  25.745  1.00  0.00    -0.269 OA
BRANCH  28  31
ATOM     31  C   UNL A   1      42.119  20.499  26.370  1.00  0.00     0.039 A 
ATOM     32  C   UNL A   1      42.238  20.826  27.720  1.00  0.00     0.014 A 
ATOM     33  C   UNL A   1      42.558  21.394  25.390  1.00  0.00     0.014 A 
ATOM     34  C   UNL A   1      42.597  22.114  28.084  1.00  0.00     0.010 A 
ATOM     35  C   UNL A   1      43.029  22.655  25.765  1.00  0.00     0.010 A 
ATOM     36  C   UNL A   1      43.000  23.045  27.112  1.00  0.00    -0.014 A 
BRANCH  36  37
ATOM     37  C   UNL A   1      43.383  24.413  27.546  1.00  0.00     0.031 A 
ATOM     38  C   UNL A   1      44.807  24.885  27.441  1.00  0.00     0.074 A 
ATOM     39  C   UNL A   1      42.418  25.260  27.952  1.00  0.00     0.049 A 
ATOM     40  N   UNL A   1      45.303  26.065  27.718  1.00  0.00    -0.248 NA
ATOM     41  C   UNL A   1      45.808  23.914  26.969  1.00  0.00     0.031 C 
ATOM     42  C   UNL A   1      40.998  24.922  28.068  1.00  0.00     0.029 A 
ATOM     43  N   UNL A   1      42.472  26.588  28.293  1.00  0.00    -0.354 N 
ATOM     44  C   UNL A   1      46.668  25.971  27.477  1.00  0.00     0.074 A 
ATOM     45  C   UNL A   1      46.931  24.613  27.056  1.00  0.00     0.031 C 
ATOM     46  C   UNL A   1      40.306  26.031  28.364  1.00  0.00     0.029 A 
ATOM     47  C   UNL A   1      41.239  27.138  28.541  1.00  0.00     0.049 A 
ATOM     48  H   UNL A   1      43.314  27.096  28.353  1.00  0.00     0.167 HD
ATOM     49  C   UNL A   1      47.614  26.933  27.588  1.00  0.00     0.031 A 
ATOM     50  C   UNL A   1      40.890  28.393  28.880  1.00  0.00     0.031 A 
ATOM     51  C   UNL A   1      47.344  28.287  27.995  1.00  0.00     0.049 A 
ATOM     52  C   UNL A   1      41.960  29.430  29.039  1.00  0.00     0.074 A 
ATOM     53  C   UNL A   1      48.238  29.335  28.133  1.00  0.00     0.029 A 
ATOM     54  N   UNL A   1      46.092  28.781  28.323  1.00  0.00    -0.354 N 
ATOM     55  N   UNL A   1      43.249  29.318  28.824  1.00  0.00    -0.248 NA
ATOM     56  C   UNL A   1      41.536  30.759  29.496  1.00  0.00     0.031 C 
ATOM     57  C   UNL A   1      47.533  30.449  28.596  1.00  0.00     0.029 A 
ATOM     58  C   UNL A   1      46.192  30.113  28.686  1.00  0.00     0.049 A 
ATOM     59  H   UNL A   1      45.255  28.262  28.302  1.00  0.00     0.167 HD
ATOM     60  C   UNL A   1      43.790  30.561  29.119  1.00  0.00     0.074 A 
ATOM     61  C   UNL A   1      42.687  31.418  29.503  1.00  0.00     0.031 C 
ATOM     62  C   UNL A   1      45.087  30.950  29.078  1.00  0.00     0.031 A 
BRANCH  49  63
ATOM     63  C   UNL A   1      49.038  26.556  27.287  1.00  0.00    -0.014 A 
ATOM     64  C   UNL A   1      49.504  26.599  25.963  1.00  0.00     0.009 A 
ATOM     65  C   UNL A   1      49.898  26.090  28.294  1.00  0.00     0.009 A 
ATOM     66  C   UNL A   1      50.798  26.179  25.652  1.00  0.00     0.001 A 
ATOM     67  C   UNL A   1      51.202  25.696  27.983  1.00  0.00     0.001 A 
ATOM     68  C   UNL A   1      51.648  25.733  26.663  1.00  0.00     0.000 A 
ENDBRANCH  49  63
BRANCH  50  69
ATOM     69  C   UNL A   1      39.453  28.714  29.081  1.00  0.00    -0.014 A 
ATOM     70  C   UNL A   1      38.687  29.243  28.029  1.00  0.00     0.009 A 
ATOM     71  C   UNL A   1      38.863  28.574  30.346  1.00  0.00     0.009 A 
ATOM     72  C   UNL A   1      37.372  29.659  28.248  1.00  0.00     0.001 A 
ATOM     73  C   UNL A   1      37.538  28.964  30.554  1.00  0.00     0.001 A 
ATOM     74  C   UNL A   1      36.798  29.518  29.509  1.00  0.00     0.000 A 
ENDBRANCH  50  69
BRANCH  62  75
ATOM     75  C   UNL A   1      45.399  32.370  29.458  1.00  0.00    -0.014 A 
ATOM     76  C   UNL A   1      45.588  32.704  30.808  1.00  0.00     0.009 A 
ATOM     77  C   UNL A   1      45.407  33.388  28.494  1.00  0.00     0.009 A 
ATOM     78  C   UNL A   1      45.767  34.035  31.189  1.00  0.00     0.001 A 
ATOM     79  C   UNL A   1      45.612  34.716  28.876  1.00  0.00     0.001 A 
ATOM     80  C   UNL A   1      45.783  35.039  30.221  1.00  0.00     0.000 A 
ENDBRANCH  62  75
ENDBRANCH  36  37
ENDBRANCH  28  31
ENDBRANCH  26  27
ENDBRANCH   1  26
TORSDOF 12
ENDMDL
MODEL 2
REMARK VINA RESULT:     -12.4      4.724      9.671
REMARK SMILES CC(C)(C)c1cc2c(cc1Cl)C=C(C(=O)NCCCNC(=O)c1ccc(-c3c4nc(c(-c5ccccc5)c5ccc([nH]5)c(-c5ccccc5)c5nc(c(-c6ccccc6)c6ccc3[nH]6)C=C5)C=C4)cc1)[C@@H](C(F)(F)F)O2
REMARK SMILES IDX 18 1 17 2 16 3 14 4 15 5 13 7 5 8 6 9 10 10 7 11 9 12 11 13
REMARK SMILES IDX 8 14 76 15 12 16 71 17 2 18 1 19 3 20 4 21 72 22 73 23 74 24
REMARK SMILES IDX 75 25 19 26 20 27 21 28 22 30 23 31 24 32 70 33 25 34 69 35
REMARK SMILES IDX 26 36 27 37 28 38 63 39 29 40 68 41 62 42 64 43 30 44 67 45
REMARK SMILES IDX 61 46 60 47 31 49 53 50 38 51 52 52 39 53 42 54 51 55 65 56
REMARK SMILES IDX 40 57 41 58 50 60 66 61 43 62 32 63 33 64 37 65 34 66 36 67
REMARK SMILES IDX 35 68 54 69 55 70 59 71 56 72 58 73 57 74 44 75 45 76 49 77
REMARK SMILES IDX 46 78 48 79 47 80
REMARK H PARENT 16 6 20 29 64 48 42 59
REMARK Flexibility Score: inf
ROOT
ATOM      1  C   UNL A   1      31.583  31.858  26.537  1.00  0.00     0.042 C 
ENDROOT
BRANCH   1   2
ATOM      2  C   UNL A   1      31.774  30.371  26.279  1.00  0.00     0.118 C 
BRANCH   2   3
ATOM      3  N   UNL A   1      31.420  30.009  24.915  1.00  0.00    -0.352 N 
ATOM      4  C   UNL A   1      31.433  28.895  24.147  1.00  0.00     0.251 C 
ATOM      5  O   UNL A   1      31.047  29.058  22.985  1.00  0.00    -0.270 OA
ATOM      6  H   UNL A   1      31.078  30.785  24.415  1.00  0.00     0.163 HD
BRANCH   4   7
ATOM      7  C   UNL A   1      31.867  27.544  24.599  1.00  0.00     0.067 C 
ATOM      8  C   UNL A   1      34.315  23.136  25.254  1.00  0.00    -0.020 A 
ATOM      9  C   UNL A   1      33.359  23.887  25.976  1.00  0.00     0.053 A 
ATOM     10  C   UNL A   1      34.789  23.730  24.058  1.00  0.00     0.045 A 
ATOM     11  C   UNL A   1      32.917  25.139  25.547  1.00  0.00     0.128 A 
ATOM     12  C   UNL A   1      34.371  25.014  23.657  1.00  0.00     0.032 A 
ATOM     13  Cl  UNL A   1      35.861  22.953  22.946  1.00  0.00    -0.084 Cl
ATOM     14  C   UNL A   1      33.431  25.723  24.398  1.00  0.00     0.019 A 
ATOM     15  O   UNL A   1      31.978  25.758  26.323  1.00  0.00    -0.475 OA
ATOM     16  C   UNL A   1      32.976  27.052  24.012  1.00  0.00     0.025 C 
ATOM     17  C   UNL A   1      31.137  26.715  25.618  1.00  0.00     0.314 C 
BRANCH   8  18
ATOM     18  C   UNL A   1      34.711  21.732  25.778  1.00  0.00    -0.012 C 
ATOM     19  C   UNL A   1      36.247  21.487  25.752  1.00  0.00     0.016 C 
ATOM     20  C   UNL A   1      34.114  20.570  24.953  1.00  0.00     0.016 C 
ATOM     21  C   UNL A   1      34.261  21.613  27.248  1.00  0.00     0.016 C 
ENDBRANCH   8  18
BRANCH  17  22
ATOM     22  C   UNL A   1      29.908  25.994  25.028  1.00  0.00     0.429 C 
ATOM     23  F   UNL A   1      29.086  25.575  26.023  1.00  0.00    -0.167 F 
ATOM     24  F   UNL A   1      29.166  26.802  24.233  1.00  0.00    -0.167 F 
ATOM     25  F   UNL A   1      30.235  24.913  24.288  1.00  0.00    -0.167 F 
ENDBRANCH  17  22
ENDBRANCH   4   7
ENDBRANCH   2   3
ENDBRANCH   1   2
BRANCH   1  26
ATOM     26  C   UNL A   1      32.814  32.499  27.166  1.00  0.00     0.118 C 
BRANCH  26  27
ATOM     27  N   UNL A   1      32.539  33.844  27.668  1.00  0.00    -0.352 N 
ATOM     28  C   UNL A   1      33.141  34.561  28.673  1.00  0.00     0.251 C 
ATOM     29  H   UNL A   1      31.804  34.313  27.211  1.00  0.00     0.163 HD
ATOM     30  O   UNL A   1      32.612  35.587  29.095  1.00  0.00    -0.269 OA
BRANCH  28  31
ATOM     31  C   UNL A   1      34.410  34.091  29.262  1.00  0.00     0.039 A 
ATOM     32  C   UNL A   1      35.628  34.471  28.700  1.00  0.00     0.014 A 
ATOM     33  C   UNL A   1      34.385  33.260  30.386  1.00  0.00     0.014 A 
ATOM     34  C   UNL A   1      36.800  33.864  29.126  1.00  0.00     0.010 A 
ATOM     35  C   UNL A   1      35.580  32.737  30.887  1.00  0.00     0.010 A 
ATOM     36  C   UNL A   1      36.792  32.991  30.227  1.00  0.00    -0.014 A 
BRANCH  36  37
ATOM     37  C   UNL A   1      38.069  32.366  30.654  1.00  0.00     0.031 A 
ATOM     38  C   UNL A   1      38.813  32.877  31.858  1.00  0.00     0.074 A 
ATOM     39  C   UNL A   1      38.509  31.274  30.001  1.00  0.00     0.049 A 
ATOM     40  N   UNL A   1      39.908  32.411  32.404  1.00  0.00    -0.248 NA
ATOM     41  C   UNL A   1      38.264  34.061  32.539  1.00  0.00     0.031 C 
ATOM     42  C   UNL A   1      37.856  30.672  28.836  1.00  0.00     0.029 A 
ATOM     43  N   UNL A   1      39.575  30.446  30.249  1.00  0.00    -0.354 N 
ATOM     44  C   UNL A   1      40.190  33.255  33.471  1.00  0.00     0.074 A 
ATOM     45  C   UNL A   1      39.168  34.277  33.484  1.00  0.00     0.031 C 
ATOM     46  C   UNL A   1      38.481  29.526  28.528  1.00  0.00     0.029 A 
ATOM     47  C   UNL A   1      39.624  29.356  29.416  1.00  0.00     0.049 A 
ATOM     48  H   UNL A   1      40.239  30.618  30.956  1.00  0.00     0.167 HD
ATOM     49  C   UNL A   1      41.205  33.178  34.364  1.00  0.00     0.031 A 
ATOM     50  C   UNL A   1      40.494  28.330  29.364  1.00  0.00     0.031 A 
ATOM     51  C   UNL A   1      42.213  32.150  34.354  1.00  0.00     0.049 A 
ATOM     52  C   UNL A   1      41.634  28.290  30.336  1.00  0.00     0.074 A 
ATOM     53  C   UNL A   1      43.279  31.986  35.222  1.00  0.00     0.029 A 
ATOM     54  N   UNL A   1      42.276  31.112  33.439  1.00  0.00    -0.354 N 
ATOM     55  N   UNL A   1      41.895  29.107  31.327  1.00  0.00    -0.248 NA
ATOM     56  C   UNL A   1      42.604  27.198  30.179  1.00  0.00     0.031 C 
ATOM     57  C   UNL A   1      44.018  30.878  34.798  1.00  0.00     0.029 A 
ATOM     58  C   UNL A   1      43.377  30.316  33.705  1.00  0.00     0.049 A 
ATOM     59  H   UNL A   1      41.634  30.962  32.707  1.00  0.00     0.167 HD
ATOM     60  C   UNL A   1      43.058  28.630  31.913  1.00  0.00     0.074 A 
ATOM     61  C   UNL A   1      43.438  27.437  31.182  1.00  0.00     0.031 C 
ATOM     62  C   UNL A   1      43.749  29.140  32.961  1.00  0.00     0.031 A 
BRANCH  49  63
ATOM     63  C   UNL A   1      41.295  34.245  35.419  1.00  0.00    -0.014 A 
ATOM     64  C   UNL A   1      40.634  34.069  36.646  1.00  0.00     0.009 A 
ATOM     65  C   UNL A   1      41.968  35.453  35.178  1.00  0.00     0.009 A 
ATOM     66  C   UNL A   1      40.640  35.081  37.607  1.00  0.00     0.001 A 
ATOM     67  C   UNL A   1      41.996  36.453  36.154  1.00  0.00     0.001 A 
ATOM     68  C   UNL A   1      41.326  36.269  37.363  1.00  0.00     0.000 A 
ENDBRANCH  49  63
BRANCH  50  69
ATOM     69  C   UNL A   1      40.295  27.264  28.347  1.00  0.00    -0.014 A 
ATOM     70  C   UNL A   1      39.580  26.099  28.666  1.00  0.00     0.009 A 
ATOM     71  C   UNL A   1      40.890  27.371  27.081  1.00  0.00     0.009 A 
ATOM     72  C   UNL A   1      39.496  25.045  27.753  1.00  0.00     0.001 A 
ATOM     73  C   UNL A   1      40.778  26.326  26.159  1.00  0.00     0.001 A 
ATOM     74  C   UNL A   1      40.094  25.160  26.501  1.00  0.00     0.000 A 
ENDBRANCH  50  69
BRANCH  62  75
ATOM     75  C   UNL A   1      44.994  28.418  33.391  1.00  0.00    -0.014 A 
ATOM     76  C   UNL A   1      44.915  27.418  34.373  1.00  0.00     0.009 A 
ATOM     77  C   UNL A   1      46.251  28.794  32.898  1.00  0.00     0.009 A 
ATOM     78  C   UNL A   1      46.075  26.816  34.864  1.00  0.00     0.001 A 
ATOM     79  C   UNL A   1      47.408  28.172  33.374  1.00  0.00     0.001 A 
ATOM     80  C   UNL A   1      47.320  27.192  34.361  1.00  0.00     0.000 A 
ENDBRANCH  62  75
ENDBRANCH  36  37
ENDBRANCH  28  31
ENDBRANCH  26  27
ENDBRANCH   1  26
TORSDOF 12
ENDMDL
MODEL 3
REMARK VINA RESULT:     -12.4      1.793      2.210
REMARK SMILES CC(C)(C)c1cc2c(cc1Cl)C=C(C(=O)NCCCNC(=O)c1ccc(-c3c4nc(c(-c5ccccc5)c5ccc([nH]5)c(-c5ccccc5)c5nc(c(-c6ccccc6)c6ccc3[nH]6)C=C5)C=C4)cc1)[C@@H](C(F)(F)F)O2
REMARK SMILES IDX 18 1 17 2 16 3 14 4 15 5 13 7 5 8 6 9 10 10 7 11 9 12 11 13
REMARK SMILES IDX 8 14 76 15 12 16 71 17 2 18 1 19 3 20 4 21 72 22 73 23 74 24
REMARK SMILES IDX 75 25 19 26 20 27 21 28 22 30 23 31 24 32 70 33 25 34 69 35
REMARK SMILES IDX 26 36 27 37 28 38 63 39 29 40 68 41 62 42 64 43 30 44 67 45
REMARK SMILES IDX 61 46 60 47 31 49 53 50 38 51 52 52 39 53 42 54 51 55 65 56
REMARK SMILES IDX 40 57 41 58 50 60 66 61 43 62 32 63 33 64 37 65 34 66 36 67
REMARK SMILES IDX 35 68 54 69 55 70 59 71 56 72 58 73 57 74 44 75 45 76 49 77
REMARK SMILES IDX 46 78 48 79 47 80
REMARK H PARENT 16 6 20 29 64 48 42 59
REMARK Flexibility Score: inf
ROOT
ATOM      1  C   UNL A   1      37.780  19.842  24.850  1.00  0.00     0.042 C 
ENDROOT
BRANCH   1   2
ATOM      2  C   UNL A   1      36.472  20.542  25.189  1.00  0.00     0.118 C 
BRANCH   2   3
ATOM      3  N   UNL A   1      35.326  19.667  24.999  1.00  0.00    -0.352 N 
ATOM      4  C   UNL A   1      33.986  19.799  24.863  1.00  0.00     0.251 C 
ATOM      5  O   UNL A   1      33.366  18.737  24.742  1.00  0.00    -0.270 OA
ATOM      6  H   UNL A   1      35.598  18.722  24.959  1.00  0.00     0.163 HD
BRANCH   4   7
ATOM      7  C   UNL A   1      33.246  21.091  24.854  1.00  0.00     0.067 C 
ATOM      8  C   UNL A   1      31.257  25.603  23.613  1.00  0.00    -0.020 A 
ATOM      9  C   UNL A   1      30.994  24.605  24.579  1.00  0.00     0.053 A 
ATOM     10  C   UNL A   1      32.296  25.312  22.695  1.00  0.00     0.045 A 
ATOM     11  C   UNL A   1      31.702  23.404  24.622  1.00  0.00     0.128 A 
ATOM     12  C   UNL A   1      32.976  24.078  22.718  1.00  0.00     0.032 A 
ATOM     13  Cl  UNL A   1      32.883  26.423  21.508  1.00  0.00    -0.084 Cl
ATOM     14  C   UNL A   1      32.683  23.120  23.683  1.00  0.00     0.019 A 
ATOM     15  O   UNL A   1      31.365  22.526  25.614  1.00  0.00    -0.475 OA
ATOM     16  C   UNL A   1      33.366  21.834  23.735  1.00  0.00     0.025 C 
ATOM     17  C   UNL A   1      32.425  21.607  26.002  1.00  0.00     0.314 C 
BRANCH   8  18
ATOM     18  C   UNL A   1      30.455  26.928  23.671  1.00  0.00    -0.012 C 
ATOM     19  C   UNL A   1      28.932  26.705  23.899  1.00  0.00     0.016 C 
ATOM     20  C   UNL A   1      30.540  27.763  22.373  1.00  0.00     0.016 C 
ATOM     21  C   UNL A   1      30.971  27.760  24.862  1.00  0.00     0.016 C 
ENDBRANCH   8  18
BRANCH  17  22
ATOM     22  C   UNL A   1      33.289  22.244  27.110  1.00  0.00     0.429 C 
ATOM     23  F   UNL A   1      32.530  23.055  27.890  1.00  0.00    -0.167 F 
ATOM     24  F   UNL A   1      33.835  21.320  27.936  1.00  0.00    -0.167 F 
ATOM     25  F   UNL A   1      34.308  22.985  26.625  1.00  0.00    -0.167 F 
ENDBRANCH  17  22
ENDBRANCH   4   7
ENDBRANCH   2   3
ENDBRANCH   1   2
BRANCH   1  26
ATOM     26  C   UNL A   1      38.942  20.344  25.698  1.00  0.00     0.118 C 
BRANCH  26  27
ATOM     27  N   UNL A   1      39.998  19.343  25.834  1.00  0.00    -0.352 N 
ATOM     28  C   UNL A   1      41.333  19.489  26.122  1.00  0.00     0.251 C 
ATOM     29  H   UNL A   1      39.705  18.413  25.697  1.00  0.00     0.163 HD
ATOM     30  O   UNL A   1      42.101  18.543  25.963  1.00  0.00    -0.269 OA
BRANCH  28  31
ATOM     31  C   UNL A   1      41.851  20.785  26.601  1.00  0.00     0.039 A 
ATOM     32  C   UNL A   1      42.064  20.996  27.963  1.00  0.00     0.014 A 
ATOM     33  C   UNL A   1      42.126  21.802  25.682  1.00  0.00     0.014 A 
ATOM     34  C   UNL A   1      42.349  22.273  28.423  1.00  0.00     0.010 A 
ATOM     35  C   UNL A   1      42.525  23.061  26.141  1.00  0.00     0.010 A 
ATOM     36  C   UNL A   1      42.587  23.321  27.519  1.00  0.00    -0.014 A 
BRANCH  36  37
ATOM     37  C   UNL A   1      42.895  24.672  28.053  1.00  0.00     0.031 A 
ATOM     38  C   UNL A   1      44.318  25.137  28.200  1.00  0.00     0.074 A 
ATOM     39  C   UNL A   1      41.877  25.512  28.322  1.00  0.00     0.049 A 
ATOM     40  N   UNL A   1      44.763  26.304  28.592  1.00  0.00    -0.248 NA
ATOM     41  C   UNL A   1      45.381  24.174  27.868  1.00  0.00     0.031 C 
ATOM     42  C   UNL A   1      40.457  25.181  28.191  1.00  0.00     0.029 A 
ATOM     43  N   UNL A   1      41.877  26.828  28.709  1.00  0.00    -0.354 N 
ATOM     44  C   UNL A   1      46.148  26.209  28.576  1.00  0.00     0.074 A 
ATOM     45  C   UNL A   1      46.475  24.862  28.161  1.00  0.00     0.031 C 
ATOM     46  C   UNL A   1      39.728  26.285  28.405  1.00  0.00     0.029 A 
ATOM     47  C   UNL A   1      40.621  27.379  28.769  1.00  0.00     0.049 A 
ATOM     48  H   UNL A   1      42.698  27.329  28.923  1.00  0.00     0.167 HD
ATOM     49  C   UNL A   1      47.065  27.160  28.873  1.00  0.00     0.031 A 
ATOM     50  C   UNL A   1      40.222  28.625  29.085  1.00  0.00     0.031 A 
ATOM     51  C   UNL A   1      46.734  28.503  29.273  1.00  0.00     0.049 A 
ATOM     52  C   UNL A   1      41.254  29.649  29.452  1.00  0.00     0.074 A 
ATOM     53  C   UNL A   1      47.595  29.539  29.591  1.00  0.00     0.029 A 
ATOM     54  N   UNL A   1      45.446  28.994  29.406  1.00  0.00    -0.354 N 
ATOM     55  N   UNL A   1      42.560  29.535  29.449  1.00  0.00    -0.248 NA
ATOM     56  C   UNL A   1      40.762  30.967  29.875  1.00  0.00     0.031 C 
ATOM     57  C   UNL A   1      46.825  30.643  29.966  1.00  0.00     0.029 A 
ATOM     58  C   UNL A   1      45.486  30.314  29.823  1.00  0.00     0.049 A 
ATOM     59  H   UNL A   1      44.623  28.482  29.230  1.00  0.00     0.167 HD
ATOM     60  C   UNL A   1      43.047  30.764  29.869  1.00  0.00     0.074 A 
ATOM     61  C   UNL A   1      41.897  31.617  30.093  1.00  0.00     0.031 C 
ATOM     62  C   UNL A   1      44.333  31.146  30.054  1.00  0.00     0.031 A 
BRANCH  49  63
ATOM     63  C   UNL A   1      48.518  26.783  28.799  1.00  0.00    -0.014 A 
ATOM     64  C   UNL A   1      49.214  26.928  27.587  1.00  0.00     0.009 A 
ATOM     65  C   UNL A   1      49.182  26.218  29.898  1.00  0.00     0.009 A 
ATOM     66  C   UNL A   1      50.541  26.511  27.476  1.00  0.00     0.001 A 
ATOM     67  C   UNL A   1      50.520  25.826  29.792  1.00  0.00     0.001 A 
ATOM     68  C   UNL A   1      51.195  25.966  28.580  1.00  0.00     0.000 A 
ENDBRANCH  49  63
BRANCH  50  69
ATOM     69  C   UNL A   1      38.772  28.950  29.057  1.00  0.00    -0.014 A 
ATOM     70  C   UNL A   1      38.158  29.363  27.864  1.00  0.00     0.009 A 
ATOM     71  C   UNL A   1      38.016  28.930  30.238  1.00  0.00     0.009 A 
ATOM     72  C   UNL A   1      36.827  29.785  27.860  1.00  0.00     0.001 A 
ATOM     73  C   UNL A   1      36.676  29.325  30.225  1.00  0.00     0.001 A 
ATOM     74  C   UNL A   1      36.087  29.765  29.040  1.00  0.00     0.000 A 
ENDBRANCH  50  69
BRANCH  62  75
ATOM     75  C   UNL A   1      44.581  32.551  30.526  1.00  0.00    -0.014 A 
ATOM     76  C   UNL A   1      44.612  32.828  31.902  1.00  0.00     0.009 A 
ATOM     77  C   UNL A   1      44.684  33.609  29.613  1.00  0.00     0.009 A 
ATOM     78  C   UNL A   1      44.728  34.143  32.356  1.00  0.00     0.001 A 
ATOM     79  C   UNL A   1      44.826  34.921  30.070  1.00  0.00     0.001 A 
ATOM     80  C   UNL A   1      44.839  35.187  31.438  1.00  0.00     0.000 A 
ENDBRANCH  62  75
ENDBRANCH  36  37
ENDBRANCH  28  31
ENDBRANCH  26  27
ENDBRANCH   1  26
TORSDOF 12
ENDMDL
