MODEL 1
REMARK VINA RESULT:     -10.4      0.000      0.000
REMARK SMILES O=C(NCCCNC(=O)[C@H](CCC(F)(F)F)Cc1ccccc1)c1ccc(-c2c3nc(c(-c4ccccc4)c4ccc([nH]4)c(-c4ccccc4)c4nc(c(-c5ccccc5)c5ccc2[nH]5)C=C4)C=C3)cc1
REMARK SMILES IDX 5 1 4 2 3 3 1 4 2 5 24 7 25 8 71 9 26 10 70 11 27 12 28 13
REMARK SMILES IDX 29 14 64 15 30 16 69 17 63 18 65 19 31 20 68 21 62 22 61 23
REMARK SMILES IDX 32 25 54 26 39 27 53 28 40 29 43 30 52 31 66 32 41 33 42 34
REMARK SMILES IDX 51 36 67 37 44 38 33 39 34 40 38 41 35 42 37 43 36 44 55 45
REMARK SMILES IDX 56 46 60 47 57 48 59 49 58 50 45 51 46 52 50 53 47 54 49 55
REMARK SMILES IDX 48 56 6 57 7 58 8 59 9 61 10 62 17 63 18 64 19 65 23 66
REMARK SMILES IDX 20 67 22 68 21 69 11 70 12 71 13 72 14 73 15 74 16 75
REMARK H PARENT 3 6 65 24 43 35 7 60
REMARK Flexibility Score: inf
ROOT
ATOM      1  C   UNL A   1      31.923  28.482  27.211  1.00  0.00     0.042 C 
ENDROOT
BRANCH   1   2
ATOM      2  C   UNL A   1      33.389  28.884  27.248  1.00  0.00     0.118 C 
BRANCH   2   3
ATOM      3  N   UNL A   1      33.558  30.254  27.704  1.00  0.00    -0.352 N 
ATOM      4  O   UNL A   1      34.373  31.947  28.922  1.00  0.00    -0.269 OA
ATOM      5  C   UNL A   1      34.578  30.853  28.403  1.00  0.00     0.251 C 
ATOM      6  H   UNL A   1      32.814  30.855  27.472  1.00  0.00     0.163 HD
BRANCH   5   7
ATOM      7  C   UNL A   1      35.910  30.218  28.546  1.00  0.00     0.039 A 
ATOM      8  C   UNL A   1      36.860  30.256  27.524  1.00  0.00     0.014 A 
ATOM      9  C   UNL A   1      36.263  29.673  29.787  1.00  0.00     0.014 A 
ATOM     10  C   UNL A   1      38.105  29.655  27.693  1.00  0.00     0.010 A 
ATOM     11  C   UNL A   1      37.550  29.167  29.993  1.00  0.00     0.010 A 
ATOM     12  C   UNL A   1      38.481  29.147  28.944  1.00  0.00    -0.014 A 
BRANCH  12  13
ATOM     13  C   UNL A   1      39.880  28.707  29.176  1.00  0.00     0.031 A 
ATOM     14  C   UNL A   1      40.898  29.640  29.763  1.00  0.00     0.074 A 
ATOM     15  C   UNL A   1      40.238  27.460  28.812  1.00  0.00     0.049 A 
ATOM     16  N   UNL A   1      42.181  29.452  29.942  1.00  0.00    -0.248 NA
ATOM     17  C   UNL A   1      40.417  30.961  30.195  1.00  0.00     0.031 C 
ATOM     18  C   UNL A   1      39.341  26.462  28.223  1.00  0.00     0.029 A 
ATOM     19  N   UNL A   1      41.449  26.819  28.875  1.00  0.00    -0.354 N 
ATOM     20  C   UNL A   1      42.668  30.640  30.471  1.00  0.00     0.074 A 
ATOM     21  C   UNL A   1      41.544  31.548  30.573  1.00  0.00     0.031 C 
ATOM     22  C   UNL A   1      40.023  25.329  28.006  1.00  0.00     0.029 A 
ATOM     23  C   UNL A   1      41.419  25.544  28.365  1.00  0.00     0.049 A 
ATOM     24  H   UNL A   1      42.261  27.231  29.250  1.00  0.00     0.167 HD
ATOM     25  C   UNL A   1      43.937  30.945  30.833  1.00  0.00     0.031 A 
ATOM     26  C   UNL A   1      42.407  24.653  28.165  1.00  0.00     0.031 A 
ATOM     27  C   UNL A   1      45.049  30.037  30.727  1.00  0.00     0.049 A 
ATOM     28  C   UNL A   1      43.809  25.023  28.543  1.00  0.00     0.074 A 
ATOM     29  C   UNL A   1      46.367  30.238  31.101  1.00  0.00     0.029 A 
ATOM     30  N   UNL A   1      44.975  28.756  30.197  1.00  0.00    -0.354 N 
ATOM     31  N   UNL A   1      44.248  26.141  29.067  1.00  0.00    -0.248 NA
ATOM     32  C   UNL A   1      44.848  24.015  28.301  1.00  0.00     0.031 C 
ATOM     33  C   UNL A   1      47.099  29.099  30.752  1.00  0.00     0.029 A 
ATOM     34  C   UNL A   1      46.228  28.166  30.212  1.00  0.00     0.049 A 
ATOM     35  H   UNL A   1      44.154  28.330  29.862  1.00  0.00     0.167 HD
ATOM     36  C   UNL A   1      45.614  25.967  29.236  1.00  0.00     0.074 A 
ATOM     37  C   UNL A   1      45.928  24.633  28.766  1.00  0.00     0.031 C 
ATOM     38  C   UNL A   1      46.523  26.837  29.739  1.00  0.00     0.031 A 
BRANCH  25  39
ATOM     39  C   UNL A   1      44.195  32.340  31.333  1.00  0.00    -0.014 A 
ATOM     40  C   UNL A   1      44.592  33.371  30.467  1.00  0.00     0.009 A 
ATOM     41  C   UNL A   1      44.026  32.629  32.697  1.00  0.00     0.009 A 
ATOM     42  C   UNL A   1      44.860  34.649  30.965  1.00  0.00     0.001 A 
ATOM     43  C   UNL A   1      44.266  33.914  33.186  1.00  0.00     0.001 A 
ATOM     44  C   UNL A   1      44.695  34.920  32.323  1.00  0.00     0.000 A 
ENDBRANCH  25  39
BRANCH  26  45
ATOM     45  C   UNL A   1      42.085  23.341  27.547  1.00  0.00    -0.014 A 
ATOM     46  C   UNL A   1      42.314  23.119  26.182  1.00  0.00     0.009 A 
ATOM     47  C   UNL A   1      41.613  22.282  28.340  1.00  0.00     0.009 A 
ATOM     48  C   UNL A   1      42.073  21.862  25.623  1.00  0.00     0.001 A 
ATOM     49  C   UNL A   1      41.400  21.020  27.785  1.00  0.00     0.001 A 
ATOM     50  C   UNL A   1      41.626  20.811  26.425  1.00  0.00     0.000 A 
ENDBRANCH  26  45
BRANCH  38  51
ATOM     51  C   UNL A   1      47.942  26.359  29.846  1.00  0.00    -0.014 A 
ATOM     52  C   UNL A   1      48.432  25.790  31.030  1.00  0.00     0.009 A 
ATOM     53  C   UNL A   1      48.777  26.423  28.720  1.00  0.00     0.009 A 
ATOM     54  C   UNL A   1      49.741  25.309  31.090  1.00  0.00     0.001 A 
ATOM     55  C   UNL A   1      50.078  25.921  28.776  1.00  0.00     0.001 A 
ATOM     56  C   UNL A   1      50.560  25.369  29.962  1.00  0.00     0.000 A 
ENDBRANCH  38  51
ENDBRANCH  12  13
ENDBRANCH   5   7
ENDBRANCH   2   3
ENDBRANCH   1   2
BRANCH   1  57
ATOM     57  C   UNL A   1      31.622  27.471  26.109  1.00  0.00     0.117 C 
BRANCH  57  58
ATOM     58  N   UNL A   1      31.150  26.218  26.673  1.00  0.00    -0.356 N 
ATOM     59  C   UNL A   1      31.699  24.970  26.644  1.00  0.00     0.223 C 
ATOM     60  H   UNL A   1      30.293  26.279  27.156  1.00  0.00     0.163 HD
ATOM     61  O   UNL A   1      31.063  24.051  27.161  1.00  0.00    -0.275 OA
BRANCH  59  62
ATOM     62  C   UNL A   1      33.053  24.735  25.975  1.00  0.00     0.083 C 
BRANCH  62  63
ATOM     63  C   UNL A   1      33.677  23.471  26.619  1.00  0.00     0.049 C 
BRANCH  63  64
ATOM     64  C   UNL A   1      35.078  23.114  26.158  1.00  0.00    -0.047 A 
ATOM     65  C   UNL A   1      35.431  21.760  26.047  1.00  0.00     0.004 A 
ATOM     66  C   UNL A   1      36.053  24.077  25.858  1.00  0.00     0.004 A 
ATOM     67  C   UNL A   1      36.698  21.386  25.590  1.00  0.00     0.000 A 
ATOM     68  C   UNL A   1      37.309  23.704  25.378  1.00  0.00     0.000 A 
ATOM     69  C   UNL A   1      37.631  22.359  25.239  1.00  0.00     0.000 A 
ENDBRANCH  63  64
ENDBRANCH  62  63
BRANCH  62  70
ATOM     70  C   UNL A   1      32.886  24.550  24.448  1.00  0.00     0.023 C 
BRANCH  70  71
ATOM     71  C   UNL A   1      32.154  23.287  23.980  1.00  0.00     0.116 C 
BRANCH  71  72
ATOM     72  C   UNL A   1      32.982  22.288  23.194  1.00  0.00     0.389 C 
ATOM     73  F   UNL A   1      32.414  21.991  22.009  1.00  0.00    -0.171 F 
ATOM     74  F   UNL A   1      34.210  22.795  22.946  1.00  0.00    -0.171 F 
ATOM     75  F   UNL A   1      33.164  21.136  23.871  1.00  0.00    -0.171 F 
ENDBRANCH  71  72
ENDBRANCH  70  71
ENDBRANCH  62  70
ENDBRANCH  59  62
ENDBRANCH  57  58
ENDBRANCH   1  57
TORSDOF 15
ENDMDL
MODEL 2
REMARK VINA RESULT:     -10.2      2.824      7.429
REMARK SMILES O=C(NCCCNC(=O)[C@H](CCC(F)(F)F)Cc1ccccc1)c1ccc(-c2c3nc(c(-c4ccccc4)c4ccc([nH]4)c(-c4ccccc4)c4nc(c(-c5ccccc5)c5ccc2[nH]5)C=C4)C=C3)cc1
REMARK SMILES IDX 5 1 4 2 3 3 1 4 2 5 24 7 25 8 71 9 26 10 70 11 27 12 28 13
REMARK SMILES IDX 29 14 64 15 30 16 69 17 63 18 65 19 31 20 68 21 62 22 61 23
REMARK SMILES IDX 32 25 54 26 39 27 53 28 40 29 43 30 52 31 66 32 41 33 42 34
REMARK SMILES IDX 51 36 67 37 44 38 33 39 34 40 38 41 35 42 37 43 36 44 55 45
REMARK SMILES IDX 56 46 60 47 57 48 59 49 58 50 45 51 46 52 50 53 47 54 49 55
REMARK SMILES IDX 48 56 6 57 7 58 8 59 9 61 10 62 17 63 18 64 19 65 23 66
REMARK SMILES IDX 20 67 22 68 21 69 11 70 12 71 13 72 14 73 15 74 16 75
REMARK H PARENT 3 6 65 24 43 35 7 60
REMARK Flexibility Score: inf
ROOT
ATOM      1  C   UNL A   1      37.670  19.853  24.957  1.00  0.00     0.042 C 
ENDROOT
BRANCH   1   2
ATOM      2  C   UNL A   1      38.844  20.391  25.760  1.00  0.00     0.118 C 
BRANCH   2   3
ATOM      3  N   UNL A   1      39.902  19.402  25.889  1.00  0.00    -0.352 N 
ATOM      4  O   UNL A   1      41.987  18.586  25.891  1.00  0.00    -0.269 OA
ATOM      5  C   UNL A   1      41.252  19.547  26.101  1.00  0.00     0.251 C 
ATOM      6  H   UNL A   1      39.599  18.469  25.811  1.00  0.00     0.163 HD
BRANCH   5   7
ATOM      7  C   UNL A   1      41.839  20.823  26.575  1.00  0.00     0.039 A 
ATOM      8  C   UNL A   1      42.241  21.825  25.689  1.00  0.00     0.014 A 
ATOM      9  C   UNL A   1      41.875  21.073  27.952  1.00  0.00     0.014 A 
ATOM     10  C   UNL A   1      42.782  23.015  26.169  1.00  0.00     0.010 A 
ATOM     11  C   UNL A   1      42.317  22.310  28.432  1.00  0.00     0.010 A 
ATOM     12  C   UNL A   1      42.782  23.290  27.543  1.00  0.00    -0.014 A 
BRANCH  12  13
ATOM     13  C   UNL A   1      43.158  24.642  28.029  1.00  0.00     0.031 A 
ATOM     14  C   UNL A   1      42.112  25.676  28.329  1.00  0.00     0.074 A 
ATOM     15  C   UNL A   1      44.464  24.946  28.160  1.00  0.00     0.049 A 
ATOM     16  N   UNL A   1      42.269  26.931  28.666  1.00  0.00    -0.248 NA
ATOM     17  C   UNL A   1      40.709  25.250  28.223  1.00  0.00     0.031 C 
ATOM     18  C   UNL A   1      45.576  24.029  27.892  1.00  0.00     0.029 A 
ATOM     19  N   UNL A   1      45.082  26.109  28.546  1.00  0.00    -0.354 N 
ATOM     20  C   UNL A   1      40.987  27.455  28.778  1.00  0.00     0.074 A 
ATOM     21  C   UNL A   1      40.065  26.385  28.460  1.00  0.00     0.031 C 
ATOM     22  C   UNL A   1      46.734  24.652  28.147  1.00  0.00     0.029 A 
ATOM     23  C   UNL A   1      46.453  26.032  28.519  1.00  0.00     0.049 A 
ATOM     24  H   UNL A   1      44.591  26.918  28.815  1.00  0.00     0.167 HD
ATOM     25  C   UNL A   1      40.616  28.715  29.111  1.00  0.00     0.031 A 
ATOM     26  C   UNL A   1      47.390  26.975  28.730  1.00  0.00     0.031 A 
ATOM     27  C   UNL A   1      41.540  29.774  29.424  1.00  0.00     0.049 A 
ATOM     28  C   UNL A   1      46.958  28.370  29.065  1.00  0.00     0.074 A 
ATOM     29  C   UNL A   1      41.264  31.075  29.809  1.00  0.00     0.029 A 
ATOM     30  N   UNL A   1      42.922  29.655  29.379  1.00  0.00    -0.354 N 
ATOM     31  N   UNL A   1      45.742  28.843  29.193  1.00  0.00    -0.248 NA
ATOM     32  C   UNL A   1      48.021  29.359  29.281  1.00  0.00     0.031 C 
ATOM     33  C   UNL A   1      42.478  31.757  29.947  1.00  0.00     0.029 A 
ATOM     34  C   UNL A   1      43.511  30.866  29.703  1.00  0.00     0.049 A 
ATOM     35  H   UNL A   1      43.411  28.832  29.150  1.00  0.00     0.167 HD
ATOM     36  C   UNL A   1      45.891  30.181  29.523  1.00  0.00     0.074 A 
ATOM     37  C   UNL A   1      47.315  30.442  29.584  1.00  0.00     0.031 C 
ATOM     38  C   UNL A   1      44.931  31.108  29.758  1.00  0.00     0.031 A 
BRANCH  25  39
ATOM     39  C   UNL A   1      39.145  29.025  29.104  1.00  0.00    -0.014 A 
ATOM     40  C   UNL A   1      38.351  28.858  30.250  1.00  0.00     0.009 A 
ATOM     41  C   UNL A   1      38.544  29.504  27.929  1.00  0.00     0.009 A 
ATOM     42  C   UNL A   1      36.980  29.119  30.205  1.00  0.00     0.001 A 
ATOM     43  C   UNL A   1      37.178  29.793  27.895  1.00  0.00     0.001 A 
ATOM     44  C   UNL A   1      36.395  29.588  29.029  1.00  0.00     0.000 A 
ENDBRANCH  25  39
BRANCH  26  45
ATOM     45  C   UNL A   1      48.825  26.613  28.592  1.00  0.00    -0.014 A 
ATOM     46  C   UNL A   1      49.471  26.714  27.353  1.00  0.00     0.009 A 
ATOM     47  C   UNL A   1      49.569  26.233  29.721  1.00  0.00     0.009 A 
ATOM     48  C   UNL A   1      50.836  26.438  27.246  1.00  0.00     0.001 A 
ATOM     49  C   UNL A   1      50.938  25.985  29.617  1.00  0.00     0.001 A 
ATOM     50  C   UNL A   1      51.571  26.083  28.378  1.00  0.00     0.000 A 
ENDBRANCH  26  45
BRANCH  38  51
ATOM     51  C   UNL A   1      45.387  32.486  30.142  1.00  0.00    -0.014 A 
ATOM     52  C   UNL A   1      45.650  32.819  31.479  1.00  0.00     0.009 A 
ATOM     53  C   UNL A   1      45.618  33.440  29.140  1.00  0.00     0.009 A 
ATOM     54  C   UNL A   1      46.120  34.093  31.806  1.00  0.00     0.001 A 
ATOM     55  C   UNL A   1      46.110  34.704  29.467  1.00  0.00     0.001 A 
ATOM     56  C   UNL A   1      46.356  35.031  30.801  1.00  0.00     0.000 A 
ENDBRANCH  38  51
ENDBRANCH  12  13
ENDBRANCH   5   7
ENDBRANCH   2   3
ENDBRANCH   1   2
BRANCH   1  57
ATOM     57  C   UNL A   1      36.602  20.913  24.703  1.00  0.00     0.117 C 
BRANCH  57  58
ATOM     58  N   UNL A   1      35.670  20.984  25.817  1.00  0.00    -0.356 N 
ATOM     59  C   UNL A   1      34.312  21.102  25.830  1.00  0.00     0.223 C 
ATOM     60  H   UNL A   1      36.088  20.939  26.708  1.00  0.00     0.163 HD
ATOM     61  O   UNL A   1      33.755  21.196  26.925  1.00  0.00    -0.275 OA
BRANCH  59  62
ATOM     62  C   UNL A   1      33.524  21.131  24.521  1.00  0.00     0.083 C 
BRANCH  62  63
ATOM     63  C   UNL A   1      32.377  20.097  24.646  1.00  0.00     0.049 C 
BRANCH  63  64
ATOM     64  C   UNL A   1      32.794  18.637  24.635  1.00  0.00    -0.047 A 
ATOM     65  C   UNL A   1      33.359  18.102  23.467  1.00  0.00     0.004 A 
ATOM     66  C   UNL A   1      32.620  17.784  25.734  1.00  0.00     0.004 A 
ATOM     67  C   UNL A   1      33.792  16.774  23.425  1.00  0.00     0.000 A 
ATOM     68  C   UNL A   1      33.075  16.465  25.701  1.00  0.00     0.000 A 
ATOM     69  C   UNL A   1      33.666  15.961  24.549  1.00  0.00     0.000 A 
ENDBRANCH  63  64
ENDBRANCH  62  63
BRANCH  62  70
ATOM     70  C   UNL A   1      32.964  22.546  24.248  1.00  0.00     0.023 C 
BRANCH  70  71
ATOM     71  C   UNL A   1      33.973  23.618  23.819  1.00  0.00     0.116 C 
BRANCH  71  72
ATOM     72  C   UNL A   1      34.457  24.554  24.910  1.00  0.00     0.389 C 
ATOM     73  F   UNL A   1      33.757  24.397  26.050  1.00  0.00    -0.171 F 
ATOM     74  F   UNL A   1      35.757  24.312  25.189  1.00  0.00    -0.171 F 
ATOM     75  F   UNL A   1      34.371  25.849  24.543  1.00  0.00    -0.171 F 
ENDBRANCH  71  72
ENDBRANCH  70  71
ENDBRANCH  62  70
ENDBRANCH  59  62
ENDBRANCH  57  58
ENDBRANCH   1  57
TORSDOF 15
ENDMDL
MODEL 3
REMARK VINA RESULT:     -10.1      2.766      7.544
REMARK SMILES O=C(NCCCNC(=O)[C@H](CCC(F)(F)F)Cc1ccccc1)c1ccc(-c2c3nc(c(-c4ccccc4)c4ccc([nH]4)c(-c4ccccc4)c4nc(c(-c5ccccc5)c5ccc2[nH]5)C=C4)C=C3)cc1
REMARK SMILES IDX 5 1 4 2 3 3 1 4 2 5 24 7 25 8 71 9 26 10 70 11 27 12 28 13
REMARK SMILES IDX 29 14 64 15 30 16 69 17 63 18 65 19 31 20 68 21 62 22 61 23
REMARK SMILES IDX 32 25 54 26 39 27 53 28 40 29 43 30 52 31 66 32 41 33 42 34
REMARK SMILES IDX 51 36 67 37 44 38 33 39 34 40 38 41 35 42 37 43 36 44 55 45
REMARK SMILES IDX 56 46 60 47 57 48 59 49 58 50 45 51 46 52 50 53 47 54 49 55
REMARK SMILES IDX 48 56 6 57 7 58 8 59 9 61 10 62 17 63 18 64 19 65 23 66
REMARK SMILES IDX 20 67 22 68 21 69 11 70 12 71 13 72 14 73 15 74 16 75
REMARK H PARENT 3 6 65 24 43 35 7 60
REMARK Flexibility Score: inf
ROOT
ATOM      1  C   UNL A   1      37.408  19.769  25.004  1.00  0.00     0.042 C 
ENDROOT
BRANCH   1   2
ATOM      2  C   UNL A   1      38.709  20.433  25.427  1.00  0.00     0.118 C 
BRANCH   2   3
ATOM      3  N   UNL A   1      39.742  19.451  25.714  1.00  0.00    -0.352 N 
ATOM      4  O   UNL A   1      41.811  18.640  25.988  1.00  0.00    -0.269 OA
ATOM      5  C   UNL A   1      41.058  19.606  26.076  1.00  0.00     0.251 C 
ATOM      6  H   UNL A   1      39.448  18.515  25.636  1.00  0.00     0.163 HD
BRANCH   5   7
ATOM      7  C   UNL A   1      41.590  20.900  26.568  1.00  0.00     0.039 A 
ATOM      8  C   UNL A   1      42.116  21.860  25.701  1.00  0.00     0.014 A 
ATOM      9  C   UNL A   1      41.445  21.212  27.925  1.00  0.00     0.014 A 
ATOM     10  C   UNL A   1      42.601  23.068  26.195  1.00  0.00     0.010 A 
ATOM     11  C   UNL A   1      41.832  22.467  28.405  1.00  0.00     0.010 A 
ATOM     12  C   UNL A   1      42.421  23.405  27.544  1.00  0.00    -0.014 A 
BRANCH  12  13
ATOM     13  C   UNL A   1      42.741  24.775  28.016  1.00  0.00     0.031 A 
ATOM     14  C   UNL A   1      44.138  25.150  28.414  1.00  0.00     0.074 A 
ATOM     15  C   UNL A   1      41.745  25.676  28.121  1.00  0.00     0.049 A 
ATOM     16  N   UNL A   1      44.572  26.268  28.938  1.00  0.00    -0.248 NA
ATOM     17  C   UNL A   1      45.182  24.135  28.211  1.00  0.00     0.031 C 
ATOM     18  C   UNL A   1      40.343  25.429  27.772  1.00  0.00     0.029 A 
ATOM     19  N   UNL A   1      41.752  26.977  28.557  1.00  0.00    -0.354 N 
ATOM     20  C   UNL A   1      45.931  26.080  29.161  1.00  0.00     0.074 A 
ATOM     21  C   UNL A   1      46.246  24.735  28.727  1.00  0.00     0.031 C 
ATOM     22  C   UNL A   1      39.632  26.546  27.979  1.00  0.00     0.029 A 
ATOM     23  C   UNL A   1      40.509  27.562  28.549  1.00  0.00     0.049 A 
ATOM     24  H   UNL A   1      42.567  27.446  28.846  1.00  0.00     0.167 HD
ATOM     25  C   UNL A   1      46.829  26.948  29.684  1.00  0.00     0.031 A 
ATOM     26  C   UNL A   1      40.101  28.766  28.987  1.00  0.00     0.031 A 
ATOM     27  C   UNL A   1      46.506  28.284  30.115  1.00  0.00     0.049 A 
ATOM     28  C   UNL A   1      41.105  29.700  29.592  1.00  0.00     0.074 A 
ATOM     29  C   UNL A   1      47.352  29.255  30.625  1.00  0.00     0.029 A 
ATOM     30  N   UNL A   1      45.233  28.834  30.096  1.00  0.00    -0.354 N 
ATOM     31  N   UNL A   1      42.391  29.515  29.771  1.00  0.00    -0.248 NA
ATOM     32  C   UNL A   1      40.606  30.999  30.057  1.00  0.00     0.031 C 
ATOM     33  C   UNL A   1      46.582  30.373  30.961  1.00  0.00     0.029 A 
ATOM     34  C   UNL A   1      45.266  30.120  30.608  1.00  0.00     0.049 A 
ATOM     35  H   UNL A   1      44.425  28.378  29.765  1.00  0.00     0.167 HD
ATOM     36  C   UNL A   1      42.861  30.683  30.353  1.00  0.00     0.074 A 
ATOM     37  C   UNL A   1      41.724  31.571  30.489  1.00  0.00     0.031 C 
ATOM     38  C   UNL A   1      44.124  30.991  30.737  1.00  0.00     0.031 A 
BRANCH  25  39
ATOM     39  C   UNL A   1      48.239  26.457  29.863  1.00  0.00    -0.014 A 
ATOM     40  C   UNL A   1      48.644  25.790  31.031  1.00  0.00     0.009 A 
ATOM     41  C   UNL A   1      49.177  26.658  28.839  1.00  0.00     0.009 A 
ATOM     42  C   UNL A   1      49.969  25.377  31.186  1.00  0.00     0.001 A 
ATOM     43  C   UNL A   1      50.495  26.217  28.985  1.00  0.00     0.001 A 
ATOM     44  C   UNL A   1      50.893  25.589  30.163  1.00  0.00     0.000 A 
ENDBRANCH  25  39
BRANCH  26  45
ATOM     45  C   UNL A   1      38.663  29.125  28.888  1.00  0.00    -0.014 A 
ATOM     46  C   UNL A   1      37.809  28.966  29.989  1.00  0.00     0.009 A 
ATOM     47  C   UNL A   1      38.155  29.694  27.708  1.00  0.00     0.009 A 
ATOM     48  C   UNL A   1      36.474  29.369  29.908  1.00  0.00     0.001 A 
ATOM     49  C   UNL A   1      36.829  30.122  27.641  1.00  0.00     0.001 A 
ATOM     50  C   UNL A   1      35.987  29.955  28.740  1.00  0.00     0.000 A 
ENDBRANCH  26  45
BRANCH  38  51
ATOM     51  C   UNL A   1      44.354  32.361  31.305  1.00  0.00    -0.014 A 
ATOM     52  C   UNL A   1      44.636  33.455  30.475  1.00  0.00     0.009 A 
ATOM     53  C   UNL A   1      44.220  32.565  32.687  1.00  0.00     0.009 A 
ATOM     54  C   UNL A   1      44.798  34.729  31.023  1.00  0.00     0.001 A 
ATOM     55  C   UNL A   1      44.360  33.844  33.229  1.00  0.00     0.001 A 
ATOM     56  C   UNL A   1      44.653  34.923  32.396  1.00  0.00     0.000 A 
ENDBRANCH  38  51
ENDBRANCH  12  13
ENDBRANCH   5   7
ENDBRANCH   2   3
ENDBRANCH   1   2
BRANCH   1  57
ATOM     57  C   UNL A   1      36.279  20.775  24.800  1.00  0.00     0.117 C 
BRANCH  57  58
ATOM     58  N   UNL A   1      35.486  20.914  26.011  1.00  0.00    -0.356 N 
ATOM     59  C   UNL A   1      34.156  21.165  26.175  1.00  0.00     0.223 C 
ATOM     60  H   UNL A   1      35.992  20.809  26.850  1.00  0.00     0.163 HD
ATOM     61  O   UNL A   1      33.734  21.290  27.326  1.00  0.00    -0.275 OA
BRANCH  59  62
ATOM     62  C   UNL A   1      33.236  21.299  24.961  1.00  0.00     0.083 C 
BRANCH  62  63
ATOM     63  C   UNL A   1      32.241  20.112  25.000  1.00  0.00     0.049 C 
BRANCH  63  64
ATOM     64  C   UNL A   1      32.843  18.734  24.789  1.00  0.00    -0.047 A 
ATOM     65  C   UNL A   1      32.667  17.757  25.781  1.00  0.00     0.004 A 
ATOM     66  C   UNL A   1      33.592  18.393  23.653  1.00  0.00     0.004 A 
ATOM     67  C   UNL A   1      33.171  16.465  25.611  1.00  0.00     0.000 A 
ATOM     68  C   UNL A   1      34.074  17.096  23.471  1.00  0.00     0.000 A 
ATOM     69  C   UNL A   1      33.860  16.130  24.447  1.00  0.00     0.000 A 
ENDBRANCH  63  64
ENDBRANCH  62  63
BRANCH  62  70
ATOM     70  C   UNL A   1      32.485  22.650  24.988  1.00  0.00     0.023 C 
BRANCH  70  71
ATOM     71  C   UNL A   1      31.023  22.620  25.448  1.00  0.00     0.116 C 
BRANCH  71  72
ATOM     72  C   UNL A   1      30.680  23.494  26.639  1.00  0.00     0.389 C 
ATOM     73  F   UNL A   1      29.753  22.920  27.430  1.00  0.00    -0.171 F 
ATOM     74  F   UNL A   1      31.783  23.711  27.390  1.00  0.00    -0.171 F 
ATOM     75  F   UNL A   1      30.218  24.704  26.264  1.00  0.00    -0.171 F 
ENDBRANCH  71  72
ENDBRANCH  70  71
ENDBRANCH  62  70
ENDBRANCH  59  62
ENDBRANCH  57  58
ENDBRANCH   1  57
TORSDOF 15
ENDMDL
