MODEL 1
REMARK VINA RESULT:     -12.4      0.000      0.000
REMARK SMILES CC(=O)n1cc2c3c(cccc31)C(=O)C[C@@H]2C(=O)NCCCNC(=O)c1ccc(-c2c3nc(c(-c4ccccc4)c4ccc([nH]4)c(-c4ccccc4)c4nc(c(-c5ccccc5)c5ccc2[nH]5)C=C4)C=C3)cc1
REMARK SMILES IDX 21 1 20 2 19 3 17 4 18 5 16 7 4 8 5 9 12 10 6 11 7 12 11 13
REMARK SMILES IDX 8 14 10 15 15 16 9 17 13 18 14 19 2 20 1 21 3 22 22 23 23 24
REMARK SMILES IDX 24 25 25 27 26 28 27 29 73 30 28 31 72 32 29 33 30 34 31 35
REMARK SMILES IDX 66 36 32 37 71 38 65 39 67 40 33 41 70 42 64 43 63 44 34 46
REMARK SMILES IDX 56 47 41 48 55 49 42 50 45 51 54 52 68 53 43 54 44 55 53 57
REMARK SMILES IDX 69 58 46 59 35 60 36 61 40 62 37 63 39 64 38 65 57 66 58 67
REMARK SMILES IDX 62 68 59 69 61 70 60 71 47 72 48 73 52 74 49 75 51 76 50 77
REMARK H PARENT 19 6 23 26 67 45 45 56
REMARK Flexibility Score: inf
ROOT
ATOM      1  C   UNL A   1      37.393  19.598  24.788  1.00  0.00     0.042 C 
ENDROOT
BRANCH   1   2
ATOM      2  C   UNL A   1      36.143  20.447  25.014  1.00  0.00     0.117 C 
BRANCH   2   3
ATOM      3  N   UNL A   1      36.433  21.838  25.343  1.00  0.00    -0.355 N 
ATOM      4  C   UNL A   1      35.592  22.897  25.548  1.00  0.00     0.228 C 
ATOM      5  O   UNL A   1      36.100  23.972  25.880  1.00  0.00    -0.274 OA
ATOM      6  H   UNL A   1      37.390  22.050  25.432  1.00  0.00     0.163 HD
BRANCH   4   7
ATOM      7  C   UNL A   1      34.080  22.781  25.342  1.00  0.00     0.118 C 
ATOM      8  N   UNL A   1      33.202  25.530  22.960  1.00  0.00    -0.287 N 
ATOM      9  C   UNL A   1      33.993  24.420  23.271  1.00  0.00     0.100 A 
ATOM     10  C   UNL A   1      32.224  25.646  23.953  1.00  0.00     0.057 A 
ATOM     11  C   UNL A   1      33.555  23.871  24.456  1.00  0.00    -0.008 A 
ATOM     12  C   UNL A   1      32.410  24.589  24.829  1.00  0.00     0.015 A 
ATOM     13  C   UNL A   1      31.167  26.549  24.158  1.00  0.00     0.027 A 
ATOM     14  C   UNL A   1      31.580  24.402  25.931  1.00  0.00     0.027 A 
ATOM     15  C   UNL A   1      30.313  26.331  25.255  1.00  0.00     0.003 A 
ATOM     16  C   UNL A   1      33.373  22.719  26.722  1.00  0.00     0.099 C 
ATOM     17  C   UNL A   1      30.507  25.264  26.135  1.00  0.00     0.012 A 
ATOM     18  C   UNL A   1      31.952  23.284  26.826  1.00  0.00     0.164 C 
ATOM     19  O   UNL A   1      31.166  22.907  27.691  1.00  0.00    -0.294 OA
BRANCH   8  20
ATOM     20  C   UNL A   1      33.350  26.386  21.852  1.00  0.00     0.227 C 
ATOM     21  C   UNL A   1      33.761  27.787  22.182  1.00  0.00     0.115 C 
ATOM     22  O   UNL A   1      33.224  25.947  20.712  1.00  0.00    -0.274 OA
ENDBRANCH   8  20
ENDBRANCH   4   7
ENDBRANCH   2   3
ENDBRANCH   1   2
BRANCH   1  23
ATOM     23  C   UNL A   1      38.613  20.201  25.444  1.00  0.00     0.118 C 
BRANCH  23  24
ATOM     24  N   UNL A   1      39.685  19.225  25.655  1.00  0.00    -0.352 N 
ATOM     25  C   UNL A   1      41.016  19.465  25.925  1.00  0.00     0.251 C 
ATOM     26  H   UNL A   1      39.422  18.278  25.597  1.00  0.00     0.163 HD
ATOM     27  O   UNL A   1      41.863  18.591  25.744  1.00  0.00    -0.269 OA
BRANCH  25  28
ATOM     28  C   UNL A   1      41.404  20.775  26.468  1.00  0.00     0.039 A 
ATOM     29  C   UNL A   1      42.073  21.739  25.707  1.00  0.00     0.014 A 
ATOM     30  C   UNL A   1      41.090  21.021  27.802  1.00  0.00     0.014 A 
ATOM     31  C   UNL A   1      42.425  22.940  26.320  1.00  0.00     0.010 A 
ATOM     32  C   UNL A   1      41.205  22.274  28.316  1.00  0.00     0.010 A 
ATOM     33  C   UNL A   1      41.999  23.175  27.635  1.00  0.00    -0.014 A 
BRANCH  33  34
ATOM     34  C   UNL A   1      42.274  24.398  28.358  1.00  0.00     0.031 A 
ATOM     35  C   UNL A   1      41.261  25.446  28.114  1.00  0.00     0.074 A 
ATOM     36  C   UNL A   1      43.193  24.455  29.348  1.00  0.00     0.049 A 
ATOM     37  N   UNL A   1      41.423  26.506  27.399  1.00  0.00    -0.248 NA
ATOM     38  C   UNL A   1      39.868  25.210  28.535  1.00  0.00     0.031 C 
ATOM     39  C   UNL A   1      44.041  23.387  29.895  1.00  0.00     0.029 A 
ATOM     40  N   UNL A   1      43.495  25.502  30.156  1.00  0.00    -0.354 N 
ATOM     41  C   UNL A   1      40.215  27.184  27.460  1.00  0.00     0.074 A 
ATOM     42  C   UNL A   1      39.247  26.247  27.968  1.00  0.00     0.031 C 
ATOM     43  C   UNL A   1      44.587  23.794  31.069  1.00  0.00     0.029 A 
ATOM     44  C   UNL A   1      44.249  25.190  31.285  1.00  0.00     0.049 A 
ATOM     45  H   UNL A   1      43.201  26.421  29.958  1.00  0.00     0.167 HD
ATOM     46  C   UNL A   1      40.168  28.538  27.353  1.00  0.00     0.031 A 
ATOM     47  C   UNL A   1      44.538  26.032  32.313  1.00  0.00     0.031 A 
ATOM     48  C   UNL A   1      41.434  29.076  26.924  1.00  0.00     0.049 A 
ATOM     49  C   UNL A   1      44.346  27.409  31.790  1.00  0.00     0.074 A 
ATOM     50  C   UNL A   1      42.215  28.914  25.797  1.00  0.00     0.029 A 
ATOM     51  N   UNL A   1      42.275  29.534  27.915  1.00  0.00    -0.354 N 
ATOM     52  N   UNL A   1      45.108  27.927  30.869  1.00  0.00    -0.248 NA
ATOM     53  C   UNL A   1      43.027  28.010  31.928  1.00  0.00     0.031 C 
ATOM     54  C   UNL A   1      43.548  28.817  26.289  1.00  0.00     0.029 A 
ATOM     55  C   UNL A   1      43.525  29.026  27.670  1.00  0.00     0.049 A 
ATOM     56  H   UNL A   1      42.022  30.120  28.664  1.00  0.00     0.167 HD
ATOM     57  C   UNL A   1      44.229  28.590  30.025  1.00  0.00     0.074 A 
ATOM     58  C   UNL A   1      42.975  28.685  30.775  1.00  0.00     0.031 C 
ATOM     59  C   UNL A   1      44.498  28.720  28.695  1.00  0.00     0.031 A 
BRANCH  46  60
ATOM     60  C   UNL A   1      39.131  29.389  28.023  1.00  0.00    -0.014 A 
ATOM     61  C   UNL A   1      39.261  29.658  29.395  1.00  0.00     0.009 A 
ATOM     62  C   UNL A   1      37.904  29.721  27.418  1.00  0.00     0.009 A 
ATOM     63  C   UNL A   1      38.200  30.200  30.129  1.00  0.00     0.001 A 
ATOM     64  C   UNL A   1      36.857  30.299  28.139  1.00  0.00     0.001 A 
ATOM     65  C   UNL A   1      36.999  30.518  29.500  1.00  0.00     0.000 A 
ENDBRANCH  46  60
BRANCH  47  66
ATOM     66  C   UNL A   1      44.721  25.783  33.765  1.00  0.00    -0.014 A 
ATOM     67  C   UNL A   1      43.696  25.181  34.521  1.00  0.00     0.009 A 
ATOM     68  C   UNL A   1      45.999  25.844  34.348  1.00  0.00     0.009 A 
ATOM     69  C   UNL A   1      43.954  24.601  35.773  1.00  0.00     0.001 A 
ATOM     70  C   UNL A   1      46.256  25.268  35.601  1.00  0.00     0.001 A 
ATOM     71  C   UNL A   1      45.240  24.627  36.303  1.00  0.00     0.000 A 
ENDBRANCH  47  66
BRANCH  59  72
ATOM     72  C   UNL A   1      45.851  28.273  28.191  1.00  0.00    -0.014 A 
ATOM     73  C   UNL A   1      46.126  26.944  27.810  1.00  0.00     0.009 A 
ATOM     74  C   UNL A   1      46.785  29.265  27.867  1.00  0.00     0.009 A 
ATOM     75  C   UNL A   1      47.297  26.629  27.111  1.00  0.00     0.001 A 
ATOM     76  C   UNL A   1      47.944  28.951  27.154  1.00  0.00     0.001 A 
ATOM     77  C   UNL A   1      48.197  27.636  26.771  1.00  0.00     0.000 A 
ENDBRANCH  59  72
ENDBRANCH  33  34
ENDBRANCH  25  28
ENDBRANCH  23  24
ENDBRANCH   1  23
TORSDOF 11
ENDMDL
MODEL 2
REMARK VINA RESULT:     -12.4      4.587      9.103
REMARK SMILES CC(=O)n1cc2c3c(cccc31)C(=O)C[C@@H]2C(=O)NCCCNC(=O)c1ccc(-c2c3nc(c(-c4ccccc4)c4ccc([nH]4)c(-c4ccccc4)c4nc(c(-c5ccccc5)c5ccc2[nH]5)C=C4)C=C3)cc1
REMARK SMILES IDX 21 1 20 2 19 3 17 4 18 5 16 7 4 8 5 9 12 10 6 11 7 12 11 13
REMARK SMILES IDX 8 14 10 15 15 16 9 17 13 18 14 19 2 20 1 21 3 22 22 23 23 24
REMARK SMILES IDX 24 25 25 27 26 28 27 29 73 30 28 31 72 32 29 33 30 34 31 35
REMARK SMILES IDX 66 36 32 37 71 38 65 39 67 40 33 41 70 42 64 43 63 44 34 46
REMARK SMILES IDX 56 47 41 48 55 49 42 50 45 51 54 52 68 53 43 54 44 55 53 57
REMARK SMILES IDX 69 58 46 59 35 60 36 61 40 62 37 63 39 64 38 65 57 66 58 67
REMARK SMILES IDX 62 68 59 69 61 70 60 71 47 72 48 73 52 74 49 75 51 76 50 77
REMARK H PARENT 19 6 23 26 67 45 45 56
REMARK Flexibility Score: inf
ROOT
ATOM      1  C   UNL A   1      31.257  31.114  25.940  1.00  0.00     0.042 C 
ENDROOT
BRANCH   1   2
ATOM      2  C   UNL A   1      31.594  29.698  25.475  1.00  0.00     0.117 C 
BRANCH   2   3
ATOM      3  N   UNL A   1      32.748  29.633  24.586  1.00  0.00    -0.355 N 
ATOM      4  C   UNL A   1      32.907  29.011  23.379  1.00  0.00     0.228 C 
ATOM      5  O   UNL A   1      33.983  29.167  22.795  1.00  0.00    -0.274 OA
ATOM      6  H   UNL A   1      33.543  30.117  24.907  1.00  0.00     0.163 HD
BRANCH   4   7
ATOM      7  C   UNL A   1      31.816  28.121  22.778  1.00  0.00     0.118 C 
ATOM      8  N   UNL A   1      28.889  30.389  22.237  1.00  0.00    -0.287 N 
ATOM      9  C   UNL A   1      30.249  30.120  22.051  1.00  0.00     0.100 A 
ATOM     10  C   UNL A   1      28.315  29.268  22.845  1.00  0.00     0.057 A 
ATOM     11  C   UNL A   1      30.538  28.876  22.566  1.00  0.00    -0.008 A 
ATOM     12  C   UNL A   1      29.319  28.324  22.984  1.00  0.00     0.015 A 
ATOM     13  C   UNL A   1      27.005  28.965  23.256  1.00  0.00     0.027 A 
ATOM     14  C   UNL A   1      29.070  27.073  23.542  1.00  0.00     0.027 A 
ATOM     15  C   UNL A   1      26.757  27.685  23.787  1.00  0.00     0.003 A 
ATOM     16  C   UNL A   1      31.641  26.854  23.657  1.00  0.00     0.099 C 
ATOM     17  C   UNL A   1      27.775  26.739  23.925  1.00  0.00     0.012 A 
ATOM     18  C   UNL A   1      30.254  26.202  23.707  1.00  0.00     0.164 C 
ATOM     19  O   UNL A   1      30.106  25.014  23.982  1.00  0.00    -0.294 OA
BRANCH   8  20
ATOM     20  C   UNL A   1      28.208  31.570  21.885  1.00  0.00     0.227 C 
ATOM     21  C   UNL A   1      27.995  31.766  20.417  1.00  0.00     0.115 C 
ATOM     22  O   UNL A   1      27.766  32.311  22.759  1.00  0.00    -0.274 OA
ENDBRANCH   8  20
ENDBRANCH   4   7
ENDBRANCH   2   3
ENDBRANCH   1   2
BRANCH   1  23
ATOM     23  C   UNL A   1      32.253  31.628  26.954  1.00  0.00     0.118 C 
BRANCH  23  24
ATOM     24  N   UNL A   1      32.122  33.066  27.199  1.00  0.00    -0.352 N 
ATOM     25  C   UNL A   1      32.829  33.848  28.088  1.00  0.00     0.251 C 
ATOM     26  H   UNL A   1      31.443  33.534  26.661  1.00  0.00     0.163 HD
ATOM     27  O   UNL A   1      32.402  34.947  28.440  1.00  0.00    -0.269 OA
BRANCH  25  28
ATOM     28  C   UNL A   1      34.126  33.362  28.583  1.00  0.00     0.039 A 
ATOM     29  C   UNL A   1      34.271  32.731  29.823  1.00  0.00     0.014 A 
ATOM     30  C   UNL A   1      35.231  33.573  27.764  1.00  0.00     0.014 A 
ATOM     31  C   UNL A   1      35.546  32.332  30.218  1.00  0.00     0.010 A 
ATOM     32  C   UNL A   1      36.414  32.961  28.035  1.00  0.00     0.010 A 
ATOM     33  C   UNL A   1      36.608  32.478  29.314  1.00  0.00    -0.014 A 
BRANCH  33  34
ATOM     34  C   UNL A   1      37.965  32.066  29.601  1.00  0.00     0.031 A 
ATOM     35  C   UNL A   1      38.205  30.640  29.298  1.00  0.00     0.074 A 
ATOM     36  C   UNL A   1      38.949  32.960  29.846  1.00  0.00     0.049 A 
ATOM     37  N   UNL A   1      38.342  29.694  30.162  1.00  0.00    -0.248 NA
ATOM     38  C   UNL A   1      38.086  30.172  27.906  1.00  0.00     0.031 C 
ATOM     39  C   UNL A   1      38.893  34.428  29.860  1.00  0.00     0.029 A 
ATOM     40  N   UNL A   1      40.270  32.722  30.049  1.00  0.00    -0.354 N 
ATOM     41  C   UNL A   1      38.547  28.540  29.422  1.00  0.00     0.074 A 
ATOM     42  C   UNL A   1      38.156  28.849  28.070  1.00  0.00     0.031 C 
ATOM     43  C   UNL A   1      40.153  34.933  29.843  1.00  0.00     0.029 A 
ATOM     44  C   UNL A   1      41.099  33.838  29.964  1.00  0.00     0.049 A 
ATOM     45  H   UNL A   1      40.618  31.822  30.243  1.00  0.00     0.167 HD
ATOM     46  C   UNL A   1      39.284  27.512  29.920  1.00  0.00     0.031 A 
ATOM     47  C   UNL A   1      42.459  33.827  29.973  1.00  0.00     0.031 A 
ATOM     48  C   UNL A   1      39.553  27.690  31.324  1.00  0.00     0.049 A 
ATOM     49  C   UNL A   1      42.861  32.530  30.574  1.00  0.00     0.074 A 
ATOM     50  C   UNL A   1      38.760  27.799  32.449  1.00  0.00     0.029 A 
ATOM     51  N   UNL A   1      40.767  28.255  31.649  1.00  0.00    -0.354 N 
ATOM     52  N   UNL A   1      42.637  32.231  31.822  1.00  0.00    -0.248 NA
ATOM     53  C   UNL A   1      43.055  31.398  29.679  1.00  0.00     0.031 C 
ATOM     54  C   UNL A   1      39.359  28.839  33.216  1.00  0.00     0.029 A 
ATOM     55  C   UNL A   1      40.534  29.238  32.577  1.00  0.00     0.049 A 
ATOM     56  H   UNL A   1      41.643  27.999  31.282  1.00  0.00     0.167 HD
ATOM     57  C   UNL A   1      42.213  30.911  31.791  1.00  0.00     0.074 A 
ATOM     58  C   UNL A   1      42.577  30.422  30.459  1.00  0.00     0.031 C 
ATOM     59  C   UNL A   1      41.335  30.434  32.718  1.00  0.00     0.031 A 
BRANCH  46  60
ATOM     60  C   UNL A   1      40.095  26.582  29.068  1.00  0.00    -0.014 A 
ATOM     61  C   UNL A   1      41.372  26.989  28.651  1.00  0.00     0.009 A 
ATOM     62  C   UNL A   1      39.554  25.437  28.452  1.00  0.00     0.009 A 
ATOM     63  C   UNL A   1      42.056  26.302  27.641  1.00  0.00     0.001 A 
ATOM     64  C   UNL A   1      40.250  24.726  27.473  1.00  0.00     0.001 A 
ATOM     65  C   UNL A   1      41.493  25.173  27.053  1.00  0.00     0.000 A 
ENDBRANCH  46  60
BRANCH  47  66
ATOM     66  C   UNL A   1      43.453  34.699  29.298  1.00  0.00    -0.014 A 
ATOM     67  C   UNL A   1      43.576  34.688  27.894  1.00  0.00     0.009 A 
ATOM     68  C   UNL A   1      44.060  35.763  29.987  1.00  0.00     0.009 A 
ATOM     69  C   UNL A   1      44.215  35.731  27.206  1.00  0.00     0.001 A 
ATOM     70  C   UNL A   1      44.703  36.804  29.300  1.00  0.00     0.001 A 
ATOM     71  C   UNL A   1      44.761  36.800  27.910  1.00  0.00     0.000 A 
ENDBRANCH  47  66
BRANCH  59  72
ATOM     72  C   UNL A   1      40.964  31.329  33.878  1.00  0.00    -0.014 A 
ATOM     73  C   UNL A   1      39.902  32.253  33.824  1.00  0.00     0.009 A 
ATOM     74  C   UNL A   1      41.543  31.053  35.124  1.00  0.00     0.009 A 
ATOM     75  C   UNL A   1      39.429  32.869  34.990  1.00  0.00     0.001 A 
ATOM     76  C   UNL A   1      41.058  31.654  36.287  1.00  0.00     0.001 A 
ATOM     77  C   UNL A   1      39.999  32.556  36.222  1.00  0.00     0.000 A 
ENDBRANCH  59  72
ENDBRANCH  33  34
ENDBRANCH  25  28
ENDBRANCH  23  24
ENDBRANCH   1  23
TORSDOF 11
ENDMDL
MODEL 3
REMARK VINA RESULT:     -12.3      2.536      7.234
REMARK SMILES CC(=O)n1cc2c3c(cccc31)C(=O)C[C@@H]2C(=O)NCCCNC(=O)c1ccc(-c2c3nc(c(-c4ccccc4)c4ccc([nH]4)c(-c4ccccc4)c4nc(c(-c5ccccc5)c5ccc2[nH]5)C=C4)C=C3)cc1
REMARK SMILES IDX 21 1 20 2 19 3 17 4 18 5 16 7 4 8 5 9 12 10 6 11 7 12 11 13
REMARK SMILES IDX 8 14 10 15 15 16 9 17 13 18 14 19 2 20 1 21 3 22 22 23 23 24
REMARK SMILES IDX 24 25 25 27 26 28 27 29 73 30 28 31 72 32 29 33 30 34 31 35
REMARK SMILES IDX 66 36 32 37 71 38 65 39 67 40 33 41 70 42 64 43 63 44 34 46
REMARK SMILES IDX 56 47 41 48 55 49 42 50 45 51 54 52 68 53 43 54 44 55 53 57
REMARK SMILES IDX 69 58 46 59 35 60 36 61 40 62 37 63 39 64 38 65 57 66 58 67
REMARK SMILES IDX 62 68 59 69 61 70 60 71 47 72 48 73 52 74 49 75 51 76 50 77
REMARK H PARENT 19 6 23 26 67 45 45 56
REMARK Flexibility Score: inf
ROOT
ATOM      1  C   UNL A   1      33.537  30.111  27.443  1.00  0.00     0.042 C 
ENDROOT
BRANCH   1   2
ATOM      2  C   UNL A   1      34.253  28.834  27.005  1.00  0.00     0.117 C 
BRANCH   2   3
ATOM      3  N   UNL A   1      33.945  28.431  25.637  1.00  0.00    -0.355 N 
ATOM      4  C   UNL A   1      33.476  27.245  25.144  1.00  0.00     0.228 C 
ATOM      5  O   UNL A   1      33.237  27.185  23.934  1.00  0.00    -0.274 OA
ATOM      6  H   UNL A   1      34.099  29.127  24.958  1.00  0.00     0.163 HD
BRANCH   4   7
ATOM      7  C   UNL A   1      33.285  26.017  26.037  1.00  0.00     0.118 C 
ATOM      8  N   UNL A   1      35.352  23.326  24.458  1.00  0.00    -0.287 N 
ATOM      9  C   UNL A   1      35.258  24.627  24.961  1.00  0.00     0.100 A 
ATOM     10  C   UNL A   1      34.139  22.682  24.723  1.00  0.00     0.057 A 
ATOM     11  C   UNL A   1      34.002  24.817  25.493  1.00  0.00    -0.008 A 
ATOM     12  C   UNL A   1      33.344  23.582  25.412  1.00  0.00     0.015 A 
ATOM     13  C   UNL A   1      33.666  21.384  24.462  1.00  0.00     0.027 A 
ATOM     14  C   UNL A   1      32.065  23.242  25.846  1.00  0.00     0.027 A 
ATOM     15  C   UNL A   1      32.386  21.039  24.935  1.00  0.00     0.003 A 
ATOM     16  C   UNL A   1      31.769  25.773  26.265  1.00  0.00     0.099 C 
ATOM     17  C   UNL A   1      31.589  21.953  25.629  1.00  0.00     0.012 A 
ATOM     18  C   UNL A   1      31.300  24.331  26.490  1.00  0.00     0.164 C 
ATOM     19  O   UNL A   1      30.263  24.075  27.095  1.00  0.00    -0.294 OA
BRANCH   8  20
ATOM     20  C   UNL A   1      36.458  22.754  23.801  1.00  0.00     0.227 C 
ATOM     21  C   UNL A   1      37.352  21.924  24.667  1.00  0.00     0.115 C 
ATOM     22  O   UNL A   1      36.589  22.886  22.587  1.00  0.00    -0.274 OA
ENDBRANCH   8  20
ENDBRANCH   4   7
ENDBRANCH   2   3
ENDBRANCH   1   2
BRANCH   1  23
ATOM     23  C   UNL A   1      34.492  31.274  27.587  1.00  0.00     0.118 C 
BRANCH  23  24
ATOM     24  N   UNL A   1      34.311  32.004  28.844  1.00  0.00    -0.352 N 
ATOM     25  C   UNL A   1      35.031  31.881  30.014  1.00  0.00     0.251 C 
ATOM     26  H   UNL A   1      33.582  32.667  28.855  1.00  0.00     0.163 HD
ATOM     27  O   UNL A   1      34.575  32.291  31.080  1.00  0.00    -0.269 OA
BRANCH  25  28
ATOM     28  C   UNL A   1      36.374  31.284  29.960  1.00  0.00     0.039 A 
ATOM     29  C   UNL A   1      37.536  32.052  29.828  1.00  0.00     0.014 A 
ATOM     30  C   UNL A   1      36.448  29.896  30.027  1.00  0.00     0.014 A 
ATOM     31  C   UNL A   1      38.761  31.392  29.756  1.00  0.00     0.010 A 
ATOM     32  C   UNL A   1      37.645  29.279  30.212  1.00  0.00     0.010 A 
ATOM     33  C   UNL A   1      38.788  30.000  29.928  1.00  0.00    -0.014 A 
BRANCH  33  34
ATOM     34  C   UNL A   1      40.003  29.216  29.909  1.00  0.00     0.031 A 
ATOM     35  C   UNL A   1      40.571  29.009  31.258  1.00  0.00     0.074 A 
ATOM     36  C   UNL A   1      40.397  28.529  28.813  1.00  0.00     0.049 A 
ATOM     37  N   UNL A   1      41.624  29.580  31.733  1.00  0.00    -0.248 NA
ATOM     38  C   UNL A   1      39.794  28.251  32.255  1.00  0.00     0.031 C 
ATOM     39  C   UNL A   1      39.739  28.404  27.505  1.00  0.00     0.029 A 
ATOM     40  N   UNL A   1      41.460  27.696  28.679  1.00  0.00    -0.354 N 
ATOM     41  C   UNL A   1      41.769  29.083  33.019  1.00  0.00     0.074 A 
ATOM     42  C   UNL A   1      40.514  28.463  33.360  1.00  0.00     0.031 C 
ATOM     43  C   UNL A   1      40.302  27.387  26.806  1.00  0.00     0.029 A 
ATOM     44  C   UNL A   1      41.445  26.884  27.547  1.00  0.00     0.049 A 
ATOM     45  H   UNL A   1      42.191  27.668  29.337  1.00  0.00     0.167 HD
ATOM     46  C   UNL A   1      42.997  28.975  33.592  1.00  0.00     0.031 A 
ATOM     47  C   UNL A   1      42.310  25.869  27.280  1.00  0.00     0.031 A 
ATOM     48  C   UNL A   1      44.000  29.662  32.820  1.00  0.00     0.049 A 
ATOM     49  C   UNL A   1      43.510  26.112  28.120  1.00  0.00     0.074 A 
ATOM     50  C   UNL A   1      44.185  30.975  32.435  1.00  0.00     0.029 A 
ATOM     51  N   UNL A   1      44.730  28.894  31.940  1.00  0.00    -0.354 N 
ATOM     52  N   UNL A   1      44.307  27.125  27.937  1.00  0.00    -0.248 NA
ATOM     53  C   UNL A   1      43.538  25.521  29.451  1.00  0.00     0.031 C 
ATOM     54  C   UNL A   1      44.611  30.898  31.078  1.00  0.00     0.029 A 
ATOM     55  C   UNL A   1      44.763  29.553  30.738  1.00  0.00     0.049 A 
ATOM     56  H   UNL A   1      45.153  28.027  32.139  1.00  0.00     0.167 HD
ATOM     57  C   UNL A   1      44.589  27.581  29.216  1.00  0.00     0.074 A 
ATOM     58  C   UNL A   1      44.163  26.502  30.110  1.00  0.00     0.031 C 
ATOM     59  C   UNL A   1      44.844  28.900  29.450  1.00  0.00     0.031 A 
BRANCH  46  60
ATOM     60  C   UNL A   1      43.353  27.924  34.600  1.00  0.00    -0.014 A 
ATOM     61  C   UNL A   1      43.539  26.603  34.162  1.00  0.00     0.009 A 
ATOM     62  C   UNL A   1      43.263  28.131  35.990  1.00  0.00     0.009 A 
ATOM     63  C   UNL A   1      43.596  25.540  35.071  1.00  0.00     0.001 A 
ATOM     64  C   UNL A   1      43.359  27.078  36.902  1.00  0.00     0.001 A 
ATOM     65  C   UNL A   1      43.504  25.780  36.440  1.00  0.00     0.000 A 
ENDBRANCH  46  60
BRANCH  47  66
ATOM     66  C   UNL A   1      42.122  24.580  26.568  1.00  0.00    -0.014 A 
ATOM     67  C   UNL A   1      43.122  24.086  25.707  1.00  0.00     0.009 A 
ATOM     68  C   UNL A   1      41.114  23.683  26.962  1.00  0.00     0.009 A 
ATOM     69  C   UNL A   1      43.153  22.738  25.317  1.00  0.00     0.001 A 
ATOM     70  C   UNL A   1      41.142  22.337  26.569  1.00  0.00     0.001 A 
ATOM     71  C   UNL A   1      42.173  21.859  25.766  1.00  0.00     0.000 A 
ENDBRANCH  47  66
BRANCH  59  72
ATOM     72  C   UNL A   1      44.978  29.825  28.262  1.00  0.00    -0.014 A 
ATOM     73  C   UNL A   1      43.883  30.500  27.689  1.00  0.00     0.009 A 
ATOM     74  C   UNL A   1      46.270  30.206  27.878  1.00  0.00     0.009 A 
ATOM     75  C   UNL A   1      44.083  31.537  26.769  1.00  0.00     0.001 A 
ATOM     76  C   UNL A   1      46.469  31.251  26.974  1.00  0.00     0.001 A 
ATOM     77  C   UNL A   1      45.378  31.920  26.424  1.00  0.00     0.000 A 
ENDBRANCH  59  72
ENDBRANCH  33  34
ENDBRANCH  25  28
ENDBRANCH  23  24
ENDBRANCH   1  23
TORSDOF 11
ENDMDL
