MODEL 1
REMARK VINA RESULT:     -11.8      0.000      0.000
REMARK SMILES C[C@@](CC(=O)Nc1ccc(NC(=O)c2ccco2)cc1)(C(=O)NCCCNC(=O)c1ccc(-c2c3nc(c(-c4ccccc4)c4ccc([nH]4)c(-c4ccccc4)c4nc(c(-c5ccccc5)c5ccc2[nH]5)C=C4)C=C3)cc1)c1ccccc1
REMARK SMILES IDX 21 1 22 2 23 3 2 5 1 6 3 7 4 8 5 9 6 10 7 12 8 13 20 14 9 15
REMARK SMILES IDX 19 16 10 17 11 18 12 19 13 21 14 22 15 23 18 24 16 25 17 26
REMARK SMILES IDX 78 27 79 28 83 29 80 30 82 31 81 32 24 33 25 34 26 35 27 36
REMARK SMILES IDX 28 37 29 39 30 40 31 41 77 42 32 43 76 44 33 45 34 46 35 47
REMARK SMILES IDX 70 48 36 49 75 50 69 51 71 52 37 53 74 54 68 55 67 56 38 58
REMARK SMILES IDX 60 59 45 60 59 61 46 62 49 63 58 64 72 65 47 66 48 67 57 69
REMARK SMILES IDX 73 70 50 71 39 72 40 73 44 74 41 75 43 76 42 77 61 78 62 79
REMARK SMILES IDX 66 80 63 81 65 82 64 83 51 84 52 85 56 86 53 87 55 88 54 89
REMARK H PARENT 23 4 6 11 11 20 27 38 71 57 49 68
REMARK Flexibility Score: inf
ROOT
ATOM      1  C   UNL A   1      31.385  27.887  24.348  1.00  0.00     0.230 C 
ATOM      2  O   UNL A   1      30.226  28.312  24.425  1.00  0.00    -0.274 OA
ATOM      3  N   UNL A   1      32.355  28.820  24.608  1.00  0.00    -0.355 N 
ATOM      4  H   UNL A   1      32.033  29.751  24.557  1.00  0.00     0.163 HD
ENDROOT
BRANCH   1   5
ATOM      5  C   UNL A   1      31.696  26.420  23.891  1.00  0.00     0.080 C 
ATOM      6  C   UNL A   1      30.485  25.986  23.029  1.00  0.00     0.027 C 
BRANCH   5   7
ATOM      7  C   UNL A   1      33.087  26.247  23.188  1.00  0.00     0.121 C 
BRANCH   7   8
ATOM      8  C   UNL A   1      33.261  25.439  21.928  1.00  0.00     0.225 C 
ATOM      9  O   UNL A   1      33.365  26.027  20.844  1.00  0.00    -0.275 OA
ATOM     10  N   UNL A   1      33.331  24.080  21.883  1.00  0.00    -0.326 N 
ATOM     11  H   UNL A   1      33.544  23.745  20.983  1.00  0.00     0.169 HD
BRANCH  10  12
ATOM     12  C   UNL A   1      33.174  23.042  22.814  1.00  0.00     0.041 A 
ATOM     13  C   UNL A   1      34.331  22.575  23.447  1.00  0.00     0.028 A 
ATOM     14  C   UNL A   1      31.974  22.425  23.133  1.00  0.00     0.028 A 
ATOM     15  C   UNL A   1      34.271  21.541  24.394  1.00  0.00     0.028 A 
ATOM     16  C   UNL A   1      31.913  21.365  24.037  1.00  0.00     0.028 A 
ATOM     17  C   UNL A   1      33.048  20.959  24.726  1.00  0.00     0.041 A 
BRANCH  17  18
ATOM     18  N   UNL A   1      32.853  19.986  25.716  1.00  0.00    -0.319 N 
ATOM     19  C   UNL A   1      32.807  18.611  25.653  1.00  0.00     0.291 C 
ATOM     20  H   UNL A   1      32.724  20.354  26.620  1.00  0.00     0.170 HD
ATOM     21  O   UNL A   1      32.474  18.011  26.678  1.00  0.00    -0.265 OA
BRANCH  19  22
ATOM     22  C   UNL A   1      33.226  17.937  24.449  1.00  0.00     0.191 A 
ATOM     23  C   UNL A   1      34.346  17.184  24.139  1.00  0.00     0.056 A 
ATOM     24  O   UNL A   1      32.415  18.020  23.350  1.00  0.00    -0.459 OA
ATOM     25  C   UNL A   1      34.231  16.833  22.772  1.00  0.00     0.043 A 
ATOM     26  C   UNL A   1      33.038  17.363  22.341  1.00  0.00     0.196 A 
ENDBRANCH  19  22
ENDBRANCH  17  18
ENDBRANCH  10  12
ENDBRANCH   7   8
ENDBRANCH   5   7
BRANCH   5  27
ATOM     27  C   UNL A   1      31.801  25.452  25.145  1.00  0.00    -0.032 A 
ATOM     28  C   UNL A   1      30.699  24.772  25.702  1.00  0.00     0.005 A 
ATOM     29  C   UNL A   1      33.070  25.141  25.685  1.00  0.00     0.005 A 
ATOM     30  C   UNL A   1      30.867  23.776  26.673  1.00  0.00     0.000 A 
ATOM     31  C   UNL A   1      33.239  24.137  26.644  1.00  0.00     0.000 A 
ATOM     32  C   UNL A   1      32.137  23.443  27.127  1.00  0.00     0.000 A 
ENDBRANCH   5  27
ENDBRANCH   1   5
BRANCH   3  33
ATOM     33  C   UNL A   1      33.764  28.704  24.942  1.00  0.00     0.117 C 
BRANCH  33  34
ATOM     34  C   UNL A   1      34.085  28.174  26.329  1.00  0.00     0.042 C 
BRANCH  34  35
ATOM     35  C   UNL A   1      33.221  28.731  27.445  1.00  0.00     0.118 C 
BRANCH  35  36
ATOM     36  N   UNL A   1      33.429  30.153  27.683  1.00  0.00    -0.352 N 
ATOM     37  C   UNL A   1      34.500  30.873  28.157  1.00  0.00     0.251 C 
ATOM     38  H   UNL A   1      32.648  30.709  27.461  1.00  0.00     0.163 HD
ATOM     39  O   UNL A   1      34.349  32.071  28.390  1.00  0.00    -0.269 OA
BRANCH  37  40
ATOM     40  C   UNL A   1      35.816  30.248  28.432  1.00  0.00     0.039 A 
ATOM     41  C   UNL A   1      36.792  30.265  27.425  1.00  0.00     0.014 A 
ATOM     42  C   UNL A   1      36.097  29.602  29.634  1.00  0.00     0.014 A 
ATOM     43  C   UNL A   1      38.061  29.726  27.660  1.00  0.00     0.010 A 
ATOM     44  C   UNL A   1      37.389  29.161  29.907  1.00  0.00     0.010 A 
ATOM     45  C   UNL A   1      38.388  29.217  28.924  1.00  0.00    -0.014 A 
BRANCH  45  46
ATOM     46  C   UNL A   1      39.751  28.725  29.259  1.00  0.00     0.031 A 
ATOM     47  C   UNL A   1      40.734  29.643  29.936  1.00  0.00     0.074 A 
ATOM     48  C   UNL A   1      40.148  27.504  28.852  1.00  0.00     0.049 A 
ATOM     49  N   UNL A   1      42.022  29.492  30.112  1.00  0.00    -0.248 NA
ATOM     50  C   UNL A   1      40.203  30.918  30.447  1.00  0.00     0.031 C 
ATOM     51  C   UNL A   1      39.314  26.520  28.159  1.00  0.00     0.029 A 
ATOM     52  N   UNL A   1      41.374  26.889  28.946  1.00  0.00    -0.354 N 
ATOM     53  C   UNL A   1      42.463  30.672  30.698  1.00  0.00     0.074 A 
ATOM     54  C   UNL A   1      41.310  31.538  30.828  1.00  0.00     0.031 C 
ATOM     55  C   UNL A   1      40.044  25.422  27.907  1.00  0.00     0.029 A 
ATOM     56  C   UNL A   1      41.408  25.642  28.373  1.00  0.00     0.049 A 
ATOM     57  H   UNL A   1      42.153  27.304  29.382  1.00  0.00     0.167 HD
ATOM     58  C   UNL A   1      43.713  31.006  31.098  1.00  0.00     0.031 A 
ATOM     59  C   UNL A   1      42.428  24.776  28.220  1.00  0.00     0.031 A 
ATOM     60  C   UNL A   1      44.849  30.130  31.024  1.00  0.00     0.049 A 
ATOM     61  C   UNL A   1      43.797  25.150  28.713  1.00  0.00     0.074 A 
ATOM     62  C   UNL A   1      46.142  30.353  31.466  1.00  0.00     0.029 A 
ATOM     63  N   UNL A   1      44.822  28.853  30.489  1.00  0.00    -0.354 N 
ATOM     64  N   UNL A   1      44.191  26.263  29.282  1.00  0.00    -0.248 NA
ATOM     65  C   UNL A   1      44.859  24.148  28.545  1.00  0.00     0.031 C 
ATOM     66  C   UNL A   1      46.904  29.216  31.179  1.00  0.00     0.029 A 
ATOM     67  C   UNL A   1      46.077  28.275  30.588  1.00  0.00     0.049 A 
ATOM     68  H   UNL A   1      44.030  28.420  30.096  1.00  0.00     0.167 HD
ATOM     69  C   UNL A   1      45.540  26.086  29.561  1.00  0.00     0.074 A 
ATOM     70  C   UNL A   1      45.894  24.757  29.106  1.00  0.00     0.031 C 
ATOM     71  C   UNL A   1      46.406  26.948  30.144  1.00  0.00     0.031 A 
BRANCH  58  72
ATOM     72  C   UNL A   1      43.912  32.389  31.650  1.00  0.00    -0.014 A 
ATOM     73  C   UNL A   1      44.217  33.472  30.811  1.00  0.00     0.009 A 
ATOM     74  C   UNL A   1      43.770  32.613  33.028  1.00  0.00     0.009 A 
ATOM     75  C   UNL A   1      44.413  34.746  31.347  1.00  0.00     0.001 A 
ATOM     76  C   UNL A   1      43.942  33.894  33.558  1.00  0.00     0.001 A 
ATOM     77  C   UNL A   1      44.273  34.956  32.718  1.00  0.00     0.000 A 
ENDBRANCH  58  72
BRANCH  59  78
ATOM     78  C   UNL A   1      42.192  23.458  27.578  1.00  0.00    -0.014 A 
ATOM     79  C   UNL A   1      42.350  23.312  26.192  1.00  0.00     0.009 A 
ATOM     80  C   UNL A   1      41.816  22.344  28.344  1.00  0.00     0.009 A 
ATOM     81  C   UNL A   1      42.118  22.078  25.580  1.00  0.00     0.001 A 
ATOM     82  C   UNL A   1      41.606  21.107  27.732  1.00  0.00     0.001 A 
ATOM     83  C   UNL A   1      41.750  20.977  26.351  1.00  0.00     0.000 A 
ENDBRANCH  59  78
BRANCH  71  84
ATOM     84  C   UNL A   1      47.809  26.467  30.365  1.00  0.00    -0.014 A 
ATOM     85  C   UNL A   1      48.177  25.826  31.557  1.00  0.00     0.009 A 
ATOM     86  C   UNL A   1      48.758  26.610  29.341  1.00  0.00     0.009 A 
ATOM     87  C   UNL A   1      49.479  25.354  31.727  1.00  0.00     0.001 A 
ATOM     88  C   UNL A   1      50.054  26.120  29.508  1.00  0.00     0.001 A 
ATOM     89  C   UNL A   1      50.414  25.496  30.701  1.00  0.00     0.000 A 
ENDBRANCH  71  84
ENDBRANCH  45  46
ENDBRANCH  37  40
ENDBRANCH  35  36
ENDBRANCH  34  35
ENDBRANCH  33  34
ENDBRANCH   3  33
TORSDOF 16
ENDMDL
MODEL 2
REMARK VINA RESULT:     -11.4      0.995      5.700
REMARK SMILES C[C@@](CC(=O)Nc1ccc(NC(=O)c2ccco2)cc1)(C(=O)NCCCNC(=O)c1ccc(-c2c3nc(c(-c4ccccc4)c4ccc([nH]4)c(-c4ccccc4)c4nc(c(-c5ccccc5)c5ccc2[nH]5)C=C4)C=C3)cc1)c1ccccc1
REMARK SMILES IDX 21 1 22 2 23 3 2 5 1 6 3 7 4 8 5 9 6 10 7 12 8 13 20 14 9 15
REMARK SMILES IDX 19 16 10 17 11 18 12 19 13 21 14 22 15 23 18 24 16 25 17 26
REMARK SMILES IDX 78 27 79 28 83 29 80 30 82 31 81 32 24 33 25 34 26 35 27 36
REMARK SMILES IDX 28 37 29 39 30 40 31 41 77 42 32 43 76 44 33 45 34 46 35 47
REMARK SMILES IDX 70 48 36 49 75 50 69 51 71 52 37 53 74 54 68 55 67 56 38 58
REMARK SMILES IDX 60 59 45 60 59 61 46 62 49 63 58 64 72 65 47 66 48 67 57 69
REMARK SMILES IDX 73 70 50 71 39 72 40 73 44 74 41 75 43 76 42 77 61 78 62 79
REMARK SMILES IDX 66 80 63 81 65 82 64 83 51 84 52 85 56 86 53 87 55 88 54 89
REMARK H PARENT 23 4 6 11 11 20 27 38 71 57 49 68
REMARK Flexibility Score: inf
ROOT
ATOM      1  C   UNL A   1      31.529  28.255  24.200  1.00  0.00     0.230 C 
ATOM      2  O   UNL A   1      30.436  28.833  24.204  1.00  0.00    -0.274 OA
ATOM      3  N   UNL A   1      32.594  29.044  24.547  1.00  0.00    -0.355 N 
ATOM      4  H   UNL A   1      32.406  30.010  24.494  1.00  0.00     0.163 HD
ENDROOT
BRANCH   1   5
ATOM      5  C   UNL A   1      31.670  26.765  23.734  1.00  0.00     0.080 C 
ATOM      6  C   UNL A   1      30.475  26.508  22.785  1.00  0.00     0.027 C 
BRANCH   5   7
ATOM      7  C   UNL A   1      33.071  26.414  23.122  1.00  0.00     0.121 C 
BRANCH   7   8
ATOM      8  C   UNL A   1      33.220  25.601  21.861  1.00  0.00     0.225 C 
ATOM      9  O   UNL A   1      33.299  26.185  20.772  1.00  0.00    -0.275 OA
ATOM     10  N   UNL A   1      33.295  24.242  21.820  1.00  0.00    -0.326 N 
ATOM     11  H   UNL A   1      33.490  23.905  20.916  1.00  0.00     0.169 HD
BRANCH  10  12
ATOM     12  C   UNL A   1      33.161  23.207  22.758  1.00  0.00     0.041 A 
ATOM     13  C   UNL A   1      34.325  22.786  23.409  1.00  0.00     0.028 A 
ATOM     14  C   UNL A   1      31.979  22.553  23.067  1.00  0.00     0.028 A 
ATOM     15  C   UNL A   1      34.288  21.759  24.365  1.00  0.00     0.028 A 
ATOM     16  C   UNL A   1      31.942  21.499  23.980  1.00  0.00     0.028 A 
ATOM     17  C   UNL A   1      33.082  21.138  24.686  1.00  0.00     0.041 A 
BRANCH  17  18
ATOM     18  N   UNL A   1      32.907  20.168  25.682  1.00  0.00    -0.319 N 
ATOM     19  C   UNL A   1      32.810  18.795  25.618  1.00  0.00     0.291 C 
ATOM     20  H   UNL A   1      32.842  20.535  26.594  1.00  0.00     0.170 HD
ATOM     21  O   UNL A   1      32.513  18.202  26.657  1.00  0.00    -0.265 OA
BRANCH  19  22
ATOM     22  C   UNL A   1      33.138  18.113  24.391  1.00  0.00     0.191 A 
ATOM     23  C   UNL A   1      34.197  17.298  24.027  1.00  0.00     0.056 A 
ATOM     24  O   UNL A   1      32.290  18.260  23.327  1.00  0.00    -0.459 OA
ATOM     25  C   UNL A   1      34.005  16.972  22.662  1.00  0.00     0.043 A 
ATOM     26  C   UNL A   1      32.830  17.579  22.286  1.00  0.00     0.196 A 
ENDBRANCH  19  22
ENDBRANCH  17  18
ENDBRANCH  10  12
ENDBRANCH   7   8
ENDBRANCH   5   7
BRANCH   5  27
ATOM     27  C   UNL A   1      31.559  25.777  24.972  1.00  0.00    -0.032 A 
ATOM     28  C   UNL A   1      30.338  25.272  25.461  1.00  0.00     0.005 A 
ATOM     29  C   UNL A   1      32.735  25.265  25.567  1.00  0.00     0.005 A 
ATOM     30  C   UNL A   1      30.299  24.250  26.420  1.00  0.00     0.000 A 
ATOM     31  C   UNL A   1      32.696  24.236  26.513  1.00  0.00     0.000 A 
ATOM     32  C   UNL A   1      31.477  23.717  26.928  1.00  0.00     0.000 A 
ENDBRANCH   5  27
ENDBRANCH   1   5
BRANCH   3  33
ATOM     33  C   UNL A   1      33.947  28.734  24.976  1.00  0.00     0.117 C 
BRANCH  33  34
ATOM     34  C   UNL A   1      34.087  28.096  26.348  1.00  0.00     0.042 C 
BRANCH  34  35
ATOM     35  C   UNL A   1      33.238  28.724  27.437  1.00  0.00     0.118 C 
BRANCH  35  36
ATOM     36  N   UNL A   1      33.420  30.165  27.556  1.00  0.00    -0.352 N 
ATOM     37  C   UNL A   1      34.473  30.940  27.980  1.00  0.00     0.251 C 
ATOM     38  H   UNL A   1      32.633  30.686  27.278  1.00  0.00     0.163 HD
ATOM     39  O   UNL A   1      34.301  32.151  28.107  1.00  0.00    -0.269 OA
BRANCH  37  40
ATOM     40  C   UNL A   1      35.795  30.362  28.323  1.00  0.00     0.039 A 
ATOM     41  C   UNL A   1      36.815  30.402  27.361  1.00  0.00     0.014 A 
ATOM     42  C   UNL A   1      36.042  29.741  29.544  1.00  0.00     0.014 A 
ATOM     43  C   UNL A   1      38.090  29.908  27.660  1.00  0.00     0.010 A 
ATOM     44  C   UNL A   1      37.333  29.346  29.881  1.00  0.00     0.010 A 
ATOM     45  C   UNL A   1      38.374  29.425  28.945  1.00  0.00    -0.014 A 
BRANCH  45  46
ATOM     46  C   UNL A   1      39.736  28.983  29.348  1.00  0.00     0.031 A 
ATOM     47  C   UNL A   1      40.279  27.672  28.844  1.00  0.00     0.074 A 
ATOM     48  C   UNL A   1      40.436  29.691  30.255  1.00  0.00     0.049 A 
ATOM     49  N   UNL A   1      41.331  27.003  29.242  1.00  0.00    -0.248 NA
ATOM     50  C   UNL A   1      39.511  27.006  27.778  1.00  0.00     0.031 C 
ATOM     51  C   UNL A   1      40.022  30.963  30.852  1.00  0.00     0.029 A 
ATOM     52  N   UNL A   1      41.645  29.424  30.852  1.00  0.00    -0.354 N 
ATOM     53  C   UNL A   1      41.319  25.816  28.520  1.00  0.00     0.074 A 
ATOM     54  C   UNL A   1      40.144  25.846  27.675  1.00  0.00     0.031 C 
ATOM     55  C   UNL A   1      40.965  31.373  31.714  1.00  0.00     0.029 A 
ATOM     56  C   UNL A   1      42.025  30.373  31.770  1.00  0.00     0.049 A 
ATOM     57  H   UNL A   1      42.186  28.629  30.642  1.00  0.00     0.167 HD
ATOM     58  C   UNL A   1      42.207  24.794  28.550  1.00  0.00     0.031 A 
ATOM     59  C   UNL A   1      43.097  30.424  32.583  1.00  0.00     0.031 A 
ATOM     60  C   UNL A   1      43.404  24.785  29.344  1.00  0.00     0.049 A 
ATOM     61  C   UNL A   1      44.093  29.300  32.567  1.00  0.00     0.074 A 
ATOM     62  C   UNL A   1      44.401  23.825  29.392  1.00  0.00     0.029 A 
ATOM     63  N   UNL A   1      43.777  25.795  30.215  1.00  0.00    -0.354 N 
ATOM     64  N   UNL A   1      44.075  28.194  31.863  1.00  0.00    -0.248 NA
ATOM     65  C   UNL A   1      45.257  29.433  33.454  1.00  0.00     0.031 C 
ATOM     66  C   UNL A   1      45.369  24.245  30.310  1.00  0.00     0.029 A 
ATOM     67  C   UNL A   1      44.989  25.481  30.808  1.00  0.00     0.049 A 
ATOM     68  H   UNL A   1      43.258  26.613  30.389  1.00  0.00     0.167 HD
ATOM     69  C   UNL A   1      45.235  27.512  32.205  1.00  0.00     0.074 A 
ATOM     70  C   UNL A   1      45.938  28.330  33.172  1.00  0.00     0.031 C 
ATOM     71  C   UNL A   1      45.678  26.314  31.755  1.00  0.00     0.031 A 
BRANCH  58  72
ATOM     72  C   UNL A   1      41.906  23.596  27.697  1.00  0.00    -0.014 A 
ATOM     73  C   UNL A   1      42.461  23.457  26.415  1.00  0.00     0.009 A 
ATOM     74  C   UNL A   1      41.075  22.580  28.193  1.00  0.00     0.009 A 
ATOM     75  C   UNL A   1      42.156  22.341  25.632  1.00  0.00     0.001 A 
ATOM     76  C   UNL A   1      40.792  21.454  27.417  1.00  0.00     0.001 A 
ATOM     77  C   UNL A   1      41.326  21.341  26.134  1.00  0.00     0.000 A 
ENDBRANCH  58  72
BRANCH  59  78
ATOM     78  C   UNL A   1      43.292  31.592  33.478  1.00  0.00    -0.014 A 
ATOM     79  C   UNL A   1      42.797  31.564  34.790  1.00  0.00     0.009 A 
ATOM     80  C   UNL A   1      43.979  32.732  33.032  1.00  0.00     0.009 A 
ATOM     81  C   UNL A   1      42.967  32.665  35.633  1.00  0.00     0.001 A 
ATOM     82  C   UNL A   1      44.166  33.821  33.885  1.00  0.00     0.001 A 
ATOM     83  C   UNL A   1      43.655  33.790  35.182  1.00  0.00     0.000 A 
ENDBRANCH  59  78
BRANCH  71  84
ATOM     84  C   UNL A   1      47.004  25.836  32.269  1.00  0.00    -0.014 A 
ATOM     85  C   UNL A   1      48.196  26.149  31.600  1.00  0.00     0.009 A 
ATOM     86  C   UNL A   1      47.060  25.110  33.468  1.00  0.00     0.009 A 
ATOM     87  C   UNL A   1      49.422  25.725  32.114  1.00  0.00     0.001 A 
ATOM     88  C   UNL A   1      48.289  24.703  33.990  1.00  0.00     0.001 A 
ATOM     89  C   UNL A   1      49.468  25.008  33.311  1.00  0.00     0.000 A 
ENDBRANCH  71  84
ENDBRANCH  45  46
ENDBRANCH  37  40
ENDBRANCH  35  36
ENDBRANCH  34  35
ENDBRANCH  33  34
ENDBRANCH   3  33
TORSDOF 16
ENDMDL
MODEL 3
REMARK VINA RESULT:     -11.3      2.425      8.133
REMARK SMILES C[C@@](CC(=O)Nc1ccc(NC(=O)c2ccco2)cc1)(C(=O)NCCCNC(=O)c1ccc(-c2c3nc(c(-c4ccccc4)c4ccc([nH]4)c(-c4ccccc4)c4nc(c(-c5ccccc5)c5ccc2[nH]5)C=C4)C=C3)cc1)c1ccccc1
REMARK SMILES IDX 21 1 22 2 23 3 2 5 1 6 3 7 4 8 5 9 6 10 7 12 8 13 20 14 9 15
REMARK SMILES IDX 19 16 10 17 11 18 12 19 13 21 14 22 15 23 18 24 16 25 17 26
REMARK SMILES IDX 78 27 79 28 83 29 80 30 82 31 81 32 24 33 25 34 26 35 27 36
REMARK SMILES IDX 28 37 29 39 30 40 31 41 77 42 32 43 76 44 33 45 34 46 35 47
REMARK SMILES IDX 70 48 36 49 75 50 69 51 71 52 37 53 74 54 68 55 67 56 38 58
REMARK SMILES IDX 60 59 45 60 59 61 46 62 49 63 58 64 72 65 47 66 48 67 57 69
REMARK SMILES IDX 73 70 50 71 39 72 40 73 44 74 41 75 43 76 42 77 61 78 62 79
REMARK SMILES IDX 66 80 63 81 65 82 64 83 51 84 52 85 56 86 53 87 55 88 54 89
REMARK H PARENT 23 4 6 11 11 20 27 38 71 57 49 68
REMARK Flexibility Score: inf
ROOT
ATOM      1  C   UNL A   1      33.056  23.449  25.737  1.00  0.00     0.230 C 
ATOM      2  O   UNL A   1      32.373  23.070  26.696  1.00  0.00    -0.274 OA
ATOM      3  N   UNL A   1      34.065  24.318  26.063  1.00  0.00    -0.355 N 
ATOM      4  H   UNL A   1      33.957  24.737  26.948  1.00  0.00     0.163 HD
ENDROOT
BRANCH   1   5
ATOM      5  C   UNL A   1      32.714  23.031  24.266  1.00  0.00     0.080 C 
ATOM      6  C   UNL A   1      31.189  23.250  24.114  1.00  0.00     0.027 C 
BRANCH   5   7
ATOM      7  C   UNL A   1      33.583  23.750  23.176  1.00  0.00     0.121 C 
BRANCH   7   8
ATOM      8  C   UNL A   1      33.038  24.113  21.818  1.00  0.00     0.225 C 
ATOM      9  O   UNL A   1      33.202  23.330  20.873  1.00  0.00    -0.275 OA
ATOM     10  N   UNL A   1      32.349  25.254  21.541  1.00  0.00    -0.326 N 
ATOM     11  H   UNL A   1      31.992  25.262  20.624  1.00  0.00     0.169 HD
BRANCH  10  12
ATOM     12  C   UNL A   1      32.023  26.420  22.250  1.00  0.00     0.041 A 
ATOM     13  C   UNL A   1      33.020  27.396  22.359  1.00  0.00     0.028 A 
ATOM     14  C   UNL A   1      30.809  26.668  22.872  1.00  0.00     0.028 A 
ATOM     15  C   UNL A   1      32.784  28.596  23.047  1.00  0.00     0.028 A 
ATOM     16  C   UNL A   1      30.584  27.837  23.599  1.00  0.00     0.028 A 
ATOM     17  C   UNL A   1      31.544  28.840  23.636  1.00  0.00     0.041 A 
BRANCH  17  18
ATOM     18  N   UNL A   1      31.165  30.031  24.269  1.00  0.00    -0.319 N 
ATOM     19  C   UNL A   1      31.469  30.547  25.509  1.00  0.00     0.291 C 
ATOM     20  H   UNL A   1      30.572  30.603  23.729  1.00  0.00     0.170 HD
ATOM     21  O   UNL A   1      30.870  31.567  25.858  1.00  0.00    -0.265 OA
BRANCH  19  22
ATOM     22  C   UNL A   1      32.516  29.944  26.296  1.00  0.00     0.191 A 
ATOM     23  C   UNL A   1      33.683  30.448  26.845  1.00  0.00     0.056 A 
ATOM     24  O   UNL A   1      32.413  28.612  26.591  1.00  0.00    -0.459 OA
ATOM     25  C   UNL A   1      34.342  29.358  27.463  1.00  0.00     0.043 A 
ATOM     26  C   UNL A   1      33.526  28.266  27.282  1.00  0.00     0.196 A 
ENDBRANCH  19  22
ENDBRANCH  17  18
ENDBRANCH  10  12
ENDBRANCH   7   8
ENDBRANCH   5   7
BRANCH   5  27
ATOM     27  C   UNL A   1      33.035  21.495  24.029  1.00  0.00    -0.032 A 
ATOM     28  C   UNL A   1      34.038  20.790  24.724  1.00  0.00     0.005 A 
ATOM     29  C   UNL A   1      32.214  20.732  23.167  1.00  0.00     0.005 A 
ATOM     30  C   UNL A   1      34.152  19.396  24.633  1.00  0.00     0.000 A 
ATOM     31  C   UNL A   1      32.319  19.340  23.087  1.00  0.00     0.000 A 
ATOM     32  C   UNL A   1      33.279  18.670  23.834  1.00  0.00     0.000 A 
ENDBRANCH   5  27
ENDBRANCH   1   5
BRANCH   3  33
ATOM     33  C   UNL A   1      35.260  24.743  25.355  1.00  0.00     0.117 C 
BRANCH  33  34
ATOM     34  C   UNL A   1      36.297  23.668  25.079  1.00  0.00     0.042 C 
BRANCH  34  35
ATOM     35  C   UNL A   1      36.714  22.853  26.289  1.00  0.00     0.118 C 
BRANCH  35  36
ATOM     36  N   UNL A   1      38.040  22.263  26.161  1.00  0.00    -0.352 N 
ATOM     37  C   UNL A   1      39.306  22.764  26.354  1.00  0.00     0.251 C 
ATOM     38  H   UNL A   1      38.028  21.319  25.882  1.00  0.00     0.163 HD
ATOM     39  O   UNL A   1      40.270  22.069  26.035  1.00  0.00    -0.269 OA
BRANCH  37  40
ATOM     40  C   UNL A   1      39.547  24.123  26.895  1.00  0.00     0.039 A 
ATOM     41  C   UNL A   1      39.144  24.404  28.209  1.00  0.00     0.014 A 
ATOM     42  C   UNL A   1      40.112  25.140  26.129  1.00  0.00     0.014 A 
ATOM     43  C   UNL A   1      39.393  25.660  28.772  1.00  0.00     0.010 A 
ATOM     44  C   UNL A   1      40.456  26.353  26.720  1.00  0.00     0.010 A 
ATOM     45  C   UNL A   1      40.102  26.629  28.049  1.00  0.00    -0.014 A 
BRANCH  45  46
ATOM     46  C   UNL A   1      40.483  27.942  28.634  1.00  0.00     0.031 A 
ATOM     47  C   UNL A   1      41.853  28.128  29.229  1.00  0.00     0.074 A 
ATOM     48  C   UNL A   1      39.569  28.926  28.741  1.00  0.00     0.049 A 
ATOM     49  N   UNL A   1      42.305  29.102  29.978  1.00  0.00    -0.248 NA
ATOM     50  C   UNL A   1      42.831  27.056  28.982  1.00  0.00     0.031 C 
ATOM     51  C   UNL A   1      38.194  28.874  28.237  1.00  0.00     0.029 A 
ATOM     52  N   UNL A   1      39.656  30.162  29.335  1.00  0.00    -0.354 N 
ATOM     53  C   UNL A   1      43.595  28.732  30.338  1.00  0.00     0.074 A 
ATOM     54  C   UNL A   1      43.847  27.437  29.745  1.00  0.00     0.031 C 
ATOM     55  C   UNL A   1      37.575  30.029  28.527  1.00  0.00     0.029 A 
ATOM     56  C   UNL A   1      38.488  30.882  29.279  1.00  0.00     0.049 A 
ATOM     57  H   UNL A   1      40.478  30.498  29.760  1.00  0.00     0.167 HD
ATOM     58  C   UNL A   1      44.495  29.411  31.090  1.00  0.00     0.031 A 
ATOM     59  C   UNL A   1      38.178  32.087  29.793  1.00  0.00     0.031 A 
ATOM     60  C   UNL A   1      44.271  30.722  31.633  1.00  0.00     0.049 A 
ATOM     61  C   UNL A   1      39.207  32.842  30.586  1.00  0.00     0.074 A 
ATOM     62  C   UNL A   1      45.147  31.519  32.351  1.00  0.00     0.029 A 
ATOM     63  N   UNL A   1      43.093  31.437  31.501  1.00  0.00    -0.354 N 
ATOM     64  N   UNL A   1      40.428  32.485  30.900  1.00  0.00    -0.248 NA
ATOM     65  C   UNL A   1      38.814  34.165  31.091  1.00  0.00     0.031 C 
ATOM     66  C   UNL A   1      44.489  32.711  32.672  1.00  0.00     0.029 A 
ATOM     67  C   UNL A   1      43.216  32.667  32.125  1.00  0.00     0.049 A 
ATOM     68  H   UNL A   1      42.287  31.119  31.033  1.00  0.00     0.167 HD
ATOM     69  C   UNL A   1      40.958  33.548  31.618  1.00  0.00     0.074 A 
ATOM     70  C   UNL A   1      39.929  34.566  31.688  1.00  0.00     0.031 C 
ATOM     71  C   UNL A   1      42.188  33.670  32.171  1.00  0.00     0.031 A 
BRANCH  58  72
ATOM     72  C   UNL A   1      45.806  28.735  31.370  1.00  0.00    -0.014 A 
ATOM     73  C   UNL A   1      45.974  27.906  32.490  1.00  0.00     0.009 A 
ATOM     74  C   UNL A   1      46.882  28.914  30.487  1.00  0.00     0.009 A 
ATOM     75  C   UNL A   1      47.206  27.299  32.741  1.00  0.00     0.001 A 
ATOM     76  C   UNL A   1      48.106  28.286  30.727  1.00  0.00     0.001 A 
ATOM     77  C   UNL A   1      48.270  27.488  31.858  1.00  0.00     0.000 A 
ENDBRANCH  58  72
BRANCH  59  78
ATOM     78  C   UNL A   1      36.829  32.665  29.564  1.00  0.00    -0.014 A 
ATOM     79  C   UNL A   1      35.838  32.549  30.550  1.00  0.00     0.009 A 
ATOM     80  C   UNL A   1      36.530  33.338  28.370  1.00  0.00     0.009 A 
ATOM     81  C   UNL A   1      34.563  33.080  30.336  1.00  0.00     0.001 A 
ATOM     82  C   UNL A   1      35.262  33.886  28.169  1.00  0.00     0.001 A 
ATOM     83  C   UNL A   1      34.278  33.751  29.148  1.00  0.00     0.000 A 
ENDBRANCH  59  78
BRANCH  71  84
ATOM     84  C   UNL A   1      42.507  34.964  32.858  1.00  0.00    -0.014 A 
ATOM     85  C   UNL A   1      43.285  35.947  32.229  1.00  0.00     0.009 A 
ATOM     86  C   UNL A   1      41.973  35.221  34.130  1.00  0.00     0.009 A 
ATOM     87  C   UNL A   1      43.539  37.159  32.872  1.00  0.00     0.001 A 
ATOM     88  C   UNL A   1      42.214  36.442  34.763  1.00  0.00     0.001 A 
ATOM     89  C   UNL A   1      43.000  37.408  34.135  1.00  0.00     0.000 A 
ENDBRANCH  71  84
ENDBRANCH  45  46
ENDBRANCH  37  40
ENDBRANCH  35  36
ENDBRANCH  34  35
ENDBRANCH  33  34
ENDBRANCH   3  33
TORSDOF 16
ENDMDL
