MODEL 1
REMARK VINA RESULT:     -12.6      0.000      0.000
REMARK SMILES C[C@@H]1CC[C@H](C)[N@H+]1Cc1cc2c(cc1Cl)C=C(C(=O)NCCCNC(=O)c1ccc(-c3c4nc(c(-c5ccccc5)c5ccc([nH]5)c(-c5ccccc5)c5nc(c(-c6ccccc6)c6ccc3[nH]6)C=C5)C=C4)cc1)[C@@H](C(F)(F)F)O2
REMARK SMILES IDX 22 1 21 2 20 3 18 4 19 5 17 7 9 8 10 9 14 10 11 11 13 12
REMARK SMILES IDX 15 13 12 14 80 15 16 16 75 17 8 18 7 19 6 20 5 21 4 22 3 23
REMARK SMILES IDX 2 24 1 26 76 27 77 28 78 29 79 30 23 31 24 32 25 33 26 35
REMARK SMILES IDX 27 36 28 37 74 38 29 39 73 40 30 41 31 42 32 43 67 44 33 45
REMARK SMILES IDX 72 46 66 47 68 48 34 49 71 50 65 51 64 52 35 54 57 55 42 56
REMARK SMILES IDX 56 57 43 58 46 59 55 60 69 61 44 62 45 63 54 65 70 66 47 67
REMARK SMILES IDX 36 68 37 69 41 70 38 71 40 72 39 73 58 74 59 75 63 76 60 77
REMARK SMILES IDX 62 78 61 79 48 80 49 81 53 82 50 83 52 84 51 85
REMARK H PARENT 20 6 7 25 24 34 68 53 46 64
REMARK Flexibility Score: inf
ROOT
ATOM      1  C   UNL A   1      38.080  19.977  24.724  1.00  0.00     0.042 C 
ENDROOT
BRANCH   1   2
ATOM      2  C   UNL A   1      36.731  20.568  25.105  1.00  0.00     0.118 C 
BRANCH   2   3
ATOM      3  N   UNL A   1      35.668  19.588  24.952  1.00  0.00    -0.352 N 
ATOM      4  C   UNL A   1      34.318  19.589  24.893  1.00  0.00     0.251 C 
ATOM      5  O   UNL A   1      33.797  18.473  24.809  1.00  0.00    -0.270 OA
ATOM      6  H   UNL A   1      36.029  18.675  24.869  1.00  0.00     0.163 HD
BRANCH   4   7
ATOM      7  C   UNL A   1      33.462  20.804  24.916  1.00  0.00     0.067 C 
ATOM      8  C   UNL A   1      30.782  24.875  23.629  1.00  0.00     0.029 A 
ATOM      9  C   UNL A   1      30.722  23.948  24.688  1.00  0.00     0.058 A 
ATOM     10  C   UNL A   1      31.812  24.727  22.684  1.00  0.00     0.050 A 
ATOM     11  C   UNL A   1      31.600  22.872  24.738  1.00  0.00     0.128 A 
ATOM     12  C   UNL A   1      32.640  23.597  22.697  1.00  0.00     0.033 A 
ATOM     13  Cl  UNL A   1      32.193  25.938  21.510  1.00  0.00    -0.084 Cl
ATOM     14  C   UNL A   1      32.520  22.656  23.715  1.00  0.00     0.019 A 
ATOM     15  O   UNL A   1      31.517  22.034  25.819  1.00  0.00    -0.475 OA
ATOM     16  C   UNL A   1      33.335  21.450  23.741  1.00  0.00     0.025 C 
ATOM     17  C   UNL A   1      32.771  21.355  26.131  1.00  0.00     0.314 C 
BRANCH   8  18
ATOM     18  C   UNL A   1      29.717  25.956  23.564  1.00  0.00     0.301 C 
BRANCH  18  19
ATOM     19  N   UNL A   1      30.096  27.287  24.070  1.00  0.00    -0.327 N 
ATOM     20  C   UNL A   1      28.716  29.113  23.125  1.00  0.00     0.075 C 
ATOM     21  C   UNL A   1      30.061  28.400  23.110  1.00  0.00     0.181 C 
ATOM     22  C   UNL A   1      31.200  29.328  23.531  1.00  0.00     0.071 C 
ATOM     23  C   UNL A   1      32.215  28.366  24.110  1.00  0.00     0.071 C 
ATOM     24  C   UNL A   1      31.351  27.338  24.829  1.00  0.00     0.181 C 
ATOM     25  H   UNL A   1      29.322  27.436  24.717  1.00  0.00     0.348 HD
ATOM     26  C   UNL A   1      31.041  27.746  26.268  1.00  0.00     0.075 C 
ENDBRANCH  18  19
ENDBRANCH   8  18
BRANCH  17  27
ATOM     27  C   UNL A   1      33.692  22.276  26.962  1.00  0.00     0.429 C 
ATOM     28  F   UNL A   1      32.959  23.202  27.628  1.00  0.00    -0.167 F 
ATOM     29  F   UNL A   1      34.393  21.592  27.899  1.00  0.00    -0.167 F 
ATOM     30  F   UNL A   1      34.600  22.940  26.212  1.00  0.00    -0.167 F 
ENDBRANCH  17  27
ENDBRANCH   4   7
ENDBRANCH   2   3
ENDBRANCH   1   2
BRANCH   1  31
ATOM     31  C   UNL A   1      39.141  20.262  25.777  1.00  0.00     0.118 C 
BRANCH  31  32
ATOM     32  N   UNL A   1      40.113  19.177  25.882  1.00  0.00    -0.352 N 
ATOM     33  C   UNL A   1      41.480  19.226  26.035  1.00  0.00     0.251 C 
ATOM     34  H   UNL A   1      39.731  18.270  25.834  1.00  0.00     0.163 HD
ATOM     35  O   UNL A   1      42.161  18.228  25.860  1.00  0.00    -0.269 OA
BRANCH  33  36
ATOM     36  C   UNL A   1      42.117  20.511  26.388  1.00  0.00     0.039 A 
ATOM     37  C   UNL A   1      42.254  20.871  27.727  1.00  0.00     0.014 A 
ATOM     38  C   UNL A   1      42.543  21.374  25.376  1.00  0.00     0.014 A 
ATOM     39  C   UNL A   1      42.610  22.172  28.051  1.00  0.00     0.010 A 
ATOM     40  C   UNL A   1      43.011  22.647  25.711  1.00  0.00     0.010 A 
ATOM     41  C   UNL A   1      42.993  23.076  27.047  1.00  0.00    -0.014 A 
BRANCH  41  42
ATOM     42  C   UNL A   1      43.359  24.463  27.427  1.00  0.00     0.031 A 
ATOM     43  C   UNL A   1      44.780  24.944  27.308  1.00  0.00     0.074 A 
ATOM     44  C   UNL A   1      42.387  25.314  27.814  1.00  0.00     0.049 A 
ATOM     45  N   UNL A   1      45.275  26.121  27.599  1.00  0.00    -0.248 NA
ATOM     46  C   UNL A   1      45.778  23.987  26.799  1.00  0.00     0.031 C 
ATOM     47  C   UNL A   1      40.967  24.970  27.929  1.00  0.00     0.029 A 
ATOM     48  N   UNL A   1      42.435  26.643  28.142  1.00  0.00    -0.354 N 
ATOM     49  C   UNL A   1      46.637  26.036  27.340  1.00  0.00     0.074 A 
ATOM     50  C   UNL A   1      46.899  24.689  26.884  1.00  0.00     0.031 C 
ATOM     51  C   UNL A   1      40.273  26.075  28.235  1.00  0.00     0.029 A 
ATOM     52  C   UNL A   1      41.203  27.182  28.423  1.00  0.00     0.049 A 
ATOM     53  H   UNL A   1      43.272  27.162  28.175  1.00  0.00     0.167 HD
ATOM     54  C   UNL A   1      47.581  26.998  27.470  1.00  0.00     0.031 A 
ATOM     55  C   UNL A   1      40.855  28.422  28.811  1.00  0.00     0.031 A 
ATOM     56  C   UNL A   1      47.309  28.343  27.903  1.00  0.00     0.049 A 
ATOM     57  C   UNL A   1      41.926  29.456  28.990  1.00  0.00     0.074 A 
ATOM     58  C   UNL A   1      48.199  29.391  28.054  1.00  0.00     0.029 A 
ATOM     59  N   UNL A   1      46.055  28.826  28.244  1.00  0.00    -0.354 N 
ATOM     60  N   UNL A   1      43.213  29.351  28.765  1.00  0.00    -0.248 NA
ATOM     61  C   UNL A   1      41.503  30.772  29.487  1.00  0.00     0.031 C 
ATOM     62  C   UNL A   1      47.494  30.494  28.536  1.00  0.00     0.029 A 
ATOM     63  C   UNL A   1      46.154  30.152  28.627  1.00  0.00     0.049 A 
ATOM     64  H   UNL A   1      45.221  28.304  28.218  1.00  0.00     0.167 HD
ATOM     65  C   UNL A   1      43.756  30.586  29.085  1.00  0.00     0.074 A 
ATOM     66  C   UNL A   1      42.655  31.433  29.501  1.00  0.00     0.031 C 
ATOM     67  C   UNL A   1      45.050  30.979  29.042  1.00  0.00     0.031 A 
BRANCH  54  68
ATOM     68  C   UNL A   1      49.009  26.639  27.164  1.00  0.00    -0.014 A 
ATOM     69  C   UNL A   1      49.478  26.734  25.843  1.00  0.00     0.009 A 
ATOM     70  C   UNL A   1      49.857  26.114  28.150  1.00  0.00     0.009 A 
ATOM     71  C   UNL A   1      50.761  26.296  25.513  1.00  0.00     0.001 A 
ATOM     72  C   UNL A   1      51.150  25.701  27.820  1.00  0.00     0.001 A 
ATOM     73  C   UNL A   1      51.597  25.782  26.502  1.00  0.00     0.000 A 
ENDBRANCH  54  68
BRANCH  55  74
ATOM     74  C   UNL A   1      39.423  28.726  29.069  1.00  0.00    -0.014 A 
ATOM     75  C   UNL A   1      38.609  29.237  28.044  1.00  0.00     0.009 A 
ATOM     76  C   UNL A   1      38.883  28.582  30.355  1.00  0.00     0.009 A 
ATOM     77  C   UNL A   1      37.296  29.630  28.307  1.00  0.00     0.001 A 
ATOM     78  C   UNL A   1      37.558  28.947  30.609  1.00  0.00     0.001 A 
ATOM     79  C   UNL A   1      36.770  29.482  29.589  1.00  0.00     0.000 A 
ENDBRANCH  55  74
BRANCH  67  80
ATOM     80  C   UNL A   1      45.365  32.391  29.444  1.00  0.00    -0.014 A 
ATOM     81  C   UNL A   1      45.439  33.393  28.463  1.00  0.00     0.009 A 
ATOM     82  C   UNL A   1      45.695  32.706  30.769  1.00  0.00     0.009 A 
ATOM     83  C   UNL A   1      45.853  34.681  28.800  1.00  0.00     0.001 A 
ATOM     84  C   UNL A   1      46.085  34.003  31.108  1.00  0.00     0.001 A 
ATOM     85  C   UNL A   1      46.173  34.986  30.122  1.00  0.00     0.000 A 
ENDBRANCH  67  80
ENDBRANCH  41  42
ENDBRANCH  33  36
ENDBRANCH  31  32
ENDBRANCH   1  31
TORSDOF 13
ENDMDL
MODEL 2
REMARK VINA RESULT:     -12.5      4.918     10.070
REMARK SMILES C[C@@H]1CC[C@H](C)[N@H+]1Cc1cc2c(cc1Cl)C=C(C(=O)NCCCNC(=O)c1ccc(-c3c4nc(c(-c5ccccc5)c5ccc([nH]5)c(-c5ccccc5)c5nc(c(-c6ccccc6)c6ccc3[nH]6)C=C5)C=C4)cc1)[C@@H](C(F)(F)F)O2
REMARK SMILES IDX 22 1 21 2 20 3 18 4 19 5 17 7 9 8 10 9 14 10 11 11 13 12
REMARK SMILES IDX 15 13 12 14 80 15 16 16 75 17 8 18 7 19 6 20 5 21 4 22 3 23
REMARK SMILES IDX 2 24 1 26 76 27 77 28 78 29 79 30 23 31 24 32 25 33 26 35
REMARK SMILES IDX 27 36 28 37 74 38 29 39 73 40 30 41 31 42 32 43 67 44 33 45
REMARK SMILES IDX 72 46 66 47 68 48 34 49 71 50 65 51 64 52 35 54 57 55 42 56
REMARK SMILES IDX 56 57 43 58 46 59 55 60 69 61 44 62 45 63 54 65 70 66 47 67
REMARK SMILES IDX 36 68 37 69 41 70 38 71 40 72 39 73 58 74 59 75 63 76 60 77
REMARK SMILES IDX 62 78 61 79 48 80 49 81 53 82 50 83 52 84 51 85
REMARK H PARENT 20 6 7 25 24 34 68 53 46 64
REMARK Flexibility Score: inf
ROOT
ATOM      1  C   UNL A   1      31.466  31.854  26.828  1.00  0.00     0.042 C 
ENDROOT
BRANCH   1   2
ATOM      2  C   UNL A   1      31.797  30.711  25.882  1.00  0.00     0.118 C 
BRANCH   2   3
ATOM      3  N   UNL A   1      30.762  30.547  24.874  1.00  0.00    -0.352 N 
ATOM      4  C   UNL A   1      30.406  29.620  23.959  1.00  0.00     0.251 C 
ATOM      5  O   UNL A   1      29.450  29.933  23.243  1.00  0.00    -0.270 OA
ATOM      6  H   UNL A   1      30.156  31.324  24.853  1.00  0.00     0.163 HD
BRANCH   4   7
ATOM      7  C   UNL A   1      31.066  28.301  23.777  1.00  0.00     0.067 C 
ATOM      8  C   UNL A   1      32.477  23.481  24.214  1.00  0.00     0.029 A 
ATOM      9  C   UNL A   1      32.446  24.408  23.153  1.00  0.00     0.058 A 
ATOM     10  C   UNL A   1      32.068  23.922  25.484  1.00  0.00     0.050 A 
ATOM     11  C   UNL A   1      31.939  25.688  23.346  1.00  0.00     0.128 A 
ATOM     12  C   UNL A   1      31.485  25.185  25.652  1.00  0.00     0.033 A 
ATOM     13  Cl  UNL A   1      32.324  23.004  26.927  1.00  0.00    -0.084 Cl
ATOM     14  C   UNL A   1      31.401  26.062  24.575  1.00  0.00     0.019 A 
ATOM     15  O   UNL A   1      31.980  26.554  22.285  1.00  0.00    -0.475 OA
ATOM     16  C   UNL A   1      30.767  27.367  24.700  1.00  0.00     0.025 C 
ATOM     17  C   UNL A   1      32.032  27.959  22.678  1.00  0.00     0.314 C 
BRANCH   8  18
ATOM     18  C   UNL A   1      32.926  22.062  23.910  1.00  0.00     0.301 C 
BRANCH  18  19
ATOM     19  N   UNL A   1      34.341  21.747  24.173  1.00  0.00    -0.327 N 
ATOM     20  C   UNL A   1      34.710  19.373  24.774  1.00  0.00     0.075 C 
ATOM     21  C   UNL A   1      34.622  20.810  25.271  1.00  0.00     0.181 C 
ATOM     22  C   UNL A   1      35.944  21.284  25.873  1.00  0.00     0.071 C 
ATOM     23  C   UNL A   1      35.893  22.780  25.649  1.00  0.00     0.071 C 
ATOM     24  C   UNL A   1      35.235  22.906  24.281  1.00  0.00     0.181 C 
ATOM     25  H   UNL A   1      34.556  21.253  23.306  1.00  0.00     0.348 HD
ATOM     26  C   UNL A   1      36.250  22.853  23.141  1.00  0.00     0.075 C 
ENDBRANCH  18  19
ENDBRANCH   8  18
BRANCH  17  27
ATOM     27  C   UNL A   1      33.480  28.371  23.023  1.00  0.00     0.429 C 
ATOM     28  F   UNL A   1      33.653  29.702  22.830  1.00  0.00    -0.167 F 
ATOM     29  F   UNL A   1      33.789  28.127  24.320  1.00  0.00    -0.167 F 
ATOM     30  F   UNL A   1      34.410  27.730  22.280  1.00  0.00    -0.167 F 
ENDBRANCH  17  27
ENDBRANCH   4   7
ENDBRANCH   2   3
ENDBRANCH   1   2
BRANCH   1  31
ATOM     31  C   UNL A   1      32.717  32.591  27.287  1.00  0.00     0.118 C 
BRANCH  31  32
ATOM     32  N   UNL A   1      32.448  33.997  27.577  1.00  0.00    -0.352 N 
ATOM     33  C   UNL A   1      33.010  34.829  28.519  1.00  0.00     0.251 C 
ATOM     34  H   UNL A   1      31.758  34.414  27.011  1.00  0.00     0.163 HD
ATOM     35  O   UNL A   1      32.495  35.903  28.785  1.00  0.00    -0.269 OA
BRANCH  33  36
ATOM     36  C   UNL A   1      34.229  34.390  29.227  1.00  0.00     0.039 A 
ATOM     37  C   UNL A   1      35.482  34.648  28.674  1.00  0.00     0.014 A 
ATOM     38  C   UNL A   1      34.118  33.686  30.428  1.00  0.00     0.014 A 
ATOM     39  C   UNL A   1      36.602  34.021  29.197  1.00  0.00     0.010 A 
ATOM     40  C   UNL A   1      35.265  33.150  31.018  1.00  0.00     0.010 A 
ATOM     41  C   UNL A   1      36.508  33.263  30.376  1.00  0.00    -0.014 A 
BRANCH  41  42
ATOM     42  C   UNL A   1      37.724  32.596  30.904  1.00  0.00     0.031 A 
ATOM     43  C   UNL A   1      38.372  33.074  32.176  1.00  0.00     0.074 A 
ATOM     44  C   UNL A   1      38.202  31.509  30.268  1.00  0.00     0.049 A 
ATOM     45  N   UNL A   1      39.440  32.610  32.776  1.00  0.00    -0.248 NA
ATOM     46  C   UNL A   1      37.749  34.216  32.866  1.00  0.00     0.031 C 
ATOM     47  C   UNL A   1      37.633  30.931  29.047  1.00  0.00     0.029 A 
ATOM     48  N   UNL A   1      39.245  30.674  30.575  1.00  0.00    -0.354 N 
ATOM     49  C   UNL A   1      39.631  33.420  33.889  1.00  0.00     0.074 A 
ATOM     50  C   UNL A   1      38.583  34.414  33.877  1.00  0.00     0.031 C 
ATOM     51  C   UNL A   1      38.289  29.802  28.749  1.00  0.00     0.029 A 
ATOM     52  C   UNL A   1      39.378  29.621  29.703  1.00  0.00     0.049 A 
ATOM     53  H   UNL A   1      39.841  30.816  31.346  1.00  0.00     0.167 HD
ATOM     54  C   UNL A   1      40.596  33.335  34.835  1.00  0.00     0.031 A 
ATOM     55  C   UNL A   1      40.286  28.630  29.655  1.00  0.00     0.031 A 
ATOM     56  C   UNL A   1      41.623  32.327  34.854  1.00  0.00     0.049 A 
ATOM     57  C   UNL A   1      41.369  28.586  30.691  1.00  0.00     0.074 A 
ATOM     58  C   UNL A   1      42.637  32.154  35.780  1.00  0.00     0.029 A 
ATOM     59  N   UNL A   1      41.761  31.321  33.911  1.00  0.00    -0.354 N 
ATOM     60  N   UNL A   1      41.550  29.374  31.722  1.00  0.00    -0.248 NA
ATOM     61  C   UNL A   1      42.380  27.528  30.552  1.00  0.00     0.031 C 
ATOM     62  C   UNL A   1      43.420  31.074  35.370  1.00  0.00     0.029 A 
ATOM     63  C   UNL A   1      42.859  30.537  34.222  1.00  0.00     0.049 A 
ATOM     64  H   UNL A   1      41.168  31.184  33.138  1.00  0.00     0.167 HD
ATOM     65  C   UNL A   1      42.689  28.906  32.362  1.00  0.00     0.074 A 
ATOM     66  C   UNL A   1      43.146  27.752  31.613  1.00  0.00     0.031 C 
ATOM     67  C   UNL A   1      43.302  29.394  33.465  1.00  0.00     0.031 A 
BRANCH  54  68
ATOM     68  C   UNL A   1      40.612  34.368  35.928  1.00  0.00    -0.014 A 
ATOM     69  C   UNL A   1      39.821  34.176  37.073  1.00  0.00     0.009 A 
ATOM     70  C   UNL A   1      41.322  35.569  35.787  1.00  0.00     0.009 A 
ATOM     71  C   UNL A   1      39.728  35.173  38.046  1.00  0.00     0.001 A 
ATOM     72  C   UNL A   1      41.248  36.553  36.775  1.00  0.00     0.001 A 
ATOM     73  C   UNL A   1      40.443  36.360  37.897  1.00  0.00     0.000 A 
ENDBRANCH  54  68
BRANCH  55  74
ATOM     74  C   UNL A   1      40.200  27.619  28.569  1.00  0.00    -0.014 A 
ATOM     75  C   UNL A   1      39.523  26.405  28.780  1.00  0.00     0.009 A 
ATOM     76  C   UNL A   1      40.856  27.826  27.348  1.00  0.00     0.009 A 
ATOM     77  C   UNL A   1      39.535  25.406  27.806  1.00  0.00     0.001 A 
ATOM     78  C   UNL A   1      40.839  26.836  26.361  1.00  0.00     0.001 A 
ATOM     79  C   UNL A   1      40.190  25.624  26.595  1.00  0.00     0.000 A 
ENDBRANCH  55  74
BRANCH  67  80
ATOM     80  C   UNL A   1      44.533  28.685  33.952  1.00  0.00    -0.014 A 
ATOM     81  C   UNL A   1      44.413  27.653  34.895  1.00  0.00     0.009 A 
ATOM     82  C   UNL A   1      45.810  29.111  33.563  1.00  0.00     0.009 A 
ATOM     83  C   UNL A   1      45.550  27.069  35.452  1.00  0.00     0.001 A 
ATOM     84  C   UNL A   1      46.948  28.508  34.104  1.00  0.00     0.001 A 
ATOM     85  C   UNL A   1      46.817  27.496  35.054  1.00  0.00     0.000 A 
ENDBRANCH  67  80
ENDBRANCH  41  42
ENDBRANCH  33  36
ENDBRANCH  31  32
ENDBRANCH   1  31
TORSDOF 13
ENDMDL
MODEL 3
REMARK VINA RESULT:     -12.5      1.925      2.713
REMARK SMILES C[C@@H]1CC[C@H](C)[N@H+]1Cc1cc2c(cc1Cl)C=C(C(=O)NCCCNC(=O)c1ccc(-c3c4nc(c(-c5ccccc5)c5ccc([nH]5)c(-c5ccccc5)c5nc(c(-c6ccccc6)c6ccc3[nH]6)C=C5)C=C4)cc1)[C@@H](C(F)(F)F)O2
REMARK SMILES IDX 22 1 21 2 20 3 18 4 19 5 17 7 9 8 10 9 14 10 11 11 13 12
REMARK SMILES IDX 15 13 12 14 80 15 16 16 75 17 8 18 7 19 6 20 5 21 4 22 3 23
REMARK SMILES IDX 2 24 1 26 76 27 77 28 78 29 79 30 23 31 24 32 25 33 26 35
REMARK SMILES IDX 27 36 28 37 74 38 29 39 73 40 30 41 31 42 32 43 67 44 33 45
REMARK SMILES IDX 72 46 66 47 68 48 34 49 71 50 65 51 64 52 35 54 57 55 42 56
REMARK SMILES IDX 56 57 43 58 46 59 55 60 69 61 44 62 45 63 54 65 70 66 47 67
REMARK SMILES IDX 36 68 37 69 41 70 38 71 40 72 39 73 58 74 59 75 63 76 60 77
REMARK SMILES IDX 62 78 61 79 48 80 49 81 53 82 50 83 52 84 51 85
REMARK H PARENT 20 6 7 25 24 34 68 53 46 64
REMARK Flexibility Score: inf
ROOT
ATOM      1  C   UNL A   1      37.242  20.565  24.873  1.00  0.00     0.042 C 
ENDROOT
BRANCH   1   2
ATOM      2  C   UNL A   1      36.254  21.720  24.823  1.00  0.00     0.118 C 
BRANCH   2   3
ATOM      3  N   UNL A   1      35.611  21.917  26.112  1.00  0.00    -0.352 N 
ATOM      4  C   UNL A   1      34.632  22.693  26.624  1.00  0.00     0.251 C 
ATOM      5  O   UNL A   1      34.441  22.563  27.837  1.00  0.00    -0.270 OA
ATOM      6  H   UNL A   1      35.994  21.323  26.798  1.00  0.00     0.163 HD
BRANCH   4   7
ATOM      7  C   UNL A   1      33.801  23.648  25.843  1.00  0.00     0.067 C 
ATOM      8  C   UNL A   1      31.840  27.808  23.780  1.00  0.00     0.029 A 
ATOM      9  C   UNL A   1      31.908  26.454  23.397  1.00  0.00     0.058 A 
ATOM     10  C   UNL A   1      32.395  28.169  25.021  1.00  0.00     0.050 A 
ATOM     11  C   UNL A   1      32.582  25.528  24.184  1.00  0.00     0.128 A 
ATOM     12  C   UNL A   1      33.141  27.248  25.767  1.00  0.00     0.033 A 
ATOM     13  Cl  UNL A   1      32.134  29.712  25.754  1.00  0.00    -0.084 Cl
ATOM     14  C   UNL A   1      33.252  25.929  25.338  1.00  0.00     0.019 A 
ATOM     15  O   UNL A   1      32.570  24.220  23.778  1.00  0.00    -0.475 OA
ATOM     16  C   UNL A   1      34.050  24.952  26.065  1.00  0.00     0.025 C 
ATOM     17  C   UNL A   1      32.722  23.265  24.871  1.00  0.00     0.314 C 
BRANCH   8  18
ATOM     18  C   UNL A   1      31.198  28.792  22.817  1.00  0.00     0.301 C 
BRANCH  18  19
ATOM     19  N   UNL A   1      29.821  29.214  23.126  1.00  0.00    -0.327 N 
ATOM     20  C   UNL A   1      28.346  27.325  23.750  1.00  0.00     0.075 C 
ATOM     21  C   UNL A   1      28.736  28.329  22.674  1.00  0.00     0.181 C 
ATOM     22  C   UNL A   1      27.579  29.263  22.324  1.00  0.00     0.071 C 
ATOM     23  C   UNL A   1      28.290  30.511  21.849  1.00  0.00     0.071 C 
ATOM     24  C   UNL A   1      29.493  30.601  22.779  1.00  0.00     0.181 C 
ATOM     25  H   UNL A   1      29.856  29.135  24.143  1.00  0.00     0.348 HD
ATOM     26  C   UNL A   1      29.179  31.369  24.062  1.00  0.00     0.075 C 
ENDBRANCH  18  19
ENDBRANCH   8  18
BRANCH  17  27
ATOM     27  C   UNL A   1      31.365  23.022  25.570  1.00  0.00     0.429 C 
ATOM     28  F   UNL A   1      31.163  21.696  25.764  1.00  0.00    -0.167 F 
ATOM     29  F   UNL A   1      31.305  23.603  26.793  1.00  0.00    -0.167 F 
ATOM     30  F   UNL A   1      30.311  23.495  24.867  1.00  0.00    -0.167 F 
ENDBRANCH  17  27
ENDBRANCH   4   7
ENDBRANCH   2   3
ENDBRANCH   1   2
BRANCH   1  31
ATOM     31  C   UNL A   1      38.550  20.966  25.542  1.00  0.00     0.118 C 
BRANCH  31  32
ATOM     32  N   UNL A   1      39.478  19.843  25.645  1.00  0.00    -0.352 N 
ATOM     33  C   UNL A   1      40.812  19.827  25.984  1.00  0.00     0.251 C 
ATOM     34  H   UNL A   1      39.089  18.961  25.440  1.00  0.00     0.163 HD
ATOM     35  O   UNL A   1      41.492  18.833  25.784  1.00  0.00    -0.269 OA
BRANCH  33  36
ATOM     36  C   UNL A   1      41.419  21.040  26.568  1.00  0.00     0.039 A 
ATOM     37  C   UNL A   1      41.380  21.239  27.946  1.00  0.00     0.014 A 
ATOM     38  C   UNL A   1      41.994  21.998  25.730  1.00  0.00     0.014 A 
ATOM     39  C   UNL A   1      41.713  22.480  28.466  1.00  0.00     0.010 A 
ATOM     40  C   UNL A   1      42.436  23.208  26.273  1.00  0.00     0.010 A 
ATOM     41  C   UNL A   1      42.245  23.481  27.636  1.00  0.00    -0.014 A 
BRANCH  41  42
ATOM     42  C   UNL A   1      42.582  24.801  28.223  1.00  0.00     0.031 A 
ATOM     43  C   UNL A   1      44.005  25.150  28.565  1.00  0.00     0.074 A 
ATOM     44  C   UNL A   1      41.604  25.716  28.381  1.00  0.00     0.049 A 
ATOM     45  N   UNL A   1      44.476  26.256  29.087  1.00  0.00    -0.248 NA
ATOM     46  C   UNL A   1      45.036  24.136  28.290  1.00  0.00     0.031 C 
ATOM     47  C   UNL A   1      40.193  25.503  28.048  1.00  0.00     0.029 A 
ATOM     48  N   UNL A   1      41.649  27.013  28.821  1.00  0.00    -0.354 N 
ATOM     49  C   UNL A   1      45.843  26.057  29.230  1.00  0.00     0.074 A 
ATOM     50  C   UNL A   1      46.130  24.722  28.757  1.00  0.00     0.031 C 
ATOM     51  C   UNL A   1      39.522  26.648  28.231  1.00  0.00     0.029 A 
ATOM     52  C   UNL A   1      40.432  27.648  28.775  1.00  0.00     0.049 A 
ATOM     53  H   UNL A   1      42.474  27.446  29.140  1.00  0.00     0.167 HD
ATOM     54  C   UNL A   1      46.773  26.915  29.711  1.00  0.00     0.031 A 
ATOM     55  C   UNL A   1      40.076  28.891  29.150  1.00  0.00     0.031 A 
ATOM     56  C   UNL A   1      46.484  28.252  30.158  1.00  0.00     0.049 A 
ATOM     57  C   UNL A   1      41.118  29.805  29.720  1.00  0.00     0.074 A 
ATOM     58  C   UNL A   1      47.364  29.200  30.651  1.00  0.00     0.029 A 
ATOM     59  N   UNL A   1      45.225  28.831  30.159  1.00  0.00    -0.354 N 
ATOM     60  N   UNL A   1      42.403  29.592  29.871  1.00  0.00    -0.248 NA
ATOM     61  C   UNL A   1      40.665  31.124  30.183  1.00  0.00     0.031 C 
ATOM     62  C   UNL A   1      46.629  30.334  30.999  1.00  0.00     0.029 A 
ATOM     63  C   UNL A   1      45.302  30.117  30.666  1.00  0.00     0.049 A 
ATOM     64  H   UNL A   1      44.400  28.394  29.847  1.00  0.00     0.167 HD
ATOM     65  C   UNL A   1      42.915  30.749  30.440  1.00  0.00     0.074 A 
ATOM     66  C   UNL A   1      41.805  31.670  30.588  1.00  0.00     0.031 C 
ATOM     67  C   UNL A   1      44.188  31.019  30.810  1.00  0.00     0.031 A 
BRANCH  54  68
ATOM     68  C   UNL A   1      48.197  26.441  29.805  1.00  0.00    -0.014 A 
ATOM     69  C   UNL A   1      48.645  25.824  30.984  1.00  0.00     0.009 A 
ATOM     70  C   UNL A   1      49.119  26.693  28.778  1.00  0.00     0.009 A 
ATOM     71  C   UNL A   1      49.989  25.482  31.140  1.00  0.00     0.001 A 
ATOM     72  C   UNL A   1      50.459  26.326  28.927  1.00  0.00     0.001 A 
ATOM     73  C   UNL A   1      50.895  25.731  30.110  1.00  0.00     0.000 A 
ENDBRANCH  54  68
BRANCH  55  74
ATOM     74  C   UNL A   1      38.659  29.314  29.004  1.00  0.00    -0.014 A 
ATOM     75  C   UNL A   1      37.767  29.195  30.083  1.00  0.00     0.009 A 
ATOM     76  C   UNL A   1      38.172  29.765  27.769  1.00  0.00     0.009 A 
ATOM     77  C   UNL A   1      36.412  29.484  29.921  1.00  0.00     0.001 A 
ATOM     78  C   UNL A   1      36.819  30.084  27.618  1.00  0.00     0.001 A 
ATOM     79  C   UNL A   1      35.939  29.931  28.690  1.00  0.00     0.000 A 
ENDBRANCH  55  74
BRANCH  67  80
ATOM     80  C   UNL A   1      44.472  32.368  31.405  1.00  0.00    -0.014 A 
ATOM     81  C   UNL A   1      44.935  33.407  30.583  1.00  0.00     0.009 A 
ATOM     82  C   UNL A   1      44.387  32.577  32.789  1.00  0.00     0.009 A 
ATOM     83  C   UNL A   1      45.323  34.626  31.137  1.00  0.00     0.001 A 
ATOM     84  C   UNL A   1      44.752  33.808  33.338  1.00  0.00     0.001 A 
ATOM     85  C   UNL A   1      45.229  34.827  32.513  1.00  0.00     0.000 A 
ENDBRANCH  67  80
ENDBRANCH  41  42
ENDBRANCH  33  36
ENDBRANCH  31  32
ENDBRANCH   1  31
TORSDOF 13
ENDMDL
