MODEL 1
REMARK VINA RESULT:     -11.0      0.000      0.000
REMARK SMILES O=C(NCCCNC(=O)[C@H]1CCC[C@@H]1C[NH2+][C@@H]1CCOC2(CCC2)C1)c1ccc(-c2c3nc(c(-c4ccccc4)c4ccc([nH]4)c(-c4ccccc4)c4nc(c(-c5ccccc5)c5ccc2[nH]5)C=C4)C=C3)cc1
REMARK SMILES IDX 5 1 4 2 3 3 1 4 2 5 26 7 27 8 73 9 28 10 72 11 29 12 30 13
REMARK SMILES IDX 31 14 66 15 32 16 71 17 65 18 67 19 33 20 70 21 64 22 63 23
REMARK SMILES IDX 34 25 56 26 41 27 55 28 42 29 45 30 54 31 68 32 43 33 44 34
REMARK SMILES IDX 53 36 69 37 46 38 35 39 36 40 40 41 37 42 39 43 38 44 57 45
REMARK SMILES IDX 58 46 62 47 59 48 61 49 60 50 47 51 48 52 52 53 49 54 51 55
REMARK SMILES IDX 50 56 6 57 7 58 8 59 9 61 10 62 11 63 14 64 12 65 13 66
REMARK SMILES IDX 15 67 16 68 17 71 18 72 25 73 19 74 21 75 20 76 22 77 24 78
REMARK SMILES IDX 23 79
REMARK H PARENT 3 6 67 24 45 35 7 60 16 69 16 70
REMARK Flexibility Score: inf
ROOT
ATOM      1  C   UNL A   1      37.500  19.966  24.819  1.00  0.00     0.042 C 
ENDROOT
BRANCH   1   2
ATOM      2  C   UNL A   1      38.669  20.438  25.674  1.00  0.00     0.118 C 
BRANCH   2   3
ATOM      3  N   UNL A   1      39.762  19.473  25.715  1.00  0.00    -0.352 N 
ATOM      4  O   UNL A   1      41.886  18.736  25.808  1.00  0.00    -0.269 OA
ATOM      5  C   UNL A   1      41.091  19.641  26.026  1.00  0.00     0.251 C 
ATOM      6  H   UNL A   1      39.507  18.552  25.481  1.00  0.00     0.163 HD
BRANCH   5   7
ATOM      7  C   UNL A   1      41.563  20.919  26.599  1.00  0.00     0.039 A 
ATOM      8  C   UNL A   1      41.561  21.126  27.978  1.00  0.00     0.014 A 
ATOM      9  C   UNL A   1      42.030  21.919  25.741  1.00  0.00     0.014 A 
ATOM     10  C   UNL A   1      41.843  22.388  28.485  1.00  0.00     0.010 A 
ATOM     11  C   UNL A   1      42.418  23.157  26.264  1.00  0.00     0.010 A 
ATOM     12  C   UNL A   1      42.282  23.418  27.636  1.00  0.00    -0.014 A 
BRANCH  12  13
ATOM     13  C   UNL A   1      42.613  24.741  28.223  1.00  0.00     0.031 A 
ATOM     14  C   UNL A   1      44.036  25.118  28.534  1.00  0.00     0.074 A 
ATOM     15  C   UNL A   1      41.622  25.630  28.420  1.00  0.00     0.049 A 
ATOM     16  N   UNL A   1      44.505  26.260  28.975  1.00  0.00    -0.248 NA
ATOM     17  C   UNL A   1      45.065  24.086  28.336  1.00  0.00     0.031 C 
ATOM     18  C   UNL A   1      40.200  25.380  28.161  1.00  0.00     0.029 A 
ATOM     19  N   UNL A   1      41.657  26.933  28.845  1.00  0.00    -0.354 N 
ATOM     20  C   UNL A   1      45.873  26.075  29.132  1.00  0.00     0.074 A 
ATOM     21  C   UNL A   1      46.158  24.705  28.763  1.00  0.00     0.031 C 
ATOM     22  C   UNL A   1      39.511  26.513  28.364  1.00  0.00     0.029 A 
ATOM     23  C   UNL A   1      40.428  27.546  28.828  1.00  0.00     0.049 A 
ATOM     24  H   UNL A   1      42.482  27.384  29.135  1.00  0.00     0.167 HD
ATOM     25  C   UNL A   1      46.808  26.965  29.543  1.00  0.00     0.031 A 
ATOM     26  C   UNL A   1      40.074  28.803  29.153  1.00  0.00     0.031 A 
ATOM     27  C   UNL A   1      46.527  28.332  29.898  1.00  0.00     0.049 A 
ATOM     28  C   UNL A   1      41.129  29.764  29.614  1.00  0.00     0.074 A 
ATOM     29  C   UNL A   1      47.415  29.322  30.288  1.00  0.00     0.029 A 
ATOM     30  N   UNL A   1      45.264  28.902  29.909  1.00  0.00    -0.354 N 
ATOM     31  N   UNL A   1      42.422  29.581  29.720  1.00  0.00    -0.248 NA
ATOM     32  C   UNL A   1      40.672  31.106  29.997  1.00  0.00     0.031 C 
ATOM     33  C   UNL A   1      46.681  30.477  30.582  1.00  0.00     0.029 A 
ATOM     34  C   UNL A   1      45.345  30.222  30.321  1.00  0.00     0.049 A 
ATOM     35  H   UNL A   1      44.433  28.437  29.660  1.00  0.00     0.167 HD
ATOM     36  C   UNL A   1      42.937  30.791  30.162  1.00  0.00     0.074 A 
ATOM     37  C   UNL A   1      41.819  31.705  30.284  1.00  0.00     0.031 C 
ATOM     38  C   UNL A   1      44.223  31.116  30.441  1.00  0.00     0.031 A 
BRANCH  25  39
ATOM     39  C   UNL A   1      48.227  26.480  29.660  1.00  0.00    -0.014 A 
ATOM     40  C   UNL A   1      49.131  26.590  28.591  1.00  0.00     0.009 A 
ATOM     41  C   UNL A   1      48.677  25.940  30.875  1.00  0.00     0.009 A 
ATOM     42  C   UNL A   1      50.446  26.138  28.729  1.00  0.00     0.001 A 
ATOM     43  C   UNL A   1      49.998  25.514  31.018  1.00  0.00     0.001 A 
ATOM     44  C   UNL A   1      50.880  25.606  29.943  1.00  0.00     0.000 A 
ENDBRANCH  25  39
BRANCH  26  45
ATOM     45  C   UNL A   1      38.653  29.222  29.045  1.00  0.00    -0.014 A 
ATOM     46  C   UNL A   1      38.141  29.702  27.830  1.00  0.00     0.009 A 
ATOM     47  C   UNL A   1      37.799  29.135  30.156  1.00  0.00     0.009 A 
ATOM     48  C   UNL A   1      36.808  30.107  27.737  1.00  0.00     0.001 A 
ATOM     49  C   UNL A   1      36.460  29.513  30.051  1.00  0.00     0.001 A 
ATOM     50  C   UNL A   1      35.967  30.007  28.845  1.00  0.00     0.000 A 
ENDBRANCH  26  45
BRANCH  38  51
ATOM     51  C   UNL A   1      44.487  32.532  30.871  1.00  0.00    -0.014 A 
ATOM     52  C   UNL A   1      44.762  33.541  29.935  1.00  0.00     0.009 A 
ATOM     53  C   UNL A   1      44.446  32.860  32.235  1.00  0.00     0.009 A 
ATOM     54  C   UNL A   1      45.030  34.843  30.361  1.00  0.00     0.001 A 
ATOM     55  C   UNL A   1      44.686  34.168  32.655  1.00  0.00     0.001 A 
ATOM     56  C   UNL A   1      44.988  35.156  31.719  1.00  0.00     0.000 A 
ENDBRANCH  38  51
ENDBRANCH  12  13
ENDBRANCH   5   7
ENDBRANCH   2   3
ENDBRANCH   1   2
BRANCH   1  57
ATOM     57  C   UNL A   1      36.338  20.948  24.797  1.00  0.00     0.117 C 
BRANCH  57  58
ATOM     58  N   UNL A   1      35.522  20.833  25.994  1.00  0.00    -0.356 N 
ATOM     59  C   UNL A   1      34.347  21.462  26.286  1.00  0.00     0.223 C 
ATOM     60  H   UNL A   1      35.864  20.221  26.686  1.00  0.00     0.163 HD
ATOM     61  O   UNL A   1      33.877  21.331  27.416  1.00  0.00    -0.275 OA
BRANCH  59  62
ATOM     62  C   UNL A   1      33.684  22.282  25.189  1.00  0.00     0.087 C 
ATOM     63  C   UNL A   1      32.176  22.395  25.424  1.00  0.00     0.014 C 
ATOM     64  C   UNL A   1      34.155  23.742  25.155  1.00  0.00     0.056 C 
ATOM     65  C   UNL A   1      31.966  23.682  26.220  1.00  0.00     0.001 C 
ATOM     66  C   UNL A   1      33.305  24.413  26.238  1.00  0.00     0.010 C 
BRANCH  64  67
ATOM     67  C   UNL A   1      33.925  24.407  23.782  1.00  0.00     0.265 C 
BRANCH  67  68
ATOM     68  N   UNL A   1      33.979  25.860  23.924  1.00  0.00    -0.343 N 
ATOM     69  H   UNL A   1      34.829  26.192  23.468  1.00  0.00     0.346 HD
ATOM     70  H   UNL A   1      33.958  26.053  24.925  1.00  0.00     0.346 HD
BRANCH  68  71
ATOM     71  C   UNL A   1      32.838  26.577  23.340  1.00  0.00     0.187 C 
ATOM     72  C   UNL A   1      33.372  27.656  22.382  1.00  0.00     0.093 C 
ATOM     73  C   UNL A   1      31.909  27.244  24.367  1.00  0.00     0.100 C 
ATOM     74  C   UNL A   1      34.019  28.815  23.131  1.00  0.00     0.167 C 
ATOM     75  C   UNL A   1      32.622  28.383  25.096  1.00  0.00     0.074 C 
ATOM     76  O   UNL A   1      33.133  29.333  24.122  1.00  0.00    -0.375 OA
ATOM     77  C   UNL A   1      31.734  29.028  26.203  1.00  0.00     0.036 C 
ATOM     78  C   UNL A   1      33.599  27.994  26.253  1.00  0.00     0.036 C 
ATOM     79  C   UNL A   1      32.994  29.137  27.080  1.00  0.00     0.006 C 
ENDBRANCH  68  71
ENDBRANCH  67  68
ENDBRANCH  64  67
ENDBRANCH  59  62
ENDBRANCH  57  58
ENDBRANCH   1  57
TORSDOF 13
ENDMDL
MODEL 2
REMARK VINA RESULT:     -11.0      4.794      9.544
REMARK SMILES O=C(NCCCNC(=O)[C@H]1CCC[C@@H]1C[NH2+][C@@H]1CCOC2(CCC2)C1)c1ccc(-c2c3nc(c(-c4ccccc4)c4ccc([nH]4)c(-c4ccccc4)c4nc(c(-c5ccccc5)c5ccc2[nH]5)C=C4)C=C3)cc1
REMARK SMILES IDX 5 1 4 2 3 3 1 4 2 5 26 7 27 8 73 9 28 10 72 11 29 12 30 13
REMARK SMILES IDX 31 14 66 15 32 16 71 17 65 18 67 19 33 20 70 21 64 22 63 23
REMARK SMILES IDX 34 25 56 26 41 27 55 28 42 29 45 30 54 31 68 32 43 33 44 34
REMARK SMILES IDX 53 36 69 37 46 38 35 39 36 40 40 41 37 42 39 43 38 44 57 45
REMARK SMILES IDX 58 46 62 47 59 48 61 49 60 50 47 51 48 52 52 53 49 54 51 55
REMARK SMILES IDX 50 56 6 57 7 58 8 59 9 61 10 62 11 63 14 64 12 65 13 66
REMARK SMILES IDX 15 67 16 68 17 71 18 72 25 73 19 74 21 75 20 76 22 77 24 78
REMARK SMILES IDX 23 79
REMARK H PARENT 3 6 67 24 45 35 7 60 16 69 16 70
REMARK Flexibility Score: inf
ROOT
ATOM      1  C   UNL A   1      31.406  32.209  26.741  1.00  0.00     0.042 C 
ENDROOT
BRANCH   1   2
ATOM      2  C   UNL A   1      32.669  32.891  27.250  1.00  0.00     0.118 C 
BRANCH   2   3
ATOM      3  N   UNL A   1      32.433  34.264  27.681  1.00  0.00    -0.352 N 
ATOM      4  O   UNL A   1      32.530  36.074  29.015  1.00  0.00    -0.269 OA
ATOM      5  C   UNL A   1      33.011  34.996  28.691  1.00  0.00     0.251 C 
ATOM      6  H   UNL A   1      31.748  34.745  27.164  1.00  0.00     0.163 HD
BRANCH   5   7
ATOM      7  C   UNL A   1      34.197  34.472  29.402  1.00  0.00     0.039 A 
ATOM      8  C   UNL A   1      35.473  34.609  28.858  1.00  0.00     0.014 A 
ATOM      9  C   UNL A   1      34.028  33.846  30.641  1.00  0.00     0.014 A 
ATOM     10  C   UNL A   1      36.549  33.962  29.452  1.00  0.00     0.010 A 
ATOM     11  C   UNL A   1      35.131  33.288  31.293  1.00  0.00     0.010 A 
ATOM     12  C   UNL A   1      36.393  33.299  30.681  1.00  0.00    -0.014 A 
BRANCH  12  13
ATOM     13  C   UNL A   1      37.577  32.655  31.304  1.00  0.00     0.031 A 
ATOM     14  C   UNL A   1      38.082  33.096  32.651  1.00  0.00     0.074 A 
ATOM     15  C   UNL A   1      38.163  31.622  30.670  1.00  0.00     0.049 A 
ATOM     16  N   UNL A   1      39.053  32.588  33.371  1.00  0.00    -0.248 NA
ATOM     17  C   UNL A   1      37.425  34.257  33.270  1.00  0.00     0.031 C 
ATOM     18  C   UNL A   1      37.768  31.104  29.357  1.00  0.00     0.029 A 
ATOM     19  N   UNL A   1      39.187  30.797  31.057  1.00  0.00    -0.354 N 
ATOM     20  C   UNL A   1      39.140  33.382  34.508  1.00  0.00     0.074 A 
ATOM     21  C   UNL A   1      38.141  34.419  34.375  1.00  0.00     0.031 C 
ATOM     22  C   UNL A   1      38.491  30.009  29.080  1.00  0.00     0.029 A 
ATOM     23  C   UNL A   1      39.442  29.786  30.162  1.00  0.00     0.049 A 
ATOM     24  H   UNL A   1      39.692  30.918  31.893  1.00  0.00     0.167 HD
ATOM     25  C   UNL A   1      39.973  33.256  35.569  1.00  0.00     0.031 A 
ATOM     26  C   UNL A   1      40.344  28.789  30.203  1.00  0.00     0.031 A 
ATOM     27  C   UNL A   1      40.959  32.215  35.708  1.00  0.00     0.049 A 
ATOM     28  C   UNL A   1      41.260  28.679  31.386  1.00  0.00     0.074 A 
ATOM     29  C   UNL A   1      41.823  31.982  36.766  1.00  0.00     0.029 A 
ATOM     30  N   UNL A   1      41.215  31.237  34.761  1.00  0.00    -0.354 N 
ATOM     31  N   UNL A   1      41.301  29.417  32.468  1.00  0.00    -0.248 NA
ATOM     32  C   UNL A   1      42.252  27.598  31.350  1.00  0.00     0.031 C 
ATOM     33  C   UNL A   1      42.635  30.891  36.435  1.00  0.00     0.029 A 
ATOM     34  C   UNL A   1      42.238  30.412  35.197  1.00  0.00     0.049 A 
ATOM     35  H   UNL A   1      40.739  31.143  33.904  1.00  0.00     0.167 HD
ATOM     36  C   UNL A   1      42.309  28.875  33.253  1.00  0.00     0.074 A 
ATOM     37  C   UNL A   1      42.838  27.736  32.531  1.00  0.00     0.031 C 
ATOM     38  C   UNL A   1      42.756  29.286  34.465  1.00  0.00     0.031 A 
BRANCH  25  39
ATOM     39  C   UNL A   1      39.876  34.290  36.656  1.00  0.00    -0.014 A 
ATOM     40  C   UNL A   1      40.575  35.505  36.579  1.00  0.00     0.009 A 
ATOM     41  C   UNL A   1      39.037  34.060  37.758  1.00  0.00     0.009 A 
ATOM     42  C   UNL A   1      40.460  36.452  37.600  1.00  0.00     0.001 A 
ATOM     43  C   UNL A   1      38.904  35.019  38.763  1.00  0.00     0.001 A 
ATOM     44  C   UNL A   1      39.621  36.211  38.688  1.00  0.00     0.000 A 
ENDBRANCH  25  39
BRANCH  26  45
ATOM     45  C   UNL A   1      40.415  27.810  29.088  1.00  0.00    -0.014 A 
ATOM     46  C   UNL A   1      39.656  26.631  29.124  1.00  0.00     0.009 A 
ATOM     47  C   UNL A   1      41.238  28.056  27.977  1.00  0.00     0.009 A 
ATOM     48  C   UNL A   1      39.737  25.707  28.080  1.00  0.00     0.001 A 
ATOM     49  C   UNL A   1      41.293  27.145  26.922  1.00  0.00     0.001 A 
ATOM     50  C   UNL A   1      40.551  25.968  26.977  1.00  0.00     0.000 A 
ENDBRANCH  26  45
BRANCH  38  51
ATOM     51  C   UNL A   1      43.849  28.471  35.097  1.00  0.00    -0.014 A 
ATOM     52  C   UNL A   1      45.202  28.771  34.880  1.00  0.00     0.009 A 
ATOM     53  C   UNL A   1      43.515  27.394  35.934  1.00  0.00     0.009 A 
ATOM     54  C   UNL A   1      46.200  27.983  35.457  1.00  0.00     0.001 A 
ATOM     55  C   UNL A   1      44.514  26.627  36.531  1.00  0.00     0.001 A 
ATOM     56  C   UNL A   1      45.855  26.915  36.285  1.00  0.00     0.000 A 
ENDBRANCH  38  51
ENDBRANCH  12  13
ENDBRANCH   5   7
ENDBRANCH   2   3
ENDBRANCH   1   2
BRANCH   1  57
ATOM     57  C   UNL A   1      31.571  30.709  26.548  1.00  0.00     0.117 C 
BRANCH  57  58
ATOM     58  N   UNL A   1      32.962  30.307  26.667  1.00  0.00    -0.356 N 
ATOM     59  C   UNL A   1      33.567  29.183  26.184  1.00  0.00     0.223 C 
ATOM     60  H   UNL A   1      33.544  30.926  27.164  1.00  0.00     0.163 HD
ATOM     61  O   UNL A   1      34.732  28.960  26.508  1.00  0.00    -0.275 OA
BRANCH  59  62
ATOM     62  C   UNL A   1      32.760  28.277  25.265  1.00  0.00     0.087 C 
ATOM     63  C   UNL A   1      33.681  27.400  24.413  1.00  0.00     0.014 C 
ATOM     64  C   UNL A   1      31.893  27.262  26.021  1.00  0.00     0.056 C 
ATOM     65  C   UNL A   1      33.863  26.097  25.189  1.00  0.00     0.001 C 
ATOM     66  C   UNL A   1      32.876  26.135  26.351  1.00  0.00     0.010 C 
BRANCH  64  67
ATOM     67  C   UNL A   1      30.717  26.738  25.172  1.00  0.00     0.265 C 
BRANCH  67  68
ATOM     68  N   UNL A   1      30.012  27.863  24.562  1.00  0.00    -0.343 N 
ATOM     69  H   UNL A   1      30.658  28.650  24.504  1.00  0.00     0.346 HD
ATOM     70  H   UNL A   1      29.202  28.051  25.153  1.00  0.00     0.346 HD
BRANCH  68  71
ATOM     71  C   UNL A   1      29.488  27.603  23.215  1.00  0.00     0.187 C 
ATOM     72  C   UNL A   1      30.653  27.669  22.213  1.00  0.00     0.093 C 
ATOM     73  C   UNL A   1      28.387  28.573  22.757  1.00  0.00     0.100 C 
ATOM     74  C   UNL A   1      31.144  29.097  22.001  1.00  0.00     0.167 C 
ATOM     75  C   UNL A   1      28.938  29.988  22.583  1.00  0.00     0.074 C 
ATOM     76  O   UNL A   1      30.059  29.958  21.659  1.00  0.00    -0.375 OA
ATOM     77  C   UNL A   1      27.830  31.015  22.200  1.00  0.00     0.036 C 
ATOM     78  C   UNL A   1      29.139  30.845  23.876  1.00  0.00     0.036 C 
ATOM     79  C   UNL A   1      28.524  32.033  23.122  1.00  0.00     0.006 C 
ENDBRANCH  68  71
ENDBRANCH  67  68
ENDBRANCH  64  67
ENDBRANCH  59  62
ENDBRANCH  57  58
ENDBRANCH   1  57
TORSDOF 13
ENDMDL
MODEL 3
REMARK VINA RESULT:     -10.9      0.843      1.690
REMARK SMILES O=C(NCCCNC(=O)[C@H]1CCC[C@@H]1C[NH2+][C@@H]1CCOC2(CCC2)C1)c1ccc(-c2c3nc(c(-c4ccccc4)c4ccc([nH]4)c(-c4ccccc4)c4nc(c(-c5ccccc5)c5ccc2[nH]5)C=C4)C=C3)cc1
REMARK SMILES IDX 5 1 4 2 3 3 1 4 2 5 26 7 27 8 73 9 28 10 72 11 29 12 30 13
REMARK SMILES IDX 31 14 66 15 32 16 71 17 65 18 67 19 33 20 70 21 64 22 63 23
REMARK SMILES IDX 34 25 56 26 41 27 55 28 42 29 45 30 54 31 68 32 43 33 44 34
REMARK SMILES IDX 53 36 69 37 46 38 35 39 36 40 40 41 37 42 39 43 38 44 57 45
REMARK SMILES IDX 58 46 62 47 59 48 61 49 60 50 47 51 48 52 52 53 49 54 51 55
REMARK SMILES IDX 50 56 6 57 7 58 8 59 9 61 10 62 11 63 14 64 12 65 13 66
REMARK SMILES IDX 15 67 16 68 17 71 18 72 25 73 19 74 21 75 20 76 22 77 24 78
REMARK SMILES IDX 23 79
REMARK H PARENT 3 6 67 24 45 35 7 60 16 69 16 70
REMARK Flexibility Score: inf
ROOT
ATOM      1  C   UNL A   1      37.743  19.798  24.927  1.00  0.00     0.042 C 
ENDROOT
BRANCH   1   2
ATOM      2  C   UNL A   1      38.921  20.323  25.738  1.00  0.00     0.118 C 
BRANCH   2   3
ATOM      3  N   UNL A   1      40.047  19.397  25.759  1.00  0.00    -0.352 N 
ATOM      4  O   UNL A   1      42.197  18.734  25.813  1.00  0.00    -0.269 OA
ATOM      5  C   UNL A   1      41.374  19.611  26.045  1.00  0.00     0.251 C 
ATOM      6  H   UNL A   1      39.819  18.467  25.530  1.00  0.00     0.163 HD
BRANCH   5   7
ATOM      7  C   UNL A   1      41.812  20.905  26.609  1.00  0.00     0.039 A 
ATOM      8  C   UNL A   1      41.844  21.108  27.988  1.00  0.00     0.014 A 
ATOM      9  C   UNL A   1      42.212  21.926  25.742  1.00  0.00     0.014 A 
ATOM     10  C   UNL A   1      42.092  22.379  28.491  1.00  0.00     0.010 A 
ATOM     11  C   UNL A   1      42.566  23.177  26.257  1.00  0.00     0.010 A 
ATOM     12  C   UNL A   1      42.462  23.428  27.634  1.00  0.00    -0.014 A 
BRANCH  12  13
ATOM     13  C   UNL A   1      42.758  24.761  28.216  1.00  0.00     0.031 A 
ATOM     14  C   UNL A   1      44.170  25.177  28.527  1.00  0.00     0.074 A 
ATOM     15  C   UNL A   1      41.743  25.626  28.408  1.00  0.00     0.049 A 
ATOM     16  N   UNL A   1      44.609  26.333  28.964  1.00  0.00    -0.248 NA
ATOM     17  C   UNL A   1      45.226  24.172  28.334  1.00  0.00     0.031 C 
ATOM     18  C   UNL A   1      40.329  25.338  28.149  1.00  0.00     0.029 A 
ATOM     19  N   UNL A   1      41.744  26.930  28.828  1.00  0.00    -0.354 N 
ATOM     20  C   UNL A   1      45.981  26.184  29.124  1.00  0.00     0.074 A 
ATOM     21  C   UNL A   1      46.302  24.821  28.760  1.00  0.00     0.031 C 
ATOM     22  C   UNL A   1      39.610  26.452  28.347  1.00  0.00     0.029 A 
ATOM     23  C   UNL A   1      40.499  27.512  28.808  1.00  0.00     0.049 A 
ATOM     24  H   UNL A   1      42.557  27.404  29.118  1.00  0.00     0.167 HD
ATOM     25  C   UNL A   1      46.892  27.100  29.532  1.00  0.00     0.031 A 
ATOM     26  C   UNL A   1      40.112  28.760  29.127  1.00  0.00     0.031 A 
ATOM     27  C   UNL A   1      46.575  28.461  29.881  1.00  0.00     0.049 A 
ATOM     28  C   UNL A   1      41.141  29.750  29.585  1.00  0.00     0.074 A 
ATOM     29  C   UNL A   1      47.436  29.474  30.269  1.00  0.00     0.029 A 
ATOM     30  N   UNL A   1      45.297  28.998  29.888  1.00  0.00    -0.354 N 
ATOM     31  N   UNL A   1      42.438  29.601  29.693  1.00  0.00    -0.248 NA
ATOM     32  C   UNL A   1      40.649  31.081  29.963  1.00  0.00     0.031 C 
ATOM     33  C   UNL A   1      46.672  30.611  30.557  1.00  0.00     0.029 A 
ATOM     34  C   UNL A   1      45.343  30.320  30.296  1.00  0.00     0.049 A 
ATOM     35  H   UNL A   1      44.478  28.510  29.641  1.00  0.00     0.167 HD
ATOM     36  C   UNL A   1      42.922  30.826  30.131  1.00  0.00     0.074 A 
ATOM     37  C   UNL A   1      41.780  31.710  30.248  1.00  0.00     0.031 C 
ATOM     38  C   UNL A   1      44.198  31.186  30.411  1.00  0.00     0.031 A 
BRANCH  25  39
ATOM     39  C   UNL A   1      48.323  26.652  29.653  1.00  0.00    -0.014 A 
ATOM     40  C   UNL A   1      48.805  26.042  30.821  1.00  0.00     0.009 A 
ATOM     41  C   UNL A   1      49.192  26.808  28.561  1.00  0.00     0.009 A 
ATOM     42  C   UNL A   1      50.137  25.628  30.904  1.00  0.00     0.001 A 
ATOM     43  C   UNL A   1      50.515  26.369  28.637  1.00  0.00     0.001 A 
ATOM     44  C   UNL A   1      50.989  25.786  29.811  1.00  0.00     0.000 A 
ENDBRANCH  25  39
BRANCH  26  45
ATOM     45  C   UNL A   1      38.681  29.141  29.015  1.00  0.00    -0.014 A 
ATOM     46  C   UNL A   1      37.834  29.063  30.131  1.00  0.00     0.009 A 
ATOM     47  C   UNL A   1      38.157  29.592  27.794  1.00  0.00     0.009 A 
ATOM     48  C   UNL A   1      36.486  29.410  30.019  1.00  0.00     0.001 A 
ATOM     49  C   UNL A   1      36.817  29.966  27.692  1.00  0.00     0.001 A 
ATOM     50  C   UNL A   1      35.980  29.866  28.801  1.00  0.00     0.000 A 
ENDBRANCH  26  45
BRANCH  38  51
ATOM     51  C   UNL A   1      44.425  32.609  30.836  1.00  0.00    -0.014 A 
ATOM     52  C   UNL A   1      44.415  32.977  32.190  1.00  0.00     0.009 A 
ATOM     53  C   UNL A   1      44.665  33.592  29.864  1.00  0.00     0.009 A 
ATOM     54  C   UNL A   1      44.602  34.311  32.559  1.00  0.00     0.001 A 
ATOM     55  C   UNL A   1      44.879  34.919  30.237  1.00  0.00     0.001 A 
ATOM     56  C   UNL A   1      44.838  35.279  31.583  1.00  0.00     0.000 A 
ENDBRANCH  38  51
ENDBRANCH  12  13
ENDBRANCH   5   7
ENDBRANCH   2   3
ENDBRANCH   1   2
BRANCH   1  57
ATOM     57  C   UNL A   1      36.516  20.696  25.000  1.00  0.00     0.117 C 
BRANCH  57  58
ATOM     58  N   UNL A   1      35.302  19.921  25.192  1.00  0.00    -0.356 N 
ATOM     59  C   UNL A   1      34.005  20.327  25.066  1.00  0.00     0.223 C 
ATOM     60  H   UNL A   1      35.433  18.980  25.448  1.00  0.00     0.163 HD
ATOM     61  O   UNL A   1      33.113  19.551  25.403  1.00  0.00    -0.275 OA
BRANCH  59  62
ATOM     62  C   UNL A   1      33.744  21.718  24.506  1.00  0.00     0.087 C 
ATOM     63  C   UNL A   1      32.306  21.843  23.995  1.00  0.00     0.014 C 
ATOM     64  C   UNL A   1      33.850  22.827  25.561  1.00  0.00     0.056 C 
ATOM     65  C   UNL A   1      31.488  22.390  25.163  1.00  0.00     0.001 C 
ATOM     66  C   UNL A   1      32.482  22.793  26.248  1.00  0.00     0.010 C 
BRANCH  64  67
ATOM     67  C   UNL A   1      34.122  24.212  24.939  1.00  0.00     0.265 C 
BRANCH  67  68
ATOM     68  N   UNL A   1      33.504  25.250  25.761  1.00  0.00    -0.343 N 
ATOM     69  H   UNL A   1      33.876  25.170  26.707  1.00  0.00     0.346 HD
ATOM     70  H   UNL A   1      32.497  25.096  25.711  1.00  0.00     0.346 HD
BRANCH  68  71
ATOM     71  C   UNL A   1      33.736  26.623  25.293  1.00  0.00     0.187 C 
ATOM     72  C   UNL A   1      33.570  27.583  26.483  1.00  0.00     0.093 C 
ATOM     73  C   UNL A   1      32.804  27.078  24.158  1.00  0.00     0.100 C 
ATOM     74  C   UNL A   1      32.112  27.723  26.906  1.00  0.00     0.167 C 
ATOM     75  C   UNL A   1      31.357  27.179  24.640  1.00  0.00     0.074 C 
ATOM     76  O   UNL A   1      31.293  28.066  25.789  1.00  0.00    -0.375 OA
ATOM     77  C   UNL A   1      30.373  27.558  23.492  1.00  0.00     0.036 C 
ATOM     78  C   UNL A   1      30.545  25.848  24.756  1.00  0.00     0.036 C 
ATOM     79  C   UNL A   1      29.360  26.574  24.104  1.00  0.00     0.006 C 
ENDBRANCH  68  71
ENDBRANCH  67  68
ENDBRANCH  64  67
ENDBRANCH  59  62
ENDBRANCH  57  58
ENDBRANCH   1  57
TORSDOF 13
ENDMDL
