MODEL 1
REMARK VINA RESULT:     -10.3      0.000      0.000
REMARK SMILES C[C@@H](C(=O)NCCCNC(=O)c1ccc(-c2c3nc(c(-c4ccccc4)c4ccc([nH]4)c(-c4ccccc4)c4nc(c(-c5ccccc5)c5ccc2[nH]5)C=C4)C=C3)cc1)c1cccn(C(F)F)c1=O
REMARK SMILES IDX 7 1 6 2 5 3 3 4 4 5 2 7 1 8 60 9 61 10 68 11 62 12 64 13
REMARK SMILES IDX 69 14 63 15 65 16 66 17 67 18 8 19 9 20 10 21 11 23 12 24
REMARK SMILES IDX 13 25 59 26 14 27 58 28 15 29 16 30 17 31 52 32 18 33 57 34
REMARK SMILES IDX 51 35 53 36 19 37 56 38 50 39 49 40 20 42 42 43 27 44 41 45
REMARK SMILES IDX 28 46 31 47 40 48 54 49 29 50 30 51 39 53 55 54 32 55 21 56
REMARK SMILES IDX 22 57 26 58 23 59 25 60 24 61 43 62 44 63 48 64 45 65 47 66
REMARK SMILES IDX 46 67 33 68 34 69 38 70 35 71 37 72 36 73
REMARK H PARENT 5 6 9 22 53 41 31 52
REMARK Flexibility Score: inf
ROOT
ATOM      1  C   UNL A   1      34.576  34.756  27.901  1.00  0.00     0.042 C 
ENDROOT
BRANCH   1   2
ATOM      2  C   UNL A   1      33.351  34.962  28.793  1.00  0.00     0.117 C 
BRANCH   2   3
ATOM      3  N   UNL A   1      33.452  36.194  29.553  1.00  0.00    -0.356 N 
ATOM      4  C   UNL A   1      33.059  36.483  30.831  1.00  0.00     0.227 C 
ATOM      5  O   UNL A   1      33.105  37.667  31.169  1.00  0.00    -0.274 OA
ATOM      6  H   UNL A   1      33.872  36.943  29.073  1.00  0.00     0.163 HD
BRANCH   4   7
ATOM      7  C   UNL A   1      32.636  35.350  31.785  1.00  0.00     0.111 C 
ATOM      8  C   UNL A   1      31.462  35.798  32.657  1.00  0.00     0.023 C 
BRANCH   7   9
ATOM      9  C   UNL A   1      33.869  34.808  32.504  1.00  0.00     0.030 A 
ATOM     10  C   UNL A   1      34.374  35.439  33.584  1.00  0.00     0.012 A 
ATOM     11  C   UNL A   1      34.580  33.561  32.034  1.00  0.00     0.258 A 
ATOM     12  C   UNL A   1      35.530  34.956  34.289  1.00  0.00     0.019 A 
ATOM     13  N   UNL A   1      35.738  33.214  32.716  1.00  0.00    -0.258 N 
ATOM     14  O   UNL A   1      34.169  32.909  31.082  1.00  0.00    -0.269 OA
ATOM     15  C   UNL A   1      36.182  33.882  33.836  1.00  0.00     0.095 A 
BRANCH  13  16
ATOM     16  C   UNL A   1      36.480  32.077  32.231  1.00  0.00     0.451 C 
ATOM     17  F   UNL A   1      37.766  32.155  32.672  1.00  0.00    -0.185 F 
ATOM     18  F   UNL A   1      35.968  30.936  32.764  1.00  0.00    -0.185 F 
ENDBRANCH  13  16
ENDBRANCH   7   9
ENDBRANCH   4   7
ENDBRANCH   2   3
ENDBRANCH   1   2
BRANCH   1  19
ATOM     19  C   UNL A   1      35.223  33.381  28.034  1.00  0.00     0.118 C 
BRANCH  19  20
ATOM     20  N   UNL A   1      34.264  32.298  27.901  1.00  0.00    -0.352 N 
ATOM     21  C   UNL A   1      34.463  30.942  27.883  1.00  0.00     0.251 C 
ATOM     22  H   UNL A   1      33.326  32.583  27.812  1.00  0.00     0.163 HD
ATOM     23  O   UNL A   1      33.523  30.206  27.586  1.00  0.00    -0.269 OA
BRANCH  21  24
ATOM     24  C   UNL A   1      35.783  30.348  28.200  1.00  0.00     0.039 A 
ATOM     25  C   UNL A   1      35.974  29.803  29.475  1.00  0.00     0.014 A 
ATOM     26  C   UNL A   1      36.852  30.394  27.301  1.00  0.00     0.014 A 
ATOM     27  C   UNL A   1      37.221  29.290  29.839  1.00  0.00     0.010 A 
ATOM     28  C   UNL A   1      38.078  29.820  27.640  1.00  0.00     0.010 A 
ATOM     29  C   UNL A   1      38.283  29.288  28.922  1.00  0.00    -0.014 A 
BRANCH  29  30
ATOM     30  C   UNL A   1      39.626  28.792  29.315  1.00  0.00     0.031 A 
ATOM     31  C   UNL A   1      40.514  29.636  30.191  1.00  0.00     0.074 A 
ATOM     32  C   UNL A   1      40.062  27.598  28.872  1.00  0.00     0.049 A 
ATOM     33  N   UNL A   1      41.722  29.383  30.631  1.00  0.00    -0.248 NA
ATOM     34  C   UNL A   1      39.984  30.944  30.608  1.00  0.00     0.031 C 
ATOM     35  C   UNL A   1      39.319  26.699  27.989  1.00  0.00     0.029 A 
ATOM     36  N   UNL A   1      41.241  26.938  29.107  1.00  0.00    -0.354 N 
ATOM     37  C   UNL A   1      42.101  30.507  31.357  1.00  0.00     0.074 A 
ATOM     38  C   UNL A   1      41.016  31.459  31.259  1.00  0.00     0.031 C 
ATOM     39  C   UNL A   1      40.051  25.594  27.774  1.00  0.00     0.029 A 
ATOM     40  C   UNL A   1      41.321  25.717  28.484  1.00  0.00     0.049 A 
ATOM     41  H   UNL A   1      41.962  27.305  29.667  1.00  0.00     0.167 HD
ATOM     42  C   UNL A   1      43.239  30.722  32.060  1.00  0.00     0.031 A 
ATOM     43  C   UNL A   1      42.303  24.795  28.490  1.00  0.00     0.031 A 
ATOM     44  C   UNL A   1      44.313  29.774  32.176  1.00  0.00     0.049 A 
ATOM     45  C   UNL A   1      43.542  25.041  29.303  1.00  0.00     0.074 A 
ATOM     46  C   UNL A   1      45.492  29.886  32.893  1.00  0.00     0.029 A 
ATOM     47  N   UNL A   1      44.336  28.533  31.559  1.00  0.00    -0.354 N 
ATOM     48  N   UNL A   1      43.863  26.087  30.024  1.00  0.00    -0.248 NA
ATOM     49  C   UNL A   1      44.544  23.966  29.320  1.00  0.00     0.031 C 
ATOM     50  C   UNL A   1      46.240  28.721  32.688  1.00  0.00     0.029 A 
ATOM     51  C   UNL A   1      45.508  27.868  31.878  1.00  0.00     0.049 A 
ATOM     52  H   UNL A   1      43.624  28.176  30.980  1.00  0.00     0.167 HD
ATOM     53  C   UNL A   1      45.088  25.786  30.603  1.00  0.00     0.074 A 
ATOM     54  C   UNL A   1      45.447  24.455  30.159  1.00  0.00     0.031 C 
ATOM     55  C   UNL A   1      45.847  26.543  31.431  1.00  0.00     0.031 A 
BRANCH  42  56
ATOM     56  C   UNL A   1      43.369  32.046  32.758  1.00  0.00    -0.014 A 
ATOM     57  C   UNL A   1      43.951  33.151  32.115  1.00  0.00     0.009 A 
ATOM     58  C   UNL A   1      42.896  32.197  34.071  1.00  0.00     0.009 A 
ATOM     59  C   UNL A   1      44.098  34.365  32.788  1.00  0.00     0.001 A 
ATOM     60  C   UNL A   1      43.020  33.420  34.732  1.00  0.00     0.001 A 
ATOM     61  C   UNL A   1      43.630  34.500  34.094  1.00  0.00     0.000 A 
ENDBRANCH  42  56
BRANCH  43  62
ATOM     62  C   UNL A   1      42.134  23.534  27.726  1.00  0.00    -0.014 A 
ATOM     63  C   UNL A   1      41.502  22.428  28.313  1.00  0.00     0.009 A 
ATOM     64  C   UNL A   1      42.597  23.432  26.406  1.00  0.00     0.009 A 
ATOM     65  C   UNL A   1      41.357  21.236  27.601  1.00  0.00     0.001 A 
ATOM     66  C   UNL A   1      42.429  22.247  25.688  1.00  0.00     0.001 A 
ATOM     67  C   UNL A   1      41.817  21.148  26.287  1.00  0.00     0.000 A 
ENDBRANCH  43  62
BRANCH  55  68
ATOM     68  C   UNL A   1      47.121  25.934  31.943  1.00  0.00    -0.014 A 
ATOM     69  C   UNL A   1      48.310  26.001  31.202  1.00  0.00     0.009 A 
ATOM     70  C   UNL A   1      47.132  25.308  33.199  1.00  0.00     0.009 A 
ATOM     71  C   UNL A   1      49.481  25.423  31.697  1.00  0.00     0.001 A 
ATOM     72  C   UNL A   1      48.311  24.752  33.702  1.00  0.00     0.001 A 
ATOM     73  C   UNL A   1      49.481  24.802  32.947  1.00  0.00     0.000 A 
ENDBRANCH  55  68
ENDBRANCH  29  30
ENDBRANCH  21  24
ENDBRANCH  19  20
ENDBRANCH   1  19
TORSDOF 12
ENDMDL
MODEL 2
REMARK VINA RESULT:     -10.2      3.746      6.387
REMARK SMILES C[C@@H](C(=O)NCCCNC(=O)c1ccc(-c2c3nc(c(-c4ccccc4)c4ccc([nH]4)c(-c4ccccc4)c4nc(c(-c5ccccc5)c5ccc2[nH]5)C=C4)C=C3)cc1)c1cccn(C(F)F)c1=O
REMARK SMILES IDX 7 1 6 2 5 3 3 4 4 5 2 7 1 8 60 9 61 10 68 11 62 12 64 13
REMARK SMILES IDX 69 14 63 15 65 16 66 17 67 18 8 19 9 20 10 21 11 23 12 24
REMARK SMILES IDX 13 25 59 26 14 27 58 28 15 29 16 30 17 31 52 32 18 33 57 34
REMARK SMILES IDX 51 35 53 36 19 37 56 38 50 39 49 40 20 42 42 43 27 44 41 45
REMARK SMILES IDX 28 46 31 47 40 48 54 49 29 50 30 51 39 53 55 54 32 55 21 56
REMARK SMILES IDX 22 57 26 58 23 59 25 60 24 61 43 62 44 63 48 64 45 65 47 66
REMARK SMILES IDX 46 67 33 68 34 69 38 70 35 71 37 72 36 73
REMARK H PARENT 5 6 9 22 53 41 31 52
REMARK Flexibility Score: inf
ROOT
ATOM      1  C   UNL A   1      32.027  28.108  27.230  1.00  0.00     0.042 C 
ENDROOT
BRANCH   1   2
ATOM      2  C   UNL A   1      31.827  26.925  26.283  1.00  0.00     0.117 C 
BRANCH   2   3
ATOM      3  N   UNL A   1      31.611  25.691  27.016  1.00  0.00    -0.356 N 
ATOM      4  C   UNL A   1      31.598  24.393  26.585  1.00  0.00     0.227 C 
ATOM      5  O   UNL A   1      31.214  23.546  27.393  1.00  0.00    -0.274 OA
ATOM      6  H   UNL A   1      31.449  25.806  27.980  1.00  0.00     0.163 HD
BRANCH   4   7
ATOM      7  C   UNL A   1      32.096  24.044  25.170  1.00  0.00     0.111 C 
ATOM      8  C   UNL A   1      30.949  23.489  24.324  1.00  0.00     0.023 C 
BRANCH   7   9
ATOM      9  C   UNL A   1      33.358  23.191  25.274  1.00  0.00     0.030 A 
ATOM     10  C   UNL A   1      33.297  21.848  25.165  1.00  0.00     0.012 A 
ATOM     11  C   UNL A   1      34.716  23.807  25.516  1.00  0.00     0.258 A 
ATOM     12  C   UNL A   1      34.464  21.013  25.253  1.00  0.00     0.019 A 
ATOM     13  N   UNL A   1      35.775  22.925  25.678  1.00  0.00    -0.258 N 
ATOM     14  O   UNL A   1      34.865  25.020  25.595  1.00  0.00    -0.269 OA
ATOM     15  C   UNL A   1      35.652  21.563  25.518  1.00  0.00     0.095 A 
BRANCH  13  16
ATOM     16  C   UNL A   1      37.065  23.486  25.994  1.00  0.00     0.451 C 
ATOM     17  F   UNL A   1      37.925  22.484  26.324  1.00  0.00    -0.185 F 
ATOM     18  F   UNL A   1      37.589  24.082  24.891  1.00  0.00    -0.185 F 
ENDBRANCH  13  16
ENDBRANCH   7   9
ENDBRANCH   4   7
ENDBRANCH   2   3
ENDBRANCH   1   2
BRANCH   1  19
ATOM     19  C   UNL A   1      33.433  28.701  27.204  1.00  0.00     0.118 C 
BRANCH  19  20
ATOM     20  N   UNL A   1      33.463  30.082  27.653  1.00  0.00    -0.352 N 
ATOM     21  C   UNL A   1      34.463  30.784  28.276  1.00  0.00     0.251 C 
ATOM     22  H   UNL A   1      32.639  30.593  27.482  1.00  0.00     0.163 HD
ATOM     23  O   UNL A   1      34.215  31.902  28.726  1.00  0.00    -0.269 OA
BRANCH  21  24
ATOM     24  C   UNL A   1      35.826  30.222  28.428  1.00  0.00     0.039 A 
ATOM     25  C   UNL A   1      36.189  29.694  29.672  1.00  0.00     0.014 A 
ATOM     26  C   UNL A   1      36.770  30.279  27.398  1.00  0.00     0.014 A 
ATOM     27  C   UNL A   1      37.483  29.211  29.878  1.00  0.00     0.010 A 
ATOM     28  C   UNL A   1      38.041  29.735  27.583  1.00  0.00     0.010 A 
ATOM     29  C   UNL A   1      38.419  29.221  28.832  1.00  0.00    -0.014 A 
BRANCH  29  30
ATOM     30  C   UNL A   1      39.812  28.757  29.054  1.00  0.00     0.031 A 
ATOM     31  C   UNL A   1      40.815  29.669  29.711  1.00  0.00     0.074 A 
ATOM     32  C   UNL A   1      40.188  27.530  28.650  1.00  0.00     0.049 A 
ATOM     33  N   UNL A   1      42.078  29.452  29.980  1.00  0.00    -0.248 NA
ATOM     34  C   UNL A   1      40.340  31.009  30.095  1.00  0.00     0.031 C 
ATOM     35  C   UNL A   1      39.329  26.562  27.967  1.00  0.00     0.029 A 
ATOM     36  N   UNL A   1      41.397  26.889  28.754  1.00  0.00    -0.354 N 
ATOM     37  C   UNL A   1      42.551  30.631  30.544  1.00  0.00     0.074 A 
ATOM     38  C   UNL A   1      41.454  31.574  30.536  1.00  0.00     0.031 C 
ATOM     39  C   UNL A   1      40.032  25.441  27.734  1.00  0.00     0.029 A 
ATOM     40  C   UNL A   1      41.394  25.621  28.229  1.00  0.00     0.049 A 
ATOM     41  H   UNL A   1      42.191  27.301  29.165  1.00  0.00     0.167 HD
ATOM     42  C   UNL A   1      43.781  30.902  31.044  1.00  0.00     0.031 A 
ATOM     43  C   UNL A   1      42.375  24.701  28.160  1.00  0.00     0.031 A 
ATOM     44  C   UNL A   1      44.871  29.965  31.072  1.00  0.00     0.049 A 
ATOM     45  C   UNL A   1      43.721  25.011  28.751  1.00  0.00     0.074 A 
ATOM     46  C   UNL A   1      46.144  30.134  31.588  1.00  0.00     0.029 A 
ATOM     47  N   UNL A   1      44.812  28.677  30.563  1.00  0.00    -0.354 N 
ATOM     48  N   UNL A   1      44.137  26.113  29.326  1.00  0.00    -0.248 NA
ATOM     49  C   UNL A   1      44.726  23.940  28.702  1.00  0.00     0.031 C 
ATOM     50  C   UNL A   1      46.865  28.955  31.368  1.00  0.00     0.029 A 
ATOM     51  C   UNL A   1      46.027  28.039  30.752  1.00  0.00     0.049 A 
ATOM     52  H   UNL A   1      44.024  28.275  30.131  1.00  0.00     0.167 HD
ATOM     53  C   UNL A   1      45.440  25.859  29.733  1.00  0.00     0.074 A 
ATOM     54  C   UNL A   1      45.741  24.495  29.350  1.00  0.00     0.031 C 
ATOM     55  C   UNL A   1      46.308  26.681  30.370  1.00  0.00     0.031 A 
BRANCH  42  56
ATOM     56  C   UNL A   1      44.001  32.280  31.603  1.00  0.00    -0.014 A 
ATOM     57  C   UNL A   1      44.463  33.327  30.788  1.00  0.00     0.009 A 
ATOM     58  C   UNL A   1      43.737  32.538  32.957  1.00  0.00     0.009 A 
ATOM     59  C   UNL A   1      44.698  34.592  31.329  1.00  0.00     0.001 A 
ATOM     60  C   UNL A   1      43.947  33.812  33.488  1.00  0.00     0.001 A 
ATOM     61  C   UNL A   1      44.437  34.835  32.676  1.00  0.00     0.000 A 
ENDBRANCH  42  56
BRANCH  43  62
ATOM     62  C   UNL A   1      42.105  23.381  27.538  1.00  0.00    -0.014 A 
ATOM     63  C   UNL A   1      42.509  23.121  26.220  1.00  0.00     0.009 A 
ATOM     64  C   UNL A   1      41.451  22.372  28.261  1.00  0.00     0.009 A 
ATOM     65  C   UNL A   1      42.241  21.885  25.629  1.00  0.00     0.001 A 
ATOM     66  C   UNL A   1      41.207  21.128  27.676  1.00  0.00     0.001 A 
ATOM     67  C   UNL A   1      41.594  20.888  26.359  1.00  0.00     0.000 A 
ENDBRANCH  43  62
BRANCH  55  68
ATOM     68  C   UNL A   1      47.651  26.114  30.729  1.00  0.00    -0.014 A 
ATOM     69  C   UNL A   1      48.649  25.934  29.759  1.00  0.00     0.009 A 
ATOM     70  C   UNL A   1      47.928  25.781  32.064  1.00  0.00     0.009 A 
ATOM     71  C   UNL A   1      49.890  25.401  30.116  1.00  0.00     0.001 A 
ATOM     72  C   UNL A   1      49.177  25.271  32.422  1.00  0.00     0.001 A 
ATOM     73  C   UNL A   1      50.154  25.073  31.446  1.00  0.00     0.000 A 
ENDBRANCH  55  68
ENDBRANCH  29  30
ENDBRANCH  21  24
ENDBRANCH  19  20
ENDBRANCH   1  19
TORSDOF 12
ENDMDL
MODEL 3
REMARK VINA RESULT:     -10.1      4.837      9.991
REMARK SMILES C[C@@H](C(=O)NCCCNC(=O)c1ccc(-c2c3nc(c(-c4ccccc4)c4ccc([nH]4)c(-c4ccccc4)c4nc(c(-c5ccccc5)c5ccc2[nH]5)C=C4)C=C3)cc1)c1cccn(C(F)F)c1=O
REMARK SMILES IDX 7 1 6 2 5 3 3 4 4 5 2 7 1 8 60 9 61 10 68 11 62 12 64 13
REMARK SMILES IDX 69 14 63 15 65 16 66 17 67 18 8 19 9 20 10 21 11 23 12 24
REMARK SMILES IDX 13 25 59 26 14 27 58 28 15 29 16 30 17 31 52 32 18 33 57 34
REMARK SMILES IDX 51 35 53 36 19 37 56 38 50 39 49 40 20 42 42 43 27 44 41 45
REMARK SMILES IDX 28 46 31 47 40 48 54 49 29 50 30 51 39 53 55 54 32 55 21 56
REMARK SMILES IDX 22 57 26 58 23 59 25 60 24 61 43 62 44 63 48 64 45 65 47 66
REMARK SMILES IDX 46 67 33 68 34 69 38 70 35 71 37 72 36 73
REMARK H PARENT 5 6 9 22 53 41 31 52
REMARK Flexibility Score: inf
ROOT
ATOM      1  C   UNL A   1      37.516  19.453  25.077  1.00  0.00     0.042 C 
ENDROOT
BRANCH   1   2
ATOM      2  C   UNL A   1      36.454  20.408  24.531  1.00  0.00     0.117 C 
BRANCH   2   3
ATOM      3  N   UNL A   1      35.617  20.933  25.594  1.00  0.00    -0.356 N 
ATOM      4  C   UNL A   1      35.506  22.201  26.092  1.00  0.00     0.227 C 
ATOM      5  O   UNL A   1      34.841  22.335  27.120  1.00  0.00    -0.274 OA
ATOM      6  H   UNL A   1      35.033  20.268  26.026  1.00  0.00     0.163 HD
BRANCH   4   7
ATOM      7  C   UNL A   1      36.151  23.384  25.345  1.00  0.00     0.111 C 
ATOM      8  C   UNL A   1      37.286  23.984  26.177  1.00  0.00     0.023 C 
BRANCH   7   9
ATOM      9  C   UNL A   1      35.059  24.338  24.868  1.00  0.00     0.030 A 
ATOM     10  C   UNL A   1      34.586  25.308  25.677  1.00  0.00     0.012 A 
ATOM     11  C   UNL A   1      34.455  24.230  23.488  1.00  0.00     0.258 A 
ATOM     12  C   UNL A   1      33.561  26.227  25.261  1.00  0.00     0.019 A 
ATOM     13  N   UNL A   1      33.412  25.097  23.199  1.00  0.00    -0.258 N 
ATOM     14  O   UNL A   1      34.850  23.399  22.679  1.00  0.00    -0.269 OA
ATOM     15  C   UNL A   1      32.998  26.091  24.058  1.00  0.00     0.095 A 
BRANCH  13  16
ATOM     16  C   UNL A   1      32.764  24.955  21.919  1.00  0.00     0.451 C 
ATOM     17  F   UNL A   1      31.423  25.137  22.068  1.00  0.00    -0.185 F 
ATOM     18  F   UNL A   1      33.185  25.938  21.081  1.00  0.00    -0.185 F 
ENDBRANCH  13  16
ENDBRANCH   7   9
ENDBRANCH   4   7
ENDBRANCH   2   3
ENDBRANCH   1   2
BRANCH   1  19
ATOM     19  C   UNL A   1      38.757  20.146  25.630  1.00  0.00     0.118 C 
BRANCH  19  20
ATOM     20  N   UNL A   1      39.900  19.254  25.721  1.00  0.00    -0.352 N 
ATOM     21  C   UNL A   1      41.204  19.522  26.050  1.00  0.00     0.251 C 
ATOM     22  H   UNL A   1      39.707  18.310  25.515  1.00  0.00     0.163 HD
ATOM     23  O   UNL A   1      42.050  18.643  25.898  1.00  0.00    -0.269 OA
BRANCH  21  24
ATOM     24  C   UNL A   1      41.613  20.847  26.573  1.00  0.00     0.039 A 
ATOM     25  C   UNL A   1      41.497  21.080  27.949  1.00  0.00     0.014 A 
ATOM     26  C   UNL A   1      42.028  21.881  25.730  1.00  0.00     0.014 A 
ATOM     27  C   UNL A   1      41.811  22.335  28.477  1.00  0.00     0.010 A 
ATOM     28  C   UNL A   1      42.408  23.113  26.265  1.00  0.00     0.010 A 
ATOM     29  C   UNL A   1      42.276  23.361  27.639  1.00  0.00    -0.014 A 
BRANCH  29  30
ATOM     30  C   UNL A   1      42.565  24.712  28.182  1.00  0.00     0.031 A 
ATOM     31  C   UNL A   1      43.966  25.074  28.598  1.00  0.00     0.074 A 
ATOM     32  C   UNL A   1      41.571  25.608  28.326  1.00  0.00     0.049 A 
ATOM     33  N   UNL A   1      44.414  26.196  29.105  1.00  0.00    -0.248 NA
ATOM     34  C   UNL A   1      44.994  24.032  28.444  1.00  0.00     0.031 C 
ATOM     35  C   UNL A   1      40.164  25.373  27.999  1.00  0.00     0.029 A 
ATOM     36  N   UNL A   1      41.596  26.900  28.788  1.00  0.00    -0.354 N 
ATOM     37  C   UNL A   1      45.766  25.986  29.348  1.00  0.00     0.074 A 
ATOM     38  C   UNL A   1      46.055  24.618  28.977  1.00  0.00     0.031 C 
ATOM     39  C   UNL A   1      39.464  26.492  28.249  1.00  0.00     0.029 A 
ATOM     40  C   UNL A   1      40.367  27.512  28.775  1.00  0.00     0.049 A 
ATOM     41  H   UNL A   1      42.417  27.344  29.100  1.00  0.00     0.167 HD
ATOM     42  C   UNL A   1      46.692  26.857  29.817  1.00  0.00     0.031 A 
ATOM     43  C   UNL A   1      40.009  28.758  29.138  1.00  0.00     0.031 A 
ATOM     44  C   UNL A   1      46.417  28.223  30.171  1.00  0.00     0.049 A 
ATOM     45  C   UNL A   1      41.058  29.717  29.624  1.00  0.00     0.074 A 
ATOM     46  C   UNL A   1      47.294  29.194  30.623  1.00  0.00     0.029 A 
ATOM     47  N   UNL A   1      45.164  28.814  30.106  1.00  0.00    -0.354 N 
ATOM     48  N   UNL A   1      42.341  29.518  29.801  1.00  0.00    -0.248 NA
ATOM     49  C   UNL A   1      40.610  31.081  29.940  1.00  0.00     0.031 C 
ATOM     50  C   UNL A   1      46.566  30.366  30.857  1.00  0.00     0.029 A 
ATOM     51  C   UNL A   1      45.245  30.136  30.511  1.00  0.00     0.049 A 
ATOM     52  H   UNL A   1      44.340  28.361  29.816  1.00  0.00     0.167 HD
ATOM     53  C   UNL A   1      42.859  30.737  30.220  1.00  0.00     0.074 A 
ATOM     54  C   UNL A   1      41.753  31.672  30.259  1.00  0.00     0.031 C 
ATOM     55  C   UNL A   1      44.137  31.053  30.540  1.00  0.00     0.031 A 
BRANCH  42  56
ATOM     56  C   UNL A   1      48.096  26.343  29.972  1.00  0.00    -0.014 A 
ATOM     57  C   UNL A   1      49.006  26.390  28.903  1.00  0.00     0.009 A 
ATOM     58  C   UNL A   1      48.518  25.813  31.201  1.00  0.00     0.009 A 
ATOM     59  C   UNL A   1      50.296  25.876  29.050  1.00  0.00     0.001 A 
ATOM     60  C   UNL A   1      49.817  25.324  31.352  1.00  0.00     0.001 A 
ATOM     61  C   UNL A   1      50.701  25.347  30.274  1.00  0.00     0.000 A 
ENDBRANCH  42  56
BRANCH  43  62
ATOM     62  C   UNL A   1      38.591  29.182  29.017  1.00  0.00    -0.014 A 
ATOM     63  C   UNL A   1      37.725  29.084  30.116  1.00  0.00     0.009 A 
ATOM     64  C   UNL A   1      38.100  29.693  27.807  1.00  0.00     0.009 A 
ATOM     65  C   UNL A   1      36.387  29.467  29.999  1.00  0.00     0.001 A 
ATOM     66  C   UNL A   1      36.768  30.098  27.699  1.00  0.00     0.001 A 
ATOM     67  C   UNL A   1      35.911  29.977  28.792  1.00  0.00     0.000 A 
ENDBRANCH  43  62
BRANCH  55  68
ATOM     68  C   UNL A   1      44.415  32.479  30.921  1.00  0.00    -0.014 A 
ATOM     69  C   UNL A   1      44.749  33.440  29.955  1.00  0.00     0.009 A 
ATOM     70  C   UNL A   1      44.312  32.868  32.266  1.00  0.00     0.009 A 
ATOM     71  C   UNL A   1      45.007  34.759  30.334  1.00  0.00     0.001 A 
ATOM     72  C   UNL A   1      44.548  34.193  32.638  1.00  0.00     0.001 A 
ATOM     73  C   UNL A   1      44.904  35.135  31.674  1.00  0.00     0.000 A 
ENDBRANCH  55  68
ENDBRANCH  29  30
ENDBRANCH  21  24
ENDBRANCH  19  20
ENDBRANCH   1  19
TORSDOF 12
ENDMDL
