MODEL 1
REMARK VINA RESULT:     -11.4      0.000      0.000
REMARK SMILES COc1ccc([C@H]2O[C@@H]2C(=O)NCCCNC(=O)c2ccc(-c3c4nc(c(-c5ccccc5)c5ccc([nH]5)c(-c5ccccc5)c5nc(c(-c6ccccc6)c6ccc3[nH]6)C=C5)C=C4)cc2)cc1Oc1ccccc1
REMARK SMILES IDX 13 1 12 2 10 3 11 4 9 6 7 7 8 8 6 9 3 10 4 11 68 12 5 13
REMARK SMILES IDX 67 14 2 15 1 16 69 17 70 18 71 19 75 20 72 21 74 22 73 23
REMARK SMILES IDX 14 24 15 25 16 26 17 27 18 29 19 30 20 31 66 32 21 33 65 34
REMARK SMILES IDX 22 35 23 36 24 37 59 38 25 39 64 40 58 41 60 42 26 43 63 44
REMARK SMILES IDX 57 45 56 46 27 48 49 49 34 50 48 51 35 52 38 53 47 54 61 55
REMARK SMILES IDX 36 56 37 57 46 59 62 60 39 61 28 62 29 63 33 64 30 65 32 66
REMARK SMILES IDX 31 67 50 68 51 69 55 70 52 71 54 72 53 73 40 74 41 75 45 76
REMARK SMILES IDX 42 77 44 78 43 79
REMARK H PARENT 12 5 16 28 60 47 38 58
REMARK Flexibility Score: inf
ROOT
ATOM      1  C   UNL A   1      36.220  20.934  24.985  1.00  0.00     0.117 C 
ENDROOT
BRANCH   1   2
ATOM      2  N   UNL A   1      35.206  19.947  25.307  1.00  0.00    -0.354 N 
ATOM      3  C   UNL A   1      33.856  20.036  25.112  1.00  0.00     0.252 C 
ATOM      4  O   UNL A   1      33.109  19.141  25.501  1.00  0.00    -0.272 OA
ATOM      5  H   UNL A   1      35.530  19.112  25.715  1.00  0.00     0.163 HD
BRANCH   3   6
ATOM      6  C   UNL A   1      33.303  21.222  24.428  1.00  0.00     0.241 C 
ATOM      7  C   UNL A   1      31.906  21.667  24.799  1.00  0.00     0.188 C 
ATOM      8  O   UNL A   1      32.177  20.972  23.573  1.00  0.00    -0.354 OA
BRANCH   7   9
ATOM      9  C   UNL A   1      31.454  23.092  24.668  1.00  0.00    -0.012 A 
ATOM     10  C   UNL A   1      30.439  25.721  24.445  1.00  0.00     0.161 A 
ATOM     11  C   UNL A   1      30.286  24.808  23.397  1.00  0.00     0.051 A 
ATOM     12  C   UNL A   1      31.092  25.333  25.623  1.00  0.00     0.169 A 
ATOM     13  C   UNL A   1      30.797  23.516  23.506  1.00  0.00     0.010 A 
ATOM     14  C   UNL A   1      31.602  24.024  25.708  1.00  0.00     0.057 A 
BRANCH  10  15
ATOM     15  O   UNL A   1      29.789  26.914  24.297  1.00  0.00    -0.493 OA
ATOM     16  C   UNL A   1      30.552  27.851  23.543  1.00  0.00     0.278 C 
ENDBRANCH  10  15
BRANCH  12  17
ATOM     17  O   UNL A   1      31.335  26.068  26.767  1.00  0.00    -0.453 OA
BRANCH  17  18
ATOM     18  C   UNL A   1      32.067  27.222  26.700  1.00  0.00     0.127 A 
ATOM     19  C   UNL A   1      31.496  28.390  27.208  1.00  0.00     0.047 A 
ATOM     20  C   UNL A   1      33.323  27.253  26.095  1.00  0.00     0.047 A 
ATOM     21  C   UNL A   1      32.235  29.573  27.212  1.00  0.00     0.004 A 
ATOM     22  C   UNL A   1      34.065  28.433  26.113  1.00  0.00     0.004 A 
ATOM     23  C   UNL A   1      33.527  29.588  26.684  1.00  0.00     0.000 A 
ENDBRANCH  17  18
ENDBRANCH  12  17
ENDBRANCH   7   9
ENDBRANCH   3   6
ENDBRANCH   1   2
BRANCH   1  24
ATOM     24  C   UNL A   1      37.555  20.280  24.660  1.00  0.00     0.042 C 
BRANCH  24  25
ATOM     25  C   UNL A   1      38.678  20.658  25.617  1.00  0.00     0.118 C 
BRANCH  25  26
ATOM     26  N   UNL A   1      39.710  19.634  25.711  1.00  0.00    -0.352 N 
ATOM     27  C   UNL A   1      41.033  19.739  26.062  1.00  0.00     0.251 C 
ATOM     28  H   UNL A   1      39.412  18.723  25.486  1.00  0.00     0.163 HD
ATOM     29  O   UNL A   1      41.782  18.778  25.909  1.00  0.00    -0.269 OA
BRANCH  27  30
ATOM     30  C   UNL A   1      41.566  21.007  26.601  1.00  0.00     0.039 A 
ATOM     31  C   UNL A   1      42.064  21.962  25.710  1.00  0.00     0.014 A 
ATOM     32  C   UNL A   1      41.594  21.255  27.975  1.00  0.00     0.014 A 
ATOM     33  C   UNL A   1      42.523  23.190  26.193  1.00  0.00     0.010 A 
ATOM     34  C   UNL A   1      41.962  22.511  28.446  1.00  0.00     0.010 A 
ATOM     35  C   UNL A   1      42.439  23.489  27.562  1.00  0.00    -0.014 A 
BRANCH  35  36
ATOM     36  C   UNL A   1      42.850  24.814  28.089  1.00  0.00     0.031 A 
ATOM     37  C   UNL A   1      41.823  25.881  28.349  1.00  0.00     0.074 A 
ATOM     38  C   UNL A   1      44.157  25.081  28.280  1.00  0.00     0.049 A 
ATOM     39  N   UNL A   1      41.993  27.111  28.765  1.00  0.00    -0.248 NA
ATOM     40  C   UNL A   1      40.420  25.527  28.079  1.00  0.00     0.031 C 
ATOM     41  C   UNL A   1      45.258  24.146  28.038  1.00  0.00     0.029 A 
ATOM     42  N   UNL A   1      44.780  26.220  28.721  1.00  0.00    -0.354 N 
ATOM     43  C   UNL A   1      40.726  27.678  28.792  1.00  0.00     0.074 A 
ATOM     44  C   UNL A   1      39.807  26.681  28.289  1.00  0.00     0.031 C 
ATOM     45  C   UNL A   1      46.415  24.736  28.374  1.00  0.00     0.029 A 
ATOM     46  C   UNL A   1      46.146  26.103  28.807  1.00  0.00     0.049 A 
ATOM     47  H   UNL A   1      44.294  27.044  28.955  1.00  0.00     0.167 HD
ATOM     48  C   UNL A   1      40.353  28.909  29.217  1.00  0.00     0.031 A 
ATOM     49  C   UNL A   1      47.078  26.995  29.189  1.00  0.00     0.031 A 
ATOM     50  C   UNL A   1      41.269  29.904  29.708  1.00  0.00     0.049 A 
ATOM     51  C   UNL A   1      46.648  28.372  29.613  1.00  0.00     0.074 A 
ATOM     52  C   UNL A   1      40.989  31.166  30.203  1.00  0.00     0.029 A 
ATOM     53  N   UNL A   1      42.647  29.752  29.758  1.00  0.00    -0.354 N 
ATOM     54  N   UNL A   1      45.440  28.873  29.694  1.00  0.00    -0.248 NA
ATOM     55  C   UNL A   1      47.715  29.302  30.009  1.00  0.00     0.031 C 
ATOM     56  C   UNL A   1      42.201  31.801  30.491  1.00  0.00     0.029 A 
ATOM     57  C   UNL A   1      43.233  30.909  30.246  1.00  0.00     0.049 A 
ATOM     58  H   UNL A   1      43.136  28.942  29.487  1.00  0.00     0.167 HD
ATOM     59  C   UNL A   1      45.597  30.165  30.181  1.00  0.00     0.074 A 
ATOM     60  C   UNL A   1      47.018  30.363  30.389  1.00  0.00     0.031 C 
ATOM     61  C   UNL A   1      44.649  31.099  30.440  1.00  0.00     0.031 A 
BRANCH  48  62
ATOM     62  C   UNL A   1      38.887  29.246  29.141  1.00  0.00    -0.014 A 
ATOM     63  C   UNL A   1      38.035  29.059  30.242  1.00  0.00     0.009 A 
ATOM     64  C   UNL A   1      38.347  29.756  27.950  1.00  0.00     0.009 A 
ATOM     65  C   UNL A   1      36.667  29.319  30.135  1.00  0.00     0.001 A 
ATOM     66  C   UNL A   1      36.986  30.052  27.856  1.00  0.00     0.001 A 
ATOM     67  C   UNL A   1      36.144  29.818  28.943  1.00  0.00     0.000 A 
ENDBRANCH  48  62
BRANCH  49  68
ATOM     68  C   UNL A   1      48.511  26.601  29.219  1.00  0.00    -0.014 A 
ATOM     69  C   UNL A   1      49.346  26.890  28.127  1.00  0.00     0.009 A 
ATOM     70  C   UNL A   1      49.057  25.951  30.337  1.00  0.00     0.009 A 
ATOM     71  C   UNL A   1      50.692  26.514  28.148  1.00  0.00     0.001 A 
ATOM     72  C   UNL A   1      50.409  25.605  30.366  1.00  0.00     0.001 A 
ATOM     73  C   UNL A   1      51.224  25.880  29.268  1.00  0.00     0.000 A 
ENDBRANCH  49  68
BRANCH  61  74
ATOM     74  C   UNL A   1      45.112  32.409  31.017  1.00  0.00    -0.014 A 
ATOM     75  C   UNL A   1      45.440  33.499  30.196  1.00  0.00     0.009 A 
ATOM     76  C   UNL A   1      45.186  32.563  32.411  1.00  0.00     0.009 A 
ATOM     77  C   UNL A   1      45.867  34.704  30.760  1.00  0.00     0.001 A 
ATOM     78  C   UNL A   1      45.579  33.778  32.972  1.00  0.00     0.001 A 
ATOM     79  C   UNL A   1      45.930  34.844  32.147  1.00  0.00     0.000 A 
ENDBRANCH  61  74
ENDBRANCH  35  36
ENDBRANCH  27  30
ENDBRANCH  25  26
ENDBRANCH  24  25
ENDBRANCH   1  24
TORSDOF 14
ENDMDL
MODEL 2
REMARK VINA RESULT:     -11.4      2.505      6.937
REMARK SMILES COc1ccc([C@H]2O[C@@H]2C(=O)NCCCNC(=O)c2ccc(-c3c4nc(c(-c5ccccc5)c5ccc([nH]5)c(-c5ccccc5)c5nc(c(-c6ccccc6)c6ccc3[nH]6)C=C5)C=C4)cc2)cc1Oc1ccccc1
REMARK SMILES IDX 13 1 12 2 10 3 11 4 9 6 7 7 8 8 6 9 3 10 4 11 68 12 5 13
REMARK SMILES IDX 67 14 2 15 1 16 69 17 70 18 71 19 75 20 72 21 74 22 73 23
REMARK SMILES IDX 14 24 15 25 16 26 17 27 18 29 19 30 20 31 66 32 21 33 65 34
REMARK SMILES IDX 22 35 23 36 24 37 59 38 25 39 64 40 58 41 60 42 26 43 63 44
REMARK SMILES IDX 57 45 56 46 27 48 49 49 34 50 48 51 35 52 38 53 47 54 61 55
REMARK SMILES IDX 36 56 37 57 46 59 62 60 39 61 28 62 29 63 33 64 30 65 32 66
REMARK SMILES IDX 31 67 50 68 51 69 55 70 52 71 54 72 53 73 40 74 41 75 45 76
REMARK SMILES IDX 42 77 44 78 43 79
REMARK H PARENT 12 5 16 28 60 47 38 58
REMARK Flexibility Score: inf
ROOT
ATOM      1  C   UNL A   1      34.678  23.745  25.233  1.00  0.00     0.117 C 
ENDROOT
BRANCH   1   2
ATOM      2  N   UNL A   1      33.762  22.625  25.338  1.00  0.00    -0.354 N 
ATOM      3  C   UNL A   1      32.500  22.521  24.822  1.00  0.00     0.252 C 
ATOM      4  O   UNL A   1      31.811  21.530  25.053  1.00  0.00    -0.272 OA
ATOM      5  H   UNL A   1      34.088  21.845  25.842  1.00  0.00     0.163 HD
BRANCH   3   6
ATOM      6  C   UNL A   1      31.972  23.615  23.983  1.00  0.00     0.241 C 
ATOM      7  C   UNL A   1      30.838  24.448  24.537  1.00  0.00     0.188 C 
ATOM      8  O   UNL A   1      30.620  23.447  23.530  1.00  0.00    -0.354 OA
BRANCH   7   9
ATOM      9  C   UNL A   1      30.606  25.870  24.118  1.00  0.00    -0.012 A 
ATOM     10  C   UNL A   1      30.090  28.577  23.484  1.00  0.00     0.161 A 
ATOM     11  C   UNL A   1      29.064  27.628  23.442  1.00  0.00     0.051 A 
ATOM     12  C   UNL A   1      31.387  28.191  23.852  1.00  0.00     0.169 A 
ATOM     13  C   UNL A   1      29.324  26.293  23.745  1.00  0.00     0.010 A 
ATOM     14  C   UNL A   1      31.625  26.837  24.150  1.00  0.00     0.057 A 
BRANCH  10  15
ATOM     15  O   UNL A   1      29.710  29.877  23.302  1.00  0.00    -0.493 OA
ATOM     16  C   UNL A   1      29.385  30.156  21.944  1.00  0.00     0.278 C 
ENDBRANCH  10  15
BRANCH  12  17
ATOM     17  O   UNL A   1      32.526  28.964  23.965  1.00  0.00    -0.453 OA
BRANCH  17  18
ATOM     18  C   UNL A   1      32.957  29.376  25.197  1.00  0.00     0.127 A 
ATOM     19  C   UNL A   1      34.069  28.739  25.748  1.00  0.00     0.047 A 
ATOM     20  C   UNL A   1      32.281  30.365  25.911  1.00  0.00     0.047 A 
ATOM     21  C   UNL A   1      34.574  29.172  26.974  1.00  0.00     0.004 A 
ATOM     22  C   UNL A   1      32.795  30.806  27.129  1.00  0.00     0.004 A 
ATOM     23  C   UNL A   1      33.949  30.219  27.653  1.00  0.00     0.000 A 
ENDBRANCH  17  18
ENDBRANCH  12  17
ENDBRANCH   7   9
ENDBRANCH   3   6
ENDBRANCH   1   2
BRANCH   1  24
ATOM     24  C   UNL A   1      35.998  23.457  25.934  1.00  0.00     0.042 C 
BRANCH  24  25
ATOM     25  C   UNL A   1      37.214  23.549  25.022  1.00  0.00     0.118 C 
BRANCH  25  26
ATOM     26  N   UNL A   1      38.286  22.643  25.414  1.00  0.00    -0.352 N 
ATOM     27  C   UNL A   1      39.436  22.884  26.123  1.00  0.00     0.251 C 
ATOM     28  H   UNL A   1      38.166  21.710  25.124  1.00  0.00     0.163 HD
ATOM     29  O   UNL A   1      40.299  22.014  26.197  1.00  0.00    -0.269 OA
BRANCH  27  30
ATOM     30  C   UNL A   1      39.652  24.191  26.777  1.00  0.00     0.039 A 
ATOM     31  C   UNL A   1      39.150  24.391  28.067  1.00  0.00     0.014 A 
ATOM     32  C   UNL A   1      40.331  25.223  26.126  1.00  0.00     0.014 A 
ATOM     33  C   UNL A   1      39.389  25.600  28.725  1.00  0.00     0.010 A 
ATOM     34  C   UNL A   1      40.650  26.388  26.815  1.00  0.00     0.010 A 
ATOM     35  C   UNL A   1      40.175  26.593  28.119  1.00  0.00    -0.014 A 
BRANCH  35  36
ATOM     36  C   UNL A   1      40.506  27.855  28.827  1.00  0.00     0.031 A 
ATOM     37  C   UNL A   1      41.850  28.030  29.478  1.00  0.00     0.074 A 
ATOM     38  C   UNL A   1      39.575  28.823  28.938  1.00  0.00     0.049 A 
ATOM     39  N   UNL A   1      42.305  29.039  30.178  1.00  0.00    -0.248 NA
ATOM     40  C   UNL A   1      42.799  26.913  29.348  1.00  0.00     0.031 C 
ATOM     41  C   UNL A   1      38.223  28.766  28.380  1.00  0.00     0.029 A 
ATOM     42  N   UNL A   1      39.628  30.044  29.560  1.00  0.00    -0.354 N 
ATOM     43  C   UNL A   1      43.583  28.671  30.582  1.00  0.00     0.074 A 
ATOM     44  C   UNL A   1      43.804  27.324  30.105  1.00  0.00     0.031 C 
ATOM     45  C   UNL A   1      37.590  29.920  28.649  1.00  0.00     0.029 A 
ATOM     46  C   UNL A   1      38.471  30.774  29.438  1.00  0.00     0.049 A 
ATOM     47  H   UNL A   1      40.420  30.367  30.048  1.00  0.00     0.167 HD
ATOM     48  C   UNL A   1      44.500  29.394  31.269  1.00  0.00     0.031 A 
ATOM     49  C   UNL A   1      38.152  31.994  29.910  1.00  0.00     0.031 A 
ATOM     50  C   UNL A   1      44.276  30.731  31.751  1.00  0.00     0.049 A 
ATOM     51  C   UNL A   1      39.168  32.761  30.709  1.00  0.00     0.074 A 
ATOM     52  C   UNL A   1      45.154  31.566  32.419  1.00  0.00     0.029 A 
ATOM     53  N   UNL A   1      43.081  31.425  31.626  1.00  0.00    -0.354 N 
ATOM     54  N   UNL A   1      40.394  32.426  31.028  1.00  0.00    -0.248 NA
ATOM     55  C   UNL A   1      38.755  34.082  31.204  1.00  0.00     0.031 C 
ATOM     56  C   UNL A   1      44.471  32.740  32.755  1.00  0.00     0.029 A 
ATOM     57  C   UNL A   1      43.190  32.668  32.231  1.00  0.00     0.049 A 
ATOM     58  H   UNL A   1      42.276  31.087  31.173  1.00  0.00     0.167 HD
ATOM     59  C   UNL A   1      40.912  33.507  31.732  1.00  0.00     0.074 A 
ATOM     60  C   UNL A   1      39.868  34.512  31.780  1.00  0.00     0.031 C 
ATOM     61  C   UNL A   1      42.143  33.656  32.281  1.00  0.00     0.031 A 
BRANCH  48  62
ATOM     62  C   UNL A   1      45.822  28.732  31.553  1.00  0.00    -0.014 A 
ATOM     63  C   UNL A   1      46.025  27.974  32.719  1.00  0.00     0.009 A 
ATOM     64  C   UNL A   1      46.883  28.870  30.645  1.00  0.00     0.009 A 
ATOM     65  C   UNL A   1      47.276  27.418  32.996  1.00  0.00     0.001 A 
ATOM     66  C   UNL A   1      48.122  28.281  30.905  1.00  0.00     0.001 A 
ATOM     67  C   UNL A   1      48.323  27.570  32.088  1.00  0.00     0.000 A 
ENDBRANCH  48  62
BRANCH  49  68
ATOM     68  C   UNL A   1      36.819  32.579  29.609  1.00  0.00    -0.014 A 
ATOM     69  C   UNL A   1      35.763  32.437  30.523  1.00  0.00     0.009 A 
ATOM     70  C   UNL A   1      36.597  33.291  28.420  1.00  0.00     0.009 A 
ATOM     71  C   UNL A   1      34.506  32.978  30.241  1.00  0.00     0.001 A 
ATOM     72  C   UNL A   1      35.348  33.857  28.156  1.00  0.00     0.001 A 
ATOM     73  C   UNL A   1      34.302  33.693  29.062  1.00  0.00     0.000 A 
ENDBRANCH  49  68
BRANCH  61  74
ATOM     74  C   UNL A   1      42.445  34.971  32.948  1.00  0.00    -0.014 A 
ATOM     75  C   UNL A   1      43.201  35.964  32.307  1.00  0.00     0.009 A 
ATOM     76  C   UNL A   1      41.931  35.229  34.229  1.00  0.00     0.009 A 
ATOM     77  C   UNL A   1      43.466  37.176  32.951  1.00  0.00     0.001 A 
ATOM     78  C   UNL A   1      42.168  36.453  34.855  1.00  0.00     0.001 A 
ATOM     79  C   UNL A   1      42.944  37.421  34.221  1.00  0.00     0.000 A 
ENDBRANCH  61  74
ENDBRANCH  35  36
ENDBRANCH  27  30
ENDBRANCH  25  26
ENDBRANCH  24  25
ENDBRANCH   1  24
TORSDOF 14
ENDMDL
MODEL 3
REMARK VINA RESULT:     -11.3      0.448      5.943
REMARK SMILES COc1ccc([C@H]2O[C@@H]2C(=O)NCCCNC(=O)c2ccc(-c3c4nc(c(-c5ccccc5)c5ccc([nH]5)c(-c5ccccc5)c5nc(c(-c6ccccc6)c6ccc3[nH]6)C=C5)C=C4)cc2)cc1Oc1ccccc1
REMARK SMILES IDX 13 1 12 2 10 3 11 4 9 6 7 7 8 8 6 9 3 10 4 11 68 12 5 13
REMARK SMILES IDX 67 14 2 15 1 16 69 17 70 18 71 19 75 20 72 21 74 22 73 23
REMARK SMILES IDX 14 24 15 25 16 26 17 27 18 29 19 30 20 31 66 32 21 33 65 34
REMARK SMILES IDX 22 35 23 36 24 37 59 38 25 39 64 40 58 41 60 42 26 43 63 44
REMARK SMILES IDX 57 45 56 46 27 48 49 49 34 50 48 51 35 52 38 53 47 54 61 55
REMARK SMILES IDX 36 56 37 57 46 59 62 60 39 61 28 62 29 63 33 64 30 65 32 66
REMARK SMILES IDX 31 67 50 68 51 69 55 70 52 71 54 72 53 73 40 74 41 75 45 76
REMARK SMILES IDX 42 77 44 78 43 79
REMARK H PARENT 12 5 16 28 60 47 38 58
REMARK Flexibility Score: inf
ROOT
ATOM      1  C   UNL A   1      36.702  20.915  24.892  1.00  0.00     0.117 C 
ENDROOT
BRANCH   1   2
ATOM      2  N   UNL A   1      35.623  19.982  25.156  1.00  0.00    -0.354 N 
ATOM      3  C   UNL A   1      34.279  20.191  25.017  1.00  0.00     0.252 C 
ATOM      4  O   UNL A   1      33.475  19.323  25.346  1.00  0.00    -0.272 OA
ATOM      5  H   UNL A   1      35.891  19.089  25.472  1.00  0.00     0.163 HD
BRANCH   3   6
ATOM      6  C   UNL A   1      33.803  21.476  24.468  1.00  0.00     0.241 C 
ATOM      7  C   UNL A   1      32.311  21.722  24.432  1.00  0.00     0.188 C 
ATOM      8  O   UNL A   1      33.050  21.384  23.248  1.00  0.00    -0.354 OA
BRANCH   7   9
ATOM      9  C   UNL A   1      31.722  23.102  24.475  1.00  0.00    -0.012 A 
ATOM     10  C   UNL A   1      30.458  25.627  24.593  1.00  0.00     0.161 A 
ATOM     11  C   UNL A   1      30.272  24.789  23.490  1.00  0.00     0.051 A 
ATOM     12  C   UNL A   1      31.270  25.214  25.658  1.00  0.00     0.169 A 
ATOM     13  C   UNL A   1      30.905  23.549  23.429  1.00  0.00     0.010 A 
ATOM     14  C   UNL A   1      31.901  23.960  25.573  1.00  0.00     0.057 A 
BRANCH  10  15
ATOM     15  O   UNL A   1      29.692  26.759  24.619  1.00  0.00    -0.493 OA
ATOM     16  C   UNL A   1      29.557  27.347  23.329  1.00  0.00     0.278 C 
ENDBRANCH  10  15
BRANCH  12  17
ATOM     17  O   UNL A   1      31.572  25.878  26.831  1.00  0.00    -0.453 OA
BRANCH  17  18
ATOM     18  C   UNL A   1      32.156  27.115  26.791  1.00  0.00     0.127 A 
ATOM     19  C   UNL A   1      33.413  27.226  26.197  1.00  0.00     0.047 A 
ATOM     20  C   UNL A   1      31.546  28.226  27.372  1.00  0.00     0.047 A 
ATOM     21  C   UNL A   1      34.014  28.480  26.085  1.00  0.00     0.004 A 
ATOM     22  C   UNL A   1      32.141  29.481  27.246  1.00  0.00     0.004 A 
ATOM     23  C   UNL A   1      33.367  29.609  26.590  1.00  0.00     0.000 A 
ENDBRANCH  17  18
ENDBRANCH  12  17
ENDBRANCH   7   9
ENDBRANCH   3   6
ENDBRANCH   1   2
BRANCH   1  24
ATOM     24  C   UNL A   1      38.038  20.201  24.747  1.00  0.00     0.042 C 
BRANCH  24  25
ATOM     25  C   UNL A   1      38.844  20.127  26.037  1.00  0.00     0.118 C 
BRANCH  25  26
ATOM     26  N   UNL A   1      40.006  19.255  25.930  1.00  0.00    -0.352 N 
ATOM     27  C   UNL A   1      41.343  19.540  26.054  1.00  0.00     0.251 C 
ATOM     28  H   UNL A   1      39.799  18.311  25.739  1.00  0.00     0.163 HD
ATOM     29  O   UNL A   1      42.177  18.690  25.753  1.00  0.00    -0.269 OA
BRANCH  27  30
ATOM     30  C   UNL A   1      41.784  20.870  26.523  1.00  0.00     0.039 A 
ATOM     31  C   UNL A   1      42.152  21.830  25.576  1.00  0.00     0.014 A 
ATOM     32  C   UNL A   1      41.853  21.171  27.884  1.00  0.00     0.014 A 
ATOM     33  C   UNL A   1      42.521  23.111  25.994  1.00  0.00     0.010 A 
ATOM     34  C   UNL A   1      42.128  22.471  28.294  1.00  0.00     0.010 A 
ATOM     35  C   UNL A   1      42.474  23.453  27.355  1.00  0.00    -0.014 A 
BRANCH  35  36
ATOM     36  C   UNL A   1      42.789  24.828  27.817  1.00  0.00     0.031 A 
ATOM     37  C   UNL A   1      44.215  25.241  28.057  1.00  0.00     0.074 A 
ATOM     38  C   UNL A   1      41.788  25.690  28.079  1.00  0.00     0.049 A 
ATOM     39  N   UNL A   1      44.683  26.380  28.503  1.00  0.00    -0.248 NA
ATOM     40  C   UNL A   1      45.251  24.231  27.786  1.00  0.00     0.031 C 
ATOM     41  C   UNL A   1      40.360  25.406  27.918  1.00  0.00     0.029 A 
ATOM     42  N   UNL A   1      41.820  26.982  28.538  1.00  0.00    -0.354 N 
ATOM     43  C   UNL A   1      46.060  26.217  28.579  1.00  0.00     0.074 A 
ATOM     44  C   UNL A   1      46.345  24.852  28.197  1.00  0.00     0.031 C 
ATOM     45  C   UNL A   1      39.657  26.505  28.232  1.00  0.00     0.029 A 
ATOM     46  C   UNL A   1      40.577  27.553  28.663  1.00  0.00     0.049 A 
ATOM     47  H   UNL A   1      42.655  27.456  28.757  1.00  0.00     0.167 HD
ATOM     48  C   UNL A   1      47.007  27.126  28.915  1.00  0.00     0.031 A 
ATOM     49  C   UNL A   1      40.216  28.781  29.079  1.00  0.00     0.031 A 
ATOM     50  C   UNL A   1      46.723  28.481  29.305  1.00  0.00     0.049 A 
ATOM     51  C   UNL A   1      41.280  29.759  29.492  1.00  0.00     0.074 A 
ATOM     52  C   UNL A   1      47.612  29.493  29.623  1.00  0.00     0.029 A 
ATOM     53  N   UNL A   1      45.448  29.012  29.440  1.00  0.00    -0.354 N 
ATOM     54  N   UNL A   1      42.582  29.612  29.498  1.00  0.00    -0.248 NA
ATOM     55  C   UNL A   1      40.819  31.079  29.946  1.00  0.00     0.031 C 
ATOM     56  C   UNL A   1      46.875  30.616  30.012  1.00  0.00     0.029 A 
ATOM     57  C   UNL A   1      45.527  30.329  29.866  1.00  0.00     0.049 A 
ATOM     58  H   UNL A   1      44.612  28.526  29.259  1.00  0.00     0.167 HD
ATOM     59  C   UNL A   1      43.100  30.829  29.923  1.00  0.00     0.074 A 
ATOM     60  C   UNL A   1      41.969  31.707  30.153  1.00  0.00     0.031 C 
ATOM     61  C   UNL A   1      44.395  31.189  30.100  1.00  0.00     0.031 A 
BRANCH  48  62
ATOM     62  C   UNL A   1      48.440  26.662  28.895  1.00  0.00    -0.014 A 
ATOM     63  C   UNL A   1      49.037  26.077  30.024  1.00  0.00     0.009 A 
ATOM     64  C   UNL A   1      49.208  26.815  27.730  1.00  0.00     0.009 A 
ATOM     65  C   UNL A   1      50.384  25.709  30.007  1.00  0.00     0.001 A 
ATOM     66  C   UNL A   1      50.545  26.412  27.702  1.00  0.00     0.001 A 
ATOM     67  C   UNL A   1      51.136  25.874  28.845  1.00  0.00     0.000 A 
ENDBRANCH  48  62
BRANCH  49  68
ATOM     68  C   UNL A   1      38.780  29.165  29.095  1.00  0.00    -0.014 A 
ATOM     69  C   UNL A   1      38.179  29.702  27.944  1.00  0.00     0.009 A 
ATOM     70  C   UNL A   1      37.999  28.987  30.247  1.00  0.00     0.009 A 
ATOM     71  C   UNL A   1      36.832  30.071  27.956  1.00  0.00     0.001 A 
ATOM     72  C   UNL A   1      36.645  29.329  30.246  1.00  0.00     0.001 A 
ATOM     73  C   UNL A   1      36.065  29.878  29.104  1.00  0.00     0.000 A 
ENDBRANCH  49  68
BRANCH  61  74
ATOM     74  C   UNL A   1      44.664  32.608  30.525  1.00  0.00    -0.014 A 
ATOM     75  C   UNL A   1      44.781  32.960  31.878  1.00  0.00     0.009 A 
ATOM     76  C   UNL A   1      44.838  33.601  29.547  1.00  0.00     0.009 A 
ATOM     77  C   UNL A   1      45.031  34.286  32.244  1.00  0.00     0.001 A 
ATOM     78  C   UNL A   1      45.122  34.917  29.915  1.00  0.00     0.001 A 
ATOM     79  C   UNL A   1      45.207  35.260  31.262  1.00  0.00     0.000 A 
ENDBRANCH  61  74
ENDBRANCH  35  36
ENDBRANCH  27  30
ENDBRANCH  25  26
ENDBRANCH  24  25
ENDBRANCH   1  24
TORSDOF 14
ENDMDL
