MODEL 1
REMARK VINA RESULT:     -11.9      0.000      0.000
REMARK SMILES CCn1nc(C)c(NS(=O)(=O)c2cc(C(=O)NCCCNC(=O)c3ccc(-c4c5nc(c(-c6ccccc6)c6ccc([nH]6)c(-c6ccccc6)c6nc(c(-c7ccccc7)c7ccc4[nH]7)C=C6)C=C5)cc3)cc(F)c2C)c1C
REMARK SMILES IDX 18 1 17 2 15 3 16 4 14 6 12 7 13 8 75 9 73 10 76 11 72 12
REMARK SMILES IDX 74 13 9 14 10 15 11 16 8 17 7 19 3 20 4 21 77 22 5 23 78 24
REMARK SMILES IDX 6 25 2 26 1 27 19 28 20 29 21 30 22 31 23 33 24 34 25 35
REMARK SMILES IDX 71 36 26 37 70 38 27 39 28 40 29 41 64 42 30 43 69 44 63 45
REMARK SMILES IDX 65 46 31 47 68 48 62 49 61 50 32 52 54 53 39 54 53 55 40 56
REMARK SMILES IDX 43 57 52 58 66 59 41 60 42 61 51 63 67 64 44 65 33 66 34 67
REMARK SMILES IDX 38 68 35 69 37 70 36 71 55 72 56 73 60 74 57 75 59 76 58 77
REMARK SMILES IDX 45 78 46 79 50 80 47 81 49 82 48 83
REMARK H PARENT 17 5 8 18 21 32 65 51 43 62
REMARK Flexibility Score: inf
ROOT
ATOM      1  C   UNL A   1      31.646  30.723  25.869  1.00  0.00     0.118 C 
ENDROOT
BRANCH   1   2
ATOM      2  N   UNL A   1      32.827  30.060  26.420  1.00  0.00    -0.352 N 
ATOM      3  C   UNL A   1      33.281  28.763  26.359  1.00  0.00     0.251 C 
ATOM      4  O   UNL A   1      34.367  28.501  26.873  1.00  0.00    -0.269 OA
ATOM      5  H   UNL A   1      33.412  30.661  26.936  1.00  0.00     0.163 HD
BRANCH   3   6
ATOM      6  C   UNL A   1      32.542  27.685  25.652  1.00  0.00     0.044 A 
ATOM      7  C   UNL A   1      32.342  26.031  23.862  1.00  0.00     0.094 A 
ATOM      8  C   UNL A   1      32.958  27.160  24.436  1.00  0.00     0.036 A 
ATOM      9  C   UNL A   1      31.233  25.447  24.485  1.00  0.00     0.005 A 
ATOM     10  C   UNL A   1      30.734  26.090  25.631  1.00  0.00     0.128 A 
ATOM     11  C   UNL A   1      30.504  24.228  24.008  1.00  0.00     0.049 C 
ATOM     12  C   UNL A   1      31.374  27.182  26.219  1.00  0.00     0.053 A 
ATOM     13  F   UNL A   1      29.609  25.636  26.202  1.00  0.00    -0.207 F 
BRANCH   7  14
ATOM     14  S   UNL A   1      33.149  25.423  22.399  1.00  0.00     0.262 S 
ATOM     15  O   UNL A   1      34.060  26.466  21.989  1.00  0.00    -0.201 OA
ATOM     16  O   UNL A   1      32.112  24.967  21.488  1.00  0.00    -0.201 OA
BRANCH  14  17
ATOM     17  N   UNL A   1      34.093  24.098  22.740  1.00  0.00    -0.276 N 
ATOM     18  H   UNL A   1      34.945  24.063  22.248  1.00  0.00     0.180 HD
BRANCH  17  19
ATOM     19  C   UNL A   1      33.877  23.030  23.607  1.00  0.00     0.093 A 
ATOM     20  N   UNL A   1      33.933  21.919  25.498  1.00  0.00    -0.268 N 
ATOM     21  N   UNL A   1      33.067  21.228  24.738  1.00  0.00    -0.176 NA
ATOM     22  C   UNL A   1      34.545  22.935  24.814  1.00  0.00     0.060 A 
ATOM     23  C   UNL A   1      33.058  21.869  23.561  1.00  0.00     0.084 A 
ATOM     24  C   UNL A   1      35.673  23.743  25.350  1.00  0.00     0.069 C 
ATOM     25  C   UNL A   1      32.232  21.294  22.473  1.00  0.00     0.071 C 
BRANCH  20  26
ATOM     26  C   UNL A   1      34.111  21.598  26.904  1.00  0.00     0.141 C 
ATOM     27  C   UNL A   1      33.238  22.371  27.879  1.00  0.00     0.029 C 
ENDBRANCH  20  26
ENDBRANCH  17  19
ENDBRANCH  14  17
ENDBRANCH   7  14
ENDBRANCH   3   6
ENDBRANCH   1   2
BRANCH   1  28
ATOM     28  C   UNL A   1      31.398  32.086  26.534  1.00  0.00     0.042 C 
BRANCH  28  29
ATOM     29  C   UNL A   1      32.627  32.588  27.275  1.00  0.00     0.118 C 
BRANCH  29  30
ATOM     30  N   UNL A   1      32.431  33.933  27.825  1.00  0.00    -0.352 N 
ATOM     31  C   UNL A   1      33.105  34.559  28.851  1.00  0.00     0.251 C 
ATOM     32  H   UNL A   1      31.716  34.462  27.401  1.00  0.00     0.163 HD
ATOM     33  O   UNL A   1      32.612  35.522  29.428  1.00  0.00    -0.269 OA
BRANCH  31  34
ATOM     34  C   UNL A   1      34.430  34.060  29.249  1.00  0.00     0.039 A 
ATOM     35  C   UNL A   1      34.585  33.186  30.330  1.00  0.00     0.014 A 
ATOM     36  C   UNL A   1      35.533  34.471  28.507  1.00  0.00     0.014 A 
ATOM     37  C   UNL A   1      35.851  32.674  30.598  1.00  0.00     0.010 A 
ATOM     38  C   UNL A   1      36.733  33.830  28.653  1.00  0.00     0.010 A 
ATOM     39  C   UNL A   1      36.916  32.984  29.736  1.00  0.00    -0.014 A 
BRANCH  39  40
ATOM     40  C   UNL A   1      38.202  32.314  29.862  1.00  0.00     0.031 A 
ATOM     41  C   UNL A   1      38.166  30.889  29.444  1.00  0.00     0.074 A 
ATOM     42  C   UNL A   1      39.362  32.962  30.110  1.00  0.00     0.049 A 
ATOM     43  N   UNL A   1      38.269  29.854  30.207  1.00  0.00    -0.248 NA
ATOM     44  C   UNL A   1      37.806  30.572  28.050  1.00  0.00     0.031 C 
ATOM     45  C   UNL A   1      39.600  34.405  30.221  1.00  0.00     0.029 A 
ATOM     46  N   UNL A   1      40.619  32.455  30.196  1.00  0.00    -0.354 N 
ATOM     47  C   UNL A   1      38.219  28.753  29.360  1.00  0.00     0.074 A 
ATOM     48  C   UNL A   1      37.726  29.241  28.097  1.00  0.00     0.031 C 
ATOM     49  C   UNL A   1      40.923  34.657  30.092  1.00  0.00     0.029 A 
ATOM     50  C   UNL A   1      41.636  33.394  30.060  1.00  0.00     0.049 A 
ATOM     51  H   UNL A   1      40.798  31.497  30.343  1.00  0.00     0.167 HD
ATOM     52  C   UNL A   1      38.867  27.599  29.681  1.00  0.00     0.031 A 
ATOM     53  C   UNL A   1      42.960  33.138  29.890  1.00  0.00     0.031 A 
ATOM     54  C   UNL A   1      39.233  27.570  31.078  1.00  0.00     0.049 A 
ATOM     55  C   UNL A   1      43.194  31.745  30.342  1.00  0.00     0.074 A 
ATOM     56  C   UNL A   1      38.534  27.717  32.263  1.00  0.00     0.029 A 
ATOM     57  N   UNL A   1      40.551  27.817  31.391  1.00  0.00    -0.354 N 
ATOM     58  N   UNL A   1      43.090  31.373  31.586  1.00  0.00    -0.248 NA
ATOM     59  C   UNL A   1      43.060  30.685  29.355  1.00  0.00     0.031 C 
ATOM     60  C   UNL A   1      39.370  28.541  33.076  1.00  0.00     0.029 A 
ATOM     61  C   UNL A   1      40.565  28.756  32.389  1.00  0.00     0.049 A 
ATOM     62  H   UNL A   1      41.337  27.396  30.974  1.00  0.00     0.167 HD
ATOM     63  C   UNL A   1      42.424  30.158  31.527  1.00  0.00     0.074 A 
ATOM     64  C   UNL A   1      42.508  29.743  30.125  1.00  0.00     0.031 C 
ATOM     65  C   UNL A   1      41.604  29.749  32.542  1.00  0.00     0.031 A 
BRANCH  52  66
ATOM     66  C   UNL A   1      39.568  26.741  28.656  1.00  0.00    -0.014 A 
ATOM     67  C   UNL A   1      40.519  27.344  27.814  1.00  0.00     0.009 A 
ATOM     68  C   UNL A   1      39.125  25.456  28.288  1.00  0.00     0.009 A 
ATOM     69  C   UNL A   1      40.931  26.730  26.625  1.00  0.00     0.001 A 
ATOM     70  C   UNL A   1      39.567  24.821  27.126  1.00  0.00     0.001 A 
ATOM     71  C   UNL A   1      40.447  25.474  26.277  1.00  0.00     0.000 A 
ENDBRANCH  52  66
BRANCH  53  72
ATOM     72  C   UNL A   1      43.977  33.885  29.109  1.00  0.00    -0.014 A 
ATOM     73  C   UNL A   1      45.226  34.194  29.676  1.00  0.00     0.009 A 
ATOM     74  C   UNL A   1      43.843  34.043  27.719  1.00  0.00     0.009 A 
ATOM     75  C   UNL A   1      46.311  34.586  28.878  1.00  0.00     0.001 A 
ATOM     76  C   UNL A   1      44.923  34.440  26.921  1.00  0.00     0.001 A 
ATOM     77  C   UNL A   1      46.163  34.692  27.498  1.00  0.00     0.000 A 
ENDBRANCH  53  72
BRANCH  65  78
ATOM     78  C   UNL A   1      41.600  30.534  33.833  1.00  0.00    -0.014 A 
ATOM     79  C   UNL A   1      40.772  31.645  34.070  1.00  0.00     0.009 A 
ATOM     80  C   UNL A   1      42.344  30.022  34.908  1.00  0.00     0.009 A 
ATOM     81  C   UNL A   1      40.712  32.238  35.338  1.00  0.00     0.001 A 
ATOM     82  C   UNL A   1      42.268  30.600  36.176  1.00  0.00     0.001 A 
ATOM     83  C   UNL A   1      41.457  31.711  36.390  1.00  0.00     0.000 A 
ENDBRANCH  65  78
ENDBRANCH  39  40
ENDBRANCH  31  34
ENDBRANCH  29  30
ENDBRANCH  28  29
ENDBRANCH   1  28
TORSDOF 14
ENDMDL
MODEL 2
REMARK VINA RESULT:     -11.7      2.425      5.929
REMARK SMILES CCn1nc(C)c(NS(=O)(=O)c2cc(C(=O)NCCCNC(=O)c3ccc(-c4c5nc(c(-c6ccccc6)c6ccc([nH]6)c(-c6ccccc6)c6nc(c(-c7ccccc7)c7ccc4[nH]7)C=C6)C=C5)cc3)cc(F)c2C)c1C
REMARK SMILES IDX 18 1 17 2 15 3 16 4 14 6 12 7 13 8 75 9 73 10 76 11 72 12
REMARK SMILES IDX 74 13 9 14 10 15 11 16 8 17 7 19 3 20 4 21 77 22 5 23 78 24
REMARK SMILES IDX 6 25 2 26 1 27 19 28 20 29 21 30 22 31 23 33 24 34 25 35
REMARK SMILES IDX 71 36 26 37 70 38 27 39 28 40 29 41 64 42 30 43 69 44 63 45
REMARK SMILES IDX 65 46 31 47 68 48 62 49 61 50 32 52 54 53 39 54 53 55 40 56
REMARK SMILES IDX 43 57 52 58 66 59 41 60 42 61 51 63 67 64 44 65 33 66 34 67
REMARK SMILES IDX 38 68 35 69 37 70 36 71 55 72 56 73 60 74 57 75 59 76 58 77
REMARK SMILES IDX 45 78 46 79 50 80 47 81 49 82 48 83
REMARK H PARENT 17 5 8 18 21 32 65 51 43 62
REMARK Flexibility Score: inf
ROOT
ATOM      1  C   UNL A   1      33.276  28.774  24.369  1.00  0.00     0.118 C 
ENDROOT
BRANCH   1   2
ATOM      2  N   UNL A   1      32.262  28.818  23.316  1.00  0.00    -0.352 N 
ATOM      3  C   UNL A   1      31.313  27.914  22.898  1.00  0.00     0.251 C 
ATOM      4  O   UNL A   1      30.533  28.256  22.010  1.00  0.00    -0.269 OA
ATOM      5  H   UNL A   1      32.259  29.660  22.806  1.00  0.00     0.163 HD
BRANCH   3   6
ATOM      6  C   UNL A   1      31.157  26.570  23.513  1.00  0.00     0.044 A 
ATOM      7  C   UNL A   1      31.771  24.212  23.712  1.00  0.00     0.094 A 
ATOM      8  C   UNL A   1      31.798  25.440  23.024  1.00  0.00     0.036 A 
ATOM      9  C   UNL A   1      31.025  24.087  24.890  1.00  0.00     0.005 A 
ATOM     10  C   UNL A   1      30.258  25.198  25.280  1.00  0.00     0.128 A 
ATOM     11  C   UNL A   1      30.935  22.856  25.740  1.00  0.00     0.049 C 
ATOM     12  C   UNL A   1      30.323  26.425  24.619  1.00  0.00     0.053 A 
ATOM     13  F   UNL A   1      29.441  25.094  26.338  1.00  0.00    -0.207 F 
BRANCH   7  14
ATOM     14  S   UNL A   1      32.806  22.953  23.002  1.00  0.00     0.262 S 
ATOM     15  O   UNL A   1      33.689  23.639  22.087  1.00  0.00    -0.201 OA
ATOM     16  O   UNL A   1      31.934  21.897  22.513  1.00  0.00    -0.201 OA
BRANCH  14  17
ATOM     17  N   UNL A   1      33.785  22.260  24.152  1.00  0.00    -0.276 N 
ATOM     18  H   UNL A   1      33.553  21.331  24.384  1.00  0.00     0.180 HD
BRANCH  17  19
ATOM     19  C   UNL A   1      34.880  22.776  24.841  1.00  0.00     0.093 A 
ATOM     20  N   UNL A   1      36.929  22.842  25.621  1.00  0.00    -0.268 N 
ATOM     21  N   UNL A   1      36.475  24.094  25.789  1.00  0.00    -0.176 NA
ATOM     22  C   UNL A   1      35.960  21.981  25.176  1.00  0.00     0.060 A 
ATOM     23  C   UNL A   1      35.206  24.058  25.359  1.00  0.00     0.084 A 
ATOM     24  C   UNL A   1      36.133  20.508  25.075  1.00  0.00     0.069 C 
ATOM     25  C   UNL A   1      34.405  25.299  25.483  1.00  0.00     0.071 C 
BRANCH  20  26
ATOM     26  C   UNL A   1      38.326  22.516  25.856  1.00  0.00     0.141 C 
ATOM     27  C   UNL A   1      39.131  23.554  26.620  1.00  0.00     0.029 C 
ENDBRANCH  20  26
ENDBRANCH  17  19
ENDBRANCH  14  17
ENDBRANCH   7  14
ENDBRANCH   3   6
ENDBRANCH   1   2
BRANCH   1  28
ATOM     28  C   UNL A   1      32.672  29.068  25.751  1.00  0.00     0.042 C 
BRANCH  28  29
ATOM     29  C   UNL A   1      33.743  29.401  26.778  1.00  0.00     0.118 C 
BRANCH  29  30
ATOM     30  N   UNL A   1      34.003  30.842  26.857  1.00  0.00    -0.352 N 
ATOM     31  C   UNL A   1      34.937  31.516  27.615  1.00  0.00     0.251 C 
ATOM     32  H   UNL A   1      33.429  31.406  26.290  1.00  0.00     0.163 HD
ATOM     33  O   UNL A   1      34.808  32.713  27.847  1.00  0.00    -0.269 OA
BRANCH  31  34
ATOM     34  C   UNL A   1      36.098  30.783  28.142  1.00  0.00     0.039 A 
ATOM     35  C   UNL A   1      36.274  29.419  27.889  1.00  0.00     0.014 A 
ATOM     36  C   UNL A   1      37.033  31.490  28.892  1.00  0.00     0.014 A 
ATOM     37  C   UNL A   1      37.439  28.802  28.333  1.00  0.00     0.010 A 
ATOM     38  C   UNL A   1      38.253  30.933  29.165  1.00  0.00     0.010 A 
ATOM     39  C   UNL A   1      38.436  29.576  28.952  1.00  0.00    -0.014 A 
BRANCH  39  40
ATOM     40  C   UNL A   1      39.746  29.014  29.248  1.00  0.00     0.031 A 
ATOM     41  C   UNL A   1      40.047  28.960  30.701  1.00  0.00     0.074 A 
ATOM     42  C   UNL A   1      40.518  28.394  28.329  1.00  0.00     0.049 A 
ATOM     43  N   UNL A   1      40.911  29.671  31.341  1.00  0.00    -0.248 NA
ATOM     44  C   UNL A   1      39.176  28.149  31.573  1.00  0.00     0.031 C 
ATOM     45  C   UNL A   1      40.207  28.083  26.929  1.00  0.00     0.029 A 
ATOM     46  N   UNL A   1      41.723  27.789  28.498  1.00  0.00    -0.354 N 
ATOM     47  C   UNL A   1      40.859  29.236  32.660  1.00  0.00     0.074 A 
ATOM     48  C   UNL A   1      39.646  28.466  32.780  1.00  0.00     0.031 C 
ATOM     49  C   UNL A   1      41.063  27.140  26.474  1.00  0.00     0.029 A 
ATOM     50  C   UNL A   1      42.077  26.905  27.484  1.00  0.00     0.049 A 
ATOM     51  H   UNL A   1      42.301  27.963  29.277  1.00  0.00     0.167 HD
ATOM     52  C   UNL A   1      41.962  29.296  33.456  1.00  0.00     0.031 A 
ATOM     53  C   UNL A   1      43.107  26.018  27.505  1.00  0.00     0.031 A 
ATOM     54  C   UNL A   1      42.970  30.165  32.897  1.00  0.00     0.049 A 
ATOM     55  C   UNL A   1      44.050  26.471  28.556  1.00  0.00     0.074 A 
ATOM     56  C   UNL A   1      42.984  31.483  32.477  1.00  0.00     0.029 A 
ATOM     57  N   UNL A   1      44.051  29.569  32.286  1.00  0.00    -0.354 N 
ATOM     58  N   UNL A   1      44.749  27.566  28.461  1.00  0.00    -0.248 NA
ATOM     59  C   UNL A   1      43.845  25.970  29.906  1.00  0.00     0.031 C 
ATOM     60  C   UNL A   1      43.729  31.467  31.259  1.00  0.00     0.029 A 
ATOM     61  C   UNL A   1      44.215  30.173  31.067  1.00  0.00     0.049 A 
ATOM     62  H   UNL A   1      44.603  28.844  32.658  1.00  0.00     0.167 HD
ATOM     63  C   UNL A   1      44.669  28.135  29.724  1.00  0.00     0.074 A 
ATOM     64  C   UNL A   1      44.174  27.067  30.595  1.00  0.00     0.031 C 
ATOM     65  C   UNL A   1      44.714  29.491  29.895  1.00  0.00     0.031 A 
BRANCH  52  66
ATOM     66  C   UNL A   1      42.304  28.225  34.464  1.00  0.00    -0.014 A 
ATOM     67  C   UNL A   1      42.814  27.001  33.996  1.00  0.00     0.009 A 
ATOM     68  C   UNL A   1      41.872  28.256  35.804  1.00  0.00     0.009 A 
ATOM     69  C   UNL A   1      42.806  25.854  34.799  1.00  0.00     0.001 A 
ATOM     70  C   UNL A   1      41.903  27.126  36.623  1.00  0.00     0.001 A 
ATOM     71  C   UNL A   1      42.342  25.915  36.108  1.00  0.00     0.000 A 
ENDBRANCH  52  66
BRANCH  53  72
ATOM     72  C   UNL A   1      43.204  24.665  26.901  1.00  0.00    -0.014 A 
ATOM     73  C   UNL A   1      42.807  23.529  27.629  1.00  0.00     0.009 A 
ATOM     74  C   UNL A   1      43.408  24.508  25.519  1.00  0.00     0.009 A 
ATOM     75  C   UNL A   1      42.567  22.304  26.990  1.00  0.00     0.001 A 
ATOM     76  C   UNL A   1      43.174  23.284  24.881  1.00  0.00     0.001 A 
ATOM     77  C   UNL A   1      42.734  22.186  25.613  1.00  0.00     0.000 A 
ENDBRANCH  53  72
BRANCH  65  78
ATOM     78  C   UNL A   1      45.073  30.360  28.712  1.00  0.00    -0.014 A 
ATOM     79  C   UNL A   1      44.138  30.827  27.772  1.00  0.00     0.009 A 
ATOM     80  C   UNL A   1      46.383  30.861  28.647  1.00  0.00     0.009 A 
ATOM     81  C   UNL A   1      44.511  31.746  26.783  1.00  0.00     0.001 A 
ATOM     82  C   UNL A   1      46.750  31.794  27.675  1.00  0.00     0.001 A 
ATOM     83  C   UNL A   1      45.816  32.232  26.740  1.00  0.00     0.000 A 
ENDBRANCH  65  78
ENDBRANCH  39  40
ENDBRANCH  31  34
ENDBRANCH  29  30
ENDBRANCH  28  29
ENDBRANCH   1  28
TORSDOF 14
ENDMDL
MODEL 3
REMARK VINA RESULT:     -11.6      3.699      5.310
REMARK SMILES CCn1nc(C)c(NS(=O)(=O)c2cc(C(=O)NCCCNC(=O)c3ccc(-c4c5nc(c(-c6ccccc6)c6ccc([nH]6)c(-c6ccccc6)c6nc(c(-c7ccccc7)c7ccc4[nH]7)C=C6)C=C5)cc3)cc(F)c2C)c1C
REMARK SMILES IDX 18 1 17 2 15 3 16 4 14 6 12 7 13 8 75 9 73 10 76 11 72 12
REMARK SMILES IDX 74 13 9 14 10 15 11 16 8 17 7 19 3 20 4 21 77 22 5 23 78 24
REMARK SMILES IDX 6 25 2 26 1 27 19 28 20 29 21 30 22 31 23 33 24 34 25 35
REMARK SMILES IDX 71 36 26 37 70 38 27 39 28 40 29 41 64 42 30 43 69 44 63 45
REMARK SMILES IDX 65 46 31 47 68 48 62 49 61 50 32 52 54 53 39 54 53 55 40 56
REMARK SMILES IDX 43 57 52 58 66 59 41 60 42 61 51 63 67 64 44 65 33 66 34 67
REMARK SMILES IDX 38 68 35 69 37 70 36 71 55 72 56 73 60 74 57 75 59 76 58 77
REMARK SMILES IDX 45 78 46 79 50 80 47 81 49 82 48 83
REMARK H PARENT 17 5 8 18 21 32 65 51 43 62
REMARK Flexibility Score: inf
ROOT
ATOM      1  C   UNL A   1      33.190  29.793  26.597  1.00  0.00     0.118 C 
ENDROOT
BRANCH   1   2
ATOM      2  N   UNL A   1      33.263  29.698  25.140  1.00  0.00    -0.352 N 
ATOM      3  C   UNL A   1      33.003  28.675  24.259  1.00  0.00     0.251 C 
ATOM      4  O   UNL A   1      33.089  28.907  23.054  1.00  0.00    -0.269 OA
ATOM      5  H   UNL A   1      33.557  30.531  24.704  1.00  0.00     0.163 HD
BRANCH   3   6
ATOM      6  C   UNL A   1      32.571  27.324  24.701  1.00  0.00     0.044 A 
ATOM      7  C   UNL A   1      33.054  25.022  25.370  1.00  0.00     0.094 A 
ATOM      8  C   UNL A   1      33.443  26.247  24.795  1.00  0.00     0.036 A 
ATOM      9  C   UNL A   1      31.736  24.839  25.803  1.00  0.00     0.005 A 
ATOM     10  C   UNL A   1      30.832  25.887  25.554  1.00  0.00     0.128 A 
ATOM     11  C   UNL A   1      31.195  23.607  26.462  1.00  0.00     0.049 C 
ATOM     12  C   UNL A   1      31.232  27.114  25.025  1.00  0.00     0.053 A 
ATOM     13  F   UNL A   1      29.535  25.720  25.849  1.00  0.00    -0.207 F 
BRANCH   7  14
ATOM     14  S   UNL A   1      34.377  23.848  25.552  1.00  0.00     0.262 S 
ATOM     15  O   UNL A   1      34.312  23.391  26.921  1.00  0.00    -0.201 OA
ATOM     16  O   UNL A   1      35.589  24.477  25.054  1.00  0.00    -0.201 OA
BRANCH  14  17
ATOM     17  N   UNL A   1      34.122  22.504  24.608  1.00  0.00    -0.276 N 
ATOM     18  H   UNL A   1      33.535  22.652  23.831  1.00  0.00     0.180 HD
BRANCH  17  19
ATOM     19  C   UNL A   1      34.601  21.203  24.735  1.00  0.00     0.093 A 
ATOM     20  N   UNL A   1      34.565  19.013  24.604  1.00  0.00    -0.268 N 
ATOM     21  N   UNL A   1      35.859  19.306  24.814  1.00  0.00    -0.176 NA
ATOM     22  C   UNL A   1      33.752  20.113  24.682  1.00  0.00     0.060 A 
ATOM     23  C   UNL A   1      35.890  20.640  24.943  1.00  0.00     0.084 A 
ATOM     24  C   UNL A   1      32.267  20.056  24.670  1.00  0.00     0.069 C 
ATOM     25  C   UNL A   1      37.196  21.268  25.254  1.00  0.00     0.071 C 
BRANCH  20  26
ATOM     26  C   UNL A   1      34.150  17.658  24.283  1.00  0.00     0.141 C 
ATOM     27  C   UNL A   1      34.974  16.544  24.907  1.00  0.00     0.029 C 
ENDBRANCH  20  26
ENDBRANCH  17  19
ENDBRANCH  14  17
ENDBRANCH   7  14
ENDBRANCH   3   6
ENDBRANCH   1   2
BRANCH   1  28
ATOM     28  C   UNL A   1      34.296  28.971  27.277  1.00  0.00     0.042 C 
BRANCH  28  29
ATOM     29  C   UNL A   1      35.501  29.827  27.633  1.00  0.00     0.118 C 
BRANCH  29  30
ATOM     30  N   UNL A   1      35.595  30.077  29.075  1.00  0.00    -0.352 N 
ATOM     31  C   UNL A   1      36.516  29.597  29.982  1.00  0.00     0.251 C 
ATOM     32  H   UNL A   1      34.902  30.670  29.446  1.00  0.00     0.163 HD
ATOM     33  O   UNL A   1      36.270  29.599  31.183  1.00  0.00    -0.269 OA
BRANCH  31  34
ATOM     34  C   UNL A   1      37.804  29.083  29.492  1.00  0.00     0.039 A 
ATOM     35  C   UNL A   1      38.441  29.651  28.384  1.00  0.00     0.014 A 
ATOM     36  C   UNL A   1      38.385  28.019  30.175  1.00  0.00     0.014 A 
ATOM     37  C   UNL A   1      39.703  29.184  28.028  1.00  0.00     0.010 A 
ATOM     38  C   UNL A   1      39.692  27.688  29.941  1.00  0.00     0.010 A 
ATOM     39  C   UNL A   1      40.331  28.215  28.829  1.00  0.00    -0.014 A 
BRANCH  39  40
ATOM     40  C   UNL A   1      41.722  27.848  28.609  1.00  0.00     0.031 A 
ATOM     41  C   UNL A   1      41.883  26.554  27.899  1.00  0.00     0.074 A 
ATOM     42  C   UNL A   1      42.759  28.690  28.816  1.00  0.00     0.049 A 
ATOM     43  N   UNL A   1      42.332  25.450  28.391  1.00  0.00    -0.248 NA
ATOM     44  C   UNL A   1      41.327  26.421  26.540  1.00  0.00     0.031 C 
ATOM     45  C   UNL A   1      42.728  30.104  29.204  1.00  0.00     0.029 A 
ATOM     46  N   UNL A   1      44.083  28.479  28.599  1.00  0.00    -0.354 N 
ATOM     47  C   UNL A   1      42.333  24.540  27.341  1.00  0.00     0.074 A 
ATOM     48  C   UNL A   1      41.519  25.122  26.304  1.00  0.00     0.031 C 
ATOM     49  C   UNL A   1      43.926  30.674  28.936  1.00  0.00     0.029 A 
ATOM     50  C   UNL A   1      44.851  29.637  28.520  1.00  0.00     0.049 A 
ATOM     51  H   UNL A   1      44.470  27.578  28.503  1.00  0.00     0.167 HD
ATOM     52  C   UNL A   1      43.244  23.528  27.299  1.00  0.00     0.031 A 
ATOM     53  C   UNL A   1      46.141  29.728  28.101  1.00  0.00     0.031 A 
ATOM     54  C   UNL A   1      43.873  23.330  28.584  1.00  0.00     0.049 A 
ATOM     55  C   UNL A   1      46.725  28.368  28.195  1.00  0.00     0.074 A 
ATOM     56  C   UNL A   1      43.404  23.094  29.863  1.00  0.00     0.029 A 
ATOM     57  N   UNL A   1      45.153  23.813  28.741  1.00  0.00    -0.354 N 
ATOM     58  N   UNL A   1      46.940  27.762  29.328  1.00  0.00    -0.248 NA
ATOM     59  C   UNL A   1      46.611  27.503  27.031  1.00  0.00     0.031 C 
ATOM     60  C   UNL A   1      44.205  23.926  30.702  1.00  0.00     0.029 A 
ATOM     61  C   UNL A   1      45.178  24.532  29.907  1.00  0.00     0.049 A 
ATOM     62  H   UNL A   1      45.910  23.668  28.128  1.00  0.00     0.167 HD
ATOM     63  C   UNL A   1      46.525  26.458  29.105  1.00  0.00     0.074 A 
ATOM     64  C   UNL A   1      46.413  26.335  27.649  1.00  0.00     0.031 C 
ATOM     65  C   UNL A   1      46.013  25.693  30.116  1.00  0.00     0.031 A 
BRANCH  52  66
ATOM     66  C   UNL A   1      43.885  23.055  26.017  1.00  0.00    -0.014 A 
ATOM     67  C   UNL A   1      43.891  21.677  25.737  1.00  0.00     0.009 A 
ATOM     68  C   UNL A   1      44.733  23.861  25.232  1.00  0.00     0.009 A 
ATOM     69  C   UNL A   1      44.763  21.130  24.789  1.00  0.00     0.001 A 
ATOM     70  C   UNL A   1      45.573  23.325  24.254  1.00  0.00     0.001 A 
ATOM     71  C   UNL A   1      45.610  21.953  24.055  1.00  0.00     0.000 A 
ENDBRANCH  52  66
BRANCH  53  72
ATOM     72  C   UNL A   1      46.821  30.819  27.359  1.00  0.00    -0.014 A 
ATOM     73  C   UNL A   1      46.085  31.912  26.867  1.00  0.00     0.009 A 
ATOM     74  C   UNL A   1      48.221  30.940  27.381  1.00  0.00     0.009 A 
ATOM     75  C   UNL A   1      46.722  33.098  26.473  1.00  0.00     0.001 A 
ATOM     76  C   UNL A   1      48.858  32.121  26.982  1.00  0.00     0.001 A 
ATOM     77  C   UNL A   1      48.108  33.208  26.546  1.00  0.00     0.000 A 
ENDBRANCH  53  72
BRANCH  65  78
ATOM     78  C   UNL A   1      46.109  26.207  31.533  1.00  0.00    -0.014 A 
ATOM     79  C   UNL A   1      45.153  27.053  32.124  1.00  0.00     0.009 A 
ATOM     80  C   UNL A   1      47.118  25.677  32.352  1.00  0.00     0.009 A 
ATOM     81  C   UNL A   1      45.224  27.377  33.485  1.00  0.00     0.001 A 
ATOM     82  C   UNL A   1      47.176  25.982  33.713  1.00  0.00     0.001 A 
ATOM     83  C   UNL A   1      46.233  26.836  34.279  1.00  0.00     0.000 A 
ENDBRANCH  65  78
ENDBRANCH  39  40
ENDBRANCH  31  34
ENDBRANCH  29  30
ENDBRANCH  28  29
ENDBRANCH   1  28
TORSDOF 14
ENDMDL
