MODEL 1
REMARK VINA RESULT:     -13.8      0.000      0.000
REMARK SMILES COc1ccc(-c2[nH]nc3nc(-c4ccc(C(F)(F)F)cc4)cc(C(=O)NCCCNC(=O)c4ccc(-c5c6nc(c(-c7ccccc7)c7ccc([nH]7)c(-c7ccccc7)c7nc(c(-c8ccccc8)c8ccc5[nH]8)C=C7)C=C6)cc4)c23)cc1
REMARK SMILES IDX 29 1 28 2 27 3 25 4 26 5 24 7 7 8 8 9 82 10 9 11 10 13 11 14
REMARK SMILES IDX 23 15 12 16 6 17 3 18 4 19 84 20 5 21 83 22 2 23 1 24 13 25
REMARK SMILES IDX 14 26 22 27 15 28 21 29 16 30 17 31 18 32 19 33 20 34 30 35
REMARK SMILES IDX 31 36 32 37 33 39 34 40 35 41 81 42 36 43 80 44 37 45 38 46
REMARK SMILES IDX 39 47 74 48 40 49 79 50 73 51 75 52 41 53 78 54 72 55 71 56
REMARK SMILES IDX 42 58 64 59 49 60 63 61 50 62 53 63 62 64 76 65 51 66 52 67
REMARK SMILES IDX 61 69 77 70 54 71 43 72 44 73 48 74 45 75 47 76 46 77 65 78
REMARK SMILES IDX 66 79 70 80 67 81 69 82 68 83 55 84 56 85 60 86 57 87 59 88
REMARK SMILES IDX 58 89
REMARK H PARENT 27 6 8 12 31 38 75 57 53 68
REMARK Flexibility Score: inf
ROOT
ATOM      1  C   UNL A   1      33.752  29.437  26.891  1.00  0.00     0.042 C 
ENDROOT
BRANCH   1   2
ATOM      2  C   UNL A   1      33.439  28.437  25.770  1.00  0.00     0.118 C 
BRANCH   2   3
ATOM      3  N   UNL A   1      32.563  27.362  26.212  1.00  0.00    -0.352 N 
ATOM      4  C   UNL A   1      32.481  26.010  25.980  1.00  0.00     0.252 C 
ATOM      5  O   UNL A   1      31.698  25.430  26.724  1.00  0.00    -0.269 OA
ATOM      6  H   UNL A   1      31.859  27.681  26.822  1.00  0.00     0.163 HD
BRANCH   4   7
ATOM      7  C   UNL A   1      33.279  25.274  24.969  1.00  0.00     0.055 A 
ATOM      8  C   UNL A   1      31.943  25.512  22.807  1.00  0.00     0.075 A 
ATOM      9  N   UNL A   1      32.130  24.895  21.590  1.00  0.00    -0.275 N 
ATOM     10  C   UNL A   1      32.963  25.023  23.615  1.00  0.00     0.059 A 
ATOM     11  N   UNL A   1      33.190  24.083  21.519  1.00  0.00    -0.154 NA
ATOM     12  H   UNL A   1      31.526  25.043  20.827  1.00  0.00     0.190 HD
ATOM     13  C   UNL A   1      33.722  24.154  22.736  1.00  0.00     0.182 A 
ATOM     14  N   UNL A   1      34.838  23.491  23.130  1.00  0.00    -0.226 NA
ATOM     15  C   UNL A   1      34.501  24.659  25.267  1.00  0.00     0.043 A 
ATOM     16  C   UNL A   1      35.186  23.771  24.406  1.00  0.00     0.074 A 
BRANCH   8  17
ATOM     17  C   UNL A   1      30.869  26.486  22.955  1.00  0.00     0.001 A 
ATOM     18  C   UNL A   1      28.746  28.324  23.131  1.00  0.00     0.118 A 
ATOM     19  C   UNL A   1      29.926  28.664  22.467  1.00  0.00     0.047 A 
ATOM     20  C   UNL A   1      28.637  27.069  23.732  1.00  0.00     0.047 A 
ATOM     21  C   UNL A   1      30.986  27.758  22.385  1.00  0.00     0.014 A 
ATOM     22  C   UNL A   1      29.703  26.162  23.660  1.00  0.00     0.014 A 
BRANCH  18  23
ATOM     23  O   UNL A   1      27.762  29.272  23.082  1.00  0.00    -0.497 OA
ATOM     24  C   UNL A   1      28.083  30.476  22.398  1.00  0.00     0.278 C 
ENDBRANCH  18  23
ENDBRANCH   8  17
BRANCH  16  25
ATOM     25  C   UNL A   1      36.334  23.041  24.970  1.00  0.00     0.000 A 
ATOM     26  C   UNL A   1      36.588  21.703  24.649  1.00  0.00     0.011 A 
ATOM     27  C   UNL A   1      37.276  23.729  25.761  1.00  0.00     0.011 A 
ATOM     28  C   UNL A   1      37.777  21.088  25.062  1.00  0.00     0.014 A 
ATOM     29  C   UNL A   1      38.460  23.118  26.174  1.00  0.00     0.014 A 
ATOM     30  C   UNL A   1      38.731  21.793  25.814  1.00  0.00     0.056 A 
BRANCH  30  31
ATOM     31  C   UNL A   1      40.030  21.133  26.211  1.00  0.00     0.416 C 
ATOM     32  F   UNL A   1      39.987  19.778  26.099  1.00  0.00    -0.166 F 
ATOM     33  F   UNL A   1      41.073  21.543  25.436  1.00  0.00    -0.166 F 
ATOM     34  F   UNL A   1      40.401  21.394  27.496  1.00  0.00    -0.166 F 
ENDBRANCH  30  31
ENDBRANCH  16  25
ENDBRANCH   4   7
ENDBRANCH   2   3
ENDBRANCH   1   2
BRANCH   1  35
ATOM     35  C   UNL A   1      35.133  29.208  27.491  1.00  0.00     0.118 C 
BRANCH  35  36
ATOM     36  N   UNL A   1      35.331  29.999  28.703  1.00  0.00    -0.352 N 
ATOM     37  C   UNL A   1      36.365  29.972  29.613  1.00  0.00     0.251 C 
ATOM     38  H   UNL A   1      34.618  30.650  28.898  1.00  0.00     0.163 HD
ATOM     39  O   UNL A   1      36.226  30.473  30.716  1.00  0.00    -0.269 OA
BRANCH  37  40
ATOM     40  C   UNL A   1      37.633  29.315  29.251  1.00  0.00     0.039 A 
ATOM     41  C   UNL A   1      38.326  29.725  28.108  1.00  0.00     0.014 A 
ATOM     42  C   UNL A   1      38.132  28.294  30.057  1.00  0.00     0.014 A 
ATOM     43  C   UNL A   1      39.569  29.163  27.834  1.00  0.00     0.010 A 
ATOM     44  C   UNL A   1      39.408  27.822  29.855  1.00  0.00     0.010 A 
ATOM     45  C   UNL A   1      40.119  28.232  28.730  1.00  0.00    -0.014 A 
BRANCH  45  46
ATOM     46  C   UNL A   1      41.514  27.824  28.590  1.00  0.00     0.031 A 
ATOM     47  C   UNL A   1      41.693  26.516  27.898  1.00  0.00     0.074 A 
ATOM     48  C   UNL A   1      42.560  28.644  28.829  1.00  0.00     0.049 A 
ATOM     49  N   UNL A   1      42.165  25.419  28.389  1.00  0.00    -0.248 NA
ATOM     50  C   UNL A   1      41.147  26.374  26.536  1.00  0.00     0.031 C 
ATOM     51  C   UNL A   1      42.524  30.065  29.194  1.00  0.00     0.029 A 
ATOM     52  N   UNL A   1      43.893  28.411  28.669  1.00  0.00    -0.354 N 
ATOM     53  C   UNL A   1      42.173  24.504  27.338  1.00  0.00     0.074 A 
ATOM     54  C   UNL A   1      41.366  25.082  26.295  1.00  0.00     0.031 C 
ATOM     55  C   UNL A   1      43.742  30.615  28.989  1.00  0.00     0.029 A 
ATOM     56  C   UNL A   1      44.677  29.561  28.640  1.00  0.00     0.049 A 
ATOM     57  H   UNL A   1      44.269  27.505  28.581  1.00  0.00     0.167 HD
ATOM     58  C   UNL A   1      43.070  23.479  27.304  1.00  0.00     0.031 A 
ATOM     59  C   UNL A   1      45.992  29.643  28.322  1.00  0.00     0.031 A 
ATOM     60  C   UNL A   1      43.680  23.272  28.595  1.00  0.00     0.049 A 
ATOM     61  C   UNL A   1      46.559  28.283  28.441  1.00  0.00     0.074 A 
ATOM     62  C   UNL A   1      43.222  22.968  29.860  1.00  0.00     0.029 A 
ATOM     63  N   UNL A   1      44.948  23.774  28.760  1.00  0.00    -0.354 N 
ATOM     64  N   UNL A   1      46.713  27.664  29.574  1.00  0.00    -0.248 NA
ATOM     65  C   UNL A   1      46.583  27.440  27.259  1.00  0.00     0.031 C 
ATOM     66  C   UNL A   1      44.046  23.727  30.743  1.00  0.00     0.029 A 
ATOM     67  C   UNL A   1      45.007  24.391  29.979  1.00  0.00     0.049 A 
ATOM     68  H   UNL A   1      45.686  23.703  28.113  1.00  0.00     0.167 HD
ATOM     69  C   UNL A   1      46.390  26.346  29.296  1.00  0.00     0.074 A 
ATOM     70  C   UNL A   1      46.446  26.245  27.838  1.00  0.00     0.031 C 
ATOM     71  C   UNL A   1      45.827  25.550  30.252  1.00  0.00     0.031 A 
BRANCH  58  72
ATOM     72  C   UNL A   1      43.740  23.002  26.031  1.00  0.00    -0.014 A 
ATOM     73  C   UNL A   1      43.891  21.614  25.834  1.00  0.00     0.009 A 
ATOM     74  C   UNL A   1      44.491  23.837  25.181  1.00  0.00     0.009 A 
ATOM     75  C   UNL A   1      44.821  21.100  24.922  1.00  0.00     0.001 A 
ATOM     76  C   UNL A   1      45.387  23.326  24.237  1.00  0.00     0.001 A 
ATOM     77  C   UNL A   1      45.578  21.958  24.133  1.00  0.00     0.000 A 
ENDBRANCH  58  72
BRANCH  59  78
ATOM     78  C   UNL A   1      46.772  30.746  27.720  1.00  0.00    -0.014 A 
ATOM     79  C   UNL A   1      46.161  31.632  26.815  1.00  0.00     0.009 A 
ATOM     80  C   UNL A   1      48.022  31.111  28.248  1.00  0.00     0.009 A 
ATOM     81  C   UNL A   1      46.749  32.864  26.500  1.00  0.00     0.001 A 
ATOM     82  C   UNL A   1      48.614  32.339  27.928  1.00  0.00     0.001 A 
ATOM     83  C   UNL A   1      47.967  33.224  27.071  1.00  0.00     0.000 A 
ENDBRANCH  59  78
BRANCH  71  84
ATOM     84  C   UNL A   1      45.849  26.037  31.681  1.00  0.00    -0.014 A 
ATOM     85  C   UNL A   1      44.744  26.625  32.320  1.00  0.00     0.009 A 
ATOM     86  C   UNL A   1      46.991  25.760  32.446  1.00  0.00     0.009 A 
ATOM     87  C   UNL A   1      44.796  26.952  33.680  1.00  0.00     0.001 A 
ATOM     88  C   UNL A   1      47.034  26.064  33.808  1.00  0.00     0.001 A 
ATOM     89  C   UNL A   1      45.939  26.666  34.423  1.00  0.00     0.000 A 
ENDBRANCH  71  84
ENDBRANCH  45  46
ENDBRANCH  37  40
ENDBRANCH  35  36
ENDBRANCH   1  35
TORSDOF 14
ENDMDL
MODEL 2
REMARK VINA RESULT:     -13.5      3.158      4.792
REMARK SMILES COc1ccc(-c2[nH]nc3nc(-c4ccc(C(F)(F)F)cc4)cc(C(=O)NCCCNC(=O)c4ccc(-c5c6nc(c(-c7ccccc7)c7ccc([nH]7)c(-c7ccccc7)c7nc(c(-c8ccccc8)c8ccc5[nH]8)C=C7)C=C6)cc4)c23)cc1
REMARK SMILES IDX 29 1 28 2 27 3 25 4 26 5 24 7 7 8 8 9 82 10 9 11 10 13 11 14
REMARK SMILES IDX 23 15 12 16 6 17 3 18 4 19 84 20 5 21 83 22 2 23 1 24 13 25
REMARK SMILES IDX 14 26 22 27 15 28 21 29 16 30 17 31 18 32 19 33 20 34 30 35
REMARK SMILES IDX 31 36 32 37 33 39 34 40 35 41 81 42 36 43 80 44 37 45 38 46
REMARK SMILES IDX 39 47 74 48 40 49 79 50 73 51 75 52 41 53 78 54 72 55 71 56
REMARK SMILES IDX 42 58 64 59 49 60 63 61 50 62 53 63 62 64 76 65 51 66 52 67
REMARK SMILES IDX 61 69 77 70 54 71 43 72 44 73 48 74 45 75 47 76 46 77 65 78
REMARK SMILES IDX 66 79 70 80 67 81 69 82 68 83 55 84 56 85 60 86 57 87 59 88
REMARK SMILES IDX 58 89
REMARK H PARENT 27 6 8 12 31 38 75 57 53 68
REMARK Flexibility Score: inf
ROOT
ATOM      1  C   UNL A   1      31.755  30.427  25.855  1.00  0.00     0.042 C 
ENDROOT
BRANCH   1   2
ATOM      2  C   UNL A   1      32.452  29.125  25.439  1.00  0.00     0.118 C 
BRANCH   2   3
ATOM      3  N   UNL A   1      31.786  27.943  25.965  1.00  0.00    -0.352 N 
ATOM      4  C   UNL A   1      31.913  26.587  25.784  1.00  0.00     0.252 C 
ATOM      5  O   UNL A   1      31.273  25.921  26.591  1.00  0.00    -0.269 OA
ATOM      6  H   UNL A   1      31.073  28.171  26.605  1.00  0.00     0.163 HD
BRANCH   4   7
ATOM      7  C   UNL A   1      32.767  25.947  24.754  1.00  0.00     0.055 A 
ATOM      8  C   UNL A   1      31.568  26.418  22.550  1.00  0.00     0.075 A 
ATOM      9  N   UNL A   1      31.826  25.925  21.291  1.00  0.00    -0.275 N 
ATOM     10  C   UNL A   1      32.533  25.837  23.365  1.00  0.00     0.059 A 
ATOM     11  N   UNL A   1      32.882  25.110  21.202  1.00  0.00    -0.154 NA
ATOM     12  H   UNL A   1      31.270  26.156  20.512  1.00  0.00     0.190 HD
ATOM     13  C   UNL A   1      33.339  25.051  22.451  1.00  0.00     0.182 A 
ATOM     14  N   UNL A   1      34.425  24.337  22.842  1.00  0.00    -0.226 NA
ATOM     15  C   UNL A   1      33.964  25.289  25.062  1.00  0.00     0.043 A 
ATOM     16  C   UNL A   1      34.695  24.483  24.158  1.00  0.00     0.074 A 
BRANCH   8  17
ATOM     17  C   UNL A   1      30.493  27.386  22.731  1.00  0.00     0.001 A 
ATOM     18  C   UNL A   1      28.375  29.223  22.964  1.00  0.00     0.118 A 
ATOM     19  C   UNL A   1      29.590  29.610  22.397  1.00  0.00     0.047 A 
ATOM     20  C   UNL A   1      28.227  27.920  23.440  1.00  0.00     0.047 A 
ATOM     21  C   UNL A   1      30.649  28.703  22.287  1.00  0.00     0.014 A 
ATOM     22  C   UNL A   1      29.289  27.012  23.341  1.00  0.00     0.014 A 
BRANCH  18  23
ATOM     23  O   UNL A   1      27.401  30.182  22.951  1.00  0.00    -0.497 OA
ATOM     24  C   UNL A   1      27.774  31.463  23.441  1.00  0.00     0.278 C 
ENDBRANCH  18  23
ENDBRANCH   8  17
BRANCH  16  25
ATOM     25  C   UNL A   1      35.801  23.686  24.714  1.00  0.00     0.000 A 
ATOM     26  C   UNL A   1      36.200  22.475  24.138  1.00  0.00     0.011 A 
ATOM     27  C   UNL A   1      36.562  24.201  25.783  1.00  0.00     0.011 A 
ATOM     28  C   UNL A   1      37.360  21.827  24.582  1.00  0.00     0.014 A 
ATOM     29  C   UNL A   1      37.718  23.556  26.227  1.00  0.00     0.014 A 
ATOM     30  C   UNL A   1      38.138  22.368  25.618  1.00  0.00     0.056 A 
BRANCH  30  31
ATOM     31  C   UNL A   1      39.412  21.684  26.054  1.00  0.00     0.416 C 
ATOM     32  F   UNL A   1      39.610  21.748  27.398  1.00  0.00    -0.166 F 
ATOM     33  F   UNL A   1      39.421  20.360  25.733  1.00  0.00    -0.166 F 
ATOM     34  F   UNL A   1      40.533  22.209  25.482  1.00  0.00    -0.166 F 
ENDBRANCH  30  31
ENDBRANCH  16  25
ENDBRANCH   4   7
ENDBRANCH   2   3
ENDBRANCH   1   2
BRANCH   1  35
ATOM     35  C   UNL A   1      32.435  31.082  27.049  1.00  0.00     0.118 C 
BRANCH  35  36
ATOM     36  N   UNL A   1      32.107  32.503  27.143  1.00  0.00    -0.352 N 
ATOM     37  C   UNL A   1      32.725  33.504  27.861  1.00  0.00     0.251 C 
ATOM     38  H   UNL A   1      31.328  32.788  26.612  1.00  0.00     0.163 HD
ATOM     39  O   UNL A   1      32.147  34.558  28.067  1.00  0.00    -0.269 OA
BRANCH  37  40
ATOM     40  C   UNL A   1      34.080  33.284  28.394  1.00  0.00     0.039 A 
ATOM     41  C   UNL A   1      34.251  32.567  29.582  1.00  0.00     0.014 A 
ATOM     42  C   UNL A   1      35.180  33.790  27.705  1.00  0.00     0.014 A 
ATOM     43  C   UNL A   1      35.542  32.285  30.020  1.00  0.00     0.010 A 
ATOM     44  C   UNL A   1      36.451  33.414  28.070  1.00  0.00     0.010 A 
ATOM     45  C   UNL A   1      36.639  32.686  29.242  1.00  0.00    -0.014 A 
BRANCH  45  46
ATOM     46  C   UNL A   1      37.975  32.186  29.555  1.00  0.00     0.031 A 
ATOM     47  C   UNL A   1      38.169  30.744  29.233  1.00  0.00     0.074 A 
ATOM     48  C   UNL A   1      39.017  32.985  29.869  1.00  0.00     0.049 A 
ATOM     49  N   UNL A   1      38.390  29.772  30.054  1.00  0.00    -0.248 NA
ATOM     50  C   UNL A   1      37.949  30.310  27.841  1.00  0.00     0.031 C 
ATOM     51  C   UNL A   1      39.051  34.451  29.895  1.00  0.00     0.029 A 
ATOM     52  N   UNL A   1      40.317  32.653  30.109  1.00  0.00    -0.354 N 
ATOM     53  C   UNL A   1      38.547  28.634  29.265  1.00  0.00     0.074 A 
ATOM     54  C   UNL A   1      38.077  28.988  27.950  1.00  0.00     0.031 C 
ATOM     55  C   UNL A   1      40.335  34.874  29.893  1.00  0.00     0.029 A 
ATOM     56  C   UNL A   1      41.206  33.721  30.032  1.00  0.00     0.049 A 
ATOM     57  H   UNL A   1      40.603  31.734  30.318  1.00  0.00     0.167 HD
ATOM     58  C   UNL A   1      39.309  27.586  29.684  1.00  0.00     0.031 A 
ATOM     59  C   UNL A   1      42.560  33.658  30.049  1.00  0.00     0.031 A 
ATOM     60  C   UNL A   1      39.570  27.661  31.101  1.00  0.00     0.049 A 
ATOM     61  C   UNL A   1      42.931  32.338  30.602  1.00  0.00     0.074 A 
ATOM     62  C   UNL A   1      38.796  27.689  32.242  1.00  0.00     0.029 A 
ATOM     63  N   UNL A   1      40.811  28.122  31.471  1.00  0.00    -0.354 N 
ATOM     64  N   UNL A   1      42.745  31.999  31.843  1.00  0.00    -0.248 NA
ATOM     65  C   UNL A   1      43.142  31.238  29.677  1.00  0.00     0.031 C 
ATOM     66  C   UNL A   1      39.466  28.593  33.120  1.00  0.00     0.029 A 
ATOM     67  C   UNL A   1      40.646  29.007  32.500  1.00  0.00     0.049 A 
ATOM     68  H   UNL A   1      41.668  27.862  31.065  1.00  0.00     0.167 HD
ATOM     69  C   UNL A   1      42.356  30.671  31.785  1.00  0.00     0.074 A 
ATOM     70  C   UNL A   1      42.743  30.224  30.447  1.00  0.00     0.031 C 
ATOM     71  C   UNL A   1      41.500  30.154  32.715  1.00  0.00     0.031 A 
BRANCH  58  72
ATOM     72  C   UNL A   1      40.205  26.786  28.759  1.00  0.00    -0.014 A 
ATOM     73  C   UNL A   1      39.928  25.416  28.579  1.00  0.00     0.009 A 
ATOM     74  C   UNL A   1      41.463  27.232  28.310  1.00  0.00     0.009 A 
ATOM     75  C   UNL A   1      40.895  24.532  28.087  1.00  0.00     0.001 A 
ATOM     76  C   UNL A   1      42.415  26.359  27.775  1.00  0.00     0.001 A 
ATOM     77  C   UNL A   1      42.144  25.002  27.697  1.00  0.00     0.000 A 
ENDBRANCH  58  72
BRANCH  59  78
ATOM     78  C   UNL A   1      43.575  34.545  29.442  1.00  0.00    -0.014 A 
ATOM     79  C   UNL A   1      43.634  34.700  28.045  1.00  0.00     0.009 A 
ATOM     80  C   UNL A   1      44.289  35.462  30.230  1.00  0.00     0.009 A 
ATOM     81  C   UNL A   1      44.329  35.768  27.464  1.00  0.00     0.001 A 
ATOM     82  C   UNL A   1      44.991  36.526  29.650  1.00  0.00     0.001 A 
ATOM     83  C   UNL A   1      44.993  36.691  28.268  1.00  0.00     0.000 A 
ENDBRANCH  59  78
BRANCH  71  84
ATOM     84  C   UNL A   1      41.236  30.965  33.961  1.00  0.00    -0.014 A 
ATOM     85  C   UNL A   1      40.245  31.957  34.049  1.00  0.00     0.009 A 
ATOM     86  C   UNL A   1      41.927  30.608  35.128  1.00  0.00     0.009 A 
ATOM     87  C   UNL A   1      39.978  32.594  35.267  1.00  0.00     0.001 A 
ATOM     88  C   UNL A   1      41.643  31.226  36.348  1.00  0.00     0.001 A 
ATOM     89  C   UNL A   1      40.673  32.223  36.416  1.00  0.00     0.000 A 
ENDBRANCH  71  84
ENDBRANCH  45  46
ENDBRANCH  37  40
ENDBRANCH  35  36
ENDBRANCH   1  35
TORSDOF 14
ENDMDL
MODEL 3
REMARK VINA RESULT:     -13.4      4.137      8.251
REMARK SMILES COc1ccc(-c2[nH]nc3nc(-c4ccc(C(F)(F)F)cc4)cc(C(=O)NCCCNC(=O)c4ccc(-c5c6nc(c(-c7ccccc7)c7ccc([nH]7)c(-c7ccccc7)c7nc(c(-c8ccccc8)c8ccc5[nH]8)C=C7)C=C6)cc4)c23)cc1
REMARK SMILES IDX 29 1 28 2 27 3 25 4 26 5 24 7 7 8 8 9 82 10 9 11 10 13 11 14
REMARK SMILES IDX 23 15 12 16 6 17 3 18 4 19 84 20 5 21 83 22 2 23 1 24 13 25
REMARK SMILES IDX 14 26 22 27 15 28 21 29 16 30 17 31 18 32 19 33 20 34 30 35
REMARK SMILES IDX 31 36 32 37 33 39 34 40 35 41 81 42 36 43 80 44 37 45 38 46
REMARK SMILES IDX 39 47 74 48 40 49 79 50 73 51 75 52 41 53 78 54 72 55 71 56
REMARK SMILES IDX 42 58 64 59 49 60 63 61 50 62 53 63 62 64 76 65 51 66 52 67
REMARK SMILES IDX 61 69 77 70 54 71 43 72 44 73 48 74 45 75 47 76 46 77 65 78
REMARK SMILES IDX 66 79 70 80 67 81 69 82 68 83 55 84 56 85 60 86 57 87 59 88
REMARK SMILES IDX 58 89
REMARK H PARENT 27 6 8 12 31 38 75 57 53 68
REMARK Flexibility Score: inf
ROOT
ATOM      1  C   UNL A   1      37.650  21.674  25.144  1.00  0.00     0.042 C 
ENDROOT
BRANCH   1   2
ATOM      2  C   UNL A   1      36.150  21.939  25.328  1.00  0.00     0.118 C 
BRANCH   2   3
ATOM      3  N   UNL A   1      35.519  22.438  24.116  1.00  0.00    -0.352 N 
ATOM      4  C   UNL A   1      34.495  23.310  23.834  1.00  0.00     0.252 C 
ATOM      5  O   UNL A   1      34.416  23.610  22.648  1.00  0.00    -0.269 OA
ATOM      6  H   UNL A   1      35.924  22.060  23.302  1.00  0.00     0.163 HD
BRANCH   4   7
ATOM      7  C   UNL A   1      33.578  23.894  24.844  1.00  0.00     0.055 A 
ATOM      8  C   UNL A   1      31.893  22.036  25.322  1.00  0.00     0.075 A 
ATOM      9  N   UNL A   1      30.729  22.079  26.056  1.00  0.00    -0.275 N 
ATOM     10  C   UNL A   1      32.414  23.322  25.406  1.00  0.00     0.059 A 
ATOM     11  N   UNL A   1      30.462  23.253  26.636  1.00  0.00    -0.154 NA
ATOM     12  H   UNL A   1      30.136  21.298  26.147  1.00  0.00     0.190 HD
ATOM     13  C   UNL A   1      31.481  24.025  26.265  1.00  0.00     0.182 A 
ATOM     14  N   UNL A   1      31.641  25.322  26.633  1.00  0.00    -0.226 NA
ATOM     15  C   UNL A   1      33.741  25.184  25.361  1.00  0.00     0.043 A 
ATOM     16  C   UNL A   1      32.783  25.861  26.152  1.00  0.00     0.074 A 
BRANCH   8  17
ATOM     17  C   UNL A   1      32.317  20.774  24.728  1.00  0.00     0.001 A 
ATOM     18  C   UNL A   1      33.020  18.289  23.613  1.00  0.00     0.118 A 
ATOM     19  C   UNL A   1      33.263  18.556  24.961  1.00  0.00     0.047 A 
ATOM     20  C   UNL A   1      32.447  19.278  22.813  1.00  0.00     0.047 A 
ATOM     21  C   UNL A   1      32.923  19.792  25.518  1.00  0.00     0.014 A 
ATOM     22  C   UNL A   1      32.115  20.522  23.365  1.00  0.00     0.014 A 
BRANCH  18  23
ATOM     23  O   UNL A   1      33.337  17.022  23.209  1.00  0.00    -0.497 OA
ATOM     24  C   UNL A   1      33.325  16.020  24.217  1.00  0.00     0.278 C 
ENDBRANCH  18  23
ENDBRANCH   8  17
BRANCH  16  25
ATOM     25  C   UNL A   1      33.019  27.290  26.415  1.00  0.00     0.000 A 
ATOM     26  C   UNL A   1      31.982  28.155  26.782  1.00  0.00     0.011 A 
ATOM     27  C   UNL A   1      34.337  27.790  26.416  1.00  0.00     0.011 A 
ATOM     28  C   UNL A   1      32.262  29.465  27.192  1.00  0.00     0.014 A 
ATOM     29  C   UNL A   1      34.618  29.095  26.823  1.00  0.00     0.014 A 
ATOM     30  C   UNL A   1      33.581  29.942  27.232  1.00  0.00     0.056 A 
BRANCH  30  31
ATOM     31  C   UNL A   1      33.874  31.341  27.722  1.00  0.00     0.416 C 
ATOM     32  F   UNL A   1      35.041  31.836  27.231  1.00  0.00    -0.166 F 
ATOM     33  F   UNL A   1      32.904  32.226  27.358  1.00  0.00    -0.166 F 
ATOM     34  F   UNL A   1      33.966  31.432  29.079  1.00  0.00    -0.166 F 
ENDBRANCH  30  31
ENDBRANCH  16  25
ENDBRANCH   4   7
ENDBRANCH   2   3
ENDBRANCH   1   2
BRANCH   1  35
ATOM     35  C   UNL A   1      38.497  22.485  26.115  1.00  0.00     0.118 C 
BRANCH  35  36
ATOM     36  N   UNL A   1      39.919  22.186  25.969  1.00  0.00    -0.352 N 
ATOM     37  C   UNL A   1      41.016  22.987  26.204  1.00  0.00     0.251 C 
ATOM     38  H   UNL A   1      40.125  21.276  25.657  1.00  0.00     0.163 HD
ATOM     39  O   UNL A   1      42.105  22.687  25.744  1.00  0.00    -0.269 OA
BRANCH  37  40
ATOM     40  C   UNL A   1      40.860  24.218  26.997  1.00  0.00     0.039 A 
ATOM     41  C   UNL A   1      41.600  24.387  28.171  1.00  0.00     0.014 A 
ATOM     42  C   UNL A   1      39.977  25.205  26.565  1.00  0.00     0.014 A 
ATOM     43  C   UNL A   1      41.513  25.595  28.856  1.00  0.00     0.010 A 
ATOM     44  C   UNL A   1      39.978  26.440  27.172  1.00  0.00     0.010 A 
ATOM     45  C   UNL A   1      40.722  26.630  28.334  1.00  0.00    -0.014 A 
BRANCH  45  46
ATOM     46  C   UNL A   1      40.815  27.974  28.898  1.00  0.00     0.031 A 
ATOM     47  C   UNL A   1      41.893  28.807  28.293  1.00  0.00     0.074 A 
ATOM     48  C   UNL A   1      39.877  28.512  29.706  1.00  0.00     0.049 A 
ATOM     49  N   UNL A   1      42.955  29.265  28.866  1.00  0.00    -0.248 NA
ATOM     50  C   UNL A   1      41.852  29.040  26.838  1.00  0.00     0.031 C 
ATOM     51  C   UNL A   1      38.596  27.923  30.114  1.00  0.00     0.029 A 
ATOM     52  N   UNL A   1      39.810  29.766  30.236  1.00  0.00    -0.354 N 
ATOM     53  C   UNL A   1      43.615  30.022  27.900  1.00  0.00     0.074 A 
ATOM     54  C   UNL A   1      43.000  29.688  26.640  1.00  0.00     0.031 C 
ATOM     55  C   UNL A   1      37.791  28.890  30.609  1.00  0.00     0.029 A 
ATOM     56  C   UNL A   1      38.550  30.124  30.707  1.00  0.00     0.049 A 
ATOM     57  H   UNL A   1      40.588  30.368  30.280  1.00  0.00     0.167 HD
ATOM     58  C   UNL A   1      44.417  31.066  28.248  1.00  0.00     0.031 A 
ATOM     59  C   UNL A   1      38.152  31.353  31.117  1.00  0.00     0.031 A 
ATOM     60  C   UNL A   1      44.766  31.015  29.648  1.00  0.00     0.049 A 
ATOM     61  C   UNL A   1      39.372  32.138  31.400  1.00  0.00     0.074 A 
ATOM     62  C   UNL A   1      45.407  30.110  30.468  1.00  0.00     0.029 A 
ATOM     63  N   UNL A   1      44.073  31.861  30.481  1.00  0.00    -0.354 N 
ATOM     64  N   UNL A   1      40.170  31.894  32.397  1.00  0.00    -0.248 NA
ATOM     65  C   UNL A   1      39.932  32.951  30.334  1.00  0.00     0.031 C 
ATOM     66  C   UNL A   1      44.702  30.173  31.707  1.00  0.00     0.029 A 
ATOM     67  C   UNL A   1      43.722  31.161  31.601  1.00  0.00     0.049 A 
ATOM     68  H   UNL A   1      43.866  32.805  30.301  1.00  0.00     0.167 HD
ATOM     69  C   UNL A   1      41.439  32.114  31.887  1.00  0.00     0.074 A 
ATOM     70  C   UNL A   1      41.224  32.883  30.662  1.00  0.00     0.031 C 
ATOM     71  C   UNL A   1      42.509  31.403  32.350  1.00  0.00     0.031 A 
BRANCH  58  72
ATOM     72  C   UNL A   1      44.483  32.363  27.467  1.00  0.00    -0.014 A 
ATOM     73  C   UNL A   1      43.850  33.501  28.005  1.00  0.00     0.009 A 
ATOM     74  C   UNL A   1      44.862  32.442  26.113  1.00  0.00     0.009 A 
ATOM     75  C   UNL A   1      43.516  34.600  27.205  1.00  0.00     0.001 A 
ATOM     76  C   UNL A   1      44.570  33.557  25.322  1.00  0.00     0.001 A 
ATOM     77  C   UNL A   1      43.865  34.622  25.860  1.00  0.00     0.000 A 
ENDBRANCH  58  72
BRANCH  59  78
ATOM     78  C   UNL A   1      36.819  31.993  31.092  1.00  0.00    -0.014 A 
ATOM     79  C   UNL A   1      35.922  31.799  32.157  1.00  0.00     0.009 A 
ATOM     80  C   UNL A   1      36.536  33.024  30.180  1.00  0.00     0.009 A 
ATOM     81  C   UNL A   1      34.818  32.643  32.337  1.00  0.00     0.001 A 
ATOM     82  C   UNL A   1      35.430  33.863  30.355  1.00  0.00     0.001 A 
ATOM     83  C   UNL A   1      34.583  33.686  31.446  1.00  0.00     0.000 A 
ENDBRANCH  59  78
BRANCH  71  84
ATOM     84  C   UNL A   1      42.333  30.607  33.621  1.00  0.00    -0.014 A 
ATOM     85  C   UNL A   1      42.607  31.116  34.902  1.00  0.00     0.009 A 
ATOM     86  C   UNL A   1      41.735  29.343  33.521  1.00  0.00     0.009 A 
ATOM     87  C   UNL A   1      42.317  30.364  36.046  1.00  0.00     0.001 A 
ATOM     88  C   UNL A   1      41.423  28.603  34.663  1.00  0.00     0.001 A 
ATOM     89  C   UNL A   1      41.719  29.111  35.925  1.00  0.00     0.000 A 
ENDBRANCH  71  84
ENDBRANCH  45  46
ENDBRANCH  37  40
ENDBRANCH  35  36
ENDBRANCH   1  35
TORSDOF 14
ENDMDL
