MODEL 1
REMARK VINA RESULT:     -10.4      0.000      0.000
REMARK SMILES O=C(NCCCNC(=O)[C@H]1CSC2(CCCCC2)[NH2+]1)c1ccc(-c2c3nc(c(-c4ccccc4)c4ccc([nH]4)c(-c4ccccc4)c4nc(c(-c5ccccc5)c5ccc2[nH]5)C=C4)C=C3)cc1
REMARK SMILES IDX 4 1 3 2 1 3 2 4 20 6 21 7 67 8 22 9 66 10 23 11 24 12 25 13
REMARK SMILES IDX 60 14 26 15 65 16 59 17 61 18 27 19 64 20 58 21 57 22 28 24
REMARK SMILES IDX 50 25 35 26 49 27 36 28 39 29 48 30 62 31 37 32 38 33 47 35
REMARK SMILES IDX 63 36 40 37 29 38 30 39 34 40 31 41 33 42 32 43 51 44 52 45
REMARK SMILES IDX 56 46 53 47 55 48 54 49 41 50 42 51 46 52 43 53 45 54 44 55
REMARK SMILES IDX 5 56 6 57 7 58 8 59 9 61 10 62 11 63 19 64 12 65 13 66 14 69
REMARK SMILES IDX 18 70 15 71 17 72 16 73
REMARK H PARENT 3 5 61 23 39 34 7 60 19 67 19 68
REMARK Flexibility Score: inf
ROOT
ATOM      1  C   UNL A   1      34.841  33.011  28.016  1.00  0.00     0.118 C 
ENDROOT
BRANCH   1   2
ATOM      2  N   UNL A   1      34.064  31.793  27.824  1.00  0.00    -0.352 N 
ATOM      3  O   UNL A   1      33.674  29.602  27.470  1.00  0.00    -0.269 OA
ATOM      4  C   UNL A   1      34.464  30.477  27.815  1.00  0.00     0.251 C 
ATOM      5  H   UNL A   1      33.102  31.934  27.678  1.00  0.00     0.163 HD
BRANCH   4   6
ATOM      6  C   UNL A   1      35.846  30.110  28.196  1.00  0.00     0.039 A 
ATOM      7  C   UNL A   1      36.896  30.254  27.290  1.00  0.00     0.014 A 
ATOM      8  C   UNL A   1      36.103  29.637  29.488  1.00  0.00     0.014 A 
ATOM      9  C   UNL A   1      38.154  29.761  27.607  1.00  0.00     0.010 A 
ATOM     10  C   UNL A   1      37.398  29.245  29.845  1.00  0.00     0.010 A 
ATOM     11  C   UNL A   1      38.429  29.271  28.896  1.00  0.00    -0.014 A 
BRANCH  11  12
ATOM     12  C   UNL A   1      39.823  28.868  29.215  1.00  0.00     0.031 A 
ATOM     13  C   UNL A   1      40.707  29.708  30.095  1.00  0.00     0.074 A 
ATOM     14  C   UNL A   1      40.259  27.677  28.759  1.00  0.00     0.049 A 
ATOM     15  N   UNL A   1      41.902  29.432  30.555  1.00  0.00    -0.248 NA
ATOM     16  C   UNL A   1      40.196  31.023  30.508  1.00  0.00     0.031 C 
ATOM     17  C   UNL A   1      39.500  26.782  27.880  1.00  0.00     0.029 A 
ATOM     18  N   UNL A   1      41.420  26.990  29.008  1.00  0.00    -0.354 N 
ATOM     19  C   UNL A   1      42.290  30.538  31.299  1.00  0.00     0.074 A 
ATOM     20  C   UNL A   1      41.215  31.503  31.208  1.00  0.00     0.031 C 
ATOM     21  C   UNL A   1      40.177  25.636  27.727  1.00  0.00     0.029 A 
ATOM     22  C   UNL A   1      41.444  25.738  28.441  1.00  0.00     0.049 A 
ATOM     23  H   UNL A   1      42.162  27.357  29.539  1.00  0.00     0.167 HD
ATOM     24  C   UNL A   1      43.434  30.730  32.001  1.00  0.00     0.031 A 
ATOM     25  C   UNL A   1      42.381  24.774  28.485  1.00  0.00     0.031 A 
ATOM     26  C   UNL A   1      44.505  29.771  32.088  1.00  0.00     0.049 A 
ATOM     27  C   UNL A   1      43.635  25.015  29.270  1.00  0.00     0.074 A 
ATOM     28  C   UNL A   1      45.702  29.874  32.777  1.00  0.00     0.029 A 
ATOM     29  N   UNL A   1      44.510  28.532  31.466  1.00  0.00    -0.354 N 
ATOM     30  N   UNL A   1      43.971  26.061  29.984  1.00  0.00    -0.248 NA
ATOM     31  C   UNL A   1      44.637  23.943  29.253  1.00  0.00     0.031 C 
ATOM     32  C   UNL A   1      46.447  28.713  32.540  1.00  0.00     0.029 A 
ATOM     33  C   UNL A   1      45.693  27.867  31.744  1.00  0.00     0.049 A 
ATOM     34  H   UNL A   1      43.780  28.177  30.909  1.00  0.00     0.167 HD
ATOM     35  C   UNL A   1      45.224  25.773  30.503  1.00  0.00     0.074 A 
ATOM     36  C   UNL A   1      45.569  24.439  30.053  1.00  0.00     0.031 C 
ATOM     37  C   UNL A   1      46.026  26.548  31.274  1.00  0.00     0.031 A 
BRANCH  24  38
ATOM     38  C   UNL A   1      43.597  32.038  32.725  1.00  0.00    -0.014 A 
ATOM     39  C   UNL A   1      43.171  32.189  34.055  1.00  0.00     0.009 A 
ATOM     40  C   UNL A   1      44.236  33.114  32.091  1.00  0.00     0.009 A 
ATOM     41  C   UNL A   1      43.362  33.400  34.725  1.00  0.00     0.001 A 
ATOM     42  C   UNL A   1      44.447  34.315  32.772  1.00  0.00     0.001 A 
ATOM     43  C   UNL A   1      44.004  34.459  34.086  1.00  0.00     0.000 A 
ENDBRANCH  24  38
BRANCH  25  44
ATOM     44  C   UNL A   1      42.168  23.504  27.747  1.00  0.00    -0.014 A 
ATOM     45  C   UNL A   1      41.472  22.438  28.334  1.00  0.00     0.009 A 
ATOM     46  C   UNL A   1      42.658  23.358  26.438  1.00  0.00     0.009 A 
ATOM     47  C   UNL A   1      41.289  21.242  27.631  1.00  0.00     0.001 A 
ATOM     48  C   UNL A   1      42.446  22.176  25.728  1.00  0.00     0.001 A 
ATOM     49  C   UNL A   1      41.771  21.116  26.330  1.00  0.00     0.000 A 
ENDBRANCH  25  44
BRANCH  37  50
ATOM     50  C   UNL A   1      47.347  25.958  31.675  1.00  0.00    -0.014 A 
ATOM     51  C   UNL A   1      47.530  25.394  32.947  1.00  0.00     0.009 A 
ATOM     52  C   UNL A   1      48.419  25.968  30.771  1.00  0.00     0.009 A 
ATOM     53  C   UNL A   1      48.777  24.889  33.321  1.00  0.00     0.001 A 
ATOM     54  C   UNL A   1      49.657  25.439  31.139  1.00  0.00     0.001 A 
ATOM     55  C   UNL A   1      49.837  24.911  32.416  1.00  0.00     0.000 A 
ENDBRANCH  37  50
ENDBRANCH  11  12
ENDBRANCH   4   6
ENDBRANCH   1   2
BRANCH   1  56
ATOM     56  C   UNL A   1      33.974  34.258  28.136  1.00  0.00     0.042 C 
BRANCH  56  57
ATOM     57  C   UNL A   1      33.947  34.855  29.535  1.00  0.00     0.118 C 
BRANCH  57  58
ATOM     58  N   UNL A   1      33.710  33.848  30.557  1.00  0.00    -0.351 N 
ATOM     59  C   UNL A   1      34.392  33.590  31.715  1.00  0.00     0.279 C 
ATOM     60  H   UNL A   1      32.940  33.260  30.388  1.00  0.00     0.163 HD
ATOM     61  O   UNL A   1      33.972  32.680  32.427  1.00  0.00    -0.268 OA
BRANCH  59  62
ATOM     62  C   UNL A   1      35.651  34.418  32.041  1.00  0.00     0.283 C 
ATOM     63  C   UNL A   1      35.618  35.004  33.444  1.00  0.00     0.151 C 
ATOM     64  N   UNL A   1      36.877  33.608  31.831  1.00  0.00    -0.322 N 
ATOM     65  S   UNL A   1      36.422  33.779  34.477  1.00  0.00    -0.089 SA
ATOM     66  C   UNL A   1      37.413  33.096  33.106  1.00  0.00     0.143 C 
ATOM     67  H   UNL A   1      37.585  34.189  31.383  1.00  0.00     0.348 HD
ATOM     68  H   UNL A   1      36.636  32.811  31.241  1.00  0.00     0.348 HD
ATOM     69  C   UNL A   1      37.386  31.553  33.145  1.00  0.00     0.081 C 
ATOM     70  C   UNL A   1      38.870  33.591  33.214  1.00  0.00     0.081 C 
ATOM     71  C   UNL A   1      38.134  30.963  34.345  1.00  0.00     0.007 C 
ATOM     72  C   UNL A   1      39.626  33.012  34.413  1.00  0.00     0.007 C 
ATOM     73  C   UNL A   1      39.565  31.489  34.440  1.00  0.00     0.001 C 
ENDBRANCH  59  62
ENDBRANCH  57  58
ENDBRANCH  56  57
ENDBRANCH   1  56
TORSDOF 10
ENDMDL
MODEL 2
REMARK VINA RESULT:     -10.4      3.712      8.779
REMARK SMILES O=C(NCCCNC(=O)[C@H]1CSC2(CCCCC2)[NH2+]1)c1ccc(-c2c3nc(c(-c4ccccc4)c4ccc([nH]4)c(-c4ccccc4)c4nc(c(-c5ccccc5)c5ccc2[nH]5)C=C4)C=C3)cc1
REMARK SMILES IDX 4 1 3 2 1 3 2 4 20 6 21 7 67 8 22 9 66 10 23 11 24 12 25 13
REMARK SMILES IDX 60 14 26 15 65 16 59 17 61 18 27 19 64 20 58 21 57 22 28 24
REMARK SMILES IDX 50 25 35 26 49 27 36 28 39 29 48 30 62 31 37 32 38 33 47 35
REMARK SMILES IDX 63 36 40 37 29 38 30 39 34 40 31 41 33 42 32 43 51 44 52 45
REMARK SMILES IDX 56 46 53 47 55 48 54 49 41 50 42 51 46 52 43 53 45 54 44 55
REMARK SMILES IDX 5 56 6 57 7 58 8 59 9 61 10 62 11 63 19 64 12 65 13 66 14 69
REMARK SMILES IDX 18 70 15 71 17 72 16 73
REMARK H PARENT 3 5 61 23 39 34 7 60 19 67 19 68
REMARK Flexibility Score: inf
ROOT
ATOM      1  C   UNL A   1      33.786  28.514  27.233  1.00  0.00     0.118 C 
ENDROOT
BRANCH   1   2
ATOM      2  N   UNL A   1      33.694  29.910  27.644  1.00  0.00    -0.352 N 
ATOM      3  O   UNL A   1      34.267  31.815  28.701  1.00  0.00    -0.269 OA
ATOM      4  C   UNL A   1      34.605  30.704  28.299  1.00  0.00     0.251 C 
ATOM      5  H   UNL A   1      32.846  30.353  27.416  1.00  0.00     0.163 HD
BRANCH   4   6
ATOM      6  C   UNL A   1      35.982  30.222  28.545  1.00  0.00     0.039 A 
ATOM      7  C   UNL A   1      36.968  30.359  27.568  1.00  0.00     0.014 A 
ATOM      8  C   UNL A   1      36.301  29.646  29.779  1.00  0.00     0.014 A 
ATOM      9  C   UNL A   1      38.209  29.765  27.753  1.00  0.00     0.010 A 
ATOM     10  C   UNL A   1      37.589  29.147  30.007  1.00  0.00     0.010 A 
ATOM     11  C   UNL A   1      38.545  29.170  28.982  1.00  0.00    -0.014 A 
BRANCH  11  12
ATOM     12  C   UNL A   1      39.927  28.657  29.163  1.00  0.00     0.031 A 
ATOM     13  C   UNL A   1      40.318  27.269  28.737  1.00  0.00     0.074 A 
ATOM     14  C   UNL A   1      40.858  29.501  29.649  1.00  0.00     0.049 A 
ATOM     15  N   UNL A   1      41.508  26.722  28.725  1.00  0.00    -0.248 NA
ATOM     16  C   UNL A   1      39.244  26.377  28.272  1.00  0.00     0.031 C 
ATOM     17  C   UNL A   1      40.596  30.866  30.116  1.00  0.00     0.029 A 
ATOM     18  N   UNL A   1      42.215  29.359  29.788  1.00  0.00    -0.354 N 
ATOM     19  C   UNL A   1      41.327  25.424  28.265  1.00  0.00     0.074 A 
ATOM     20  C   UNL A   1      39.908  25.254  28.034  1.00  0.00     0.031 C 
ATOM     21  C   UNL A   1      41.759  31.461  30.413  1.00  0.00     0.029 A 
ATOM     22  C   UNL A   1      42.841  30.503  30.222  1.00  0.00     0.049 A 
ATOM     23  H   UNL A   1      42.693  28.521  29.596  1.00  0.00     0.167 HD
ATOM     24  C   UNL A   1      42.259  24.463  28.047  1.00  0.00     0.031 A 
ATOM     25  C   UNL A   1      44.142  30.759  30.447  1.00  0.00     0.031 A 
ATOM     26  C   UNL A   1      43.670  24.631  28.281  1.00  0.00     0.049 A 
ATOM     27  C   UNL A   1      45.149  29.677  30.197  1.00  0.00     0.074 A 
ATOM     28  C   UNL A   1      44.692  23.717  28.088  1.00  0.00     0.029 A 
ATOM     29  N   UNL A   1      44.260  25.791  28.760  1.00  0.00    -0.354 N 
ATOM     30  N   UNL A   1      44.958  28.464  29.741  1.00  0.00    -0.248 NA
ATOM     31  C   UNL A   1      46.549  30.002  30.493  1.00  0.00     0.031 C 
ATOM     32  C   UNL A   1      45.895  24.310  28.487  1.00  0.00     0.029 A 
ATOM     33  C   UNL A   1      45.628  25.611  28.882  1.00  0.00     0.049 A 
ATOM     34  H   UNL A   1      43.777  26.620  28.982  1.00  0.00     0.167 HD
ATOM     35  C   UNL A   1      46.214  27.878  29.694  1.00  0.00     0.074 A 
ATOM     36  C   UNL A   1      47.163  28.884  30.131  1.00  0.00     0.031 C 
ATOM     37  C   UNL A   1      46.553  26.616  29.335  1.00  0.00     0.031 A 
BRANCH  24  38
ATOM     38  C   UNL A   1      41.781  23.131  27.540  1.00  0.00    -0.014 A 
ATOM     39  C   UNL A   1      41.685  22.870  26.164  1.00  0.00     0.009 A 
ATOM     40  C   UNL A   1      41.479  22.104  28.447  1.00  0.00     0.009 A 
ATOM     41  C   UNL A   1      41.274  21.615  25.708  1.00  0.00     0.001 A 
ATOM     42  C   UNL A   1      41.091  20.843  27.988  1.00  0.00     0.001 A 
ATOM     43  C   UNL A   1      40.983  20.602  26.619  1.00  0.00     0.000 A 
ENDBRANCH  24  38
BRANCH  25  44
ATOM     44  C   UNL A   1      44.556  32.092  30.952  1.00  0.00    -0.014 A 
ATOM     45  C   UNL A   1      44.736  32.319  32.324  1.00  0.00     0.009 A 
ATOM     46  C   UNL A   1      44.785  33.147  30.052  1.00  0.00     0.009 A 
ATOM     47  C   UNL A   1      45.114  33.583  32.787  1.00  0.00     0.001 A 
ATOM     48  C   UNL A   1      45.193  34.398  30.515  1.00  0.00     0.001 A 
ATOM     49  C   UNL A   1      45.347  34.617  31.882  1.00  0.00     0.000 A 
ENDBRANCH  25  44
BRANCH  37  50
ATOM     50  C   UNL A   1      48.012  26.269  29.398  1.00  0.00    -0.014 A 
ATOM     51  C   UNL A   1      48.579  25.738  30.567  1.00  0.00     0.009 A 
ATOM     52  C   UNL A   1      48.828  26.475  28.276  1.00  0.00     0.009 A 
ATOM     53  C   UNL A   1      49.946  25.461  30.625  1.00  0.00     0.001 A 
ATOM     54  C   UNL A   1      50.190  26.172  28.329  1.00  0.00     0.001 A 
ATOM     55  C   UNL A   1      50.748  25.677  29.506  1.00  0.00     0.000 A 
ENDBRANCH  37  50
ENDBRANCH  11  12
ENDBRANCH   4   6
ENDBRANCH   1   2
BRANCH   1  56
ATOM     56  C   UNL A   1      34.242  28.346  25.790  1.00  0.00     0.042 C 
BRANCH  56  57
ATOM     57  C   UNL A   1      33.099  28.178  24.800  1.00  0.00     0.118 C 
BRANCH  57  58
ATOM     58  N   UNL A   1      33.554  27.671  23.517  1.00  0.00    -0.351 N 
ATOM     59  C   UNL A   1      33.482  26.409  22.991  1.00  0.00     0.279 C 
ATOM     60  H   UNL A   1      33.983  28.340  22.935  1.00  0.00     0.163 HD
ATOM     61  O   UNL A   1      33.932  26.242  21.858  1.00  0.00    -0.268 OA
BRANCH  59  62
ATOM     62  C   UNL A   1      32.882  25.276  23.847  1.00  0.00     0.283 C 
ATOM     63  C   UNL A   1      32.295  24.155  23.005  1.00  0.00     0.151 C 
ATOM     64  N   UNL A   1      33.891  24.754  24.801  1.00  0.00    -0.322 N 
ATOM     65  S   UNL A   1      33.637  22.986  22.789  1.00  0.00    -0.089 SA
ATOM     66  C   UNL A   1      34.484  23.490  24.324  1.00  0.00     0.143 C 
ATOM     67  H   UNL A   1      33.442  24.590  25.702  1.00  0.00     0.348 HD
ATOM     68  H   UNL A   1      34.636  25.445  24.889  1.00  0.00     0.348 HD
ATOM     69  C   UNL A   1      35.999  23.643  24.072  1.00  0.00     0.081 C 
ATOM     70  C   UNL A   1      34.247  22.436  25.425  1.00  0.00     0.081 C 
ATOM     71  C   UNL A   1      36.706  22.312  23.792  1.00  0.00     0.007 C 
ATOM     72  C   UNL A   1      34.943  21.100  25.154  1.00  0.00     0.007 C 
ATOM     73  C   UNL A   1      36.433  21.282  24.886  1.00  0.00     0.001 C 
ENDBRANCH  59  62
ENDBRANCH  57  58
ENDBRANCH  56  57
ENDBRANCH   1  56
TORSDOF 10
ENDMDL
MODEL 3
REMARK VINA RESULT:     -10.4      0.599      6.302
REMARK SMILES O=C(NCCCNC(=O)[C@H]1CSC2(CCCCC2)[NH2+]1)c1ccc(-c2c3nc(c(-c4ccccc4)c4ccc([nH]4)c(-c4ccccc4)c4nc(c(-c5ccccc5)c5ccc2[nH]5)C=C4)C=C3)cc1
REMARK SMILES IDX 4 1 3 2 1 3 2 4 20 6 21 7 67 8 22 9 66 10 23 11 24 12 25 13
REMARK SMILES IDX 60 14 26 15 65 16 59 17 61 18 27 19 64 20 58 21 57 22 28 24
REMARK SMILES IDX 50 25 35 26 49 27 36 28 39 29 48 30 62 31 37 32 38 33 47 35
REMARK SMILES IDX 63 36 40 37 29 38 30 39 34 40 31 41 33 42 32 43 51 44 52 45
REMARK SMILES IDX 56 46 53 47 55 48 54 49 41 50 42 51 46 52 43 53 45 54 44 55
REMARK SMILES IDX 5 56 6 57 7 58 8 59 9 61 10 62 11 63 19 64 12 65 13 66 14 69
REMARK SMILES IDX 18 70 15 71 17 72 16 73
REMARK H PARENT 3 5 61 23 39 34 7 60 19 67 19 68
REMARK Flexibility Score: inf
ROOT
ATOM      1  C   UNL A   1      35.067  33.136  28.021  1.00  0.00     0.118 C 
ENDROOT
BRANCH   1   2
ATOM      2  N   UNL A   1      34.238  31.965  27.765  1.00  0.00    -0.352 N 
ATOM      3  O   UNL A   1      33.750  29.808  27.335  1.00  0.00    -0.269 OA
ATOM      4  C   UNL A   1      34.570  30.631  27.734  1.00  0.00     0.251 C 
ATOM      5  H   UNL A   1      33.290  32.160  27.587  1.00  0.00     0.163 HD
BRANCH   4   6
ATOM      6  C   UNL A   1      35.916  30.182  28.156  1.00  0.00     0.039 A 
ATOM      7  C   UNL A   1      36.991  30.229  27.271  1.00  0.00     0.014 A 
ATOM      8  C   UNL A   1      36.112  29.730  29.466  1.00  0.00     0.014 A 
ATOM      9  C   UNL A   1      38.206  29.662  27.630  1.00  0.00     0.010 A 
ATOM     10  C   UNL A   1      37.370  29.263  29.863  1.00  0.00     0.010 A 
ATOM     11  C   UNL A   1      38.420  29.191  28.937  1.00  0.00    -0.014 A 
BRANCH  11  12
ATOM     12  C   UNL A   1      39.776  28.705  29.299  1.00  0.00     0.031 A 
ATOM     13  C   UNL A   1      40.285  27.367  28.841  1.00  0.00     0.074 A 
ATOM     14  C   UNL A   1      40.584  29.535  29.990  1.00  0.00     0.049 A 
ATOM     15  N   UNL A   1      41.484  26.856  28.980  1.00  0.00    -0.248 NA
ATOM     16  C   UNL A   1      39.336  26.484  28.146  1.00  0.00     0.031 C 
ATOM     17  C   UNL A   1      40.196  30.850  30.507  1.00  0.00     0.029 A 
ATOM     18  N   UNL A   1      41.907  29.421  30.333  1.00  0.00    -0.354 N 
ATOM     19  C   UNL A   1      41.431  25.594  28.402  1.00  0.00     0.074 A 
ATOM     20  C   UNL A   1      40.075  25.403  27.935  1.00  0.00     0.031 C 
ATOM     21  C   UNL A   1      41.272  31.453  31.030  1.00  0.00     0.029 A 
ATOM     22  C   UNL A   1      42.409  30.544  30.945  1.00  0.00     0.049 A 
ATOM     23  H   UNL A   1      42.443  28.614  30.159  1.00  0.00     0.167 HD
ATOM     24  C   UNL A   1      42.424  24.681  28.267  1.00  0.00     0.031 A 
ATOM     25  C   UNL A   1      43.647  30.818  31.393  1.00  0.00     0.031 A 
ATOM     26  C   UNL A   1      43.773  24.870  28.736  1.00  0.00     0.049 A 
ATOM     27  C   UNL A   1      44.724  29.789  31.229  1.00  0.00     0.074 A 
ATOM     28  C   UNL A   1      44.849  24.004  28.642  1.00  0.00     0.029 A 
ATOM     29  N   UNL A   1      44.232  26.005  29.387  1.00  0.00    -0.354 N 
ATOM     30  N   UNL A   1      44.657  28.611  30.660  1.00  0.00    -0.248 NA
ATOM     31  C   UNL A   1      46.045  30.129  31.768  1.00  0.00     0.031 C 
ATOM     32  C   UNL A   1      45.948  24.598  29.271  1.00  0.00     0.029 A 
ATOM     33  C   UNL A   1      45.570  25.856  29.713  1.00  0.00     0.049 A 
ATOM     34  H   UNL A   1      43.687  26.799  29.589  1.00  0.00     0.167 HD
ATOM     35  C   UNL A   1      45.927  28.067  30.773  1.00  0.00     0.074 A 
ATOM     36  C   UNL A   1      46.754  29.062  31.428  1.00  0.00     0.031 C 
ATOM     37  C   UNL A   1      46.370  26.848  30.381  1.00  0.00     0.031 A 
BRANCH  24  38
ATOM     38  C   UNL A   1      42.087  23.380  27.593  1.00  0.00    -0.014 A 
ATOM     39  C   UNL A   1      42.379  23.168  26.236  1.00  0.00     0.009 A 
ATOM     40  C   UNL A   1      41.525  22.331  28.337  1.00  0.00     0.009 A 
ATOM     41  C   UNL A   1      42.092  21.941  25.633  1.00  0.00     0.001 A 
ATOM     42  C   UNL A   1      41.261  21.097  27.738  1.00  0.00     0.001 A 
ATOM     43  C   UNL A   1      41.540  20.905  26.385  1.00  0.00     0.000 A 
ENDBRANCH  24  38
BRANCH  25  44
ATOM     44  C   UNL A   1      43.921  32.119  32.055  1.00  0.00    -0.014 A 
ATOM     45  C   UNL A   1      44.400  33.214  31.321  1.00  0.00     0.009 A 
ATOM     46  C   UNL A   1      43.692  32.271  33.433  1.00  0.00     0.009 A 
ATOM     47  C   UNL A   1      44.666  34.429  31.959  1.00  0.00     0.001 A 
ATOM     48  C   UNL A   1      43.928  33.495  34.060  1.00  0.00     0.001 A 
ATOM     49  C   UNL A   1      44.424  34.569  33.325  1.00  0.00     0.000 A 
ENDBRANCH  25  44
BRANCH  37  50
ATOM     50  C   UNL A   1      47.814  26.538  30.651  1.00  0.00    -0.014 A 
ATOM     51  C   UNL A   1      48.212  25.941  31.858  1.00  0.00     0.009 A 
ATOM     52  C   UNL A   1      48.787  26.848  29.689  1.00  0.00     0.009 A 
ATOM     53  C   UNL A   1      49.563  25.700  32.113  1.00  0.00     0.001 A 
ATOM     54  C   UNL A   1      50.134  26.581  29.936  1.00  0.00     0.001 A 
ATOM     55  C   UNL A   1      50.521  26.018  31.152  1.00  0.00     0.000 A 
ENDBRANCH  37  50
ENDBRANCH  11  12
ENDBRANCH   4   6
ENDBRANCH   1   2
BRANCH   1  56
ATOM     56  C   UNL A   1      34.268  34.431  28.087  1.00  0.00     0.042 C 
BRANCH  56  57
ATOM     57  C   UNL A   1      34.109  34.983  29.496  1.00  0.00     0.118 C 
BRANCH  57  58
ATOM     58  N   UNL A   1      33.816  33.939  30.464  1.00  0.00    -0.351 N 
ATOM     59  C   UNL A   1      34.464  33.605  31.623  1.00  0.00     0.279 C 
ATOM     60  H   UNL A   1      33.029  33.387  30.253  1.00  0.00     0.163 HD
ATOM     61  O   UNL A   1      33.997  32.678  32.284  1.00  0.00    -0.268 OA
BRANCH  59  62
ATOM     62  C   UNL A   1      35.743  34.372  32.012  1.00  0.00     0.283 C 
ATOM     63  C   UNL A   1      35.721  34.850  33.455  1.00  0.00     0.151 C 
ATOM     64  N   UNL A   1      36.947  33.548  31.741  1.00  0.00    -0.322 N 
ATOM     65  S   UNL A   1      36.490  33.529  34.392  1.00  0.00    -0.089 SA
ATOM     66  C   UNL A   1      37.467  32.927  32.974  1.00  0.00     0.143 C 
ATOM     67  H   UNL A   1      37.672  34.143  31.339  1.00  0.00     0.348 HD
ATOM     68  H   UNL A   1      36.687  32.805  31.092  1.00  0.00     0.348 HD
ATOM     69  C   UNL A   1      37.399  31.387  32.895  1.00  0.00     0.081 C 
ATOM     70  C   UNL A   1      38.936  33.374  33.121  1.00  0.00     0.081 C 
ATOM     71  C   UNL A   1      38.129  30.687  34.048  1.00  0.00     0.007 C 
ATOM     72  C   UNL A   1      39.673  32.686  34.272  1.00  0.00     0.007 C 
ATOM     73  C   UNL A   1      39.572  31.167  34.183  1.00  0.00     0.001 C 
ENDBRANCH  59  62
ENDBRANCH  57  58
ENDBRANCH  56  57
ENDBRANCH   1  56
TORSDOF 10
ENDMDL
