MODEL 1
REMARK VINA RESULT:     -11.5      0.000      0.000
REMARK SMILES O=C(Nc1nc(C2CC2)cs1)N[C@@H]1C=C[C@@H](C(=O)NCCCNC(=O)c2ccc(-c3c4nc(c(-c5ccccc5)c5ccc([nH]5)c(-c5ccccc5)c5nc(c(-c6ccccc6)c6ccc3[nH]6)C=C5)C=C4)cc2)C1
REMARK SMILES IDX 20 1 19 2 17 3 18 4 16 6 13 7 14 8 74 9 15 10 12 11 1 12
REMARK SMILES IDX 2 13 3 14 4 17 5 18 11 19 6 20 10 21 7 22 8 23 9 24 21 25
REMARK SMILES IDX 22 26 23 27 24 28 25 30 26 31 27 32 73 33 28 34 72 35 29 36
REMARK SMILES IDX 30 37 31 38 66 39 32 40 71 41 65 42 67 43 33 44 70 45 64 46
REMARK SMILES IDX 63 47 34 49 56 50 41 51 55 52 42 53 45 54 54 55 68 56 43 57
REMARK SMILES IDX 44 58 53 60 69 61 46 62 35 63 36 64 40 65 37 66 39 67 38 68
REMARK SMILES IDX 57 69 58 70 62 71 59 72 61 73 60 74 47 75 48 76 52 77 49 78
REMARK SMILES IDX 51 79 50 80
REMARK H PARENT 19 5 3 15 12 16 23 29 67 48 45 59
REMARK Flexibility Score: inf
ROOT
ATOM      1  C   UNL A   1      31.755  30.006  25.386  1.00  0.00     0.117 C 
ENDROOT
BRANCH   1   2
ATOM      2  N   UNL A   1      30.814  29.700  24.326  1.00  0.00    -0.356 N 
ATOM      3  C   UNL A   1      30.486  28.520  23.734  1.00  0.00     0.227 C 
ATOM      4  O   UNL A   1      29.628  28.567  22.847  1.00  0.00    -0.274 OA
ATOM      5  H   UNL A   1      30.328  30.481  23.975  1.00  0.00     0.163 HD
BRANCH   3   6
ATOM      6  C   UNL A   1      31.150  27.192  24.107  1.00  0.00     0.103 C 
ATOM      7  C   UNL A   1      30.417  25.034  25.021  1.00  0.00     0.107 C 
ATOM      8  C   UNL A   1      30.671  24.955  23.553  1.00  0.00    -0.006 C 
ATOM      9  C   UNL A   1      30.558  26.528  25.358  1.00  0.00     0.047 C 
ATOM     10  C   UNL A   1      31.058  26.133  23.046  1.00  0.00    -0.016 C 
BRANCH   7  11
ATOM     11  N   UNL A   1      31.313  24.168  25.750  1.00  0.00    -0.332 N 
ATOM     12  O   UNL A   1      29.867  23.409  27.354  1.00  0.00    -0.248 OA
ATOM     13  C   UNL A   1      30.962  23.373  26.798  1.00  0.00     0.321 C 
ATOM     14  N   UNL A   1      31.842  22.414  27.181  1.00  0.00    -0.284 N 
ATOM     15  H   UNL A   1      31.565  21.836  27.926  1.00  0.00     0.174 HD
ATOM     16  H   UNL A   1      32.254  24.149  25.465  1.00  0.00     0.165 HD
BRANCH  14  17
ATOM     17  C   UNL A   1      33.067  22.168  26.642  1.00  0.00     0.191 A 
ATOM     18  N   UNL A   1      34.131  22.935  26.625  1.00  0.00    -0.225 NA
ATOM     19  S   UNL A   1      33.179  20.664  25.844  1.00  0.00    -0.105 S 
ATOM     20  C   UNL A   1      35.118  22.293  25.896  1.00  0.00     0.057 A 
ATOM     21  C   UNL A   1      34.757  21.088  25.328  1.00  0.00     0.092 A 
BRANCH  20  22
ATOM     22  C   UNL A   1      36.524  22.855  25.735  1.00  0.00     0.039 C 
ATOM     23  C   UNL A   1      37.554  22.082  24.944  1.00  0.00     0.011 C 
ATOM     24  C   UNL A   1      36.939  23.304  24.350  1.00  0.00     0.011 C 
ENDBRANCH  20  22
ENDBRANCH  14  17
ENDBRANCH   7  11
ENDBRANCH   3   6
ENDBRANCH   1   2
BRANCH   1  25
ATOM     25  C   UNL A   1      31.379  31.276  26.138  1.00  0.00     0.042 C 
BRANCH  25  26
ATOM     26  C   UNL A   1      32.440  31.746  27.123  1.00  0.00     0.118 C 
BRANCH  26  27
ATOM     27  N   UNL A   1      32.300  33.153  27.468  1.00  0.00    -0.352 N 
ATOM     28  C   UNL A   1      33.080  33.950  28.262  1.00  0.00     0.251 C 
ATOM     29  H   UNL A   1      31.519  33.602  27.068  1.00  0.00     0.163 HD
ATOM     30  O   UNL A   1      32.677  35.072  28.576  1.00  0.00    -0.269 OA
BRANCH  28  31
ATOM     31  C   UNL A   1      34.394  33.484  28.753  1.00  0.00     0.039 A 
ATOM     32  C   UNL A   1      35.534  33.757  27.993  1.00  0.00     0.014 A 
ATOM     33  C   UNL A   1      34.504  32.731  29.926  1.00  0.00     0.014 A 
ATOM     34  C   UNL A   1      36.783  33.306  28.423  1.00  0.00     0.010 A 
ATOM     35  C   UNL A   1      35.758  32.362  30.401  1.00  0.00     0.010 A 
ATOM     36  C   UNL A   1      36.907  32.617  29.639  1.00  0.00    -0.014 A 
BRANCH  36  37
ATOM     37  C   UNL A   1      38.216  32.091  30.097  1.00  0.00     0.031 A 
ATOM     38  C   UNL A   1      38.720  30.776  29.566  1.00  0.00     0.074 A 
ATOM     39  C   UNL A   1      38.932  32.766  31.014  1.00  0.00     0.049 A 
ATOM     40  N   UNL A   1      39.817  30.127  29.865  1.00  0.00    -0.248 NA
ATOM     41  C   UNL A   1      37.863  30.085  28.588  1.00  0.00     0.031 C 
ATOM     42  C   UNL A   1      38.544  34.037  31.629  1.00  0.00     0.029 A 
ATOM     43  N   UNL A   1      40.144  32.475  31.586  1.00  0.00    -0.354 N 
ATOM     44  C   UNL A   1      39.765  28.946  29.135  1.00  0.00     0.074 A 
ATOM     45  C   UNL A   1      38.506  28.941  28.424  1.00  0.00     0.031 C 
ATOM     46  C   UNL A   1      39.521  34.439  32.458  1.00  0.00     0.029 A 
ATOM     47  C   UNL A   1      40.585  33.439  32.459  1.00  0.00     0.049 A 
ATOM     48  H   UNL A   1      40.651  31.655  31.388  1.00  0.00     0.167 HD
ATOM     49  C   UNL A   1      40.692  27.962  29.041  1.00  0.00     0.031 A 
ATOM     50  C   UNL A   1      41.724  33.513  33.171  1.00  0.00     0.031 A 
ATOM     51  C   UNL A   1      41.953  27.974  29.729  1.00  0.00     0.049 A 
ATOM     52  C   UNL A   1      42.739  32.410  33.054  1.00  0.00     0.074 A 
ATOM     53  C   UNL A   1      42.981  27.050  29.667  1.00  0.00     0.029 A 
ATOM     54  N   UNL A   1      42.360  28.969  30.604  1.00  0.00    -0.354 N 
ATOM     55  N   UNL A   1      42.697  31.323  32.323  1.00  0.00    -0.248 NA
ATOM     56  C   UNL A   1      43.964  32.557  33.850  1.00  0.00     0.031 C 
ATOM     57  C   UNL A   1      43.998  27.470  30.533  1.00  0.00     0.029 A 
ATOM     58  C   UNL A   1      43.620  28.678  31.098  1.00  0.00     0.049 A 
ATOM     59  H   UNL A   1      41.830  29.765  30.840  1.00  0.00     0.167 HD
ATOM     60  C   UNL A   1      43.905  30.674  32.542  1.00  0.00     0.074 A 
ATOM     61  C   UNL A   1      44.658  31.493  33.471  1.00  0.00     0.031 C 
ATOM     62  C   UNL A   1      44.354  29.508  32.016  1.00  0.00     0.031 A 
BRANCH  49  63
ATOM     63  C   UNL A   1      40.354  26.791  28.160  1.00  0.00    -0.014 A 
ATOM     64  C   UNL A   1      39.579  25.720  28.638  1.00  0.00     0.009 A 
ATOM     65  C   UNL A   1      40.829  26.748  26.841  1.00  0.00     0.009 A 
ATOM     66  C   UNL A   1      39.334  24.608  27.831  1.00  0.00     0.001 A 
ATOM     67  C   UNL A   1      40.555  25.648  26.025  1.00  0.00     0.001 A 
ATOM     68  C   UNL A   1      39.820  24.574  26.525  1.00  0.00     0.000 A 
ENDBRANCH  49  63
BRANCH  50  69
ATOM     69  C   UNL A   1      41.995  34.705  34.013  1.00  0.00    -0.014 A 
ATOM     70  C   UNL A   1      42.629  35.826  33.458  1.00  0.00     0.009 A 
ATOM     71  C   UNL A   1      41.619  34.734  35.365  1.00  0.00     0.009 A 
ATOM     72  C   UNL A   1      42.901  36.948  34.244  1.00  0.00     0.001 A 
ATOM     73  C   UNL A   1      41.871  35.867  36.142  1.00  0.00     0.001 A 
ATOM     74  C   UNL A   1      42.517  36.969  35.584  1.00  0.00     0.000 A 
ENDBRANCH  50  69
BRANCH  62  75
ATOM     75  C   UNL A   1      45.743  29.079  32.394  1.00  0.00    -0.014 A 
ATOM     76  C   UNL A   1      46.863  29.489  31.655  1.00  0.00     0.009 A 
ATOM     77  C   UNL A   1      45.932  28.275  33.530  1.00  0.00     0.009 A 
ATOM     78  C   UNL A   1      48.143  29.072  32.027  1.00  0.00     0.001 A 
ATOM     79  C   UNL A   1      47.214  27.881  33.913  1.00  0.00     0.001 A 
ATOM     80  C   UNL A   1      48.317  28.272  33.156  1.00  0.00     0.000 A 
ENDBRANCH  62  75
ENDBRANCH  36  37
ENDBRANCH  28  31
ENDBRANCH  26  27
ENDBRANCH  25  26
ENDBRANCH   1  25
TORSDOF 13
ENDMDL
MODEL 2
REMARK VINA RESULT:     -11.4      3.428      8.794
REMARK SMILES O=C(Nc1nc(C2CC2)cs1)N[C@@H]1C=C[C@@H](C(=O)NCCCNC(=O)c2ccc(-c3c4nc(c(-c5ccccc5)c5ccc([nH]5)c(-c5ccccc5)c5nc(c(-c6ccccc6)c6ccc3[nH]6)C=C5)C=C4)cc2)C1
REMARK SMILES IDX 20 1 19 2 17 3 18 4 16 6 13 7 14 8 74 9 15 10 12 11 1 12
REMARK SMILES IDX 2 13 3 14 4 17 5 18 11 19 6 20 10 21 7 22 8 23 9 24 21 25
REMARK SMILES IDX 22 26 23 27 24 28 25 30 26 31 27 32 73 33 28 34 72 35 29 36
REMARK SMILES IDX 30 37 31 38 66 39 32 40 71 41 65 42 67 43 33 44 70 45 64 46
REMARK SMILES IDX 63 47 34 49 56 50 41 51 55 52 42 53 45 54 54 55 68 56 43 57
REMARK SMILES IDX 44 58 53 60 69 61 46 62 35 63 36 64 40 65 37 66 39 67 38 68
REMARK SMILES IDX 57 69 58 70 62 71 59 72 61 73 60 74 47 75 48 76 52 77 49 78
REMARK SMILES IDX 51 79 50 80
REMARK H PARENT 19 5 3 15 12 16 23 29 67 48 45 59
REMARK Flexibility Score: inf
ROOT
ATOM      1  C   UNL A   1      36.264  20.824  24.879  1.00  0.00     0.117 C 
ENDROOT
BRANCH   1   2
ATOM      2  N   UNL A   1      34.987  20.136  24.887  1.00  0.00    -0.356 N 
ATOM      3  C   UNL A   1      33.716  20.608  24.768  1.00  0.00     0.227 C 
ATOM      4  O   UNL A   1      32.811  19.768  24.804  1.00  0.00    -0.274 OA
ATOM      5  H   UNL A   1      35.052  19.160  24.997  1.00  0.00     0.163 HD
BRANCH   3   6
ATOM      6  C   UNL A   1      33.393  22.096  24.624  1.00  0.00     0.103 C 
ATOM      7  C   UNL A   1      32.360  23.534  22.922  1.00  0.00     0.107 C 
ATOM      8  C   UNL A   1      31.427  23.257  24.054  1.00  0.00    -0.006 C 
ATOM      9  C   UNL A   1      33.580  22.641  23.201  1.00  0.00     0.047 C 
ATOM     10  C   UNL A   1      31.981  22.462  24.978  1.00  0.00    -0.016 C 
BRANCH   7  11
ATOM     11  N   UNL A   1      32.657  24.944  22.829  1.00  0.00    -0.332 N 
ATOM     12  O   UNL A   1      33.147  25.068  20.596  1.00  0.00    -0.248 OA
ATOM     13  C   UNL A   1      32.949  25.613  21.680  1.00  0.00     0.321 C 
ATOM     14  N   UNL A   1      32.918  26.969  21.718  1.00  0.00    -0.284 N 
ATOM     15  H   UNL A   1      33.111  27.437  20.874  1.00  0.00     0.174 HD
ATOM     16  H   UNL A   1      32.647  25.464  23.664  1.00  0.00     0.165 HD
BRANCH  14  17
ATOM     17  C   UNL A   1      32.646  27.749  22.799  1.00  0.00     0.191 A 
ATOM     18  N   UNL A   1      33.392  27.994  23.849  1.00  0.00    -0.225 NA
ATOM     19  S   UNL A   1      31.091  28.449  22.769  1.00  0.00    -0.105 S 
ATOM     20  C   UNL A   1      32.666  28.784  24.724  1.00  0.00     0.057 A 
ATOM     21  C   UNL A   1      31.368  29.065  24.344  1.00  0.00     0.092 A 
BRANCH  20  22
ATOM     22  C   UNL A   1      33.248  29.334  26.019  1.00  0.00     0.039 C 
ATOM     23  C   UNL A   1      32.374  30.143  26.949  1.00  0.00     0.011 C 
ATOM     24  C   UNL A   1      32.737  28.744  27.317  1.00  0.00     0.011 C 
ENDBRANCH  20  22
ENDBRANCH  14  17
ENDBRANCH   7  11
ENDBRANCH   3   6
ENDBRANCH   1   2
BRANCH   1  25
ATOM     25  C   UNL A   1      37.436  19.859  24.990  1.00  0.00     0.042 C 
BRANCH  25  26
ATOM     26  C   UNL A   1      38.679  20.469  25.623  1.00  0.00     0.118 C 
BRANCH  26  27
ATOM     27  N   UNL A   1      39.755  19.504  25.788  1.00  0.00    -0.352 N 
ATOM     28  C   UNL A   1      41.063  19.690  26.149  1.00  0.00     0.251 C 
ATOM     29  H   UNL A   1      39.503  18.568  25.611  1.00  0.00     0.163 HD
ATOM     30  O   UNL A   1      41.859  18.755  26.046  1.00  0.00    -0.269 OA
BRANCH  28  31
ATOM     31  C   UNL A   1      41.535  20.998  26.653  1.00  0.00     0.039 A 
ATOM     32  C   UNL A   1      41.513  21.238  28.029  1.00  0.00     0.014 A 
ATOM     33  C   UNL A   1      41.944  22.008  25.777  1.00  0.00     0.014 A 
ATOM     34  C   UNL A   1      41.930  22.473  28.528  1.00  0.00     0.010 A 
ATOM     35  C   UNL A   1      42.447  23.204  26.279  1.00  0.00     0.010 A 
ATOM     36  C   UNL A   1      42.415  23.461  27.658  1.00  0.00    -0.014 A 
BRANCH  36  37
ATOM     37  C   UNL A   1      42.824  24.796  28.158  1.00  0.00     0.031 A 
ATOM     38  C   UNL A   1      41.784  25.859  28.388  1.00  0.00     0.074 A 
ATOM     39  C   UNL A   1      44.125  25.069  28.367  1.00  0.00     0.049 A 
ATOM     40  N   UNL A   1      41.938  27.097  28.785  1.00  0.00    -0.248 NA
ATOM     41  C   UNL A   1      40.387  25.490  28.106  1.00  0.00     0.031 C 
ATOM     42  C   UNL A   1      45.234  24.137  28.157  1.00  0.00     0.029 A 
ATOM     43  N   UNL A   1      44.732  26.216  28.811  1.00  0.00    -0.354 N 
ATOM     44  C   UNL A   1      40.666  27.656  28.774  1.00  0.00     0.074 A 
ATOM     45  C   UNL A   1      39.761  26.643  28.278  1.00  0.00     0.031 C 
ATOM     46  C   UNL A   1      46.382  24.735  28.515  1.00  0.00     0.029 A 
ATOM     47  C   UNL A   1      46.093  26.100  28.945  1.00  0.00     0.049 A 
ATOM     48  H   UNL A   1      44.239  27.043  29.014  1.00  0.00     0.167 HD
ATOM     49  C   UNL A   1      40.276  28.892  29.167  1.00  0.00     0.031 A 
ATOM     50  C   UNL A   1      47.004  26.991  29.377  1.00  0.00     0.031 A 
ATOM     51  C   UNL A   1      41.168  29.894  29.681  1.00  0.00     0.049 A 
ATOM     52  C   UNL A   1      46.551  28.359  29.806  1.00  0.00     0.074 A 
ATOM     53  C   UNL A   1      40.869  31.161  30.148  1.00  0.00     0.029 A 
ATOM     54  N   UNL A   1      42.540  29.735  29.800  1.00  0.00    -0.354 N 
ATOM     55  N   UNL A   1      45.339  28.857  29.835  1.00  0.00    -0.248 NA
ATOM     56  C   UNL A   1      47.595  29.279  30.277  1.00  0.00     0.031 C 
ATOM     57  C   UNL A   1      42.067  31.783  30.519  1.00  0.00     0.029 A 
ATOM     58  C   UNL A   1      43.105  30.885  30.325  1.00  0.00     0.049 A 
ATOM     59  H   UNL A   1      43.039  28.925  29.548  1.00  0.00     0.167 HD
ATOM     60  C   UNL A   1      45.468  30.135  30.362  1.00  0.00     0.074 A 
ATOM     61  C   UNL A   1      46.876  30.332  30.641  1.00  0.00     0.031 C 
ATOM     62  C   UNL A   1      44.507  31.060  30.600  1.00  0.00     0.031 A 
BRANCH  49  63
ATOM     63  C   UNL A   1      38.812  29.217  29.040  1.00  0.00    -0.014 A 
ATOM     64  C   UNL A   1      37.934  29.052  30.125  1.00  0.00     0.009 A 
ATOM     65  C   UNL A   1      38.301  29.676  27.818  1.00  0.00     0.009 A 
ATOM     66  C   UNL A   1      36.567  29.290  29.972  1.00  0.00     0.001 A 
ATOM     67  C   UNL A   1      36.938  29.944  27.676  1.00  0.00     0.001 A 
ATOM     68  C   UNL A   1      36.070  29.737  28.748  1.00  0.00     0.000 A 
ENDBRANCH  49  63
BRANCH  50  69
ATOM     69  C   UNL A   1      48.431  26.598  29.485  1.00  0.00    -0.014 A 
ATOM     70  C   UNL A   1      49.313  26.860  28.425  1.00  0.00     0.009 A 
ATOM     71  C   UNL A   1      48.922  25.969  30.639  1.00  0.00     0.009 A 
ATOM     72  C   UNL A   1      50.655  26.483  28.511  1.00  0.00     0.001 A 
ATOM     73  C   UNL A   1      50.270  25.615  30.731  1.00  0.00     0.001 A 
ATOM     74  C   UNL A   1      51.133  25.865  29.665  1.00  0.00     0.000 A 
ENDBRANCH  50  69
BRANCH  62  75
ATOM     75  C   UNL A   1      44.941  32.348  31.239  1.00  0.00    -0.014 A 
ATOM     76  C   UNL A   1      45.307  33.461  30.468  1.00  0.00     0.009 A 
ATOM     77  C   UNL A   1      44.954  32.453  32.640  1.00  0.00     0.009 A 
ATOM     78  C   UNL A   1      45.711  34.645  31.089  1.00  0.00     0.001 A 
ATOM     79  C   UNL A   1      45.333  33.646  33.256  1.00  0.00     0.001 A 
ATOM     80  C   UNL A   1      45.720  34.737  32.481  1.00  0.00     0.000 A 
ENDBRANCH  62  75
ENDBRANCH  36  37
ENDBRANCH  28  31
ENDBRANCH  26  27
ENDBRANCH  25  26
ENDBRANCH   1  25
TORSDOF 13
ENDMDL
MODEL 3
REMARK VINA RESULT:     -11.4      3.426      8.705
REMARK SMILES O=C(Nc1nc(C2CC2)cs1)N[C@@H]1C=C[C@@H](C(=O)NCCCNC(=O)c2ccc(-c3c4nc(c(-c5ccccc5)c5ccc([nH]5)c(-c5ccccc5)c5nc(c(-c6ccccc6)c6ccc3[nH]6)C=C5)C=C4)cc2)C1
REMARK SMILES IDX 20 1 19 2 17 3 18 4 16 6 13 7 14 8 74 9 15 10 12 11 1 12
REMARK SMILES IDX 2 13 3 14 4 17 5 18 11 19 6 20 10 21 7 22 8 23 9 24 21 25
REMARK SMILES IDX 22 26 23 27 24 28 25 30 26 31 27 32 73 33 28 34 72 35 29 36
REMARK SMILES IDX 30 37 31 38 66 39 32 40 71 41 65 42 67 43 33 44 70 45 64 46
REMARK SMILES IDX 63 47 34 49 56 50 41 51 55 52 42 53 45 54 54 55 68 56 43 57
REMARK SMILES IDX 44 58 53 60 69 61 46 62 35 63 36 64 40 65 37 66 39 67 38 68
REMARK SMILES IDX 57 69 58 70 62 71 59 72 61 73 60 74 47 75 48 76 52 77 49 78
REMARK SMILES IDX 51 79 50 80
REMARK H PARENT 19 5 3 15 12 16 23 29 67 48 45 59
REMARK Flexibility Score: inf
ROOT
ATOM      1  C   UNL A   1      36.218  20.542  24.745  1.00  0.00     0.117 C 
ENDROOT
BRANCH   1   2
ATOM      2  N   UNL A   1      34.932  19.918  24.989  1.00  0.00    -0.356 N 
ATOM      3  C   UNL A   1      33.677  20.443  25.031  1.00  0.00     0.227 C 
ATOM      4  O   UNL A   1      32.755  19.652  25.256  1.00  0.00    -0.274 OA
ATOM      5  H   UNL A   1      34.974  18.948  25.151  1.00  0.00     0.163 HD
BRANCH   3   6
ATOM      6  C   UNL A   1      33.394  21.935  24.841  1.00  0.00     0.103 C 
ATOM      7  C   UNL A   1      32.355  23.341  23.117  1.00  0.00     0.107 C 
ATOM      8  C   UNL A   1      31.447  23.134  24.284  1.00  0.00    -0.006 C 
ATOM      9  C   UNL A   1      33.556  22.421  23.395  1.00  0.00     0.047 C 
ATOM     10  C   UNL A   1      32.004  22.357  25.221  1.00  0.00    -0.016 C 
BRANCH   7  11
ATOM     11  N   UNL A   1      32.691  24.737  22.964  1.00  0.00    -0.332 N 
ATOM     12  O   UNL A   1      33.083  24.773  20.708  1.00  0.00    -0.248 OA
ATOM     13  C   UNL A   1      32.952  25.359  21.781  1.00  0.00     0.321 C 
ATOM     14  N   UNL A   1      32.964  26.716  21.775  1.00  0.00    -0.284 N 
ATOM     15  H   UNL A   1      33.134  27.149  20.908  1.00  0.00     0.174 HD
ATOM     16  H   UNL A   1      32.735  25.284  23.780  1.00  0.00     0.165 HD
BRANCH  14  17
ATOM     17  C   UNL A   1      32.766  27.538  22.840  1.00  0.00     0.191 A 
ATOM     18  N   UNL A   1      33.548  27.760  23.869  1.00  0.00    -0.225 NA
ATOM     19  S   UNL A   1      31.258  28.337  22.822  1.00  0.00    -0.105 S 
ATOM     20  C   UNL A   1      32.892  28.618  24.737  1.00  0.00     0.057 A 
ATOM     21  C   UNL A   1      31.608  28.972  24.374  1.00  0.00     0.092 A 
BRANCH  20  22
ATOM     22  C   UNL A   1      33.535  29.161  26.005  1.00  0.00     0.039 C 
ATOM     23  C   UNL A   1      32.711  29.980  26.972  1.00  0.00     0.011 C 
ATOM     24  C   UNL A   1      33.073  28.577  27.324  1.00  0.00     0.011 C 
ENDBRANCH  20  22
ENDBRANCH  14  17
ENDBRANCH   7  11
ENDBRANCH   3   6
ENDBRANCH   1   2
BRANCH   1  25
ATOM     25  C   UNL A   1      37.376  19.584  24.993  1.00  0.00     0.042 C 
BRANCH  25  26
ATOM     26  C   UNL A   1      38.550  20.213  25.730  1.00  0.00     0.118 C 
BRANCH  26  27
ATOM     27  N   UNL A   1      39.716  19.344  25.771  1.00  0.00    -0.352 N 
ATOM     28  C   UNL A   1      41.025  19.633  26.048  1.00  0.00     0.251 C 
ATOM     29  H   UNL A   1      39.535  18.397  25.566  1.00  0.00     0.163 HD
ATOM     30  O   UNL A   1      41.891  18.780  25.843  1.00  0.00    -0.269 OA
BRANCH  28  31
ATOM     31  C   UNL A   1      41.416  20.956  26.581  1.00  0.00     0.039 A 
ATOM     32  C   UNL A   1      41.275  21.199  27.950  1.00  0.00     0.014 A 
ATOM     33  C   UNL A   1      41.867  21.974  25.737  1.00  0.00     0.014 A 
ATOM     34  C   UNL A   1      41.614  22.447  28.475  1.00  0.00     0.010 A 
ATOM     35  C   UNL A   1      42.291  23.186  26.271  1.00  0.00     0.010 A 
ATOM     36  C   UNL A   1      42.139  23.447  27.641  1.00  0.00    -0.014 A 
BRANCH  36  37
ATOM     37  C   UNL A   1      42.467  24.794  28.166  1.00  0.00     0.031 A 
ATOM     38  C   UNL A   1      43.894  25.139  28.501  1.00  0.00     0.074 A 
ATOM     39  C   UNL A   1      41.489  25.692  28.380  1.00  0.00     0.049 A 
ATOM     40  N   UNL A   1      44.383  26.244  29.003  1.00  0.00    -0.248 NA
ATOM     41  C   UNL A   1      44.900  24.090  28.266  1.00  0.00     0.031 C 
ATOM     42  C   UNL A   1      40.064  25.475  28.124  1.00  0.00     0.029 A 
ATOM     43  N   UNL A   1      41.550  26.976  28.860  1.00  0.00    -0.354 N 
ATOM     44  C   UNL A   1      45.743  26.013  29.167  1.00  0.00     0.074 A 
ATOM     45  C   UNL A   1      45.992  24.646  28.766  1.00  0.00     0.031 C 
ATOM     46  C   UNL A   1      39.392  26.603  28.406  1.00  0.00     0.029 A 
ATOM     47  C   UNL A   1      40.331  27.607  28.895  1.00  0.00     0.049 A 
ATOM     48  H   UNL A   1      42.387  27.404  29.151  1.00  0.00     0.167 HD
ATOM     49  C   UNL A   1      46.707  26.865  29.589  1.00  0.00     0.031 A 
ATOM     50  C   UNL A   1      40.010  28.859  29.269  1.00  0.00     0.031 A 
ATOM     51  C   UNL A   1      46.467  28.231  29.967  1.00  0.00     0.049 A 
ATOM     52  C   UNL A   1      41.095  29.790  29.735  1.00  0.00     0.074 A 
ATOM     53  C   UNL A   1      47.380  29.191  30.365  1.00  0.00     0.029 A 
ATOM     54  N   UNL A   1      45.218  28.830  29.988  1.00  0.00    -0.354 N 
ATOM     55  N   UNL A   1      42.383  29.571  29.840  1.00  0.00    -0.248 NA
ATOM     56  C   UNL A   1      40.678  31.145  30.119  1.00  0.00     0.031 C 
ATOM     57  C   UNL A   1      46.677  30.365  30.660  1.00  0.00     0.029 A 
ATOM     58  C   UNL A   1      45.332  30.146  30.402  1.00  0.00     0.049 A 
ATOM     59  H   UNL A   1      44.374  28.385  29.746  1.00  0.00     0.167 HD
ATOM     60  C   UNL A   1      42.937  30.772  30.266  1.00  0.00     0.074 A 
ATOM     61  C   UNL A   1      41.843  31.714  30.396  1.00  0.00     0.031 C 
ATOM     62  C   UNL A   1      44.234  31.069  30.520  1.00  0.00     0.031 A 
BRANCH  49  63
ATOM     63  C   UNL A   1      48.109  26.325  29.663  1.00  0.00    -0.014 A 
ATOM     64  C   UNL A   1      48.608  25.755  30.847  1.00  0.00     0.009 A 
ATOM     65  C   UNL A   1      48.948  26.401  28.542  1.00  0.00     0.009 A 
ATOM     66  C   UNL A   1      49.933  25.322  30.921  1.00  0.00     0.001 A 
ATOM     67  C   UNL A   1      50.264  25.938  28.609  1.00  0.00     0.001 A 
ATOM     68  C   UNL A   1      50.759  25.413  29.802  1.00  0.00     0.000 A 
ENDBRANCH  49  63
BRANCH  50  69
ATOM     69  C   UNL A   1      38.606  29.328  29.160  1.00  0.00    -0.014 A 
ATOM     70  C   UNL A   1      38.129  29.837  27.942  1.00  0.00     0.009 A 
ATOM     71  C   UNL A   1      37.736  29.265  30.259  1.00  0.00     0.009 A 
ATOM     72  C   UNL A   1      36.814  30.292  27.832  1.00  0.00     0.001 A 
ATOM     73  C   UNL A   1      36.414  29.699  30.138  1.00  0.00     0.001 A 
ATOM     74  C   UNL A   1      35.957  30.219  28.928  1.00  0.00     0.000 A 
ENDBRANCH  50  69
BRANCH  62  75
ATOM     75  C   UNL A   1      44.546  32.485  30.913  1.00  0.00    -0.014 A 
ATOM     76  C   UNL A   1      44.819  33.469  29.951  1.00  0.00     0.009 A 
ATOM     77  C   UNL A   1      44.534  32.842  32.271  1.00  0.00     0.009 A 
ATOM     78  C   UNL A   1      45.109  34.777  30.345  1.00  0.00     0.001 A 
ATOM     79  C   UNL A   1      44.799  34.156  32.659  1.00  0.00     0.001 A 
ATOM     80  C   UNL A   1      45.095  35.120  31.697  1.00  0.00     0.000 A 
ENDBRANCH  62  75
ENDBRANCH  36  37
ENDBRANCH  28  31
ENDBRANCH  26  27
ENDBRANCH  25  26
ENDBRANCH   1  25
TORSDOF 13
ENDMDL
