MODEL 1
REMARK VINA RESULT:     -13.2      0.000      0.000
REMARK SMILES Cc1ncc(CO)c([C@H]2[NH2+][C@@H](C(=O)NCCCNC(=O)c3ccc(-c4c5nc(c(-c6ccccc6)c6ccc([nH]6)c(-c6ccccc6)c6nc(c(-c7ccccc7)c7ccc4[nH]7)C=C6)C=C5)cc3)Cc3[nH]cnc32)c1O
REMARK SMILES IDX 15 1 14 2 12 3 13 4 11 6 9 7 10 8 74 9 70 12 73 13 69 14
REMARK SMILES IDX 71 15 72 16 8 18 1 19 2 20 3 21 75 22 4 23 5 24 76 25 6 27
REMARK SMILES IDX 7 28 16 30 17 31 18 32 19 33 20 35 21 36 22 37 68 38 23 39
REMARK SMILES IDX 67 40 24 41 25 42 26 43 61 44 27 45 66 46 60 47 62 48 28 49
REMARK SMILES IDX 65 50 59 51 58 52 29 54 51 55 36 56 50 57 37 58 40 59 49 60
REMARK SMILES IDX 63 61 38 62 39 63 48 65 64 66 41 67 30 68 31 69 35 70 32 71
REMARK SMILES IDX 34 72 33 73 52 74 53 75 57 76 54 77 56 78 55 79 42 80 43 81
REMARK SMILES IDX 47 82 44 83 46 84 45 85
REMARK H PARENT 14 5 10 10 10 11 71 17 76 26 7 29 18 34 62 53 40 64
REMARK Flexibility Score: inf
ROOT
ATOM      1  C   UNL A   1      36.617  20.537  25.149  1.00  0.00     0.118 C 
ENDROOT
BRANCH   1   2
ATOM      2  N   UNL A   1      36.945  21.943  25.363  1.00  0.00    -0.351 N 
ATOM      3  C   UNL A   1      36.146  22.962  25.820  1.00  0.00     0.278 C 
ATOM      4  O   UNL A   1      36.642  24.076  25.976  1.00  0.00    -0.268 OA
ATOM      5  H   UNL A   1      37.872  22.197  25.148  1.00  0.00     0.163 HD
BRANCH   3   6
ATOM      6  C   UNL A   1      34.668  22.651  26.049  1.00  0.00     0.279 C 
ATOM      7  C   UNL A   1      32.872  21.241  25.387  1.00  0.00     0.270 C 
ATOM      8  N   UNL A   1      34.077  21.948  24.879  1.00  0.00    -0.324 N 
ATOM      9  C   UNL A   1      31.888  22.277  25.849  1.00  0.00     0.124 A 
ATOM     10  H   UNL A   1      33.815  22.621  24.158  1.00  0.00     0.347 HD
ATOM     11  H   UNL A   1      34.741  21.297  24.462  1.00  0.00     0.347 HD
ATOM     12  C   UNL A   1      32.368  23.463  26.403  1.00  0.00     0.051 A 
ATOM     13  N   UNL A   1      30.566  22.119  26.179  1.00  0.00    -0.235 NA
ATOM     14  C   UNL A   1      33.812  23.883  26.434  1.00  0.00     0.131 C 
ATOM     15  N   UNL A   1      31.306  24.063  27.004  1.00  0.00    -0.348 N 
ATOM     16  C   UNL A   1      30.241  23.214  26.842  1.00  0.00     0.197 A 
ATOM     17  H   UNL A   1      31.302  24.933  27.463  1.00  0.00     0.167 HD
BRANCH   7  18
ATOM     18  C   UNL A   1      32.552  20.052  24.523  1.00  0.00     0.066 A 
ATOM     19  C   UNL A   1      32.972  16.298  25.268  1.00  0.00     0.071 C 
ATOM     20  C   UNL A   1      32.662  17.583  24.557  1.00  0.00     0.079 A 
ATOM     21  N   UNL A   1      32.373  17.511  23.246  1.00  0.00    -0.257 NA
ATOM     22  C   UNL A   1      32.713  18.807  25.210  1.00  0.00     0.146 A 
ATOM     23  C   UNL A   1      32.198  18.688  22.591  1.00  0.00     0.118 A 
ATOM     24  C   UNL A   1      32.302  19.976  23.150  1.00  0.00     0.009 A 
BRANCH  22  25
ATOM     25  O   UNL A   1      33.015  18.799  26.558  1.00  0.00    -0.505 OA
ATOM     26  H   UNL A   1      33.575  19.459  26.916  1.00  0.00     0.293 HD
ENDBRANCH  22  25
BRANCH  24  27
ATOM     27  C   UNL A   1      32.161  21.133  22.206  1.00  0.00     0.194 C 
BRANCH  27  28
ATOM     28  O   UNL A   1      31.427  20.718  21.055  1.00  0.00    -0.392 OA
ATOM     29  H   UNL A   1      31.931  20.041  20.577  1.00  0.00     0.211 HD
ENDBRANCH  27  28
ENDBRANCH  24  27
ENDBRANCH   7  18
ENDBRANCH   3   6
ENDBRANCH   1   2
BRANCH   1  30
ATOM     30  C   UNL A   1      37.846  19.648  24.928  1.00  0.00     0.042 C 
BRANCH  30  31
ATOM     31  C   UNL A   1      39.045  20.133  25.725  1.00  0.00     0.118 C 
BRANCH  31  32
ATOM     32  N   UNL A   1      40.157  19.173  25.734  1.00  0.00    -0.352 N 
ATOM     33  C   UNL A   1      41.513  19.408  25.913  1.00  0.00     0.251 C 
ATOM     34  H   UNL A   1      39.906  18.233  25.591  1.00  0.00     0.163 HD
ATOM     35  O   UNL A   1      42.341  18.571  25.604  1.00  0.00    -0.269 OA
BRANCH  33  36
ATOM     36  C   UNL A   1      41.926  20.696  26.496  1.00  0.00     0.039 A 
ATOM     37  C   UNL A   1      42.442  21.741  25.726  1.00  0.00     0.014 A 
ATOM     38  C   UNL A   1      41.730  20.853  27.860  1.00  0.00     0.014 A 
ATOM     39  C   UNL A   1      42.691  22.965  26.347  1.00  0.00     0.010 A 
ATOM     40  C   UNL A   1      41.719  22.103  28.398  1.00  0.00     0.010 A 
ATOM     41  C   UNL A   1      42.308  23.134  27.687  1.00  0.00    -0.014 A 
BRANCH  41  42
ATOM     42  C   UNL A   1      42.419  24.405  28.384  1.00  0.00     0.031 A 
ATOM     43  C   UNL A   1      41.304  25.339  28.107  1.00  0.00     0.074 A 
ATOM     44  C   UNL A   1      43.311  24.600  29.382  1.00  0.00     0.049 A 
ATOM     45  N   UNL A   1      41.358  26.436  27.433  1.00  0.00    -0.248 NA
ATOM     46  C   UNL A   1      39.938  24.931  28.479  1.00  0.00     0.031 C 
ATOM     47  C   UNL A   1      44.258  23.635  29.967  1.00  0.00     0.029 A 
ATOM     48  N   UNL A   1      43.478  25.686  30.181  1.00  0.00    -0.354 N 
ATOM     49  C   UNL A   1      40.079  26.978  27.489  1.00  0.00     0.074 A 
ATOM     50  C   UNL A   1      39.216  25.924  27.956  1.00  0.00     0.031 C 
ATOM     51  C   UNL A   1      44.708  24.097  31.156  1.00  0.00     0.029 A 
ATOM     52  C   UNL A   1      44.234  25.456  31.327  1.00  0.00     0.049 A 
ATOM     53  H   UNL A   1      43.095  26.567  29.966  1.00  0.00     0.167 HD
ATOM     54  C   UNL A   1      39.891  28.325  27.424  1.00  0.00     0.031 A 
ATOM     55  C   UNL A   1      44.449  26.322  32.348  1.00  0.00     0.031 A 
ATOM     56  C   UNL A   1      41.091  29.000  26.993  1.00  0.00     0.049 A 
ATOM     57  C   UNL A   1      44.163  27.678  31.830  1.00  0.00     0.074 A 
ATOM     58  C   UNL A   1      41.871  28.982  25.857  1.00  0.00     0.029 A 
ATOM     59  N   UNL A   1      41.874  29.535  27.988  1.00  0.00    -0.354 N 
ATOM     60  N   UNL A   1      44.875  28.248  30.901  1.00  0.00    -0.248 NA
ATOM     61  C   UNL A   1      42.817  28.201  31.995  1.00  0.00     0.031 C 
ATOM     62  C   UNL A   1      43.213  29.076  26.331  1.00  0.00     0.029 A 
ATOM     63  C   UNL A   1      43.181  29.229  27.719  1.00  0.00     0.049 A 
ATOM     64  H   UNL A   1      41.551  30.050  28.763  1.00  0.00     0.167 HD
ATOM     65  C   UNL A   1      43.945  28.861  30.073  1.00  0.00     0.074 A 
ATOM     66  C   UNL A   1      42.710  28.895  30.858  1.00  0.00     0.031 C 
ATOM     67  C   UNL A   1      44.188  29.010  28.737  1.00  0.00     0.031 A 
BRANCH  54  68
ATOM     68  C   UNL A   1      38.811  29.056  28.184  1.00  0.00    -0.014 A 
ATOM     69  C   UNL A   1      38.741  28.881  29.577  1.00  0.00     0.009 A 
ATOM     70  C   UNL A   1      37.699  29.658  27.567  1.00  0.00     0.009 A 
ATOM     71  C   UNL A   1      37.588  29.211  30.297  1.00  0.00     0.001 A 
ATOM     72  C   UNL A   1      36.560  30.027  28.288  1.00  0.00     0.001 A 
ATOM     73  C   UNL A   1      36.493  29.774  29.650  1.00  0.00     0.000 A 
ENDBRANCH  54  68
BRANCH  55  74
ATOM     74  C   UNL A   1      44.616  26.047  33.792  1.00  0.00    -0.014 A 
ATOM     75  C   UNL A   1      43.513  25.760  34.613  1.00  0.00     0.009 A 
ATOM     76  C   UNL A   1      45.899  25.782  34.308  1.00  0.00     0.009 A 
ATOM     77  C   UNL A   1      43.688  25.200  35.887  1.00  0.00     0.001 A 
ATOM     78  C   UNL A   1      46.072  25.220  35.578  1.00  0.00     0.001 A 
ATOM     79  C   UNL A   1      44.966  24.916  36.363  1.00  0.00     0.000 A 
ENDBRANCH  55  74
BRANCH  67  80
ATOM     80  C   UNL A   1      45.583  28.702  28.240  1.00  0.00    -0.014 A 
ATOM     81  C   UNL A   1      46.005  27.411  27.870  1.00  0.00     0.009 A 
ATOM     82  C   UNL A   1      46.445  29.778  27.988  1.00  0.00     0.009 A 
ATOM     83  C   UNL A   1      47.259  27.206  27.284  1.00  0.00     0.001 A 
ATOM     84  C   UNL A   1      47.688  29.576  27.385  1.00  0.00     0.001 A 
ATOM     85  C   UNL A   1      48.098  28.291  27.036  1.00  0.00     0.000 A 
ENDBRANCH  67  80
ENDBRANCH  41  42
ENDBRANCH  33  36
ENDBRANCH  31  32
ENDBRANCH  30  31
ENDBRANCH   1  30
TORSDOF 14
ENDMDL
MODEL 2
REMARK VINA RESULT:     -12.3      2.075      3.258
REMARK SMILES Cc1ncc(CO)c([C@H]2[NH2+][C@@H](C(=O)NCCCNC(=O)c3ccc(-c4c5nc(c(-c6ccccc6)c6ccc([nH]6)c(-c6ccccc6)c6nc(c(-c7ccccc7)c7ccc4[nH]7)C=C6)C=C5)cc3)Cc3[nH]cnc32)c1O
REMARK SMILES IDX 15 1 14 2 12 3 13 4 11 6 9 7 10 8 74 9 70 12 73 13 69 14
REMARK SMILES IDX 71 15 72 16 8 18 1 19 2 20 3 21 75 22 4 23 5 24 76 25 6 27
REMARK SMILES IDX 7 28 16 30 17 31 18 32 19 33 20 35 21 36 22 37 68 38 23 39
REMARK SMILES IDX 67 40 24 41 25 42 26 43 61 44 27 45 66 46 60 47 62 48 28 49
REMARK SMILES IDX 65 50 59 51 58 52 29 54 51 55 36 56 50 57 37 58 40 59 49 60
REMARK SMILES IDX 63 61 38 62 39 63 48 65 64 66 41 67 30 68 31 69 35 70 32 71
REMARK SMILES IDX 34 72 33 73 52 74 53 75 57 76 54 77 56 78 55 79 42 80 43 81
REMARK SMILES IDX 47 82 44 83 46 84 45 85
REMARK H PARENT 14 5 10 10 10 11 71 17 76 26 7 29 18 34 62 53 40 64
REMARK Flexibility Score: inf
ROOT
ATOM      1  C   UNL A   1      37.054  21.239  24.395  1.00  0.00     0.118 C 
ENDROOT
BRANCH   1   2
ATOM      2  N   UNL A   1      37.606  22.453  24.990  1.00  0.00    -0.351 N 
ATOM      3  C   UNL A   1      36.951  23.520  25.553  1.00  0.00     0.278 C 
ATOM      4  O   UNL A   1      37.617  24.428  26.047  1.00  0.00    -0.268 OA
ATOM      5  H   UNL A   1      38.589  22.516  24.985  1.00  0.00     0.163 HD
BRANCH   3   6
ATOM      6  C   UNL A   1      35.426  23.533  25.474  1.00  0.00     0.279 C 
ATOM      7  C   UNL A   1      33.544  24.813  24.786  1.00  0.00     0.270 C 
ATOM      8  N   UNL A   1      34.902  24.922  25.381  1.00  0.00    -0.324 N 
ATOM      9  C   UNL A   1      32.676  24.056  25.749  1.00  0.00     0.124 A 
ATOM     10  H   UNL A   1      34.849  25.342  26.310  1.00  0.00     0.347 HD
ATOM     11  H   UNL A   1      35.510  25.511  24.814  1.00  0.00     0.347 HD
ATOM     12  C   UNL A   1      33.250  23.053  26.529  1.00  0.00     0.051 A 
ATOM     13  N   UNL A   1      31.313  23.906  25.741  1.00  0.00    -0.235 NA
ATOM     14  C   UNL A   1      34.723  22.761  26.618  1.00  0.00     0.131 C 
ATOM     15  N   UNL A   1      32.219  22.342  27.060  1.00  0.00    -0.348 N 
ATOM     16  C   UNL A   1      31.070  22.895  26.554  1.00  0.00     0.197 A 
ATOM     17  H   UNL A   1      32.285  21.583  27.682  1.00  0.00     0.167 HD
BRANCH   7  18
ATOM     18  C   UNL A   1      33.169  26.091  24.087  1.00  0.00     0.066 A 
ATOM     19  C   UNL A   1      32.159  29.495  25.576  1.00  0.00     0.071 C 
ATOM     20  C   UNL A   1      32.464  28.407  24.589  1.00  0.00     0.079 A 
ATOM     21  N   UNL A   1      32.160  28.637  23.300  1.00  0.00    -0.257 NA
ATOM     22  C   UNL A   1      32.996  27.189  24.990  1.00  0.00     0.146 A 
ATOM     23  C   UNL A   1      32.342  27.607  22.433  1.00  0.00     0.118 A 
ATOM     24  C   UNL A   1      32.805  26.319  22.756  1.00  0.00     0.009 A 
BRANCH  22  25
ATOM     25  O   UNL A   1      33.283  27.027  26.331  1.00  0.00    -0.505 OA
ATOM     26  H   UNL A   1      33.309  26.169  26.704  1.00  0.00     0.293 HD
ENDBRANCH  22  25
BRANCH  24  27
ATOM     27  C   UNL A   1      32.833  25.314  21.643  1.00  0.00     0.194 C 
BRANCH  27  28
ATOM     28  O   UNL A   1      33.089  25.982  20.409  1.00  0.00    -0.392 OA
ATOM     29  H   UNL A   1      33.702  25.453  19.875  1.00  0.00     0.211 HD
ENDBRANCH  27  28
ENDBRANCH  24  27
ENDBRANCH   7  18
ENDBRANCH   3   6
ENDBRANCH   1   2
BRANCH   1  30
ATOM     30  C   UNL A   1      37.835  19.971  24.758  1.00  0.00     0.042 C 
BRANCH  30  31
ATOM     31  C   UNL A   1      38.899  20.242  25.807  1.00  0.00     0.118 C 
BRANCH  31  32
ATOM     32  N   UNL A   1      39.986  19.254  25.793  1.00  0.00    -0.352 N 
ATOM     33  C   UNL A   1      41.350  19.454  25.949  1.00  0.00     0.251 C 
ATOM     34  H   UNL A   1      39.708  18.321  25.652  1.00  0.00     0.163 HD
ATOM     35  O   UNL A   1      42.151  18.597  25.623  1.00  0.00    -0.269 OA
BRANCH  33  36
ATOM     36  C   UNL A   1      41.806  20.730  26.528  1.00  0.00     0.039 A 
ATOM     37  C   UNL A   1      42.362  21.752  25.755  1.00  0.00     0.014 A 
ATOM     38  C   UNL A   1      41.612  20.899  27.891  1.00  0.00     0.014 A 
ATOM     39  C   UNL A   1      42.651  22.969  26.373  1.00  0.00     0.010 A 
ATOM     40  C   UNL A   1      41.642  22.151  28.423  1.00  0.00     0.010 A 
ATOM     41  C   UNL A   1      42.269  23.157  27.711  1.00  0.00    -0.014 A 
BRANCH  41  42
ATOM     42  C   UNL A   1      42.422  24.427  28.403  1.00  0.00     0.031 A 
ATOM     43  C   UNL A   1      41.321  25.383  28.149  1.00  0.00     0.074 A 
ATOM     44  C   UNL A   1      43.341  24.605  29.380  1.00  0.00     0.049 A 
ATOM     45  N   UNL A   1      41.382  26.478  27.472  1.00  0.00    -0.248 NA
ATOM     46  C   UNL A   1      39.955  25.004  28.553  1.00  0.00     0.031 C 
ATOM     47  C   UNL A   1      44.281  23.621  29.945  1.00  0.00     0.029 A 
ATOM     48  N   UNL A   1      43.548  25.688  30.173  1.00  0.00    -0.354 N 
ATOM     49  C   UNL A   1      40.117  27.046  27.556  1.00  0.00     0.074 A 
ATOM     50  C   UNL A   1      39.242  26.011  28.045  1.00  0.00     0.031 C 
ATOM     51  C   UNL A   1      44.767  24.075  31.123  1.00  0.00     0.029 A 
ATOM     52  C   UNL A   1      44.325  25.444  31.301  1.00  0.00     0.049 A 
ATOM     53  H   UNL A   1      43.178  26.576  29.965  1.00  0.00     0.167 HD
ATOM     54  C   UNL A   1      39.954  28.396  27.493  1.00  0.00     0.031 A 
ATOM     55  C   UNL A   1      44.581  26.306  32.316  1.00  0.00     0.031 A 
ATOM     56  C   UNL A   1      41.158  29.047  27.034  1.00  0.00     0.049 A 
ATOM     57  C   UNL A   1      44.311  27.667  31.802  1.00  0.00     0.074 A 
ATOM     58  C   UNL A   1      41.912  29.011  25.880  1.00  0.00     0.029 A 
ATOM     59  N   UNL A   1      41.974  29.566  28.010  1.00  0.00    -0.354 N 
ATOM     60  N   UNL A   1      45.013  28.221  30.856  1.00  0.00    -0.248 NA
ATOM     61  C   UNL A   1      42.980  28.218  31.996  1.00  0.00     0.031 C 
ATOM     62  C   UNL A   1      43.266  29.078  26.324  1.00  0.00     0.029 A 
ATOM     63  C   UNL A   1      43.269  29.233  27.712  1.00  0.00     0.049 A 
ATOM     64  H   UNL A   1      41.680  30.088  28.791  1.00  0.00     0.167 HD
ATOM     65  C   UNL A   1      44.077  28.852  30.049  1.00  0.00     0.074 A 
ATOM     66  C   UNL A   1      42.862  28.913  30.861  1.00  0.00     0.031 C 
ATOM     67  C   UNL A   1      44.294  28.995  28.707  1.00  0.00     0.031 A 
BRANCH  54  68
ATOM     68  C   UNL A   1      38.907  29.150  28.276  1.00  0.00    -0.014 A 
ATOM     69  C   UNL A   1      38.945  29.079  29.680  1.00  0.00     0.009 A 
ATOM     70  C   UNL A   1      37.733  29.672  27.701  1.00  0.00     0.009 A 
ATOM     71  C   UNL A   1      37.835  29.428  30.458  1.00  0.00     0.001 A 
ATOM     72  C   UNL A   1      36.637  30.060  28.477  1.00  0.00     0.001 A 
ATOM     73  C   UNL A   1      36.677  29.909  29.854  1.00  0.00     0.000 A 
ENDBRANCH  54  68
BRANCH  55  74
ATOM     74  C   UNL A   1      44.775  26.029  33.756  1.00  0.00    -0.014 A 
ATOM     75  C   UNL A   1      43.704  25.636  34.575  1.00  0.00     0.009 A 
ATOM     76  C   UNL A   1      46.078  25.873  34.267  1.00  0.00     0.009 A 
ATOM     77  C   UNL A   1      43.930  25.079  35.842  1.00  0.00     0.001 A 
ATOM     78  C   UNL A   1      46.302  25.312  35.530  1.00  0.00     0.001 A 
ATOM     79  C   UNL A   1      45.229  24.903  36.313  1.00  0.00     0.000 A 
ENDBRANCH  55  74
BRANCH  67  80
ATOM     80  C   UNL A   1      45.670  28.657  28.179  1.00  0.00    -0.014 A 
ATOM     81  C   UNL A   1      46.058  27.357  27.806  1.00  0.00     0.009 A 
ATOM     82  C   UNL A   1      46.546  29.715  27.901  1.00  0.00     0.009 A 
ATOM     83  C   UNL A   1      47.294  27.125  27.191  1.00  0.00     0.001 A 
ATOM     84  C   UNL A   1      47.771  29.487  27.270  1.00  0.00     0.001 A 
ATOM     85  C   UNL A   1      48.147  28.192  26.918  1.00  0.00     0.000 A 
ENDBRANCH  67  80
ENDBRANCH  41  42
ENDBRANCH  33  36
ENDBRANCH  31  32
ENDBRANCH  30  31
ENDBRANCH   1  30
TORSDOF 14
ENDMDL
MODEL 3
REMARK VINA RESULT:     -11.9      3.757      5.312
REMARK SMILES Cc1ncc(CO)c([C@H]2[NH2+][C@@H](C(=O)NCCCNC(=O)c3ccc(-c4c5nc(c(-c6ccccc6)c6ccc([nH]6)c(-c6ccccc6)c6nc(c(-c7ccccc7)c7ccc4[nH]7)C=C6)C=C5)cc3)Cc3[nH]cnc32)c1O
REMARK SMILES IDX 15 1 14 2 12 3 13 4 11 6 9 7 10 8 74 9 70 12 73 13 69 14
REMARK SMILES IDX 71 15 72 16 8 18 1 19 2 20 3 21 75 22 4 23 5 24 76 25 6 27
REMARK SMILES IDX 7 28 16 30 17 31 18 32 19 33 20 35 21 36 22 37 68 38 23 39
REMARK SMILES IDX 67 40 24 41 25 42 26 43 61 44 27 45 66 46 60 47 62 48 28 49
REMARK SMILES IDX 65 50 59 51 58 52 29 54 51 55 36 56 50 57 37 58 40 59 49 60
REMARK SMILES IDX 63 61 38 62 39 63 48 65 64 66 41 67 30 68 31 69 35 70 32 71
REMARK SMILES IDX 34 72 33 73 52 74 53 75 57 76 54 77 56 78 55 79 42 80 43 81
REMARK SMILES IDX 47 82 44 83 46 84 45 85
REMARK H PARENT 14 5 10 10 10 11 71 17 76 26 7 29 18 34 62 53 40 64
REMARK Flexibility Score: inf
ROOT
ATOM      1  C   UNL A   1      33.936  23.721  24.082  1.00  0.00     0.118 C 
ENDROOT
BRANCH   1   2
ATOM      2  N   UNL A   1      33.793  24.066  22.671  1.00  0.00    -0.351 N 
ATOM      3  C   UNL A   1      33.407  25.254  22.102  1.00  0.00     0.278 C 
ATOM      4  O   UNL A   1      33.403  25.347  20.876  1.00  0.00    -0.268 OA
ATOM      5  H   UNL A   1      34.004  23.342  22.037  1.00  0.00     0.163 HD
BRANCH   3   6
ATOM      6  C   UNL A   1      32.948  26.369  23.039  1.00  0.00     0.279 C 
ATOM      7  C   UNL A   1      31.192  27.908  23.487  1.00  0.00     0.270 C 
ATOM      8  N   UNL A   1      31.935  27.241  22.386  1.00  0.00    -0.324 N 
ATOM      9  C   UNL A   1      32.154  28.792  24.227  1.00  0.00     0.124 A 
ATOM     10  H   UNL A   1      32.395  27.936  21.798  1.00  0.00     0.347 HD
ATOM     11  H   UNL A   1      31.310  26.701  21.789  1.00  0.00     0.347 HD
ATOM     12  C   UNL A   1      33.487  28.396  24.336  1.00  0.00     0.051 A 
ATOM     13  N   UNL A   1      31.887  29.761  25.159  1.00  0.00    -0.235 NA
ATOM     14  C   UNL A   1      34.101  27.220  23.628  1.00  0.00     0.131 C 
ATOM     15  N   UNL A   1      34.046  29.190  25.287  1.00  0.00    -0.348 N 
ATOM     16  C   UNL A   1      33.041  29.997  25.756  1.00  0.00     0.197 A 
ATOM     17  H   UNL A   1      34.985  29.185  25.582  1.00  0.00     0.167 HD
BRANCH   7  18
ATOM     18  C   UNL A   1      29.813  28.300  23.032  1.00  0.00     0.066 A 
ATOM     19  C   UNL A   1      28.652  31.475  21.188  1.00  0.00     0.071 C 
ATOM     20  C   UNL A   1      28.634  30.148  21.888  1.00  0.00     0.079 A 
ATOM     21  N   UNL A   1      27.434  29.627  22.198  1.00  0.00    -0.257 NA
ATOM     22  C   UNL A   1      29.807  29.498  22.248  1.00  0.00     0.146 A 
ATOM     23  C   UNL A   1      27.431  28.480  22.924  1.00  0.00     0.118 A 
ATOM     24  C   UNL A   1      28.563  27.789  23.395  1.00  0.00     0.009 A 
BRANCH  22  25
ATOM     25  O   UNL A   1      31.001  30.094  21.894  1.00  0.00    -0.505 OA
ATOM     26  H   UNL A   1      31.021  31.000  21.657  1.00  0.00     0.293 HD
ENDBRANCH  22  25
BRANCH  24  27
ATOM     27  C   UNL A   1      28.310  26.592  24.262  1.00  0.00     0.194 C 
BRANCH  27  28
ATOM     28  O   UNL A   1      26.927  26.246  24.199  1.00  0.00    -0.392 OA
ATOM     29  H   UNL A   1      26.402  27.043  24.025  1.00  0.00     0.211 HD
ENDBRANCH  27  28
ENDBRANCH  24  27
ENDBRANCH   7  18
ENDBRANCH   3   6
ENDBRANCH   1   2
BRANCH   1  30
ATOM     30  C   UNL A   1      35.313  24.067  24.661  1.00  0.00     0.042 C 
BRANCH  30  31
ATOM     31  C   UNL A   1      36.434  23.375  23.907  1.00  0.00     0.118 C 
BRANCH  31  32
ATOM     32  N   UNL A   1      36.480  21.926  24.145  1.00  0.00    -0.352 N 
ATOM     33  C   UNL A   1      37.420  21.185  24.845  1.00  0.00     0.251 C 
ATOM     34  H   UNL A   1      35.740  21.409  23.752  1.00  0.00     0.163 HD
ATOM     35  O   UNL A   1      37.492  19.976  24.713  1.00  0.00    -0.269 OA
BRANCH  33  36
ATOM     36  C   UNL A   1      38.327  21.897  25.762  1.00  0.00     0.039 A 
ATOM     37  C   UNL A   1      39.573  21.387  26.136  1.00  0.00     0.014 A 
ATOM     38  C   UNL A   1      37.908  23.141  26.208  1.00  0.00     0.014 A 
ATOM     39  C   UNL A   1      40.412  22.188  26.911  1.00  0.00     0.010 A 
ATOM     40  C   UNL A   1      38.820  24.010  26.726  1.00  0.00     0.010 A 
ATOM     41  C   UNL A   1      40.024  23.509  27.186  1.00  0.00    -0.014 A 
BRANCH  41  42
ATOM     42  C   UNL A   1      40.882  24.453  27.883  1.00  0.00     0.031 A 
ATOM     43  C   UNL A   1      40.293  25.805  28.025  1.00  0.00     0.074 A 
ATOM     44  C   UNL A   1      41.985  24.057  28.559  1.00  0.00     0.049 A 
ATOM     45  N   UNL A   1      40.672  26.885  27.431  1.00  0.00    -0.248 NA
ATOM     46  C   UNL A   1      39.038  25.948  28.784  1.00  0.00     0.031 C 
ATOM     47  C   UNL A   1      42.495  22.690  28.760  1.00  0.00     0.029 A 
ATOM     48  N   UNL A   1      42.830  24.795  29.325  1.00  0.00    -0.354 N 
ATOM     49  C   UNL A   1      39.849  27.893  27.917  1.00  0.00     0.074 A 
ATOM     50  C   UNL A   1      38.748  27.233  28.572  1.00  0.00     0.031 C 
ATOM     51  C   UNL A   1      43.393  22.680  29.772  1.00  0.00     0.029 A 
ATOM     52  C   UNL A   1      43.659  24.051  30.159  1.00  0.00     0.049 A 
ATOM     53  H   UNL A   1      42.855  25.778  29.292  1.00  0.00     0.167 HD
ATOM     54  C   UNL A   1      40.292  29.178  27.991  1.00  0.00     0.031 A 
ATOM     55  C   UNL A   1      44.501  24.530  31.108  1.00  0.00     0.031 A 
ATOM     56  C   UNL A   1      41.513  29.353  27.244  1.00  0.00     0.049 A 
ATOM     57  C   UNL A   1      44.749  25.952  30.785  1.00  0.00     0.074 A 
ATOM     58  C   UNL A   1      41.878  29.228  25.920  1.00  0.00     0.029 A 
ATOM     59  N   UNL A   1      42.679  29.305  27.971  1.00  0.00    -0.354 N 
ATOM     60  N   UNL A   1      45.380  26.336  29.712  1.00  0.00    -0.248 NA
ATOM     61  C   UNL A   1      43.888  26.951  31.394  1.00  0.00     0.031 C 
ATOM     62  C   UNL A   1      43.184  28.654  25.952  1.00  0.00     0.029 A 
ATOM     63  C   UNL A   1      43.581  28.534  27.287  1.00  0.00     0.049 A 
ATOM     64  H   UNL A   1      42.839  29.747  28.835  1.00  0.00     0.167 HD
ATOM     65  C   UNL A   1      44.661  27.432  29.256  1.00  0.00     0.074 A 
ATOM     66  C   UNL A   1      43.826  27.831  30.390  1.00  0.00     0.031 C 
ATOM     67  C   UNL A   1      44.596  27.719  27.922  1.00  0.00     0.031 A 
BRANCH  54  68
ATOM     68  C   UNL A   1      39.903  30.134  29.093  1.00  0.00    -0.014 A 
ATOM     69  C   UNL A   1      40.490  29.966  30.359  1.00  0.00     0.009 A 
ATOM     70  C   UNL A   1      38.787  30.988  29.022  1.00  0.00     0.009 A 
ATOM     71  C   UNL A   1      39.936  30.550  31.503  1.00  0.00     0.001 A 
ATOM     72  C   UNL A   1      38.253  31.606  30.157  1.00  0.00     0.001 A 
ATOM     73  C   UNL A   1      38.811  31.362  31.403  1.00  0.00     0.000 A 
ENDBRANCH  54  68
BRANCH  55  74
ATOM     74  C   UNL A   1      44.885  23.937  32.408  1.00  0.00    -0.014 A 
ATOM     75  C   UNL A   1      45.950  24.457  33.162  1.00  0.00     0.009 A 
ATOM     76  C   UNL A   1      44.014  23.034  33.047  1.00  0.00     0.009 A 
ATOM     77  C   UNL A   1      46.117  24.110  34.511  1.00  0.00     0.001 A 
ATOM     78  C   UNL A   1      44.179  22.691  34.394  1.00  0.00     0.001 A 
ATOM     79  C   UNL A   1      45.223  23.239  35.131  1.00  0.00     0.000 A 
ENDBRANCH  55  74
BRANCH  67  80
ATOM     80  C   UNL A   1      45.513  26.954  26.994  1.00  0.00    -0.014 A 
ATOM     81  C   UNL A   1      45.177  25.711  26.425  1.00  0.00     0.009 A 
ATOM     82  C   UNL A   1      46.686  27.586  26.558  1.00  0.00     0.009 A 
ATOM     83  C   UNL A   1      46.002  25.115  25.464  1.00  0.00     0.001 A 
ATOM     84  C   UNL A   1      47.498  27.001  25.585  1.00  0.00     0.001 A 
ATOM     85  C   UNL A   1      47.159  25.764  25.040  1.00  0.00     0.000 A 
ENDBRANCH  67  80
ENDBRANCH  41  42
ENDBRANCH  33  36
ENDBRANCH  31  32
ENDBRANCH  30  31
ENDBRANCH   1  30
TORSDOF 14
ENDMDL
