MODEL 1
REMARK VINA RESULT:     -11.1      0.000      0.000
REMARK SMILES Cc1cnn(-c2ccccc2OCC(=O)NCCCNC(=O)c2ccc(-c3c4nc(c(-c5ccccc5)c5ccc([nH]5)c(-c5ccccc5)c5nc(c(-c6ccccc6)c6ccc3[nH]6)C=C5)C=C4)cc2)c1
REMARK SMILES IDX 17 1 16 2 14 3 15 4 13 6 12 7 11 8 6 9 7 10 8 11 10 12 9 13
REMARK SMILES IDX 5 14 1 15 2 16 3 17 71 18 4 19 18 20 19 21 20 22 21 23 22 25
REMARK SMILES IDX 23 26 24 27 70 28 25 29 69 30 26 31 27 32 28 33 63 34 29 35
REMARK SMILES IDX 68 36 62 37 64 38 30 39 67 40 61 41 60 42 31 44 53 45 38 46
REMARK SMILES IDX 52 47 39 48 42 49 51 50 65 51 40 52 41 53 50 55 66 56 43 57
REMARK SMILES IDX 32 58 33 59 37 60 34 61 36 62 35 63 54 64 55 65 59 66 56 67
REMARK SMILES IDX 58 68 57 69 44 70 45 71 49 72 46 73 48 74 47 75
REMARK H PARENT 16 5 20 24 64 43 42 54
REMARK Flexibility Score: inf
ROOT
ATOM      1  C   UNL A   1      31.530  30.584  26.293  1.00  0.00     0.117 C 
ENDROOT
BRANCH   1   2
ATOM      2  N   UNL A   1      32.582  29.935  27.052  1.00  0.00    -0.353 N 
ATOM      3  C   UNL A   1      33.163  28.732  26.760  1.00  0.00     0.257 C 
ATOM      4  O   UNL A   1      34.350  28.588  27.058  1.00  0.00    -0.271 OA
ATOM      5  H   UNL A   1      32.909  30.406  27.853  1.00  0.00     0.163 HD
BRANCH   3   6
ATOM      6  C   UNL A   1      32.354  27.644  26.043  1.00  0.00     0.329 C 
BRANCH   6   7
ATOM      7  O   UNL A   1      33.121  26.747  25.266  1.00  0.00    -0.482 OA
BRANCH   7   8
ATOM      8  C   UNL A   1      32.805  26.309  24.017  1.00  0.00     0.145 A 
ATOM      9  C   UNL A   1      33.320  25.292  23.204  1.00  0.00     0.107 A 
ATOM     10  C   UNL A   1      32.850  25.116  21.885  1.00  0.00     0.032 A 
ATOM     11  C   UNL A   1      31.842  25.932  21.376  1.00  0.00     0.003 A 
ATOM     12  C   UNL A   1      31.806  27.133  23.461  1.00  0.00     0.049 A 
ATOM     13  C   UNL A   1      31.321  26.948  22.166  1.00  0.00     0.004 A 
BRANCH   9  14
ATOM     14  N   UNL A   1      34.351  24.427  23.595  1.00  0.00    -0.237 N 
ATOM     15  C   UNL A   1      37.001  23.230  25.787  1.00  0.00     0.048 C 
ATOM     16  C   UNL A   1      35.986  23.502  24.744  1.00  0.00    -0.013 A 
ATOM     17  C   UNL A   1      36.024  23.156  23.376  1.00  0.00     0.139 A 
ATOM     18  C   UNL A   1      34.807  24.210  24.869  1.00  0.00     0.118 A 
ATOM     19  N   UNL A   1      34.985  23.644  22.694  1.00  0.00    -0.176 NA
ENDBRANCH   9  14
ENDBRANCH   7   8
ENDBRANCH   6   7
ENDBRANCH   3   6
ENDBRANCH   1   2
BRANCH   1  20
ATOM     20  C   UNL A   1      31.409  32.090  26.507  1.00  0.00     0.042 C 
BRANCH  20  21
ATOM     21  C   UNL A   1      32.598  32.711  27.216  1.00  0.00     0.118 C 
BRANCH  21  22
ATOM     22  N   UNL A   1      32.398  34.097  27.669  1.00  0.00    -0.352 N 
ATOM     23  C   UNL A   1      33.037  34.776  28.707  1.00  0.00     0.251 C 
ATOM     24  H   UNL A   1      31.722  34.614  27.173  1.00  0.00     0.163 HD
ATOM     25  O   UNL A   1      32.587  35.807  29.164  1.00  0.00    -0.269 OA
BRANCH  23  26
ATOM     26  C   UNL A   1      34.302  34.214  29.221  1.00  0.00     0.039 A 
ATOM     27  C   UNL A   1      34.444  33.590  30.465  1.00  0.00     0.014 A 
ATOM     28  C   UNL A   1      35.367  34.271  28.344  1.00  0.00     0.014 A 
ATOM     29  C   UNL A   1      35.674  33.002  30.771  1.00  0.00     0.010 A 
ATOM     30  C   UNL A   1      36.373  33.375  28.483  1.00  0.00     0.010 A 
ATOM     31  C   UNL A   1      36.638  32.916  29.757  1.00  0.00    -0.014 A 
BRANCH  31  32
ATOM     32  C   UNL A   1      37.958  32.331  29.898  1.00  0.00     0.031 A 
ATOM     33  C   UNL A   1      38.032  30.916  29.487  1.00  0.00     0.074 A 
ATOM     34  C   UNL A   1      39.057  33.111  30.042  1.00  0.00     0.049 A 
ATOM     35  N   UNL A   1      38.167  29.888  30.253  1.00  0.00    -0.248 NA
ATOM     36  C   UNL A   1      37.759  30.587  28.078  1.00  0.00     0.031 C 
ATOM     37  C   UNL A   1      39.128  34.584  30.099  1.00  0.00     0.029 A 
ATOM     38  N   UNL A   1      40.369  32.759  30.033  1.00  0.00    -0.354 N 
ATOM     39  C   UNL A   1      38.233  28.798  29.396  1.00  0.00     0.074 A 
ATOM     40  C   UNL A   1      37.735  29.254  28.124  1.00  0.00     0.031 C 
ATOM     41  C   UNL A   1      40.403  34.992  29.901  1.00  0.00     0.029 A 
ATOM     42  C   UNL A   1      41.257  33.821  29.882  1.00  0.00     0.049 A 
ATOM     43  H   UNL A   1      40.669  31.826  30.125  1.00  0.00     0.167 HD
ATOM     44  C   UNL A   1      38.991  27.712  29.706  1.00  0.00     0.031 A 
ATOM     45  C   UNL A   1      42.604  33.741  29.755  1.00  0.00     0.031 A 
ATOM     46  C   UNL A   1      39.471  27.785  31.066  1.00  0.00     0.049 A 
ATOM     47  C   UNL A   1      43.005  32.418  30.276  1.00  0.00     0.074 A 
ATOM     48  C   UNL A   1      38.898  27.777  32.319  1.00  0.00     0.029 A 
ATOM     49  N   UNL A   1      40.728  28.325  31.207  1.00  0.00    -0.354 N 
ATOM     50  N   UNL A   1      42.884  32.082  31.527  1.00  0.00    -0.248 NA
ATOM     51  C   UNL A   1      43.145  31.308  29.346  1.00  0.00     0.031 C 
ATOM     52  C   UNL A   1      39.695  28.665  33.101  1.00  0.00     0.029 A 
ATOM     53  C   UNL A   1      40.757  29.125  32.319  1.00  0.00     0.049 A 
ATOM     54  H   UNL A   1      41.488  28.163  30.602  1.00  0.00     0.167 HD
ATOM     55  C   UNL A   1      42.468  30.760  31.495  1.00  0.00     0.074 A 
ATOM     56  C   UNL A   1      42.804  30.297  30.152  1.00  0.00     0.031 C 
ATOM     57  C   UNL A   1      41.627  30.275  32.457  1.00  0.00     0.031 A 
BRANCH  44  58
ATOM     58  C   UNL A   1      39.695  26.853  28.683  1.00  0.00    -0.014 A 
ATOM     59  C   UNL A   1      40.534  27.485  27.748  1.00  0.00     0.009 A 
ATOM     60  C   UNL A   1      39.356  25.512  28.422  1.00  0.00     0.009 A 
ATOM     61  C   UNL A   1      40.956  26.828  26.586  1.00  0.00     0.001 A 
ATOM     62  C   UNL A   1      39.808  24.839  27.283  1.00  0.00     0.001 A 
ATOM     63  C   UNL A   1      40.587  25.508  26.351  1.00  0.00     0.000 A 
ENDBRANCH  44  58
BRANCH  45  64
ATOM     64  C   UNL A   1      43.551  34.622  29.041  1.00  0.00    -0.014 A 
ATOM     65  C   UNL A   1      43.667  34.587  27.643  1.00  0.00     0.009 A 
ATOM     66  C   UNL A   1      44.132  35.707  29.721  1.00  0.00     0.009 A 
ATOM     67  C   UNL A   1      44.303  35.626  26.947  1.00  0.00     0.001 A 
ATOM     68  C   UNL A   1      44.761  36.747  29.026  1.00  0.00     0.001 A 
ATOM     69  C   UNL A   1      44.833  36.714  27.637  1.00  0.00     0.000 A 
ENDBRANCH  45  64
BRANCH  57  70
ATOM     70  C   UNL A   1      41.430  31.132  33.686  1.00  0.00    -0.014 A 
ATOM     71  C   UNL A   1      40.465  32.153  33.773  1.00  0.00     0.009 A 
ATOM     72  C   UNL A   1      42.171  30.823  34.833  1.00  0.00     0.009 A 
ATOM     73  C   UNL A   1      40.272  32.862  34.964  1.00  0.00     0.001 A 
ATOM     74  C   UNL A   1      41.965  31.515  36.029  1.00  0.00     0.001 A 
ATOM     75  C   UNL A   1      41.021  32.539  36.092  1.00  0.00     0.000 A 
ENDBRANCH  57  70
ENDBRANCH  31  32
ENDBRANCH  23  26
ENDBRANCH  21  22
ENDBRANCH  20  21
ENDBRANCH   1  20
TORSDOF 13
ENDMDL
MODEL 2
REMARK VINA RESULT:     -11.0      1.301      2.584
REMARK SMILES Cc1cnn(-c2ccccc2OCC(=O)NCCCNC(=O)c2ccc(-c3c4nc(c(-c5ccccc5)c5ccc([nH]5)c(-c5ccccc5)c5nc(c(-c6ccccc6)c6ccc3[nH]6)C=C5)C=C4)cc2)c1
REMARK SMILES IDX 17 1 16 2 14 3 15 4 13 6 12 7 11 8 6 9 7 10 8 11 10 12 9 13
REMARK SMILES IDX 5 14 1 15 2 16 3 17 71 18 4 19 18 20 19 21 20 22 21 23 22 25
REMARK SMILES IDX 23 26 24 27 70 28 25 29 69 30 26 31 27 32 28 33 63 34 29 35
REMARK SMILES IDX 68 36 62 37 64 38 30 39 67 40 61 41 60 42 31 44 53 45 38 46
REMARK SMILES IDX 52 47 39 48 42 49 51 50 65 51 40 52 41 53 50 55 66 56 43 57
REMARK SMILES IDX 32 58 33 59 37 60 34 61 36 62 35 63 54 64 55 65 59 66 56 67
REMARK SMILES IDX 58 68 57 69 44 70 45 71 49 72 46 73 48 74 47 75
REMARK H PARENT 16 5 20 24 64 43 42 54
REMARK Flexibility Score: inf
ROOT
ATOM      1  C   UNL A   1      31.896  30.484  25.946  1.00  0.00     0.117 C 
ENDROOT
BRANCH   1   2
ATOM      2  N   UNL A   1      31.188  29.424  26.639  1.00  0.00    -0.353 N 
ATOM      3  C   UNL A   1      31.697  28.201  26.978  1.00  0.00     0.257 C 
ATOM      4  O   UNL A   1      31.277  27.677  28.011  1.00  0.00    -0.271 OA
ATOM      5  H   UNL A   1      30.253  29.602  26.890  1.00  0.00     0.163 HD
BRANCH   3   6
ATOM      6  C   UNL A   1      32.786  27.556  26.110  1.00  0.00     0.329 C 
BRANCH   6   7
ATOM      7  O   UNL A   1      32.410  26.346  25.485  1.00  0.00    -0.482 OA
BRANCH   7   8
ATOM      8  C   UNL A   1      32.421  26.108  24.145  1.00  0.00     0.145 A 
ATOM      9  C   UNL A   1      31.655  26.604  23.082  1.00  0.00     0.107 A 
ATOM     10  C   UNL A   1      31.828  26.103  21.775  1.00  0.00     0.032 A 
ATOM     11  C   UNL A   1      32.785  25.125  21.510  1.00  0.00     0.003 A 
ATOM     12  C   UNL A   1      33.360  25.102  23.846  1.00  0.00     0.049 A 
ATOM     13  C   UNL A   1      33.551  24.619  22.551  1.00  0.00     0.004 A 
BRANCH   9  14
ATOM     14  N   UNL A   1      30.647  27.566  23.229  1.00  0.00    -0.237 N 
ATOM     15  C   UNL A   1      27.238  28.830  23.040  1.00  0.00     0.048 C 
ATOM     16  C   UNL A   1      28.683  28.560  23.218  1.00  0.00    -0.013 A 
ATOM     17  C   UNL A   1      29.753  29.480  23.192  1.00  0.00     0.139 A 
ATOM     18  C   UNL A   1      29.305  27.339  23.385  1.00  0.00     0.118 A 
ATOM     19  N   UNL A   1      30.944  28.885  23.288  1.00  0.00    -0.176 NA
ENDBRANCH   9  14
ENDBRANCH   7   8
ENDBRANCH   6   7
ENDBRANCH   3   6
ENDBRANCH   1   2
BRANCH   1  20
ATOM     20  C   UNL A   1      31.554  31.899  26.402  1.00  0.00     0.042 C 
BRANCH  20  21
ATOM     21  C   UNL A   1      32.506  32.461  27.441  1.00  0.00     0.118 C 
BRANCH  21  22
ATOM     22  N   UNL A   1      32.354  33.900  27.710  1.00  0.00    -0.352 N 
ATOM     23  C   UNL A   1      33.060  34.698  28.611  1.00  0.00     0.251 C 
ATOM     24  H   UNL A   1      31.660  34.361  27.185  1.00  0.00     0.163 HD
ATOM     25  O   UNL A   1      32.653  35.791  28.947  1.00  0.00    -0.269 OA
BRANCH  23  26
ATOM     26  C   UNL A   1      34.342  34.181  29.130  1.00  0.00     0.039 A 
ATOM     27  C   UNL A   1      34.544  33.730  30.439  1.00  0.00     0.014 A 
ATOM     28  C   UNL A   1      35.358  34.090  28.198  1.00  0.00     0.014 A 
ATOM     29  C   UNL A   1      35.779  33.160  30.757  1.00  0.00     0.010 A 
ATOM     30  C   UNL A   1      36.355  33.198  28.406  1.00  0.00     0.010 A 
ATOM     31  C   UNL A   1      36.682  32.911  29.715  1.00  0.00    -0.014 A 
BRANCH  31  32
ATOM     32  C   UNL A   1      37.999  32.318  29.865  1.00  0.00     0.031 A 
ATOM     33  C   UNL A   1      38.061  30.896  29.479  1.00  0.00     0.074 A 
ATOM     34  C   UNL A   1      39.103  33.092  29.994  1.00  0.00     0.049 A 
ATOM     35  N   UNL A   1      38.189  29.881  30.264  1.00  0.00    -0.248 NA
ATOM     36  C   UNL A   1      37.783  30.544  28.077  1.00  0.00     0.031 C 
ATOM     37  C   UNL A   1      39.186  34.566  30.023  1.00  0.00     0.029 A 
ATOM     38  N   UNL A   1      40.412  32.730  29.989  1.00  0.00    -0.354 N 
ATOM     39  C   UNL A   1      38.246  28.775  29.427  1.00  0.00     0.074 A 
ATOM     40  C   UNL A   1      37.749  29.212  28.147  1.00  0.00     0.031 C 
ATOM     41  C   UNL A   1      40.463  34.960  29.816  1.00  0.00     0.029 A 
ATOM     42  C   UNL A   1      41.309  33.782  29.817  1.00  0.00     0.049 A 
ATOM     43  H   UNL A   1      40.705  31.797  30.098  1.00  0.00     0.167 HD
ATOM     44  C   UNL A   1      38.996  27.689  29.756  1.00  0.00     0.031 A 
ATOM     45  C   UNL A   1      42.655  33.690  29.690  1.00  0.00     0.031 A 
ATOM     46  C   UNL A   1      39.478  27.783  31.113  1.00  0.00     0.049 A 
ATOM     47  C   UNL A   1      43.047  32.373  30.235  1.00  0.00     0.074 A 
ATOM     48  C   UNL A   1      38.907  27.802  32.367  1.00  0.00     0.029 A 
ATOM     49  N   UNL A   1      40.739  28.316  31.243  1.00  0.00    -0.354 N 
ATOM     50  N   UNL A   1      42.925  32.061  31.492  1.00  0.00    -0.248 NA
ATOM     51  C   UNL A   1      43.176  31.246  29.325  1.00  0.00     0.031 C 
ATOM     52  C   UNL A   1      39.712  28.698  33.132  1.00  0.00     0.029 A 
ATOM     53  C   UNL A   1      40.776  29.135  32.341  1.00  0.00     0.049 A 
ATOM     54  H   UNL A   1      41.497  28.137  30.640  1.00  0.00     0.167 HD
ATOM     55  C   UNL A   1      42.498  30.742  31.485  1.00  0.00     0.074 A 
ATOM     56  C   UNL A   1      42.829  30.252  30.149  1.00  0.00     0.031 C 
ATOM     57  C   UNL A   1      41.655  30.281  32.456  1.00  0.00     0.031 A 
BRANCH  44  58
ATOM     58  C   UNL A   1      39.692  26.806  28.747  1.00  0.00    -0.014 A 
ATOM     59  C   UNL A   1      40.713  27.369  27.964  1.00  0.00     0.009 A 
ATOM     60  C   UNL A   1      39.205  25.548  28.342  1.00  0.00     0.009 A 
ATOM     61  C   UNL A   1      41.176  26.737  26.804  1.00  0.00     0.001 A 
ATOM     62  C   UNL A   1      39.693  24.894  27.208  1.00  0.00     0.001 A 
ATOM     63  C   UNL A   1      40.661  25.502  26.423  1.00  0.00     0.000 A 
ENDBRANCH  44  58
BRANCH  45  64
ATOM     64  C   UNL A   1      43.608  34.550  28.960  1.00  0.00    -0.014 A 
ATOM     65  C   UNL A   1      44.864  34.869  29.500  1.00  0.00     0.009 A 
ATOM     66  C   UNL A   1      43.393  34.815  27.596  1.00  0.00     0.009 A 
ATOM     67  C   UNL A   1      45.883  35.395  28.691  1.00  0.00     0.001 A 
ATOM     68  C   UNL A   1      44.413  35.334  26.788  1.00  0.00     0.001 A 
ATOM     69  C   UNL A   1      45.663  35.609  27.332  1.00  0.00     0.000 A 
ENDBRANCH  45  64
BRANCH  57  70
ATOM     70  C   UNL A   1      41.466  31.161  33.670  1.00  0.00    -0.014 A 
ATOM     71  C   UNL A   1      40.498  32.181  33.746  1.00  0.00     0.009 A 
ATOM     72  C   UNL A   1      42.220  30.878  34.816  1.00  0.00     0.009 A 
ATOM     73  C   UNL A   1      40.314  32.912  34.924  1.00  0.00     0.001 A 
ATOM     74  C   UNL A   1      42.022  31.594  35.999  1.00  0.00     0.001 A 
ATOM     75  C   UNL A   1      41.075  32.615  36.051  1.00  0.00     0.000 A 
ENDBRANCH  57  70
ENDBRANCH  31  32
ENDBRANCH  23  26
ENDBRANCH  21  22
ENDBRANCH  20  21
ENDBRANCH   1  20
TORSDOF 13
ENDMDL
MODEL 3
REMARK VINA RESULT:     -10.9      4.070      9.207
REMARK SMILES Cc1cnn(-c2ccccc2OCC(=O)NCCCNC(=O)c2ccc(-c3c4nc(c(-c5ccccc5)c5ccc([nH]5)c(-c5ccccc5)c5nc(c(-c6ccccc6)c6ccc3[nH]6)C=C5)C=C4)cc2)c1
REMARK SMILES IDX 17 1 16 2 14 3 15 4 13 6 12 7 11 8 6 9 7 10 8 11 10 12 9 13
REMARK SMILES IDX 5 14 1 15 2 16 3 17 71 18 4 19 18 20 19 21 20 22 21 23 22 25
REMARK SMILES IDX 23 26 24 27 70 28 25 29 69 30 26 31 27 32 28 33 63 34 29 35
REMARK SMILES IDX 68 36 62 37 64 38 30 39 67 40 61 41 60 42 31 44 53 45 38 46
REMARK SMILES IDX 52 47 39 48 42 49 51 50 65 51 40 52 41 53 50 55 66 56 43 57
REMARK SMILES IDX 32 58 33 59 37 60 34 61 36 62 35 63 54 64 55 65 59 66 56 67
REMARK SMILES IDX 58 68 57 69 44 70 45 71 49 72 46 73 48 74 47 75
REMARK H PARENT 16 5 20 24 64 43 42 54
REMARK Flexibility Score: inf
ROOT
ATOM      1  C   UNL A   1      36.448  20.968  25.067  1.00  0.00     0.117 C 
ENDROOT
BRANCH   1   2
ATOM      2  N   UNL A   1      35.132  20.665  25.598  1.00  0.00    -0.353 N 
ATOM      3  C   UNL A   1      34.074  21.529  25.675  1.00  0.00     0.257 C 
ATOM      4  O   UNL A   1      32.944  21.054  25.556  1.00  0.00    -0.271 OA
ATOM      5  H   UNL A   1      34.987  19.751  25.934  1.00  0.00     0.163 HD
BRANCH   3   6
ATOM      6  C   UNL A   1      34.324  23.032  25.851  1.00  0.00     0.329 C 
BRANCH   6   7
ATOM      7  O   UNL A   1      33.232  23.861  25.507  1.00  0.00    -0.482 OA
BRANCH   7   8
ATOM      8  C   UNL A   1      33.146  24.635  24.390  1.00  0.00     0.145 A 
ATOM      9  C   UNL A   1      33.008  26.015  24.195  1.00  0.00     0.107 A 
ATOM     10  C   UNL A   1      32.850  26.547  22.898  1.00  0.00     0.032 A 
ATOM     11  C   UNL A   1      32.858  25.712  21.782  1.00  0.00     0.003 A 
ATOM     12  C   UNL A   1      33.123  23.818  23.243  1.00  0.00     0.049 A 
ATOM     13  C   UNL A   1      32.990  24.341  21.956  1.00  0.00     0.004 A 
BRANCH   9  14
ATOM     14  N   UNL A   1      32.960  26.949  25.239  1.00  0.00    -0.237 N 
ATOM     15  C   UNL A   1      31.837  29.990  26.896  1.00  0.00     0.048 C 
ATOM     16  C   UNL A   1      32.437  28.714  26.447  1.00  0.00    -0.013 A 
ATOM     17  C   UNL A   1      33.682  28.158  26.814  1.00  0.00     0.139 A 
ATOM     18  C   UNL A   1      31.939  27.818  25.522  1.00  0.00     0.118 A 
ATOM     19  N   UNL A   1      33.961  27.037  26.144  1.00  0.00    -0.176 NA
ENDBRANCH   9  14
ENDBRANCH   7   8
ENDBRANCH   6   7
ENDBRANCH   3   6
ENDBRANCH   1   2
BRANCH   1  20
ATOM     20  C   UNL A   1      37.458  19.827  25.145  1.00  0.00     0.042 C 
BRANCH  20  21
ATOM     21  C   UNL A   1      38.885  20.279  25.390  1.00  0.00     0.118 C 
BRANCH  21  22
ATOM     22  N   UNL A   1      39.848  19.193  25.636  1.00  0.00    -0.352 N 
ATOM     23  C   UNL A   1      41.200  19.285  25.966  1.00  0.00     0.251 C 
ATOM     24  H   UNL A   1      39.490  18.279  25.555  1.00  0.00     0.163 HD
ATOM     25  O   UNL A   1      41.947  18.334  25.859  1.00  0.00    -0.269 OA
BRANCH  23  26
ATOM     26  C   UNL A   1      41.697  20.578  26.478  1.00  0.00     0.039 A 
ATOM     27  C   UNL A   1      42.497  21.465  25.750  1.00  0.00     0.014 A 
ATOM     28  C   UNL A   1      41.252  20.917  27.742  1.00  0.00     0.014 A 
ATOM     29  C   UNL A   1      42.796  22.704  26.321  1.00  0.00     0.010 A 
ATOM     30  C   UNL A   1      41.210  22.225  28.087  1.00  0.00     0.010 A 
ATOM     31  C   UNL A   1      42.143  23.061  27.509  1.00  0.00    -0.014 A 
BRANCH  31  32
ATOM     32  C   UNL A   1      42.327  24.309  28.228  1.00  0.00     0.031 A 
ATOM     33  C   UNL A   1      41.260  25.298  27.991  1.00  0.00     0.074 A 
ATOM     34  C   UNL A   1      43.186  24.392  29.273  1.00  0.00     0.049 A 
ATOM     35  N   UNL A   1      41.348  26.390  27.311  1.00  0.00    -0.248 NA
ATOM     36  C   UNL A   1      39.891  24.960  28.416  1.00  0.00     0.031 C 
ATOM     37  C   UNL A   1      44.047  23.332  29.833  1.00  0.00     0.029 A 
ATOM     38  N   UNL A   1      43.375  25.411  30.152  1.00  0.00    -0.354 N 
ATOM     39  C   UNL A   1      40.103  26.994  27.424  1.00  0.00     0.074 A 
ATOM     40  C   UNL A   1      39.200  25.973  27.889  1.00  0.00     0.031 C 
ATOM     41  C   UNL A   1      44.487  23.695  31.059  1.00  0.00     0.029 A 
ATOM     42  C   UNL A   1      44.091  25.070  31.296  1.00  0.00     0.049 A 
ATOM     43  H   UNL A   1      43.032  26.319  29.993  1.00  0.00     0.167 HD
ATOM     44  C   UNL A   1      39.984  28.349  27.441  1.00  0.00     0.031 A 
ATOM     45  C   UNL A   1      44.345  25.866  32.363  1.00  0.00     0.031 A 
ATOM     46  C   UNL A   1      41.236  28.985  27.108  1.00  0.00     0.049 A 
ATOM     47  C   UNL A   1      44.159  27.260  31.910  1.00  0.00     0.074 A 
ATOM     48  C   UNL A   1      42.050  29.044  25.998  1.00  0.00     0.029 A 
ATOM     49  N   UNL A   1      42.010  29.341  28.188  1.00  0.00    -0.354 N 
ATOM     50  N   UNL A   1      44.928  27.828  31.027  1.00  0.00    -0.248 NA
ATOM     51  C   UNL A   1      42.868  27.898  32.110  1.00  0.00     0.031 C 
ATOM     52  C   UNL A   1      43.382  29.067  26.511  1.00  0.00     0.029 A 
ATOM     53  C   UNL A   1      43.327  29.091  27.906  1.00  0.00     0.049 A 
ATOM     54  H   UNL A   1      41.669  29.716  29.032  1.00  0.00     0.167 HD
ATOM     55  C   UNL A   1      44.066  28.581  30.246  1.00  0.00     0.074 A 
ATOM     56  C   UNL A   1      42.855  28.716  31.053  1.00  0.00     0.031 C 
ATOM     57  C   UNL A   1      44.313  28.760  28.915  1.00  0.00     0.031 A 
BRANCH  44  58
ATOM     58  C   UNL A   1      38.921  29.093  28.214  1.00  0.00    -0.014 A 
ATOM     59  C   UNL A   1      38.944  29.020  29.617  1.00  0.00     0.009 A 
ATOM     60  C   UNL A   1      37.753  29.619  27.628  1.00  0.00     0.009 A 
ATOM     61  C   UNL A   1      37.836  29.393  30.386  1.00  0.00     0.001 A 
ATOM     62  C   UNL A   1      36.658  30.030  28.394  1.00  0.00     0.001 A 
ATOM     63  C   UNL A   1      36.691  29.892  29.773  1.00  0.00     0.000 A 
ENDBRANCH  44  58
BRANCH  45  64
ATOM     64  C   UNL A   1      44.538  25.524  33.787  1.00  0.00    -0.014 A 
ATOM     65  C   UNL A   1      43.473  25.061  34.576  1.00  0.00     0.009 A 
ATOM     66  C   UNL A   1      45.842  25.376  34.292  1.00  0.00     0.009 A 
ATOM     67  C   UNL A   1      43.710  24.432  35.807  1.00  0.00     0.001 A 
ATOM     68  C   UNL A   1      46.078  24.742  35.517  1.00  0.00     0.001 A 
ATOM     69  C   UNL A   1      45.012  24.256  36.269  1.00  0.00     0.000 A 
ENDBRANCH  45  64
BRANCH  57  70
ATOM     70  C   UNL A   1      45.687  28.372  28.418  1.00  0.00    -0.014 A 
ATOM     71  C   UNL A   1      46.027  27.065  28.018  1.00  0.00     0.009 A 
ATOM     72  C   UNL A   1      46.638  29.385  28.246  1.00  0.00     0.009 A 
ATOM     73  C   UNL A   1      47.291  26.780  27.491  1.00  0.00     0.001 A 
ATOM     74  C   UNL A   1      47.894  29.105  27.701  1.00  0.00     0.001 A 
ATOM     75  C   UNL A   1      48.222  27.802  27.330  1.00  0.00     0.000 A 
ENDBRANCH  57  70
ENDBRANCH  31  32
ENDBRANCH  23  26
ENDBRANCH  21  22
ENDBRANCH  20  21
ENDBRANCH   1  20
TORSDOF 13
ENDMDL
