MODEL 1
REMARK VINA RESULT:     -11.8      0.000      0.000
REMARK SMILES O=C(COc1ccccc1[C@@H]1[NH2+]CCc2cc(O)c(O)cc21)NCCCNC(=O)c1ccc(-c2c3nc(c(-c4ccccc4)c4ccc([nH]4)c(-c4ccccc4)c4nc(c(-c5ccccc5)c5ccc2[nH]5)C=C4)C=C3)cc1
REMARK SMILES IDX 24 1 23 2 1 3 2 4 3 6 4 7 5 8 6 9 10 10 7 11 9 12 8 13 11 14
REMARK SMILES IDX 12 15 22 16 13 17 15 20 21 21 14 22 16 23 19 24 17 25 20 26
REMARK SMILES IDX 18 28 25 30 26 31 27 32 28 33 29 35 30 36 31 37 77 38 32 39
REMARK SMILES IDX 76 40 33 41 34 42 35 43 70 44 36 45 75 46 69 47 71 48 37 49
REMARK SMILES IDX 74 50 68 51 67 52 38 54 60 55 45 56 59 57 46 58 49 59 58 60
REMARK SMILES IDX 72 61 47 62 48 63 57 65 73 66 50 67 39 68 40 69 44 70 41 71
REMARK SMILES IDX 43 72 42 73 61 74 62 75 66 76 63 77 65 78 64 79 51 80 52 81
REMARK SMILES IDX 56 82 53 83 55 84 54 85
REMARK H PARENT 23 5 12 18 12 19 20 27 18 29 27 34 71 53 49 64
REMARK Flexibility Score: inf
ROOT
ATOM      1  C   UNL A   1      36.965  20.879  24.854  1.00  0.00     0.117 C 
ENDROOT
BRANCH   1   2
ATOM      2  N   UNL A   1      35.650  20.567  25.375  1.00  0.00    -0.353 N 
ATOM      3  O   UNL A   1      35.371  22.525  26.536  1.00  0.00    -0.271 OA
ATOM      4  C   UNL A   1      34.895  21.493  26.067  1.00  0.00     0.257 C 
ATOM      5  H   UNL A   1      35.282  19.666  25.230  1.00  0.00     0.163 HD
BRANCH   4   6
ATOM      6  C   UNL A   1      33.410  21.138  26.198  1.00  0.00     0.329 C 
BRANCH   6   7
ATOM      7  O   UNL A   1      32.422  21.881  25.522  1.00  0.00    -0.483 OA
BRANCH   7   8
ATOM      8  C   UNL A   1      32.590  22.806  24.533  1.00  0.00     0.129 A 
ATOM      9  C   UNL A   1      32.609  22.124  23.296  1.00  0.00     0.047 A 
ATOM     10  C   UNL A   1      32.792  24.205  24.549  1.00  0.00     0.056 A 
ATOM     11  C   UNL A   1      32.922  22.757  22.099  1.00  0.00     0.004 A 
ATOM     12  C   UNL A   1      33.190  24.806  23.323  1.00  0.00     0.014 A 
ATOM     13  C   UNL A   1      33.255  24.097  22.120  1.00  0.00     0.001 A 
BRANCH  10  14
ATOM     14  C   UNL A   1      32.637  25.117  25.769  1.00  0.00     0.249 C 
ATOM     15  N   UNL A   1      31.505  24.737  26.628  1.00  0.00    -0.336 N 
ATOM     16  C   UNL A   1      32.554  26.634  25.575  1.00  0.00     0.021 A 
ATOM     17  C   UNL A   1      30.198  25.054  26.034  1.00  0.00     0.266 C 
ATOM     18  H   UNL A   1      31.588  25.236  27.514  1.00  0.00     0.347 HD
ATOM     19  H   UNL A   1      31.544  23.725  26.754  1.00  0.00     0.347 HD
ATOM     20  C   UNL A   1      31.287  27.186  25.280  1.00  0.00    -0.029 A 
ATOM     21  C   UNL A   1      33.645  27.481  25.834  1.00  0.00     0.060 A 
ATOM     22  C   UNL A   1      30.160  26.220  25.031  1.00  0.00     0.097 C 
ATOM     23  C   UNL A   1      31.106  28.569  25.267  1.00  0.00     0.054 A 
ATOM     24  C   UNL A   1      33.441  28.856  25.848  1.00  0.00     0.157 A 
ATOM     25  C   UNL A   1      32.181  29.389  25.577  1.00  0.00     0.157 A 
BRANCH  24  26
ATOM     26  O   UNL A   1      34.444  29.734  26.160  1.00  0.00    -0.504 OA
ATOM     27  H   UNL A   1      34.781  30.312  25.504  1.00  0.00     0.293 HD
ENDBRANCH  24  26
BRANCH  25  28
ATOM     28  O   UNL A   1      31.984  30.739  25.655  1.00  0.00    -0.504 OA
ATOM     29  H   UNL A   1      31.180  31.075  25.999  1.00  0.00     0.293 HD
ENDBRANCH  25  28
ENDBRANCH  10  14
ENDBRANCH   7   8
ENDBRANCH   6   7
ENDBRANCH   4   6
ENDBRANCH   1   2
BRANCH   1  30
ATOM     30  C   UNL A   1      37.987  19.767  24.994  1.00  0.00     0.042 C 
BRANCH  30  31
ATOM     31  C   UNL A   1      39.190  20.159  25.829  1.00  0.00     0.118 C 
BRANCH  31  32
ATOM     32  N   UNL A   1      40.188  19.101  25.918  1.00  0.00    -0.352 N 
ATOM     33  C   UNL A   1      41.545  19.201  26.123  1.00  0.00     0.251 C 
ATOM     34  H   UNL A   1      39.843  18.185  25.816  1.00  0.00     0.163 HD
ATOM     35  O   UNL A   1      42.263  18.219  26.036  1.00  0.00    -0.269 OA
BRANCH  33  36
ATOM     36  C   UNL A   1      42.124  20.529  26.415  1.00  0.00     0.039 A 
ATOM     37  C   UNL A   1      42.534  21.337  25.352  1.00  0.00     0.014 A 
ATOM     38  C   UNL A   1      42.203  20.992  27.731  1.00  0.00     0.014 A 
ATOM     39  C   UNL A   1      42.941  22.647  25.605  1.00  0.00     0.010 A 
ATOM     40  C   UNL A   1      42.519  22.323  27.970  1.00  0.00     0.010 A 
ATOM     41  C   UNL A   1      42.889  23.164  26.909  1.00  0.00    -0.014 A 
BRANCH  41  42
ATOM     42  C   UNL A   1      43.213  24.581  27.204  1.00  0.00     0.031 A 
ATOM     43  C   UNL A   1      44.646  25.032  27.198  1.00  0.00     0.074 A 
ATOM     44  C   UNL A   1      42.236  25.430  27.575  1.00  0.00     0.049 A 
ATOM     45  N   UNL A   1      45.151  26.185  27.558  1.00  0.00    -0.248 NA
ATOM     46  C   UNL A   1      45.649  24.048  26.758  1.00  0.00     0.031 C 
ATOM     47  C   UNL A   1      40.810  25.105  27.658  1.00  0.00     0.029 A 
ATOM     48  N   UNL A   1      42.299  26.743  27.970  1.00  0.00    -0.354 N 
ATOM     49  C   UNL A   1      46.526  26.052  27.416  1.00  0.00     0.074 A 
ATOM     50  C   UNL A   1      46.781  24.696  26.981  1.00  0.00     0.031 C 
ATOM     51  C   UNL A   1      40.133  26.194  28.057  1.00  0.00     0.029 A 
ATOM     52  C   UNL A   1      41.078  27.277  28.305  1.00  0.00     0.049 A 
ATOM     53  H   UNL A   1      43.140  27.254  28.009  1.00  0.00     0.167 HD
ATOM     54  C   UNL A   1      47.491  26.980  27.614  1.00  0.00     0.031 A 
ATOM     55  C   UNL A   1      40.757  28.497  28.776  1.00  0.00     0.031 A 
ATOM     56  C   UNL A   1      47.235  28.334  28.027  1.00  0.00     0.049 A 
ATOM     57  C   UNL A   1      41.848  29.507  28.999  1.00  0.00     0.074 A 
ATOM     58  C   UNL A   1      48.139  29.367  28.196  1.00  0.00     0.029 A 
ATOM     59  N   UNL A   1      45.982  28.838  28.334  1.00  0.00    -0.354 N 
ATOM     60  N   UNL A   1      43.139  29.386  28.803  1.00  0.00    -0.248 NA
ATOM     61  C   UNL A   1      41.437  30.826  29.505  1.00  0.00     0.031 C 
ATOM     62  C   UNL A   1      47.437  30.488  28.651  1.00  0.00     0.029 A 
ATOM     63  C   UNL A   1      46.091  30.165  28.713  1.00  0.00     0.049 A 
ATOM     64  H   UNL A   1      45.139  28.329  28.291  1.00  0.00     0.167 HD
ATOM     65  C   UNL A   1      43.688  30.619  29.128  1.00  0.00     0.074 A 
ATOM     66  C   UNL A   1      42.592  31.477  29.528  1.00  0.00     0.031 C 
ATOM     67  C   UNL A   1      44.986  31.006  29.096  1.00  0.00     0.031 A 
BRANCH  54  68
ATOM     68  C   UNL A   1      48.914  26.557  27.389  1.00  0.00    -0.014 A 
ATOM     69  C   UNL A   1      49.685  26.012  28.429  1.00  0.00     0.009 A 
ATOM     70  C   UNL A   1      49.484  26.676  26.112  1.00  0.00     0.009 A 
ATOM     71  C   UNL A   1      51.009  25.632  28.203  1.00  0.00     0.001 A 
ATOM     72  C   UNL A   1      50.799  26.268  25.882  1.00  0.00     0.001 A 
ATOM     73  C   UNL A   1      51.563  25.755  26.929  1.00  0.00     0.000 A 
ENDBRANCH  54  68
BRANCH  55  74
ATOM     74  C   UNL A   1      39.339  28.838  29.059  1.00  0.00    -0.014 A 
ATOM     75  C   UNL A   1      38.529  29.394  28.055  1.00  0.00     0.009 A 
ATOM     76  C   UNL A   1      38.787  28.614  30.329  1.00  0.00     0.009 A 
ATOM     77  C   UNL A   1      37.205  29.743  28.327  1.00  0.00     0.001 A 
ATOM     78  C   UNL A   1      37.453  28.938  30.589  1.00  0.00     0.001 A 
ATOM     79  C   UNL A   1      36.666  29.510  29.591  1.00  0.00     0.000 A 
ENDBRANCH  55  74
BRANCH  67  80
ATOM     80  C   UNL A   1      45.292  32.431  29.455  1.00  0.00    -0.014 A 
ATOM     81  C   UNL A   1      45.261  33.450  28.490  1.00  0.00     0.009 A 
ATOM     82  C   UNL A   1      45.549  32.766  30.794  1.00  0.00     0.009 A 
ATOM     83  C   UNL A   1      45.504  34.775  28.859  1.00  0.00     0.001 A 
ATOM     84  C   UNL A   1      45.765  34.095  31.162  1.00  0.00     0.001 A 
ATOM     85  C   UNL A   1      45.748  35.097  30.193  1.00  0.00     0.000 A 
ENDBRANCH  67  80
ENDBRANCH  41  42
ENDBRANCH  33  36
ENDBRANCH  31  32
ENDBRANCH  30  31
ENDBRANCH   1  30
TORSDOF 15
ENDMDL
MODEL 2
REMARK VINA RESULT:     -11.7      1.799      6.183
REMARK SMILES O=C(COc1ccccc1[C@@H]1[NH2+]CCc2cc(O)c(O)cc21)NCCCNC(=O)c1ccc(-c2c3nc(c(-c4ccccc4)c4ccc([nH]4)c(-c4ccccc4)c4nc(c(-c5ccccc5)c5ccc2[nH]5)C=C4)C=C3)cc1
REMARK SMILES IDX 24 1 23 2 1 3 2 4 3 6 4 7 5 8 6 9 10 10 7 11 9 12 8 13 11 14
REMARK SMILES IDX 12 15 22 16 13 17 15 20 21 21 14 22 16 23 19 24 17 25 20 26
REMARK SMILES IDX 18 28 25 30 26 31 27 32 28 33 29 35 30 36 31 37 77 38 32 39
REMARK SMILES IDX 76 40 33 41 34 42 35 43 70 44 36 45 75 46 69 47 71 48 37 49
REMARK SMILES IDX 74 50 68 51 67 52 38 54 60 55 45 56 59 57 46 58 49 59 58 60
REMARK SMILES IDX 72 61 47 62 48 63 57 65 73 66 50 67 39 68 40 69 44 70 41 71
REMARK SMILES IDX 43 72 42 73 61 74 62 75 66 76 63 77 65 78 64 79 51 80 52 81
REMARK SMILES IDX 56 82 53 83 55 84 54 85
REMARK H PARENT 23 5 12 18 12 19 20 27 18 29 27 34 71 53 49 64
REMARK Flexibility Score: inf
ROOT
ATOM      1  C   UNL A   1      36.125  21.098  25.525  1.00  0.00     0.117 C 
ENDROOT
BRANCH   1   2
ATOM      2  N   UNL A   1      35.389  22.282  25.134  1.00  0.00    -0.353 N 
ATOM      3  O   UNL A   1      34.743  22.886  27.250  1.00  0.00    -0.271 OA
ATOM      4  C   UNL A   1      34.872  23.166  26.060  1.00  0.00     0.257 C 
ATOM      5  H   UNL A   1      35.253  22.463  24.176  1.00  0.00     0.163 HD
BRANCH   4   6
ATOM      6  C   UNL A   1      34.478  24.533  25.489  1.00  0.00     0.329 C 
BRANCH   6   7
ATOM      7  O   UNL A   1      33.181  24.766  24.989  1.00  0.00    -0.483 OA
BRANCH   7   8
ATOM      8  C   UNL A   1      32.811  25.088  23.717  1.00  0.00     0.129 A 
ATOM      9  C   UNL A   1      33.227  24.042  22.863  1.00  0.00     0.047 A 
ATOM     10  C   UNL A   1      32.191  26.227  23.155  1.00  0.00     0.056 A 
ATOM     11  C   UNL A   1      33.143  24.129  21.479  1.00  0.00     0.004 A 
ATOM     12  C   UNL A   1      32.196  26.321  21.736  1.00  0.00     0.014 A 
ATOM     13  C   UNL A   1      32.664  25.294  20.912  1.00  0.00     0.001 A 
BRANCH  10  14
ATOM     14  C   UNL A   1      31.534  27.366  23.939  1.00  0.00     0.249 C 
ATOM     15  N   UNL A   1      31.073  26.952  25.273  1.00  0.00    -0.336 N 
ATOM     16  C   UNL A   1      30.390  28.162  23.304  1.00  0.00     0.021 A 
ATOM     17  C   UNL A   1      29.882  26.090  25.231  1.00  0.00     0.266 C 
ATOM     18  H   UNL A   1      30.849  27.788  25.813  1.00  0.00     0.347 HD
ATOM     19  H   UNL A   1      31.825  26.411  25.701  1.00  0.00     0.347 HD
ATOM     20  C   UNL A   1      29.084  27.631  23.417  1.00  0.00    -0.029 A 
ATOM     21  C   UNL A   1      30.580  29.447  22.770  1.00  0.00     0.060 A 
ATOM     22  C   UNL A   1      28.953  26.256  24.015  1.00  0.00     0.097 C 
ATOM     23  C   UNL A   1      27.980  28.385  23.020  1.00  0.00     0.054 A 
ATOM     24  C   UNL A   1      29.467  30.198  22.408  1.00  0.00     0.157 A 
ATOM     25  C   UNL A   1      28.182  29.672  22.545  1.00  0.00     0.157 A 
BRANCH  24  26
ATOM     26  O   UNL A   1      29.578  31.481  21.946  1.00  0.00    -0.504 OA
ATOM     27  H   UNL A   1      30.421  31.832  21.735  1.00  0.00     0.293 HD
ENDBRANCH  24  26
BRANCH  25  28
ATOM     28  O   UNL A   1      27.097  30.445  22.243  1.00  0.00    -0.504 OA
ATOM     29  H   UNL A   1      26.708  30.984  22.903  1.00  0.00     0.293 HD
ENDBRANCH  25  28
ENDBRANCH  10  14
ENDBRANCH   7   8
ENDBRANCH   6   7
ENDBRANCH   4   6
ENDBRANCH   1   2
BRANCH   1  30
ATOM     30  C   UNL A   1      37.448  20.902  24.810  1.00  0.00     0.042 C 
BRANCH  30  31
ATOM     31  C   UNL A   1      38.652  21.089  25.711  1.00  0.00     0.118 C 
BRANCH  31  32
ATOM     32  N   UNL A   1      39.570  19.958  25.674  1.00  0.00    -0.352 N 
ATOM     33  C   UNL A   1      40.905  19.910  26.004  1.00  0.00     0.251 C 
ATOM     34  H   UNL A   1      39.179  19.107  25.370  1.00  0.00     0.163 HD
ATOM     35  O   UNL A   1      41.565  18.908  25.786  1.00  0.00    -0.269 OA
BRANCH  33  36
ATOM     36  C   UNL A   1      41.535  21.110  26.592  1.00  0.00     0.039 A 
ATOM     37  C   UNL A   1      42.070  22.080  25.740  1.00  0.00     0.014 A 
ATOM     38  C   UNL A   1      41.541  21.299  27.976  1.00  0.00     0.014 A 
ATOM     39  C   UNL A   1      42.530  23.283  26.276  1.00  0.00     0.010 A 
ATOM     40  C   UNL A   1      41.914  22.531  28.497  1.00  0.00     0.010 A 
ATOM     41  C   UNL A   1      42.410  23.536  27.651  1.00  0.00    -0.014 A 
BRANCH  41  42
ATOM     42  C   UNL A   1      42.792  24.840  28.245  1.00  0.00     0.031 A 
ATOM     43  C   UNL A   1      41.744  25.896  28.458  1.00  0.00     0.074 A 
ATOM     44  C   UNL A   1      44.088  25.110  28.496  1.00  0.00     0.049 A 
ATOM     45  N   UNL A   1      41.891  27.141  28.834  1.00  0.00    -0.248 NA
ATOM     46  C   UNL A   1      40.351  25.511  28.180  1.00  0.00     0.031 C 
ATOM     47  C   UNL A   1      45.205  24.184  28.297  1.00  0.00     0.029 A 
ATOM     48  N   UNL A   1      44.686  26.255  28.960  1.00  0.00    -0.354 N 
ATOM     49  C   UNL A   1      40.616  27.692  28.810  1.00  0.00     0.074 A 
ATOM     50  C   UNL A   1      39.716  26.661  28.339  1.00  0.00     0.031 C 
ATOM     51  C   UNL A   1      46.348  24.790  28.655  1.00  0.00     0.029 A 
ATOM     52  C   UNL A   1      46.053  26.160  29.061  1.00  0.00     0.049 A 
ATOM     53  H   UNL A   1      44.183  27.067  29.197  1.00  0.00     0.167 HD
ATOM     54  C   UNL A   1      40.226  28.938  29.163  1.00  0.00     0.031 A 
ATOM     55  C   UNL A   1      46.968  27.078  29.425  1.00  0.00     0.031 A 
ATOM     56  C   UNL A   1      41.118  29.955  29.650  1.00  0.00     0.049 A 
ATOM     57  C   UNL A   1      46.511  28.460  29.801  1.00  0.00     0.074 A 
ATOM     58  C   UNL A   1      40.812  31.229  30.091  1.00  0.00     0.029 A 
ATOM     59  N   UNL A   1      42.492  29.809  29.758  1.00  0.00    -0.354 N 
ATOM     60  N   UNL A   1      45.294  28.948  29.831  1.00  0.00    -0.248 NA
ATOM     61  C   UNL A   1      47.554  29.418  30.200  1.00  0.00     0.031 C 
ATOM     62  C   UNL A   1      42.008  31.873  30.425  1.00  0.00     0.029 A 
ATOM     63  C   UNL A   1      43.051  30.980  30.241  1.00  0.00     0.049 A 
ATOM     64  H   UNL A   1      42.996  28.995  29.525  1.00  0.00     0.167 HD
ATOM     65  C   UNL A   1      45.422  30.255  30.281  1.00  0.00     0.074 A 
ATOM     66  C   UNL A   1      46.833  30.483  30.520  1.00  0.00     0.031 C 
ATOM     67  C   UNL A   1      44.456  31.184  30.482  1.00  0.00     0.031 A 
BRANCH  54  68
ATOM     68  C   UNL A   1      38.767  29.270  29.030  1.00  0.00    -0.014 A 
ATOM     69  C   UNL A   1      38.231  29.725  27.814  1.00  0.00     0.009 A 
ATOM     70  C   UNL A   1      37.909  29.096  30.127  1.00  0.00     0.009 A 
ATOM     71  C   UNL A   1      36.874  30.036  27.712  1.00  0.00     0.001 A 
ATOM     72  C   UNL A   1      36.547  29.379  30.014  1.00  0.00     0.001 A 
ATOM     73  C   UNL A   1      36.032  29.858  28.809  1.00  0.00     0.000 A 
ENDBRANCH  54  68
BRANCH  55  74
ATOM     74  C   UNL A   1      48.410  26.720  29.462  1.00  0.00    -0.014 A 
ATOM     75  C   UNL A   1      49.221  26.925  28.335  1.00  0.00     0.009 A 
ATOM     76  C   UNL A   1      48.983  26.169  30.618  1.00  0.00     0.009 A 
ATOM     77  C   UNL A   1      50.569  26.562  28.357  1.00  0.00     0.001 A 
ATOM     78  C   UNL A   1      50.338  25.833  30.647  1.00  0.00     0.001 A 
ATOM     79  C   UNL A   1      51.128  26.021  29.514  1.00  0.00     0.000 A 
ENDBRANCH  55  74
BRANCH  67  80
ATOM     80  C   UNL A   1      44.879  32.515  31.031  1.00  0.00    -0.014 A 
ATOM     81  C   UNL A   1      45.131  33.606  30.186  1.00  0.00     0.009 A 
ATOM     82  C   UNL A   1      44.959  32.695  32.421  1.00  0.00     0.009 A 
ATOM     83  C   UNL A   1      45.478  34.847  30.724  1.00  0.00     0.001 A 
ATOM     84  C   UNL A   1      45.280  33.943  32.956  1.00  0.00     0.001 A 
ATOM     85  C   UNL A   1      45.545  35.017  32.107  1.00  0.00     0.000 A 
ENDBRANCH  67  80
ENDBRANCH  41  42
ENDBRANCH  33  36
ENDBRANCH  31  32
ENDBRANCH  30  31
ENDBRANCH   1  30
TORSDOF 15
ENDMDL
MODEL 3
REMARK VINA RESULT:     -11.7      2.327      8.169
REMARK SMILES O=C(COc1ccccc1[C@@H]1[NH2+]CCc2cc(O)c(O)cc21)NCCCNC(=O)c1ccc(-c2c3nc(c(-c4ccccc4)c4ccc([nH]4)c(-c4ccccc4)c4nc(c(-c5ccccc5)c5ccc2[nH]5)C=C4)C=C3)cc1
REMARK SMILES IDX 24 1 23 2 1 3 2 4 3 6 4 7 5 8 6 9 10 10 7 11 9 12 8 13 11 14
REMARK SMILES IDX 12 15 22 16 13 17 15 20 21 21 14 22 16 23 19 24 17 25 20 26
REMARK SMILES IDX 18 28 25 30 26 31 27 32 28 33 29 35 30 36 31 37 77 38 32 39
REMARK SMILES IDX 76 40 33 41 34 42 35 43 70 44 36 45 75 46 69 47 71 48 37 49
REMARK SMILES IDX 74 50 68 51 67 52 38 54 60 55 45 56 59 57 46 58 49 59 58 60
REMARK SMILES IDX 72 61 47 62 48 63 57 65 73 66 50 67 39 68 40 69 44 70 41 71
REMARK SMILES IDX 43 72 42 73 61 74 62 75 66 76 63 77 65 78 64 79 51 80 52 81
REMARK SMILES IDX 56 82 53 83 55 84 54 85
REMARK H PARENT 23 5 12 18 12 19 20 27 18 29 27 34 71 53 49 64
REMARK Flexibility Score: inf
ROOT
ATOM      1  C   UNL A   1      31.862  28.414  27.625  1.00  0.00     0.117 C 
ENDROOT
BRANCH   1   2
ATOM      2  N   UNL A   1      31.166  27.218  27.194  1.00  0.00    -0.353 N 
ATOM      3  O   UNL A   1      31.017  27.799  24.981  1.00  0.00    -0.271 OA
ATOM      4  C   UNL A   1      30.925  26.947  25.862  1.00  0.00     0.257 C 
ATOM      5  H   UNL A   1      30.855  26.578  27.874  1.00  0.00     0.163 HD
BRANCH   4   6
ATOM      6  C   UNL A   1      30.543  25.493  25.565  1.00  0.00     0.329 C 
BRANCH   6   7
ATOM      7  O   UNL A   1      31.477  24.449  25.722  1.00  0.00    -0.483 OA
BRANCH   7   8
ATOM      8  C   UNL A   1      32.442  24.040  24.849  1.00  0.00     0.129 A 
ATOM      9  C   UNL A   1      33.178  25.178  24.447  1.00  0.00     0.047 A 
ATOM     10  C   UNL A   1      32.756  22.784  24.282  1.00  0.00     0.056 A 
ATOM     11  C   UNL A   1      34.134  25.131  23.439  1.00  0.00     0.004 A 
ATOM     12  C   UNL A   1      33.678  22.786  23.199  1.00  0.00     0.014 A 
ATOM     13  C   UNL A   1      34.354  23.936  22.783  1.00  0.00     0.001 A 
BRANCH  10  14
ATOM     14  C   UNL A   1      32.179  21.435  24.721  1.00  0.00     0.249 C 
ATOM     15  N   UNL A   1      32.189  21.257  26.181  1.00  0.00    -0.336 N 
ATOM     16  C   UNL A   1      32.732  20.142  24.115  1.00  0.00     0.021 A 
ATOM     17  C   UNL A   1      33.535  21.032  26.727  1.00  0.00     0.266 C 
ATOM     18  H   UNL A   1      31.606  20.452  26.413  1.00  0.00     0.347 HD
ATOM     19  H   UNL A   1      31.832  22.118  26.596  1.00  0.00     0.347 HD
ATOM     20  C   UNL A   1      33.891  19.586  24.706  1.00  0.00    -0.029 A 
ATOM     21  C   UNL A   1      32.044  19.430  23.119  1.00  0.00     0.060 A 
ATOM     22  C   UNL A   1      34.567  20.396  25.779  1.00  0.00     0.097 C 
ATOM     23  C   UNL A   1      34.342  18.325  24.322  1.00  0.00     0.054 A 
ATOM     24  C   UNL A   1      32.489  18.160  22.769  1.00  0.00     0.157 A 
ATOM     25  C   UNL A   1      33.620  17.613  23.375  1.00  0.00     0.157 A 
BRANCH  24  26
ATOM     26  O   UNL A   1      31.825  17.386  21.857  1.00  0.00    -0.504 OA
ATOM     27  H   UNL A   1      31.188  16.762  22.146  1.00  0.00     0.293 HD
ENDBRANCH  24  26
BRANCH  25  28
ATOM     28  O   UNL A   1      34.008  16.340  23.065  1.00  0.00    -0.504 OA
ATOM     29  H   UNL A   1      33.686  15.929  22.288  1.00  0.00     0.293 HD
ENDBRANCH  25  28
ENDBRANCH  10  14
ENDBRANCH   7   8
ENDBRANCH   6   7
ENDBRANCH   4   6
ENDBRANCH   1   2
BRANCH   1  30
ATOM     30  C   UNL A   1      33.358  28.405  27.380  1.00  0.00     0.042 C 
BRANCH  30  31
ATOM     31  C   UNL A   1      33.874  29.689  26.762  1.00  0.00     0.118 C 
BRANCH  31  32
ATOM     32  N   UNL A   1      33.818  30.822  27.678  1.00  0.00    -0.352 N 
ATOM     33  C   UNL A   1      34.718  31.203  28.647  1.00  0.00     0.251 C 
ATOM     34  H   UNL A   1      33.023  31.396  27.591  1.00  0.00     0.163 HD
ATOM     35  O   UNL A   1      34.453  32.104  29.423  1.00  0.00    -0.269 OA
BRANCH  33  36
ATOM     36  C   UNL A   1      35.997  30.471  28.755  1.00  0.00     0.039 A 
ATOM     37  C   UNL A   1      36.906  30.537  27.696  1.00  0.00     0.014 A 
ATOM     38  C   UNL A   1      36.318  29.776  29.923  1.00  0.00     0.014 A 
ATOM     39  C   UNL A   1      38.175  29.978  27.847  1.00  0.00     0.010 A 
ATOM     40  C   UNL A   1      37.610  29.302  30.105  1.00  0.00     0.010 A 
ATOM     41  C   UNL A   1      38.552  29.401  29.069  1.00  0.00    -0.014 A 
BRANCH  41  42
ATOM     42  C   UNL A   1      39.924  28.888  29.304  1.00  0.00     0.031 A 
ATOM     43  C   UNL A   1      40.968  29.797  29.890  1.00  0.00     0.074 A 
ATOM     44  C   UNL A   1      40.255  27.646  28.901  1.00  0.00     0.049 A 
ATOM     45  N   UNL A   1      42.250  29.588  30.048  1.00  0.00    -0.248 NA
ATOM     46  C   UNL A   1      40.516  31.129  30.326  1.00  0.00     0.031 C 
ATOM     47  C   UNL A   1      39.344  26.679  28.284  1.00  0.00     0.029 A 
ATOM     48  N   UNL A   1      41.460  26.990  28.934  1.00  0.00    -0.354 N 
ATOM     49  C   UNL A   1      42.759  30.770  30.572  1.00  0.00     0.074 A 
ATOM     50  C   UNL A   1      41.659  31.704  30.663  1.00  0.00     0.031 C 
ATOM     51  C   UNL A   1      40.017  25.548  28.017  1.00  0.00     0.029 A 
ATOM     52  C   UNL A   1      41.415  25.726  28.396  1.00  0.00     0.049 A 
ATOM     53  H   UNL A   1      42.280  27.388  29.308  1.00  0.00     0.167 HD
ATOM     54  C   UNL A   1      44.026  31.046  30.960  1.00  0.00     0.031 A 
ATOM     55  C   UNL A   1      42.392  24.819  28.213  1.00  0.00     0.031 A 
ATOM     56  C   UNL A   1      45.114  30.109  30.887  1.00  0.00     0.049 A 
ATOM     57  C   UNL A   1      43.794  25.154  28.640  1.00  0.00     0.074 A 
ATOM     58  C   UNL A   1      46.421  30.274  31.311  1.00  0.00     0.029 A 
ATOM     59  N   UNL A   1      45.019  28.833  30.356  1.00  0.00    -0.354 N 
ATOM     60  N   UNL A   1      44.248  26.254  29.191  1.00  0.00    -0.248 NA
ATOM     61  C   UNL A   1      44.818  24.121  28.425  1.00  0.00     0.031 C 
ATOM     62  C   UNL A   1      47.129  29.110  30.994  1.00  0.00     0.029 A 
ATOM     63  C   UNL A   1      46.251  28.205  30.423  1.00  0.00     0.049 A 
ATOM     64  H   UNL A   1      44.199  28.433  29.986  1.00  0.00     0.167 HD
ATOM     65  C   UNL A   1      45.601  26.033  29.417  1.00  0.00     0.074 A 
ATOM     66  C   UNL A   1      45.891  24.692  28.952  1.00  0.00     0.031 C 
ATOM     67  C   UNL A   1      46.518  26.866  29.965  1.00  0.00     0.031 A 
BRANCH  54  68
ATOM     68  C   UNL A   1      44.300  32.423  31.492  1.00  0.00    -0.014 A 
ATOM     69  C   UNL A   1      44.190  32.710  32.863  1.00  0.00     0.009 A 
ATOM     70  C   UNL A   1      44.704  33.443  30.617  1.00  0.00     0.009 A 
ATOM     71  C   UNL A   1      44.441  33.998  33.339  1.00  0.00     0.001 A 
ATOM     72  C   UNL A   1      44.983  34.723  31.099  1.00  0.00     0.001 A 
ATOM     73  C   UNL A   1      44.842  35.002  32.458  1.00  0.00     0.000 A 
ENDBRANCH  54  68
BRANCH  55  74
ATOM     74  C   UNL A   1      42.080  23.499  27.606  1.00  0.00    -0.014 A 
ATOM     75  C   UNL A   1      41.606  22.446  28.404  1.00  0.00     0.009 A 
ATOM     76  C   UNL A   1      42.256  23.282  26.232  1.00  0.00     0.009 A 
ATOM     77  C   UNL A   1      41.341  21.195  27.842  1.00  0.00     0.001 A 
ATOM     78  C   UNL A   1      41.962  22.039  25.667  1.00  0.00     0.001 A 
ATOM     79  C   UNL A   1      41.513  20.994  26.473  1.00  0.00     0.000 A 
ENDBRANCH  55  74
BRANCH  67  80
ATOM     80  C   UNL A   1      47.913  26.340  30.139  1.00  0.00    -0.014 A 
ATOM     81  C   UNL A   1      48.336  25.782  31.355  1.00  0.00     0.009 A 
ATOM     82  C   UNL A   1      48.794  26.342  29.046  1.00  0.00     0.009 A 
ATOM     83  C   UNL A   1      49.625  25.257  31.477  1.00  0.00     0.001 A 
ATOM     84  C   UNL A   1      50.071  25.793  29.164  1.00  0.00     0.001 A 
ATOM     85  C   UNL A   1      50.488  25.257  30.381  1.00  0.00     0.000 A 
ENDBRANCH  67  80
ENDBRANCH  41  42
ENDBRANCH  33  36
ENDBRANCH  31  32
ENDBRANCH  30  31
ENDBRANCH   1  30
TORSDOF 15
ENDMDL
