MODEL 1
REMARK VINA RESULT:     -10.3      0.000      0.000
REMARK SMILES O=C(CSCc1ccc(Cl)s1)Nc1ccsc1C(=O)NCCCNC(=O)c1ccc(-c2c3nc(c(-c4ccccc4)c4ccc([nH]4)c(-c4ccccc4)c4nc(c(-c5ccccc5)c5ccc2[nH]5)C=C4)C=C3)cc1
REMARK SMILES IDX 18 1 19 2 20 3 17 5 13 6 14 7 15 8 16 9 12 10 1 11 2 12 3 14
REMARK SMILES IDX 4 15 5 16 6 17 7 18 11 19 8 20 9 21 10 22 21 23 22 24 23 25
REMARK SMILES IDX 24 26 25 27 26 29 27 30 28 31 74 32 29 33 73 34 30 35 31 36
REMARK SMILES IDX 32 37 67 38 33 39 72 40 66 41 68 42 34 43 71 44 65 45 64 46
REMARK SMILES IDX 35 48 57 49 42 50 56 51 43 52 46 53 55 54 69 55 44 56 45 57
REMARK SMILES IDX 54 59 70 60 47 61 36 62 37 63 41 64 38 65 40 66 39 67 58 68
REMARK SMILES IDX 59 69 63 70 60 71 62 72 61 73 48 74 49 75 53 76 50 77 52 78
REMARK SMILES IDX 51 79
REMARK H PARENT 20 4 12 13 24 28 68 47 46 58
REMARK Flexibility Score: inf
ROOT
ATOM      1  C   UNL A   1      32.508  26.830  23.238  1.00  0.00     0.263 C 
ATOM      2  O   UNL A   1      33.013  26.079  22.386  1.00  0.00    -0.268 OA
ATOM      3  N   UNL A   1      33.444  27.665  23.785  1.00  0.00    -0.351 N 
ATOM      4  H   UNL A   1      34.358  27.465  23.481  1.00  0.00     0.163 HD
ENDROOT
BRANCH   1   5
ATOM      5  C   UNL A   1      31.076  26.781  23.560  1.00  0.00     0.115 A 
ATOM      6  C   UNL A   1      30.131  25.840  23.986  1.00  0.00     0.065 A 
ATOM      7  C   UNL A   1      28.787  26.350  23.842  1.00  0.00     0.038 A 
ATOM      8  C   UNL A   1      28.722  27.642  23.394  1.00  0.00     0.068 A 
ATOM      9  S   UNL A   1      30.265  28.284  23.153  1.00  0.00    -0.137 S 
BRANCH   6  10
ATOM     10  N   UNL A   1      30.352  24.559  24.503  1.00  0.00    -0.324 N 
ATOM     11  O   UNL A   1      30.064  25.028  26.756  1.00  0.00    -0.274 OA
ATOM     12  C   UNL A   1      30.459  24.280  25.858  1.00  0.00     0.234 C 
ATOM     13  H   UNL A   1      30.438  23.812  23.867  1.00  0.00     0.170 HD
BRANCH  12  14
ATOM     14  C   UNL A   1      31.124  22.963  26.209  1.00  0.00     0.170 C 
BRANCH  14  15
ATOM     15  S   UNL A   1      32.778  23.085  26.945  1.00  0.00    -0.146 SA
BRANCH  15  16
ATOM     16  C   UNL A   1      33.698  24.052  25.710  1.00  0.00     0.116 C 
BRANCH  16  17
ATOM     17  C   UNL A   1      34.792  23.277  25.058  1.00  0.00     0.016 A 
ATOM     18  C   UNL A   1      35.426  23.525  23.854  1.00  0.00     0.018 A 
ATOM     19  S   UNL A   1      35.484  21.923  25.860  1.00  0.00    -0.128 S 
ATOM     20  C   UNL A   1      36.477  22.596  23.594  1.00  0.00     0.033 A 
ATOM     21  C   UNL A   1      36.599  21.690  24.613  1.00  0.00     0.093 A 
ATOM     22  Cl  UNL A   1      37.746  20.419  24.718  1.00  0.00    -0.072 Cl
ENDBRANCH  16  17
ENDBRANCH  15  16
ENDBRANCH  14  15
ENDBRANCH  12  14
ENDBRANCH   6  10
ENDBRANCH   1   5
BRANCH   3  23
ATOM     23  C   UNL A   1      33.391  28.770  24.706  1.00  0.00     0.118 C 
BRANCH  23  24
ATOM     24  C   UNL A   1      34.017  28.394  26.044  1.00  0.00     0.042 C 
BRANCH  24  25
ATOM     25  C   UNL A   1      33.229  28.765  27.294  1.00  0.00     0.118 C 
BRANCH  25  26
ATOM     26  N   UNL A   1      33.488  30.143  27.676  1.00  0.00    -0.352 N 
ATOM     27  C   UNL A   1      34.545  30.741  28.313  1.00  0.00     0.251 C 
ATOM     28  H   UNL A   1      32.766  30.766  27.432  1.00  0.00     0.163 HD
ATOM     29  O   UNL A   1      34.340  31.852  28.809  1.00  0.00    -0.269 OA
BRANCH  27  30
ATOM     30  C   UNL A   1      35.912  30.152  28.415  1.00  0.00     0.039 A 
ATOM     31  C   UNL A   1      36.302  29.633  29.661  1.00  0.00     0.014 A 
ATOM     32  C   UNL A   1      36.870  30.223  27.401  1.00  0.00     0.014 A 
ATOM     33  C   UNL A   1      37.617  29.204  29.886  1.00  0.00     0.010 A 
ATOM     34  C   UNL A   1      38.166  29.721  27.602  1.00  0.00     0.010 A 
ATOM     35  C   UNL A   1      38.567  29.235  28.855  1.00  0.00    -0.014 A 
BRANCH  35  36
ATOM     36  C   UNL A   1      39.975  28.808  29.102  1.00  0.00     0.031 A 
ATOM     37  C   UNL A   1      40.454  27.436  28.691  1.00  0.00     0.074 A 
ATOM     38  C   UNL A   1      40.842  29.645  29.706  1.00  0.00     0.049 A 
ATOM     39  N   UNL A   1      41.639  26.893  28.842  1.00  0.00    -0.248 NA
ATOM     40  C   UNL A   1      39.474  26.553  28.041  1.00  0.00     0.031 C 
ATOM     41  C   UNL A   1      40.530  30.993  30.183  1.00  0.00     0.029 A 
ATOM     42  N   UNL A   1      42.169  29.479  30.025  1.00  0.00    -0.354 N 
ATOM     43  C   UNL A   1      41.540  25.606  28.327  1.00  0.00     0.074 A 
ATOM     44  C   UNL A   1      40.170  25.435  27.892  1.00  0.00     0.031 C 
ATOM     45  C   UNL A   1      41.633  31.535  30.724  1.00  0.00     0.029 A 
ATOM     46  C   UNL A   1      42.726  30.572  30.642  1.00  0.00     0.049 A 
ATOM     47  H   UNL A   1      42.671  28.655  29.829  1.00  0.00     0.167 HD
ATOM     48  C   UNL A   1      42.499  24.656  28.204  1.00  0.00     0.031 A 
ATOM     49  C   UNL A   1      43.977  30.783  31.094  1.00  0.00     0.031 A 
ATOM     50  C   UNL A   1      43.874  24.815  28.600  1.00  0.00     0.049 A 
ATOM     51  C   UNL A   1      45.023  29.721  30.942  1.00  0.00     0.074 A 
ATOM     52  C   UNL A   1      44.924  23.925  28.449  1.00  0.00     0.029 A 
ATOM     53  N   UNL A   1      44.391  25.939  29.221  1.00  0.00    -0.354 N 
ATOM     54  N   UNL A   1      44.915  28.525  30.418  1.00  0.00    -0.248 NA
ATOM     55  C   UNL A   1      46.370  30.046  31.434  1.00  0.00     0.031 C 
ATOM     56  C   UNL A   1      46.072  24.498  29.008  1.00  0.00     0.029 A 
ATOM     57  C   UNL A   1      45.742  25.760  29.472  1.00  0.00     0.049 A 
ATOM     58  H   UNL A   1      43.876  26.746  29.451  1.00  0.00     0.167 HD
ATOM     59  C   UNL A   1      46.182  27.963  30.503  1.00  0.00     0.074 A 
ATOM     60  C   UNL A   1      47.044  28.950  31.117  1.00  0.00     0.031 C 
ATOM     61  C   UNL A   1      46.591  26.737  30.099  1.00  0.00     0.031 A 
BRANCH  48  62
ATOM     62  C   UNL A   1      42.092  23.338  27.607  1.00  0.00    -0.014 A 
ATOM     63  C   UNL A   1      41.483  22.345  28.391  1.00  0.00     0.009 A 
ATOM     64  C   UNL A   1      42.278  23.103  26.236  1.00  0.00     0.009 A 
ATOM     65  C   UNL A   1      41.097  21.131  27.819  1.00  0.00     0.001 A 
ATOM     66  C   UNL A   1      41.871  21.898  25.662  1.00  0.00     0.001 A 
ATOM     67  C   UNL A   1      41.288  20.910  26.456  1.00  0.00     0.000 A 
ENDBRANCH  48  62
BRANCH  49  68
ATOM     68  C   UNL A   1      44.320  32.077  31.729  1.00  0.00    -0.014 A 
ATOM     69  C   UNL A   1      44.175  32.252  33.113  1.00  0.00     0.009 A 
ATOM     70  C   UNL A   1      44.787  33.144  30.949  1.00  0.00     0.009 A 
ATOM     71  C   UNL A   1      44.485  33.479  33.703  1.00  0.00     0.001 A 
ATOM     72  C   UNL A   1      45.115  34.362  31.545  1.00  0.00     0.001 A 
ATOM     73  C   UNL A   1      44.958  34.531  32.920  1.00  0.00     0.000 A 
ENDBRANCH  49  68
BRANCH  61  74
ATOM     74  C   UNL A   1      48.042  26.406  30.294  1.00  0.00    -0.014 A 
ATOM     75  C   UNL A   1      48.500  25.836  31.491  1.00  0.00     0.009 A 
ATOM     76  C   UNL A   1      48.959  26.661  29.264  1.00  0.00     0.009 A 
ATOM     77  C   UNL A   1      49.858  25.558  31.665  1.00  0.00     0.001 A 
ATOM     78  C   UNL A   1      50.312  26.365  29.432  1.00  0.00     0.001 A 
ATOM     79  C   UNL A   1      50.761  25.821  30.636  1.00  0.00     0.000 A 
ENDBRANCH  61  74
ENDBRANCH  35  36
ENDBRANCH  27  30
ENDBRANCH  25  26
ENDBRANCH  24  25
ENDBRANCH  23  24
ENDBRANCH   3  23
TORSDOF 15
ENDMDL
MODEL 2
REMARK VINA RESULT:     -10.0      2.815      7.662
REMARK SMILES O=C(CSCc1ccc(Cl)s1)Nc1ccsc1C(=O)NCCCNC(=O)c1ccc(-c2c3nc(c(-c4ccccc4)c4ccc([nH]4)c(-c4ccccc4)c4nc(c(-c5ccccc5)c5ccc2[nH]5)C=C4)C=C3)cc1
REMARK SMILES IDX 18 1 19 2 20 3 17 5 13 6 14 7 15 8 16 9 12 10 1 11 2 12 3 14
REMARK SMILES IDX 4 15 5 16 6 17 7 18 11 19 8 20 9 21 10 22 21 23 22 24 23 25
REMARK SMILES IDX 24 26 25 27 26 29 27 30 28 31 74 32 29 33 73 34 30 35 31 36
REMARK SMILES IDX 32 37 67 38 33 39 72 40 66 41 68 42 34 43 71 44 65 45 64 46
REMARK SMILES IDX 35 48 57 49 42 50 56 51 43 52 46 53 55 54 69 55 44 56 45 57
REMARK SMILES IDX 54 59 70 60 47 61 36 62 37 63 41 64 38 65 40 66 39 67 58 68
REMARK SMILES IDX 59 69 63 70 60 71 62 72 61 73 48 74 49 75 53 76 50 77 52 78
REMARK SMILES IDX 51 79
REMARK H PARENT 20 4 12 13 24 28 68 47 46 58
REMARK Flexibility Score: inf
ROOT
ATOM      1  C   UNL A   1      34.543  21.583  26.429  1.00  0.00     0.263 C 
ATOM      2  O   UNL A   1      34.008  21.529  27.549  1.00  0.00    -0.268 OA
ATOM      3  N   UNL A   1      35.838  22.020  26.514  1.00  0.00    -0.351 N 
ATOM      4  H   UNL A   1      36.086  22.301  27.424  1.00  0.00     0.163 HD
ENDROOT
BRANCH   1   5
ATOM      5  C   UNL A   1      33.822  21.201  25.208  1.00  0.00     0.115 A 
ATOM      6  C   UNL A   1      33.036  21.811  24.223  1.00  0.00     0.065 A 
ATOM      7  C   UNL A   1      32.356  20.824  23.416  1.00  0.00     0.038 A 
ATOM      8  C   UNL A   1      32.669  19.529  23.730  1.00  0.00     0.068 A 
ATOM      9  S   UNL A   1      33.797  19.460  24.985  1.00  0.00    -0.137 S 
BRANCH   6  10
ATOM     10  N   UNL A   1      32.868  23.176  23.967  1.00  0.00    -0.324 N 
ATOM     11  O   UNL A   1      34.811  23.553  22.757  1.00  0.00    -0.274 OA
ATOM     12  C   UNL A   1      33.842  23.979  23.390  1.00  0.00     0.234 C 
ATOM     13  H   UNL A   1      32.009  23.590  24.210  1.00  0.00     0.170 HD
BRANCH  12  14
ATOM     14  C   UNL A   1      33.667  25.472  23.591  1.00  0.00     0.170 C 
BRANCH  14  15
ATOM     15  S   UNL A   1      33.757  26.053  25.308  1.00  0.00    -0.146 SA
BRANCH  15  16
ATOM     16  C   UNL A   1      32.012  26.060  25.823  1.00  0.00     0.116 C 
BRANCH  16  17
ATOM     17  C   UNL A   1      31.128  26.801  24.881  1.00  0.00     0.016 A 
ATOM     18  C   UNL A   1      29.962  26.372  24.273  1.00  0.00     0.018 A 
ATOM     19  S   UNL A   1      31.466  28.440  24.490  1.00  0.00    -0.128 S 
ATOM     20  C   UNL A   1      29.353  27.394  23.485  1.00  0.00     0.033 A 
ATOM     21  C   UNL A   1      30.080  28.553  23.533  1.00  0.00     0.093 A 
ATOM     22  Cl  UNL A   1      29.697  30.032  22.753  1.00  0.00    -0.072 Cl
ENDBRANCH  16  17
ENDBRANCH  15  16
ENDBRANCH  14  15
ENDBRANCH  12  14
ENDBRANCH   6  10
ENDBRANCH   1   5
BRANCH   3  23
ATOM     23  C   UNL A   1      36.916  22.163  25.572  1.00  0.00     0.118 C 
BRANCH  23  24
ATOM     24  C   UNL A   1      38.121  21.330  25.992  1.00  0.00     0.042 C 
BRANCH  24  25
ATOM     25  C   UNL A   1      38.688  20.376  24.948  1.00  0.00     0.118 C 
BRANCH  25  26
ATOM     26  N   UNL A   1      39.595  19.421  25.563  1.00  0.00    -0.352 N 
ATOM     27  C   UNL A   1      40.851  19.554  26.099  1.00  0.00     0.251 C 
ATOM     28  H   UNL A   1      39.241  18.503  25.601  1.00  0.00     0.163 HD
ATOM     29  O   UNL A   1      41.513  18.520  26.230  1.00  0.00    -0.269 OA
BRANCH  27  30
ATOM     30  C   UNL A   1      41.444  20.847  26.550  1.00  0.00     0.039 A 
ATOM     31  C   UNL A   1      41.402  21.132  27.925  1.00  0.00     0.014 A 
ATOM     32  C   UNL A   1      41.894  21.844  25.682  1.00  0.00     0.014 A 
ATOM     33  C   UNL A   1      41.794  22.385  28.415  1.00  0.00     0.010 A 
ATOM     34  C   UNL A   1      42.360  23.071  26.180  1.00  0.00     0.010 A 
ATOM     35  C   UNL A   1      42.286  23.371  27.548  1.00  0.00    -0.014 A 
BRANCH  35  36
ATOM     36  C   UNL A   1      42.675  24.717  28.064  1.00  0.00     0.031 A 
ATOM     37  C   UNL A   1      41.637  25.789  28.297  1.00  0.00     0.074 A 
ATOM     38  C   UNL A   1      43.968  24.997  28.321  1.00  0.00     0.049 A 
ATOM     39  N   UNL A   1      41.798  27.018  28.726  1.00  0.00    -0.248 NA
ATOM     40  C   UNL A   1      40.240  25.443  27.996  1.00  0.00     0.031 C 
ATOM     41  C   UNL A   1      45.091  24.080  28.127  1.00  0.00     0.029 A 
ATOM     42  N   UNL A   1      44.554  26.144  28.802  1.00  0.00    -0.354 N 
ATOM     43  C   UNL A   1      40.533  27.594  28.725  1.00  0.00     0.074 A 
ATOM     44  C   UNL A   1      39.619  26.592  28.220  1.00  0.00     0.031 C 
ATOM     45  C   UNL A   1      46.228  24.693  28.494  1.00  0.00     0.029 A 
ATOM     46  C   UNL A   1      45.918  26.048  28.938  1.00  0.00     0.049 A 
ATOM     47  H   UNL A   1      44.045  26.955  29.028  1.00  0.00     0.167 HD
ATOM     48  C   UNL A   1      40.155  28.832  29.127  1.00  0.00     0.031 A 
ATOM     49  C   UNL A   1      46.823  26.945  29.371  1.00  0.00     0.031 A 
ATOM     50  C   UNL A   1      41.042  29.833  29.661  1.00  0.00     0.049 A 
ATOM     51  C   UNL A   1      46.381  28.307  29.816  1.00  0.00     0.074 A 
ATOM     52  C   UNL A   1      40.728  31.089  30.153  1.00  0.00     0.029 A 
ATOM     53  N   UNL A   1      42.414  29.690  29.779  1.00  0.00    -0.354 N 
ATOM     54  N   UNL A   1      45.175  28.816  29.843  1.00  0.00    -0.248 NA
ATOM     55  C   UNL A   1      47.432  29.214  30.304  1.00  0.00     0.031 C 
ATOM     56  C   UNL A   1      41.916  31.721  30.539  1.00  0.00     0.029 A 
ATOM     57  C   UNL A   1      42.963  30.841  30.323  1.00  0.00     0.049 A 
ATOM     58  H   UNL A   1      42.924  28.890  29.516  1.00  0.00     0.167 HD
ATOM     59  C   UNL A   1      45.319  30.094  30.364  1.00  0.00     0.074 A 
ATOM     60  C   UNL A   1      46.725  30.280  30.651  1.00  0.00     0.031 C 
ATOM     61  C   UNL A   1      44.363  31.027  30.590  1.00  0.00     0.031 A 
BRANCH  48  62
ATOM     62  C   UNL A   1      38.699  29.183  29.004  1.00  0.00    -0.014 A 
ATOM     63  C   UNL A   1      37.822  29.023  30.089  1.00  0.00     0.009 A 
ATOM     64  C   UNL A   1      38.207  29.723  27.805  1.00  0.00     0.009 A 
ATOM     65  C   UNL A   1      36.474  29.367  29.965  1.00  0.00     0.001 A 
ATOM     66  C   UNL A   1      36.864  30.087  27.691  1.00  0.00     0.001 A 
ATOM     67  C   UNL A   1      35.998  29.901  28.769  1.00  0.00     0.000 A 
ENDBRANCH  48  62
BRANCH  49  68
ATOM     68  C   UNL A   1      48.257  26.576  29.422  1.00  0.00    -0.014 A 
ATOM     69  C   UNL A   1      49.101  26.848  28.335  1.00  0.00     0.009 A 
ATOM     70  C   UNL A   1      48.784  25.945  30.557  1.00  0.00     0.009 A 
ATOM     71  C   UNL A   1      50.448  26.483  28.382  1.00  0.00     0.001 A 
ATOM     72  C   UNL A   1      50.135  25.601  30.609  1.00  0.00     0.001 A 
ATOM     73  C   UNL A   1      50.964  25.865  29.520  1.00  0.00     0.000 A 
ENDBRANCH  49  68
BRANCH  61  74
ATOM     74  C   UNL A   1      44.811  32.326  31.195  1.00  0.00    -0.014 A 
ATOM     75  C   UNL A   1      45.201  33.405  30.387  1.00  0.00     0.009 A 
ATOM     76  C   UNL A   1      44.835  32.473  32.590  1.00  0.00     0.009 A 
ATOM     77  C   UNL A   1      45.638  34.597  30.967  1.00  0.00     0.001 A 
ATOM     78  C   UNL A   1      45.254  33.672  33.166  1.00  0.00     0.001 A 
ATOM     79  C   UNL A   1      45.663  34.730  32.355  1.00  0.00     0.000 A 
ENDBRANCH  61  74
ENDBRANCH  35  36
ENDBRANCH  27  30
ENDBRANCH  25  26
ENDBRANCH  24  25
ENDBRANCH  23  24
ENDBRANCH   3  23
TORSDOF 15
ENDMDL
MODEL 3
REMARK VINA RESULT:     -10.0      4.313      8.903
REMARK SMILES O=C(CSCc1ccc(Cl)s1)Nc1ccsc1C(=O)NCCCNC(=O)c1ccc(-c2c3nc(c(-c4ccccc4)c4ccc([nH]4)c(-c4ccccc4)c4nc(c(-c5ccccc5)c5ccc2[nH]5)C=C4)C=C3)cc1
REMARK SMILES IDX 18 1 19 2 20 3 17 5 13 6 14 7 15 8 16 9 12 10 1 11 2 12 3 14
REMARK SMILES IDX 4 15 5 16 6 17 7 18 11 19 8 20 9 21 10 22 21 23 22 24 23 25
REMARK SMILES IDX 24 26 25 27 26 29 27 30 28 31 74 32 29 33 73 34 30 35 31 36
REMARK SMILES IDX 32 37 67 38 33 39 72 40 66 41 68 42 34 43 71 44 65 45 64 46
REMARK SMILES IDX 35 48 57 49 42 50 56 51 43 52 46 53 55 54 69 55 44 56 45 57
REMARK SMILES IDX 54 59 70 60 47 61 36 62 37 63 41 64 38 65 40 66 39 67 58 68
REMARK SMILES IDX 59 69 63 70 60 71 62 72 61 73 48 74 49 75 53 76 50 77 52 78
REMARK SMILES IDX 51 79
REMARK H PARENT 20 4 12 13 24 28 68 47 46 58
REMARK Flexibility Score: inf
ROOT
ATOM      1  C   UNL A   1      34.703  21.505  26.417  1.00  0.00     0.263 C 
ATOM      2  O   UNL A   1      34.292  21.627  27.584  1.00  0.00    -0.268 OA
ATOM      3  N   UNL A   1      35.952  22.047  26.269  1.00  0.00    -0.351 N 
ATOM      4  H   UNL A   1      36.263  22.515  27.078  1.00  0.00     0.163 HD
ENDROOT
BRANCH   1   5
ATOM      5  C   UNL A   1      33.903  20.843  25.380  1.00  0.00     0.115 A 
ATOM      6  C   UNL A   1      32.661  21.005  24.754  1.00  0.00     0.065 A 
ATOM      7  C   UNL A   1      32.304  19.830  23.995  1.00  0.00     0.038 A 
ATOM      8  C   UNL A   1      33.262  18.852  23.989  1.00  0.00     0.068 A 
ATOM      9  S   UNL A   1      34.620  19.323  24.874  1.00  0.00    -0.137 S 
BRANCH   6  10
ATOM     10  N   UNL A   1      31.808  22.113  24.790  1.00  0.00    -0.324 N 
ATOM     11  O   UNL A   1      32.565  23.208  22.890  1.00  0.00    -0.274 OA
ATOM     12  C   UNL A   1      31.929  23.209  23.947  1.00  0.00     0.234 C 
ATOM     13  H   UNL A   1      31.079  22.116  25.452  1.00  0.00     0.170 HD
BRANCH  12  14
ATOM     14  C   UNL A   1      31.227  24.473  24.405  1.00  0.00     0.170 C 
BRANCH  14  15
ATOM     15  S   UNL A   1      31.701  25.088  26.045  1.00  0.00    -0.146 SA
BRANCH  15  16
ATOM     16  C   UNL A   1      31.262  26.851  25.956  1.00  0.00     0.116 C 
BRANCH  16  17
ATOM     17  C   UNL A   1      32.376  27.752  26.367  1.00  0.00     0.016 A 
ATOM     18  C   UNL A   1      33.734  27.599  26.153  1.00  0.00     0.018 A 
ATOM     19  S   UNL A   1      32.034  29.244  27.149  1.00  0.00    -0.128 S 
ATOM     20  C   UNL A   1      34.488  28.709  26.637  1.00  0.00     0.033 A 
ATOM     21  C   UNL A   1      33.671  29.658  27.191  1.00  0.00     0.093 A 
ATOM     22  Cl  UNL A   1      34.157  31.156  27.868  1.00  0.00    -0.072 Cl
ENDBRANCH  16  17
ENDBRANCH  15  16
ENDBRANCH  14  15
ENDBRANCH  12  14
ENDBRANCH   6  10
ENDBRANCH   1   5
BRANCH   3  23
ATOM     23  C   UNL A   1      36.910  22.088  25.197  1.00  0.00     0.118 C 
BRANCH  23  24
ATOM     24  C   UNL A   1      38.335  22.083  25.738  1.00  0.00     0.042 C 
BRANCH  24  25
ATOM     25  C   UNL A   1      38.785  23.331  26.488  1.00  0.00     0.118 C 
BRANCH  25  26
ATOM     26  N   UNL A   1      40.128  23.715  26.088  1.00  0.00    -0.352 N 
ATOM     27  C   UNL A   1      40.848  24.869  26.263  1.00  0.00     0.251 C 
ATOM     28  H   UNL A   1      40.613  23.014  25.596  1.00  0.00     0.163 HD
ATOM     29  O   UNL A   1      41.822  25.036  25.523  1.00  0.00    -0.269 OA
BRANCH  27  30
ATOM     30  C   UNL A   1      40.549  25.903  27.296  1.00  0.00     0.039 A 
ATOM     31  C   UNL A   1      41.297  27.091  27.259  1.00  0.00     0.014 A 
ATOM     32  C   UNL A   1      39.686  25.700  28.376  1.00  0.00     0.014 A 
ATOM     33  C   UNL A   1      41.189  28.046  28.279  1.00  0.00     0.010 A 
ATOM     34  C   UNL A   1      39.520  26.690  29.357  1.00  0.00     0.010 A 
ATOM     35  C   UNL A   1      40.292  27.861  29.340  1.00  0.00    -0.014 A 
BRANCH  35  36
ATOM     36  C   UNL A   1      40.199  28.862  30.444  1.00  0.00     0.031 A 
ATOM     37  C   UNL A   1      39.167  29.964  30.408  1.00  0.00     0.074 A 
ATOM     38  C   UNL A   1      41.046  28.798  31.491  1.00  0.00     0.049 A 
ATOM     39  N   UNL A   1      38.955  30.928  31.273  1.00  0.00    -0.248 NA
ATOM     40  C   UNL A   1      38.268  30.000  29.245  1.00  0.00     0.031 C 
ATOM     41  C   UNL A   1      42.111  27.810  31.663  1.00  0.00     0.029 A 
ATOM     42  N   UNL A   1      41.143  29.590  32.610  1.00  0.00    -0.354 N 
ATOM     43  C   UNL A   1      37.918  31.691  30.749  1.00  0.00     0.074 A 
ATOM     44  C   UNL A   1      37.567  31.101  29.475  1.00  0.00     0.031 C 
ATOM     45  C   UNL A   1      42.748  28.046  32.822  1.00  0.00     0.029 A 
ATOM     46  C   UNL A   1      42.145  29.207  33.468  1.00  0.00     0.049 A 
ATOM     47  H   UNL A   1      40.551  30.358  32.780  1.00  0.00     0.167 HD
ATOM     48  C   UNL A   1      37.295  32.770  31.283  1.00  0.00     0.031 A 
ATOM     49  C   UNL A   1      42.538  29.726  34.646  1.00  0.00     0.031 A 
ATOM     50  C   UNL A   1      37.605  33.354  32.561  1.00  0.00     0.049 A 
ATOM     51  C   UNL A   1      41.831  30.916  35.220  1.00  0.00     0.074 A 
ATOM     52  C   UNL A   1      36.977  34.409  33.204  1.00  0.00     0.029 A 
ATOM     53  N   UNL A   1      38.628  32.932  33.395  1.00  0.00    -0.354 N 
ATOM     54  N   UNL A   1      40.828  31.598  34.725  1.00  0.00    -0.248 NA
ATOM     55  C   UNL A   1      42.305  31.399  36.526  1.00  0.00     0.031 C 
ATOM     56  C   UNL A   1      37.641  34.646  34.414  1.00  0.00     0.029 A 
ATOM     57  C   UNL A   1      38.656  33.713  34.539  1.00  0.00     0.049 A 
ATOM     58  H   UNL A   1      39.243  32.188  33.203  1.00  0.00     0.167 HD
ATOM     59  C   UNL A   1      40.542  32.579  35.665  1.00  0.00     0.074 A 
ATOM     60  C   UNL A   1      41.467  32.399  36.763  1.00  0.00     0.031 C 
ATOM     61  C   UNL A   1      39.589  33.541  35.620  1.00  0.00     0.031 A 
BRANCH  48  62
ATOM     62  C   UNL A   1      36.196  33.402  30.475  1.00  0.00    -0.014 A 
ATOM     63  C   UNL A   1      34.893  33.511  30.987  1.00  0.00     0.009 A 
ATOM     64  C   UNL A   1      36.476  33.935  29.208  1.00  0.00     0.009 A 
ATOM     65  C   UNL A   1      33.885  34.113  30.231  1.00  0.00     0.001 A 
ATOM     66  C   UNL A   1      35.472  34.557  28.463  1.00  0.00     0.001 A 
ATOM     67  C   UNL A   1      34.176  34.638  28.973  1.00  0.00     0.000 A 
ENDBRANCH  48  62
BRANCH  49  68
ATOM     68  C   UNL A   1      43.665  29.106  35.383  1.00  0.00    -0.014 A 
ATOM     69  C   UNL A   1      43.430  28.082  36.312  1.00  0.00     0.009 A 
ATOM     70  C   UNL A   1      44.978  29.543  35.162  1.00  0.00     0.009 A 
ATOM     71  C   UNL A   1      44.494  27.513  37.015  1.00  0.00     0.001 A 
ATOM     72  C   UNL A   1      46.041  28.958  35.851  1.00  0.00     0.001 A 
ATOM     73  C   UNL A   1      45.798  27.948  36.781  1.00  0.00     0.000 A 
ENDBRANCH  49  68
BRANCH  61  74
ATOM     74  C   UNL A   1      39.491  34.457  36.805  1.00  0.00    -0.014 A 
ATOM     75  C   UNL A   1      38.779  34.081  37.954  1.00  0.00     0.009 A 
ATOM     76  C   UNL A   1      40.126  35.707  36.772  1.00  0.00     0.009 A 
ATOM     77  C   UNL A   1      38.678  34.956  39.037  1.00  0.00     0.001 A 
ATOM     78  C   UNL A   1      40.039  36.572  37.863  1.00  0.00     0.001 A 
ATOM     79  C   UNL A   1      39.308  36.199  38.992  1.00  0.00     0.000 A 
ENDBRANCH  61  74
ENDBRANCH  35  36
ENDBRANCH  27  30
ENDBRANCH  25  26
ENDBRANCH  24  25
ENDBRANCH  23  24
ENDBRANCH   3  23
TORSDOF 15
ENDMDL
