MODEL 1
REMARK VINA RESULT:     -12.0      0.000      0.000
REMARK SMILES C[C@@H]1CC[C@@H](C(=O)NCCCNC(=O)c2ccc(-c3c4nc(c(-c5ccccc5)c5ccc([nH]5)c(-c5ccccc5)c5nc(c(-c6ccccc6)c6ccc3[nH]6)C=C5)C=C4)cc2)[C@H]2C(=O)N(c3ccccc3)C(=O)[C@@H]21
REMARK SMILES IDX 10 1 9 2 8 3 6 4 7 5 5 7 1 8 2 9 3 10 75 11 4 12 63 13 73 14
REMARK SMILES IDX 64 15 66 16 74 17 65 18 67 19 68 20 72 21 69 22 71 23 70 24
REMARK SMILES IDX 11 25 12 26 13 27 14 29 15 30 16 31 62 32 17 33 61 34 18 35
REMARK SMILES IDX 19 36 20 37 55 38 21 39 60 40 54 41 56 42 22 43 59 44 53 45
REMARK SMILES IDX 52 46 23 48 45 49 30 50 44 51 31 52 34 53 43 54 57 55 32 56
REMARK SMILES IDX 33 57 42 59 58 60 35 61 24 62 25 63 29 64 26 65 28 66 27 67
REMARK SMILES IDX 46 68 47 69 51 70 48 71 50 72 49 73 36 74 37 75 41 76 38 77
REMARK SMILES IDX 40 78 39 79
REMARK H PARENT 8 6 12 28 56 47 34 58
REMARK Flexibility Score: inf
ROOT
ATOM      1  C   UNL A   1      34.051  28.321  25.934  1.00  0.00     0.042 C 
ENDROOT
BRANCH   1   2
ATOM      2  C   UNL A   1      33.192  28.775  24.774  1.00  0.00     0.117 C 
BRANCH   2   3
ATOM      3  N   UNL A   1      33.578  28.271  23.491  1.00  0.00    -0.356 N 
ATOM      4  C   UNL A   1      33.219  27.135  22.846  1.00  0.00     0.223 C 
ATOM      5  O   UNL A   1      33.592  27.063  21.667  1.00  0.00    -0.275 OA
ATOM      6  H   UNL A   1      34.208  28.844  22.996  1.00  0.00     0.163 HD
BRANCH   4   7
ATOM      7  C   UNL A   1      32.327  26.002  23.413  1.00  0.00     0.092 C 
ATOM      8  C   UNL A   1      30.347  24.202  26.232  1.00  0.00     0.008 C 
ATOM      9  C   UNL A   1      31.372  25.325  26.272  1.00  0.00    -0.001 C 
ATOM     10  C   UNL A   1      30.928  26.608  25.512  1.00  0.00     0.005 C 
ATOM     11  C   UNL A   1      32.744  24.943  25.753  1.00  0.00     0.095 C 
ATOM     12  C   UNL A   1      30.989  26.513  23.981  1.00  0.00     0.014 C 
ATOM     13  C   UNL A   1      32.819  24.821  24.239  1.00  0.00     0.104 C 
ATOM     14  C   UNL A   1      33.595  23.765  26.174  1.00  0.00     0.237 C 
ATOM     15  C   UNL A   1      34.213  24.322  24.025  1.00  0.00     0.238 C 
ATOM     16  N   UNL A   1      34.590  23.663  25.189  1.00  0.00    -0.250 N 
ATOM     17  O   UNL A   1      33.471  23.190  27.238  1.00  0.00    -0.274 OA
ATOM     18  O   UNL A   1      34.792  24.424  22.952  1.00  0.00    -0.274 OA
BRANCH  16  19
ATOM     19  C   UNL A   1      35.854  23.017  25.359  1.00  0.00     0.052 A 
ATOM     20  C   UNL A   1      36.958  23.684  25.906  1.00  0.00     0.027 A 
ATOM     21  C   UNL A   1      36.058  21.692  24.927  1.00  0.00     0.027 A 
ATOM     22  C   UNL A   1      38.208  23.057  26.013  1.00  0.00     0.002 A 
ATOM     23  C   UNL A   1      37.309  21.070  25.014  1.00  0.00     0.002 A 
ATOM     24  C   UNL A   1      38.386  21.754  25.559  1.00  0.00     0.000 A 
ENDBRANCH  16  19
ENDBRANCH   4   7
ENDBRANCH   2   3
ENDBRANCH   1   2
BRANCH   1  25
ATOM     25  C   UNL A   1      33.410  28.627  27.271  1.00  0.00     0.118 C 
BRANCH  25  26
ATOM     26  N   UNL A   1      33.532  30.036  27.648  1.00  0.00    -0.352 N 
ATOM     27  C   UNL A   1      34.568  30.754  28.198  1.00  0.00     0.251 C 
ATOM     28  H   UNL A   1      32.723  30.569  27.473  1.00  0.00     0.163 HD
ATOM     29  O   UNL A   1      34.368  31.906  28.574  1.00  0.00    -0.269 OA
BRANCH  27  30
ATOM     30  C   UNL A   1      35.905  30.147  28.372  1.00  0.00     0.039 A 
ATOM     31  C   UNL A   1      36.853  30.256  27.351  1.00  0.00     0.014 A 
ATOM     32  C   UNL A   1      36.232  29.467  29.542  1.00  0.00     0.014 A 
ATOM     33  C   UNL A   1      38.147  29.764  27.551  1.00  0.00     0.010 A 
ATOM     34  C   UNL A   1      37.550  29.136  29.804  1.00  0.00     0.010 A 
ATOM     35  C   UNL A   1      38.520  29.247  28.801  1.00  0.00    -0.014 A 
BRANCH  35  36
ATOM     36  C   UNL A   1      39.894  28.763  29.085  1.00  0.00     0.031 A 
ATOM     37  C   UNL A   1      40.874  29.668  29.790  1.00  0.00     0.074 A 
ATOM     38  C   UNL A   1      40.289  27.555  28.640  1.00  0.00     0.049 A 
ATOM     39  N   UNL A   1      42.143  29.476  30.047  1.00  0.00    -0.248 NA
ATOM     40  C   UNL A   1      40.371  30.984  30.223  1.00  0.00     0.031 C 
ATOM     41  C   UNL A   1      39.455  26.601  27.906  1.00  0.00     0.029 A 
ATOM     42  N   UNL A   1      41.500  26.921  28.750  1.00  0.00    -0.354 N 
ATOM     43  C   UNL A   1      42.588  30.654  30.635  1.00  0.00     0.074 A 
ATOM     44  C   UNL A   1      41.482  31.582  30.618  1.00  0.00     0.031 C 
ATOM     45  C   UNL A   1      40.160  25.479  27.687  1.00  0.00     0.029 A 
ATOM     46  C   UNL A   1      41.509  25.656  28.214  1.00  0.00     0.049 A 
ATOM     47  H   UNL A   1      42.288  27.332  29.171  1.00  0.00     0.167 HD
ATOM     48  C   UNL A   1      43.797  30.934  31.175  1.00  0.00     0.031 A 
ATOM     49  C   UNL A   1      42.493  24.740  28.160  1.00  0.00     0.031 A 
ATOM     50  C   UNL A   1      44.891  30.003  31.211  1.00  0.00     0.049 A 
ATOM     51  C   UNL A   1      43.836  25.076  28.746  1.00  0.00     0.074 A 
ATOM     52  C   UNL A   1      46.140  30.158  31.783  1.00  0.00     0.029 A 
ATOM     53  N   UNL A   1      44.860  28.735  30.649  1.00  0.00    -0.354 N 
ATOM     54  N   UNL A   1      44.225  26.171  29.354  1.00  0.00    -0.248 NA
ATOM     55  C   UNL A   1      44.876  24.043  28.641  1.00  0.00     0.031 C 
ATOM     56  C   UNL A   1      46.885  29.004  31.516  1.00  0.00     0.029 A 
ATOM     57  C   UNL A   1      46.078  28.106  30.836  1.00  0.00     0.049 A 
ATOM     58  H   UNL A   1      44.085  28.342  30.185  1.00  0.00     0.167 HD
ATOM     59  C   UNL A   1      45.542  25.946  29.734  1.00  0.00     0.074 A 
ATOM     60  C   UNL A   1      45.880  24.607  29.297  1.00  0.00     0.031 C 
ATOM     61  C   UNL A   1      46.395  26.773  30.390  1.00  0.00     0.031 A 
BRANCH  48  62
ATOM     62  C   UNL A   1      43.985  32.310  31.759  1.00  0.00    -0.014 A 
ATOM     63  C   UNL A   1      43.678  32.582  33.104  1.00  0.00     0.009 A 
ATOM     64  C   UNL A   1      44.457  33.355  30.950  1.00  0.00     0.009 A 
ATOM     65  C   UNL A   1      43.777  33.881  33.606  1.00  0.00     0.001 A 
ATOM     66  C   UNL A   1      44.593  34.646  31.466  1.00  0.00     0.001 A 
ATOM     67  C   UNL A   1      44.235  34.911  32.788  1.00  0.00     0.000 A 
ENDBRANCH  48  62
BRANCH  49  68
ATOM     68  C   UNL A   1      42.230  23.400  27.574  1.00  0.00    -0.014 A 
ATOM     69  C   UNL A   1      42.614  23.124  26.252  1.00  0.00     0.009 A 
ATOM     70  C   UNL A   1      41.610  22.389  28.324  1.00  0.00     0.009 A 
ATOM     71  C   UNL A   1      42.364  21.872  25.687  1.00  0.00     0.001 A 
ATOM     72  C   UNL A   1      41.389  21.128  27.767  1.00  0.00     0.001 A 
ATOM     73  C   UNL A   1      41.757  20.873  26.446  1.00  0.00     0.000 A 
ENDBRANCH  49  68
BRANCH  61  74
ATOM     74  C   UNL A   1      47.762  26.236  30.708  1.00  0.00    -0.014 A 
ATOM     75  C   UNL A   1      48.798  26.263  29.762  1.00  0.00     0.009 A 
ATOM     76  C   UNL A   1      48.026  25.735  31.993  1.00  0.00     0.009 A 
ATOM     77  C   UNL A   1      50.062  25.766  30.086  1.00  0.00     0.001 A 
ATOM     78  C   UNL A   1      49.298  25.269  32.324  1.00  0.00     0.001 A 
ATOM     79  C   UNL A   1      50.312  25.276  31.368  1.00  0.00     0.000 A 
ENDBRANCH  61  74
ENDBRANCH  35  36
ENDBRANCH  27  30
ENDBRANCH  25  26
ENDBRANCH   1  25
TORSDOF 11
ENDMDL
MODEL 2
REMARK VINA RESULT:     -11.9      2.177      7.814
REMARK SMILES C[C@@H]1CC[C@@H](C(=O)NCCCNC(=O)c2ccc(-c3c4nc(c(-c5ccccc5)c5ccc([nH]5)c(-c5ccccc5)c5nc(c(-c6ccccc6)c6ccc3[nH]6)C=C5)C=C4)cc2)[C@H]2C(=O)N(c3ccccc3)C(=O)[C@@H]21
REMARK SMILES IDX 10 1 9 2 8 3 6 4 7 5 5 7 1 8 2 9 3 10 75 11 4 12 63 13 73 14
REMARK SMILES IDX 64 15 66 16 74 17 65 18 67 19 68 20 72 21 69 22 71 23 70 24
REMARK SMILES IDX 11 25 12 26 13 27 14 29 15 30 16 31 62 32 17 33 61 34 18 35
REMARK SMILES IDX 19 36 20 37 55 38 21 39 60 40 54 41 56 42 22 43 59 44 53 45
REMARK SMILES IDX 52 46 23 48 45 49 30 50 44 51 31 52 34 53 43 54 57 55 32 56
REMARK SMILES IDX 33 57 42 59 58 60 35 61 24 62 25 63 29 64 26 65 28 66 27 67
REMARK SMILES IDX 46 68 47 69 51 70 48 71 50 72 49 73 36 74 37 75 41 76 38 77
REMARK SMILES IDX 40 78 39 79
REMARK H PARENT 8 6 12 28 56 47 34 58
REMARK Flexibility Score: inf
ROOT
ATOM      1  C   UNL A   1      36.139  23.610  26.163  1.00  0.00     0.042 C 
ENDROOT
BRANCH   1   2
ATOM      2  C   UNL A   1      35.201  22.424  26.214  1.00  0.00     0.117 C 
BRANCH   2   3
ATOM      3  N   UNL A   1      34.054  22.586  27.053  1.00  0.00    -0.356 N 
ATOM      4  C   UNL A   1      32.797  22.999  26.758  1.00  0.00     0.223 C 
ATOM      5  O   UNL A   1      31.974  22.868  27.674  1.00  0.00    -0.275 OA
ATOM      6  H   UNL A   1      34.200  22.360  28.000  1.00  0.00     0.163 HD
BRANCH   4   7
ATOM      7  C   UNL A   1      32.300  23.511  25.381  1.00  0.00     0.092 C 
ATOM      8  C   UNL A   1      32.795  24.656  21.701  1.00  0.00     0.008 C 
ATOM      9  C   UNL A   1      33.784  24.437  22.836  1.00  0.00    -0.001 C 
ATOM     10  C   UNL A   1      33.828  22.972  23.356  1.00  0.00     0.005 C 
ATOM     11  C   UNL A   1      33.573  25.338  24.037  1.00  0.00     0.095 C 
ATOM     12  C   UNL A   1      32.634  22.551  24.224  1.00  0.00     0.014 C 
ATOM     13  C   UNL A   1      32.380  24.951  24.895  1.00  0.00     0.104 C 
ATOM     14  C   UNL A   1      33.454  26.846  24.049  1.00  0.00     0.237 C 
ATOM     15  C   UNL A   1      32.338  26.056  25.904  1.00  0.00     0.238 C 
ATOM     16  N   UNL A   1      32.943  27.161  25.319  1.00  0.00    -0.250 N 
ATOM     17  O   UNL A   1      33.886  27.564  23.168  1.00  0.00    -0.274 OA
ATOM     18  O   UNL A   1      31.757  25.949  26.976  1.00  0.00    -0.274 OA
BRANCH  16  19
ATOM     19  C   UNL A   1      33.068  28.431  25.964  1.00  0.00     0.052 A 
ATOM     20  C   UNL A   1      34.206  28.776  26.704  1.00  0.00     0.027 A 
ATOM     21  C   UNL A   1      32.018  29.369  25.931  1.00  0.00     0.027 A 
ATOM     22  C   UNL A   1      34.290  30.002  27.381  1.00  0.00     0.002 A 
ATOM     23  C   UNL A   1      32.090  30.585  26.622  1.00  0.00     0.002 A 
ATOM     24  C   UNL A   1      33.229  30.901  27.348  1.00  0.00     0.000 A 
ENDBRANCH  16  19
ENDBRANCH   4   7
ENDBRANCH   2   3
ENDBRANCH   1   2
BRANCH   1  25
ATOM     25  C   UNL A   1      37.159  23.484  25.051  1.00  0.00     0.118 C 
BRANCH  25  26
ATOM     26  N   UNL A   1      38.312  22.667  25.431  1.00  0.00    -0.352 N 
ATOM     27  C   UNL A   1      39.451  22.960  26.143  1.00  0.00     0.251 C 
ATOM     28  H   UNL A   1      38.262  21.734  25.122  1.00  0.00     0.163 HD
ATOM     29  O   UNL A   1      40.358  22.134  26.193  1.00  0.00    -0.269 OA
BRANCH  27  30
ATOM     30  C   UNL A   1      39.610  24.266  26.819  1.00  0.00     0.039 A 
ATOM     31  C   UNL A   1      39.125  24.437  28.118  1.00  0.00     0.014 A 
ATOM     32  C   UNL A   1      40.238  25.329  26.176  1.00  0.00     0.014 A 
ATOM     33  C   UNL A   1      39.356  25.640  28.792  1.00  0.00     0.010 A 
ATOM     34  C   UNL A   1      40.615  26.449  26.897  1.00  0.00     0.010 A 
ATOM     35  C   UNL A   1      40.150  26.637  28.204  1.00  0.00    -0.014 A 
BRANCH  35  36
ATOM     36  C   UNL A   1      40.474  27.909  28.896  1.00  0.00     0.031 A 
ATOM     37  C   UNL A   1      41.832  28.091  29.530  1.00  0.00     0.074 A 
ATOM     38  C   UNL A   1      39.533  28.862  29.031  1.00  0.00     0.049 A 
ATOM     39  N   UNL A   1      42.280  29.080  30.260  1.00  0.00    -0.248 NA
ATOM     40  C   UNL A   1      42.798  26.991  29.359  1.00  0.00     0.031 C 
ATOM     41  C   UNL A   1      38.167  28.794  28.506  1.00  0.00     0.029 A 
ATOM     42  N   UNL A   1      39.589  30.084  29.651  1.00  0.00    -0.354 N 
ATOM     43  C   UNL A   1      43.557  28.703  30.657  1.00  0.00     0.074 A 
ATOM     44  C   UNL A   1      43.778  27.364  30.163  1.00  0.00     0.031 C 
ATOM     45  C   UNL A   1      37.536  29.949  28.771  1.00  0.00     0.029 A 
ATOM     46  C   UNL A   1      38.432  30.815  29.532  1.00  0.00     0.049 A 
ATOM     47  H   UNL A   1      40.381  30.407  30.136  1.00  0.00     0.167 HD
ATOM     48  C   UNL A   1      44.483  29.415  31.342  1.00  0.00     0.031 A 
ATOM     49  C   UNL A   1      38.130  32.047  29.981  1.00  0.00     0.031 A 
ATOM     50  C   UNL A   1      44.271  30.754  31.815  1.00  0.00     0.049 A 
ATOM     51  C   UNL A   1      39.162  32.815  30.758  1.00  0.00     0.074 A 
ATOM     52  C   UNL A   1      45.156  31.592  32.469  1.00  0.00     0.029 A 
ATOM     53  N   UNL A   1      43.081  31.454  31.680  1.00  0.00    -0.354 N 
ATOM     54  N   UNL A   1      40.388  32.470  31.073  1.00  0.00    -0.248 NA
ATOM     55  C   UNL A   1      38.768  34.147  31.236  1.00  0.00     0.031 C 
ATOM     56  C   UNL A   1      44.483  32.778  32.780  1.00  0.00     0.029 A 
ATOM     57  C   UNL A   1      43.199  32.704  32.262  1.00  0.00     0.049 A 
ATOM     58  H   UNL A   1      42.271  31.111  31.236  1.00  0.00     0.167 HD
ATOM     59  C   UNL A   1      40.922  33.555  31.756  1.00  0.00     0.074 A 
ATOM     60  C   UNL A   1      39.890  34.571  31.799  1.00  0.00     0.031 C 
ATOM     61  C   UNL A   1      42.158  33.699  32.297  1.00  0.00     0.031 A 
BRANCH  48  62
ATOM     62  C   UNL A   1      45.801  28.739  31.618  1.00  0.00    -0.014 A 
ATOM     63  C   UNL A   1      46.871  28.824  30.710  1.00  0.00     0.009 A 
ATOM     64  C   UNL A   1      45.971  27.990  32.793  1.00  0.00     0.009 A 
ATOM     65  C   UNL A   1      48.056  28.121  30.940  1.00  0.00     0.001 A 
ATOM     66  C   UNL A   1      47.172  27.321  33.040  1.00  0.00     0.001 A 
ATOM     67  C   UNL A   1      48.206  27.372  32.105  1.00  0.00     0.000 A 
ENDBRANCH  48  62
BRANCH  49  68
ATOM     68  C   UNL A   1      36.809  32.651  29.662  1.00  0.00    -0.014 A 
ATOM     69  C   UNL A   1      35.762  32.582  30.594  1.00  0.00     0.009 A 
ATOM     70  C   UNL A   1      36.587  33.307  28.442  1.00  0.00     0.009 A 
ATOM     71  C   UNL A   1      34.515  33.136  30.303  1.00  0.00     0.001 A 
ATOM     72  C   UNL A   1      35.348  33.888  28.165  1.00  0.00     0.001 A 
ATOM     73  C   UNL A   1      34.310  33.795  29.092  1.00  0.00     0.000 A 
ENDBRANCH  49  68
BRANCH  61  74
ATOM     74  C   UNL A   1      42.473  35.017  32.947  1.00  0.00    -0.014 A 
ATOM     75  C   UNL A   1      42.046  35.312  34.250  1.00  0.00     0.009 A 
ATOM     76  C   UNL A   1      43.249  35.961  32.255  1.00  0.00     0.009 A 
ATOM     77  C   UNL A   1      42.360  36.542  34.834  1.00  0.00     0.001 A 
ATOM     78  C   UNL A   1      43.588  37.174  32.852  1.00  0.00     0.001 A 
ATOM     79  C   UNL A   1      43.136  37.468  34.137  1.00  0.00     0.000 A 
ENDBRANCH  61  74
ENDBRANCH  35  36
ENDBRANCH  27  30
ENDBRANCH  25  26
ENDBRANCH   1  25
TORSDOF 11
ENDMDL
MODEL 3
REMARK VINA RESULT:     -11.7      0.674      1.201
REMARK SMILES C[C@@H]1CC[C@@H](C(=O)NCCCNC(=O)c2ccc(-c3c4nc(c(-c5ccccc5)c5ccc([nH]5)c(-c5ccccc5)c5nc(c(-c6ccccc6)c6ccc3[nH]6)C=C5)C=C4)cc2)[C@H]2C(=O)N(c3ccccc3)C(=O)[C@@H]21
REMARK SMILES IDX 10 1 9 2 8 3 6 4 7 5 5 7 1 8 2 9 3 10 75 11 4 12 63 13 73 14
REMARK SMILES IDX 64 15 66 16 74 17 65 18 67 19 68 20 72 21 69 22 71 23 70 24
REMARK SMILES IDX 11 25 12 26 13 27 14 29 15 30 16 31 62 32 17 33 61 34 18 35
REMARK SMILES IDX 19 36 20 37 55 38 21 39 60 40 54 41 56 42 22 43 59 44 53 45
REMARK SMILES IDX 52 46 23 48 45 49 30 50 44 51 31 52 34 53 43 54 57 55 32 56
REMARK SMILES IDX 33 57 42 59 58 60 35 61 24 62 25 63 29 64 26 65 28 66 27 67
REMARK SMILES IDX 46 68 47 69 51 70 48 71 50 72 49 73 36 74 37 75 41 76 38 77
REMARK SMILES IDX 40 78 39 79
REMARK H PARENT 8 6 12 28 56 47 34 58
REMARK Flexibility Score: inf
ROOT
ATOM      1  C   UNL A   1      34.040  27.758  25.395  1.00  0.00     0.042 C 
ENDROOT
BRANCH   1   2
ATOM      2  C   UNL A   1      32.893  28.102  24.469  1.00  0.00     0.117 C 
BRANCH   2   3
ATOM      3  N   UNL A   1      32.996  27.572  23.144  1.00  0.00    -0.356 N 
ATOM      4  C   UNL A   1      32.536  26.409  22.622  1.00  0.00     0.223 C 
ATOM      5  O   UNL A   1      32.635  26.313  21.391  1.00  0.00    -0.275 OA
ATOM      6  H   UNL A   1      33.478  28.147  22.507  1.00  0.00     0.163 HD
BRANCH   4   7
ATOM      7  C   UNL A   1      31.832  25.269  23.402  1.00  0.00     0.092 C 
ATOM      8  C   UNL A   1      30.347  23.630  26.597  1.00  0.00     0.008 C 
ATOM      9  C   UNL A   1      31.244  24.844  26.404  1.00  0.00    -0.001 C 
ATOM     10  C   UNL A   1      30.591  25.980  25.565  1.00  0.00     0.005 C 
ATOM     11  C   UNL A   1      32.591  24.537  25.780  1.00  0.00     0.095 C 
ATOM     12  C   UNL A   1      30.510  25.713  24.056  1.00  0.00     0.014 C 
ATOM     13  C   UNL A   1      32.528  24.246  24.289  1.00  0.00     0.104 C 
ATOM     14  C   UNL A   1      33.601  23.504  26.228  1.00  0.00     0.237 C 
ATOM     15  C   UNL A   1      33.940  23.863  23.977  1.00  0.00     0.238 C 
ATOM     16  N   UNL A   1      34.499  23.384  25.155  1.00  0.00    -0.250 N 
ATOM     17  O   UNL A   1      33.646  23.049  27.354  1.00  0.00    -0.274 OA
ATOM     18  O   UNL A   1      34.396  23.894  22.842  1.00  0.00    -0.274 OA
BRANCH  16  19
ATOM     19  C   UNL A   1      35.836  22.887  25.253  1.00  0.00     0.052 A 
ATOM     20  C   UNL A   1      36.173  21.586  24.858  1.00  0.00     0.027 A 
ATOM     21  C   UNL A   1      36.865  23.671  25.810  1.00  0.00     0.027 A 
ATOM     22  C   UNL A   1      37.476  21.091  25.015  1.00  0.00     0.002 A 
ATOM     23  C   UNL A   1      38.162  23.174  25.986  1.00  0.00     0.002 A 
ATOM     24  C   UNL A   1      38.467  21.881  25.587  1.00  0.00     0.000 A 
ENDBRANCH  16  19
ENDBRANCH   4   7
ENDBRANCH   2   3
ENDBRANCH   1   2
BRANCH   1  25
ATOM     25  C   UNL A   1      33.726  28.089  26.839  1.00  0.00     0.118 C 
BRANCH  25  26
ATOM     26  N   UNL A   1      33.546  29.524  27.064  1.00  0.00    -0.352 N 
ATOM     27  C   UNL A   1      34.329  30.461  27.697  1.00  0.00     0.251 C 
ATOM     28  H   UNL A   1      32.709  29.887  26.692  1.00  0.00     0.163 HD
ATOM     29  O   UNL A   1      33.878  31.586  27.895  1.00  0.00    -0.269 OA
BRANCH  27  30
ATOM     30  C   UNL A   1      35.689  30.120  28.168  1.00  0.00     0.039 A 
ATOM     31  C   UNL A   1      35.870  29.633  29.465  1.00  0.00     0.014 A 
ATOM     32  C   UNL A   1      36.792  30.279  27.334  1.00  0.00     0.014 A 
ATOM     33  C   UNL A   1      37.141  29.223  29.880  1.00  0.00     0.010 A 
ATOM     34  C   UNL A   1      38.008  29.717  27.682  1.00  0.00     0.010 A 
ATOM     35  C   UNL A   1      38.211  29.214  28.972  1.00  0.00    -0.014 A 
BRANCH  35  36
ATOM     36  C   UNL A   1      39.566  28.737  29.343  1.00  0.00     0.031 A 
ATOM     37  C   UNL A   1      40.457  29.605  30.197  1.00  0.00     0.074 A 
ATOM     38  C   UNL A   1      40.031  27.572  28.850  1.00  0.00     0.049 A 
ATOM     39  N   UNL A   1      41.703  29.419  30.552  1.00  0.00    -0.248 NA
ATOM     40  C   UNL A   1      39.885  30.876  30.676  1.00  0.00     0.031 C 
ATOM     41  C   UNL A   1      39.290  26.659  27.976  1.00  0.00     0.029 A 
ATOM     42  N   UNL A   1      41.243  26.955  29.022  1.00  0.00    -0.354 N 
ATOM     43  C   UNL A   1      42.064  30.559  31.261  1.00  0.00     0.074 A 
ATOM     44  C   UNL A   1      40.940  31.464  31.211  1.00  0.00     0.031 C 
ATOM     45  C   UNL A   1      40.039  25.571  27.741  1.00  0.00     0.029 A 
ATOM     46  C   UNL A   1      41.332  25.734  28.399  1.00  0.00     0.049 A 
ATOM     47  H   UNL A   1      41.980  27.350  29.540  1.00  0.00     0.167 HD
ATOM     48  C   UNL A   1      43.214  30.821  31.926  1.00  0.00     0.031 A 
ATOM     49  C   UNL A   1      42.340  24.844  28.368  1.00  0.00     0.031 A 
ATOM     50  C   UNL A   1      44.323  29.911  31.992  1.00  0.00     0.049 A 
ATOM     51  C   UNL A   1      43.617  25.161  29.095  1.00  0.00     0.074 A 
ATOM     52  C   UNL A   1      45.513  30.047  32.684  1.00  0.00     0.029 A 
ATOM     53  N   UNL A   1      44.375  28.689  31.340  1.00  0.00    -0.354 N 
ATOM     54  N   UNL A   1      43.922  26.216  29.812  1.00  0.00    -0.248 NA
ATOM     55  C   UNL A   1      44.688  24.159  29.009  1.00  0.00     0.031 C 
ATOM     56  C   UNL A   1      46.308  28.931  32.403  1.00  0.00     0.029 A 
ATOM     57  C   UNL A   1      45.587  28.070  31.590  1.00  0.00     0.049 A 
ATOM     58  H   UNL A   1      43.654  28.316  30.782  1.00  0.00     0.167 HD
ATOM     59  C   UNL A   1      45.206  25.988  30.292  1.00  0.00     0.074 A 
ATOM     60  C   UNL A   1      45.616  24.692  29.792  1.00  0.00     0.031 C 
ATOM     61  C   UNL A   1      45.976  26.780  31.079  1.00  0.00     0.031 A 
BRANCH  48  62
ATOM     62  C   UNL A   1      43.314  32.153  32.622  1.00  0.00    -0.014 A 
ATOM     63  C   UNL A   1      43.846  33.281  31.971  1.00  0.00     0.009 A 
ATOM     64  C   UNL A   1      42.889  32.281  33.953  1.00  0.00     0.009 A 
ATOM     65  C   UNL A   1      44.011  34.486  32.658  1.00  0.00     0.001 A 
ATOM     66  C   UNL A   1      43.019  33.498  34.626  1.00  0.00     0.001 A 
ATOM     67  C   UNL A   1      43.596  34.594  33.984  1.00  0.00     0.000 A 
ENDBRANCH  48  62
BRANCH  49  68
ATOM     68  C   UNL A   1      42.164  23.546  27.666  1.00  0.00    -0.014 A 
ATOM     69  C   UNL A   1      42.521  23.425  26.313  1.00  0.00     0.009 A 
ATOM     70  C   UNL A   1      41.655  22.422  28.334  1.00  0.00     0.009 A 
ATOM     71  C   UNL A   1      42.351  22.215  25.640  1.00  0.00     0.001 A 
ATOM     72  C   UNL A   1      41.515  21.204  27.667  1.00  0.00     0.001 A 
ATOM     73  C   UNL A   1      41.855  21.103  26.318  1.00  0.00     0.000 A 
ENDBRANCH  49  68
BRANCH  61  74
ATOM     74  C   UNL A   1      47.324  26.248  31.479  1.00  0.00    -0.014 A 
ATOM     75  C   UNL A   1      48.453  26.429  30.667  1.00  0.00     0.009 A 
ATOM     76  C   UNL A   1      47.469  25.592  32.712  1.00  0.00     0.009 A 
ATOM     77  C   UNL A   1      49.696  25.931  31.067  1.00  0.00     0.001 A 
ATOM     78  C   UNL A   1      48.717  25.125  33.123  1.00  0.00     0.001 A 
ATOM     79  C   UNL A   1      49.828  25.286  32.296  1.00  0.00     0.000 A 
ENDBRANCH  61  74
ENDBRANCH  35  36
ENDBRANCH  27  30
ENDBRANCH  25  26
ENDBRANCH   1  25
TORSDOF 11
ENDMDL
