MODEL 1
REMARK VINA RESULT:     -10.9      0.000      0.000
REMARK SMILES O=C(NCCCNC(=O)[C@@H]1CCCN(C(=O)Nc2ccccc2)C1)c1ccc(-c2c3nc(c(-c4ccccc4)c4ccc([nH]4)c(-c4ccccc4)c4nc(c(-c5ccccc5)c5ccc2[nH]5)C=C4)C=C3)cc1
REMARK SMILES IDX 5 1 4 2 3 3 1 4 2 5 25 7 26 8 72 9 27 10 71 11 28 12 29 13
REMARK SMILES IDX 30 14 65 15 31 16 70 17 64 18 66 19 32 20 69 21 63 22 62 23
REMARK SMILES IDX 33 25 55 26 40 27 54 28 41 29 44 30 53 31 67 32 42 33 43 34
REMARK SMILES IDX 52 36 68 37 45 38 34 39 35 40 39 41 36 42 38 43 37 44 56 45
REMARK SMILES IDX 57 46 61 47 58 48 60 49 59 50 46 51 47 52 51 53 48 54 50 55
REMARK SMILES IDX 49 56 6 57 7 58 8 59 9 61 10 62 11 63 24 64 12 65 14 66
REMARK SMILES IDX 13 67 15 68 16 69 17 70 18 72 19 73 23 74 20 75 22 76 21 77
REMARK H PARENT 3 6 66 24 44 35 7 60 17 71
REMARK Flexibility Score: inf
ROOT
ATOM      1  C   UNL A   1      31.942  28.517  26.823  1.00  0.00     0.042 C 
ENDROOT
BRANCH   1   2
ATOM      2  C   UNL A   1      33.372  28.831  27.251  1.00  0.00     0.118 C 
BRANCH   2   3
ATOM      3  N   UNL A   1      33.514  30.209  27.693  1.00  0.00    -0.352 N 
ATOM      4  O   UNL A   1      34.328  31.948  28.850  1.00  0.00    -0.269 OA
ATOM      5  C   UNL A   1      34.537  30.838  28.357  1.00  0.00     0.251 C 
ATOM      6  H   UNL A   1      32.749  30.789  27.479  1.00  0.00     0.163 HD
BRANCH   5   7
ATOM      7  C   UNL A   1      35.883  30.229  28.495  1.00  0.00     0.039 A 
ATOM      8  C   UNL A   1      36.831  30.288  27.471  1.00  0.00     0.014 A 
ATOM      9  C   UNL A   1      36.249  29.692  29.737  1.00  0.00     0.014 A 
ATOM     10  C   UNL A   1      38.098  29.731  27.653  1.00  0.00     0.010 A 
ATOM     11  C   UNL A   1      37.545  29.208  29.945  1.00  0.00     0.010 A 
ATOM     12  C   UNL A   1      38.480  29.212  28.901  1.00  0.00    -0.014 A 
BRANCH  12  13
ATOM     13  C   UNL A   1      39.887  28.785  29.126  1.00  0.00     0.031 A 
ATOM     14  C   UNL A   1      40.897  29.700  29.757  1.00  0.00     0.074 A 
ATOM     15  C   UNL A   1      40.258  27.548  28.741  1.00  0.00     0.049 A 
ATOM     16  N   UNL A   1      42.141  29.455  30.086  1.00  0.00    -0.248 NA
ATOM     17  C   UNL A   1      40.458  31.069  30.057  1.00  0.00     0.031 C 
ATOM     18  C   UNL A   1      39.387  26.572  28.081  1.00  0.00     0.029 A 
ATOM     19  N   UNL A   1      41.460  26.897  28.851  1.00  0.00    -0.354 N 
ATOM     20  C   UNL A   1      42.628  30.633  30.640  1.00  0.00     0.074 A 
ATOM     21  C   UNL A   1      41.554  31.601  30.581  1.00  0.00     0.031 C 
ATOM     22  C   UNL A   1      40.074  25.440  27.871  1.00  0.00     0.029 A 
ATOM     23  C   UNL A   1      41.444  25.625  28.336  1.00  0.00     0.049 A 
ATOM     24  H   UNL A   1      42.259  27.304  29.260  1.00  0.00     0.167 HD
ATOM     25  C   UNL A   1      43.859  30.890  31.143  1.00  0.00     0.031 A 
ATOM     26  C   UNL A   1      42.423  24.708  28.232  1.00  0.00     0.031 A 
ATOM     27  C   UNL A   1      44.947  29.948  31.154  1.00  0.00     0.049 A 
ATOM     28  C   UNL A   1      43.791  25.030  28.757  1.00  0.00     0.074 A 
ATOM     29  C   UNL A   1      46.221  30.107  31.669  1.00  0.00     0.029 A 
ATOM     30  N   UNL A   1      44.894  28.679  30.599  1.00  0.00    -0.354 N 
ATOM     31  N   UNL A   1      44.208  26.122  29.350  1.00  0.00    -0.248 NA
ATOM     32  C   UNL A   1      44.820  23.994  28.602  1.00  0.00     0.031 C 
ATOM     33  C   UNL A   1      46.958  28.954  31.376  1.00  0.00     0.029 A 
ATOM     34  C   UNL A   1      46.125  28.058  30.726  1.00  0.00     0.049 A 
ATOM     35  H   UNL A   1      44.100  28.278  30.178  1.00  0.00     0.167 HD
ATOM     36  C   UNL A   1      45.545  25.901  29.648  1.00  0.00     0.074 A 
ATOM     37  C   UNL A   1      45.863  24.564  29.189  1.00  0.00     0.031 C 
ATOM     38  C   UNL A   1      46.431  26.733  30.249  1.00  0.00     0.031 A 
BRANCH  25  39
ATOM     39  C   UNL A   1      44.103  32.269  31.689  1.00  0.00    -0.014 A 
ATOM     40  C   UNL A   1      43.879  32.566  33.043  1.00  0.00     0.009 A 
ATOM     41  C   UNL A   1      44.588  33.279  30.844  1.00  0.00     0.009 A 
ATOM     42  C   UNL A   1      44.105  33.856  33.530  1.00  0.00     0.001 A 
ATOM     43  C   UNL A   1      44.835  34.561  31.339  1.00  0.00     0.001 A 
ATOM     44  C   UNL A   1      44.584  34.851  32.680  1.00  0.00     0.000 A 
ENDBRANCH  25  39
BRANCH  26  45
ATOM     45  C   UNL A   1      42.136  23.404  27.583  1.00  0.00    -0.014 A 
ATOM     46  C   UNL A   1      42.437  23.194  26.230  1.00  0.00     0.009 A 
ATOM     47  C   UNL A   1      41.588  22.348  28.331  1.00  0.00     0.009 A 
ATOM     48  C   UNL A   1      42.184  21.955  25.635  1.00  0.00     0.001 A 
ATOM     49  C   UNL A   1      41.362  21.105  27.741  1.00  0.00     0.001 A 
ATOM     50  C   UNL A   1      41.655  20.910  26.392  1.00  0.00     0.000 A 
ENDBRANCH  26  45
BRANCH  38  51
ATOM     51  C   UNL A   1      47.825  26.215  30.451  1.00  0.00    -0.014 A 
ATOM     52  C   UNL A   1      48.235  25.704  31.692  1.00  0.00     0.009 A 
ATOM     53  C   UNL A   1      48.726  26.204  29.376  1.00  0.00     0.009 A 
ATOM     54  C   UNL A   1      49.533  25.220  31.860  1.00  0.00     0.001 A 
ATOM     55  C   UNL A   1      50.016  25.696  29.540  1.00  0.00     0.001 A 
ATOM     56  C   UNL A   1      50.420  25.212  30.783  1.00  0.00     0.000 A 
ENDBRANCH  38  51
ENDBRANCH  12  13
ENDBRANCH   5   7
ENDBRANCH   2   3
ENDBRANCH   1   2
BRANCH   1  57
ATOM     57  C   UNL A   1      31.667  28.768  25.344  1.00  0.00     0.117 C 
BRANCH  57  58
ATOM     58  N   UNL A   1      30.947  27.682  24.711  1.00  0.00    -0.356 N 
ATOM     59  C   UNL A   1      31.270  26.707  23.831  1.00  0.00     0.224 C 
ATOM     60  H   UNL A   1      30.001  27.645  24.984  1.00  0.00     0.163 HD
ATOM     61  O   UNL A   1      30.369  25.883  23.621  1.00  0.00    -0.275 OA
BRANCH  59  62
ATOM     62  C   UNL A   1      32.587  26.546  23.067  1.00  0.00     0.098 C 
ATOM     63  C   UNL A   1      32.690  25.751  21.774  1.00  0.00     0.017 C 
ATOM     64  C   UNL A   1      33.728  26.191  24.021  1.00  0.00     0.134 C 
ATOM     65  C   UNL A   1      33.054  24.281  21.938  1.00  0.00     0.022 C 
ATOM     66  N   UNL A   1      33.755  24.762  24.329  1.00  0.00    -0.324 N 
ATOM     67  C   UNL A   1      33.901  23.907  23.155  1.00  0.00     0.121 C 
BRANCH  66  68
ATOM     68  C   UNL A   1      33.713  24.417  25.664  1.00  0.00     0.321 C 
ATOM     69  O   UNL A   1      32.823  24.836  26.413  1.00  0.00    -0.248 OA
ATOM     70  N   UNL A   1      34.517  23.484  26.224  1.00  0.00    -0.308 N 
ATOM     71  H   UNL A   1      34.159  23.147  27.076  1.00  0.00     0.171 HD
BRANCH  70  72
ATOM     72  C   UNL A   1      35.728  22.889  25.885  1.00  0.00     0.042 A 
ATOM     73  C   UNL A   1      36.880  23.653  26.072  1.00  0.00     0.026 A 
ATOM     74  C   UNL A   1      35.827  21.594  25.374  1.00  0.00     0.026 A 
ATOM     75  C   UNL A   1      38.132  23.071  25.908  1.00  0.00     0.002 A 
ATOM     76  C   UNL A   1      37.086  21.023  25.180  1.00  0.00     0.002 A 
ATOM     77  C   UNL A   1      38.238  21.751  25.474  1.00  0.00     0.000 A 
ENDBRANCH  70  72
ENDBRANCH  66  68
ENDBRANCH  59  62
ENDBRANCH  57  58
ENDBRANCH   1  57
TORSDOF 12
ENDMDL
MODEL 2
REMARK VINA RESULT:     -10.7      2.363      7.931
REMARK SMILES O=C(NCCCNC(=O)[C@@H]1CCCN(C(=O)Nc2ccccc2)C1)c1ccc(-c2c3nc(c(-c4ccccc4)c4ccc([nH]4)c(-c4ccccc4)c4nc(c(-c5ccccc5)c5ccc2[nH]5)C=C4)C=C3)cc1
REMARK SMILES IDX 5 1 4 2 3 3 1 4 2 5 25 7 26 8 72 9 27 10 71 11 28 12 29 13
REMARK SMILES IDX 30 14 65 15 31 16 70 17 64 18 66 19 32 20 69 21 63 22 62 23
REMARK SMILES IDX 33 25 55 26 40 27 54 28 41 29 44 30 53 31 67 32 42 33 43 34
REMARK SMILES IDX 52 36 68 37 45 38 34 39 35 40 39 41 36 42 38 43 37 44 56 45
REMARK SMILES IDX 57 46 61 47 58 48 60 49 59 50 46 51 47 52 51 53 48 54 50 55
REMARK SMILES IDX 49 56 6 57 7 58 8 59 9 61 10 62 11 63 24 64 12 65 14 66
REMARK SMILES IDX 13 67 15 68 16 69 17 70 18 72 19 73 23 74 20 75 22 76 21 77
REMARK H PARENT 3 6 66 24 44 35 7 60 17 71
REMARK Flexibility Score: inf
ROOT
ATOM      1  C   UNL A   1      36.055  23.240  26.025  1.00  0.00     0.042 C 
ENDROOT
BRANCH   1   2
ATOM      2  C   UNL A   1      37.211  23.343  25.036  1.00  0.00     0.118 C 
BRANCH   2   3
ATOM      3  N   UNL A   1      38.353  22.543  25.453  1.00  0.00    -0.352 N 
ATOM      4  O   UNL A   1      40.441  22.097  26.133  1.00  0.00    -0.269 OA
ATOM      5  C   UNL A   1      39.503  22.896  26.112  1.00  0.00     0.251 C 
ATOM      6  H   UNL A   1      38.290  21.588  25.225  1.00  0.00     0.163 HD
BRANCH   5   7
ATOM      7  C   UNL A   1      39.651  24.200  26.804  1.00  0.00     0.039 A 
ATOM      8  C   UNL A   1      39.186  24.406  28.105  1.00  0.00     0.014 A 
ATOM      9  C   UNL A   1      40.390  25.211  26.173  1.00  0.00     0.014 A 
ATOM     10  C   UNL A   1      39.374  25.639  28.732  1.00  0.00     0.010 A 
ATOM     11  C   UNL A   1      40.649  26.417  26.834  1.00  0.00     0.010 A 
ATOM     12  C   UNL A   1      40.133  26.648  28.116  1.00  0.00    -0.014 A 
BRANCH  12  13
ATOM     13  C   UNL A   1      40.470  27.884  28.870  1.00  0.00     0.031 A 
ATOM     14  C   UNL A   1      41.792  28.049  29.564  1.00  0.00     0.074 A 
ATOM     15  C   UNL A   1      39.556  28.873  28.935  1.00  0.00     0.049 A 
ATOM     16  N   UNL A   1      42.266  29.091  30.201  1.00  0.00    -0.248 NA
ATOM     17  C   UNL A   1      42.702  26.896  29.545  1.00  0.00     0.031 C 
ATOM     18  C   UNL A   1      38.219  28.826  28.339  1.00  0.00     0.029 A 
ATOM     19  N   UNL A   1      39.613  30.108  29.528  1.00  0.00    -0.354 N 
ATOM     20  C   UNL A   1      43.530  28.723  30.647  1.00  0.00     0.074 A 
ATOM     21  C   UNL A   1      43.741  27.353  30.230  1.00  0.00     0.031 C 
ATOM     22  C   UNL A   1      37.593  29.990  28.572  1.00  0.00     0.029 A 
ATOM     23  C   UNL A   1      38.463  30.843  29.372  1.00  0.00     0.049 A 
ATOM     24  H   UNL A   1      40.401  30.436  30.019  1.00  0.00     0.167 HD
ATOM     25  C   UNL A   1      44.430  29.453  31.348  1.00  0.00     0.031 A 
ATOM     26  C   UNL A   1      38.133  32.063  29.833  1.00  0.00     0.031 A 
ATOM     27  C   UNL A   1      44.203  30.796  31.812  1.00  0.00     0.049 A 
ATOM     28  C   UNL A   1      39.130  32.837  30.644  1.00  0.00     0.074 A 
ATOM     29  C   UNL A   1      45.066  31.627  32.504  1.00  0.00     0.029 A 
ATOM     30  N   UNL A   1      43.015  31.493  31.655  1.00  0.00    -0.354 N 
ATOM     31  N   UNL A   1      40.349  32.502  30.986  1.00  0.00    -0.248 NA
ATOM     32  C   UNL A   1      38.705  34.157  31.129  1.00  0.00     0.031 C 
ATOM     33  C   UNL A   1      44.381  32.807  32.815  1.00  0.00     0.029 A 
ATOM     34  C   UNL A   1      43.110  32.731  32.268  1.00  0.00     0.049 A 
ATOM     35  H   UNL A   1      42.223  31.159  31.176  1.00  0.00     0.167 HD
ATOM     36  C   UNL A   1      40.844  33.572  31.718  1.00  0.00     0.074 A 
ATOM     37  C   UNL A   1      39.798  34.576  31.752  1.00  0.00     0.031 C 
ATOM     38  C   UNL A   1      42.055  33.712  32.309  1.00  0.00     0.031 A 
BRANCH  25  39
ATOM     39  C   UNL A   1      45.735  28.790  31.690  1.00  0.00    -0.014 A 
ATOM     40  C   UNL A   1      46.819  28.815  30.799  1.00  0.00     0.009 A 
ATOM     41  C   UNL A   1      45.890  28.153  32.931  1.00  0.00     0.009 A 
ATOM     42  C   UNL A   1      48.022  28.187  31.132  1.00  0.00     0.001 A 
ATOM     43  C   UNL A   1      47.101  27.546  33.270  1.00  0.00     0.001 A 
ATOM     44  C   UNL A   1      48.163  27.556  32.367  1.00  0.00     0.000 A 
ENDBRANCH  25  39
BRANCH  26  45
ATOM     45  C   UNL A   1      36.784  32.612  29.545  1.00  0.00    -0.014 A 
ATOM     46  C   UNL A   1      35.751  32.510  30.489  1.00  0.00     0.009 A 
ATOM     47  C   UNL A   1      36.535  33.274  28.331  1.00  0.00     0.009 A 
ATOM     48  C   UNL A   1      34.492  33.051  30.217  1.00  0.00     0.001 A 
ATOM     49  C   UNL A   1      35.284  33.836  28.074  1.00  0.00     0.001 A 
ATOM     50  C   UNL A   1      34.262  33.719  29.015  1.00  0.00     0.000 A 
ENDBRANCH  26  45
BRANCH  38  51
ATOM     51  C   UNL A   1      42.317  34.999  33.035  1.00  0.00    -0.014 A 
ATOM     52  C   UNL A   1      41.794  35.226  34.317  1.00  0.00     0.009 A 
ATOM     53  C   UNL A   1      43.125  35.980  32.443  1.00  0.00     0.009 A 
ATOM     54  C   UNL A   1      42.053  36.427  34.981  1.00  0.00     0.001 A 
ATOM     55  C   UNL A   1      43.403  37.169  33.119  1.00  0.00     0.001 A 
ATOM     56  C   UNL A   1      42.860  37.395  34.383  1.00  0.00     0.000 A 
ENDBRANCH  38  51
ENDBRANCH  12  13
ENDBRANCH   5   7
ENDBRANCH   2   3
ENDBRANCH   1   2
BRANCH   1  57
ATOM     57  C   UNL A   1      35.232  21.963  25.889  1.00  0.00     0.117 C 
BRANCH  57  58
ATOM     58  N   UNL A   1      34.091  22.118  25.010  1.00  0.00    -0.356 N 
ATOM     59  C   UNL A   1      32.940  22.826  25.057  1.00  0.00     0.224 C 
ATOM     60  H   UNL A   1      34.171  21.581  24.188  1.00  0.00     0.163 HD
ATOM     61  O   UNL A   1      32.259  22.771  24.023  1.00  0.00    -0.275 OA
BRANCH  59  62
ATOM     62  C   UNL A   1      32.396  23.636  26.237  1.00  0.00     0.098 C 
ATOM     63  C   UNL A   1      30.914  23.694  26.575  1.00  0.00     0.017 C 
ATOM     64  C   UNL A   1      33.020  25.032  26.269  1.00  0.00     0.134 C 
ATOM     65  C   UNL A   1      30.141  24.838  25.932  1.00  0.00     0.022 C 
ATOM     66  N   UNL A   1      32.347  25.952  25.353  1.00  0.00    -0.324 N 
ATOM     67  C   UNL A   1      30.921  26.116  25.623  1.00  0.00     0.121 C 
BRANCH  66  68
ATOM     68  C   UNL A   1      33.140  26.584  24.419  1.00  0.00     0.321 C 
ATOM     69  O   UNL A   1      33.538  26.000  23.405  1.00  0.00    -0.248 OA
ATOM     70  N   UNL A   1      33.410  27.910  24.438  1.00  0.00    -0.308 N 
ATOM     71  H   UNL A   1      33.716  28.241  23.563  1.00  0.00     0.171 HD
BRANCH  70  72
ATOM     72  C   UNL A   1      33.361  28.916  25.397  1.00  0.00     0.042 A 
ATOM     73  C   UNL A   1      32.236  29.742  25.387  1.00  0.00     0.026 A 
ATOM     74  C   UNL A   1      34.370  29.127  26.338  1.00  0.00     0.026 A 
ATOM     75  C   UNL A   1      32.042  30.663  26.410  1.00  0.00     0.002 A 
ATOM     76  C   UNL A   1      34.186  30.075  27.347  1.00  0.00     0.002 A 
ATOM     77  C   UNL A   1      33.010  30.822  27.399  1.00  0.00     0.000 A 
ENDBRANCH  70  72
ENDBRANCH  66  68
ENDBRANCH  59  62
ENDBRANCH  57  58
ENDBRANCH   1  57
TORSDOF 12
ENDMDL
MODEL 3
REMARK VINA RESULT:     -10.7      2.284      7.502
REMARK SMILES O=C(NCCCNC(=O)[C@@H]1CCCN(C(=O)Nc2ccccc2)C1)c1ccc(-c2c3nc(c(-c4ccccc4)c4ccc([nH]4)c(-c4ccccc4)c4nc(c(-c5ccccc5)c5ccc2[nH]5)C=C4)C=C3)cc1
REMARK SMILES IDX 5 1 4 2 3 3 1 4 2 5 25 7 26 8 72 9 27 10 71 11 28 12 29 13
REMARK SMILES IDX 30 14 65 15 31 16 70 17 64 18 66 19 32 20 69 21 63 22 62 23
REMARK SMILES IDX 33 25 55 26 40 27 54 28 41 29 44 30 53 31 67 32 42 33 43 34
REMARK SMILES IDX 52 36 68 37 45 38 34 39 35 40 39 41 36 42 38 43 37 44 56 45
REMARK SMILES IDX 57 46 61 47 58 48 60 49 59 50 46 51 47 52 51 53 48 54 50 55
REMARK SMILES IDX 49 56 6 57 7 58 8 59 9 61 10 62 11 63 24 64 12 65 14 66
REMARK SMILES IDX 13 67 15 68 16 69 17 70 18 72 19 73 23 74 20 75 22 76 21 77
REMARK H PARENT 3 6 66 24 44 35 7 60 17 71
REMARK Flexibility Score: inf
ROOT
ATOM      1  C   UNL A   1      35.037  23.365  25.986  1.00  0.00     0.042 C 
ENDROOT
BRANCH   1   2
ATOM      2  C   UNL A   1      36.446  23.859  25.681  1.00  0.00     0.118 C 
BRANCH   2   3
ATOM      3  N   UNL A   1      37.442  22.818  25.885  1.00  0.00    -0.352 N 
ATOM      4  O   UNL A   1      39.473  21.901  26.123  1.00  0.00    -0.269 OA
ATOM      5  C   UNL A   1      38.758  22.895  26.263  1.00  0.00     0.251 C 
ATOM      6  H   UNL A   1      37.116  21.903  25.725  1.00  0.00     0.163 HD
BRANCH   5   7
ATOM      7  C   UNL A   1      39.344  24.131  26.838  1.00  0.00     0.039 A 
ATOM      8  C   UNL A   1      39.968  25.095  26.043  1.00  0.00     0.014 A 
ATOM      9  C   UNL A   1      39.151  24.389  28.203  1.00  0.00     0.014 A 
ATOM     10  C   UNL A   1      40.477  26.260  26.620  1.00  0.00     0.010 A 
ATOM     11  C   UNL A   1      39.590  25.593  28.765  1.00  0.00     0.010 A 
ATOM     12  C   UNL A   1      40.268  26.536  27.981  1.00  0.00    -0.014 A 
BRANCH  12  13
ATOM     13  C   UNL A   1      40.664  27.857  28.537  1.00  0.00     0.031 A 
ATOM     14  C   UNL A   1      39.669  28.972  28.703  1.00  0.00     0.074 A 
ATOM     15  C   UNL A   1      41.949  28.054  28.888  1.00  0.00     0.049 A 
ATOM     16  N   UNL A   1      39.839  30.156  29.237  1.00  0.00    -0.248 NA
ATOM     17  C   UNL A   1      38.309  28.730  28.204  1.00  0.00     0.031 C 
ATOM     18  C   UNL A   1      43.024  27.070  28.743  1.00  0.00     0.029 A 
ATOM     19  N   UNL A   1      42.571  29.145  29.441  1.00  0.00    -0.354 N 
ATOM     20  C   UNL A   1      38.607  30.794  29.147  1.00  0.00     0.074 A 
ATOM     21  C   UNL A   1      37.705  29.876  28.486  1.00  0.00     0.031 C 
ATOM     22  C   UNL A   1      44.164  27.590  29.221  1.00  0.00     0.029 A 
ATOM     23  C   UNL A   1      43.913  28.957  29.661  1.00  0.00     0.049 A 
ATOM     24  H   UNL A   1      42.100  29.982  29.660  1.00  0.00     0.167 HD
ATOM     25  C   UNL A   1      38.260  32.034  29.568  1.00  0.00     0.031 A 
ATOM     26  C   UNL A   1      44.848  29.794  30.146  1.00  0.00     0.031 A 
ATOM     27  C   UNL A   1      39.167  32.971  30.176  1.00  0.00     0.049 A 
ATOM     28  C   UNL A   1      44.449  31.178  30.566  1.00  0.00     0.074 A 
ATOM     29  C   UNL A   1      38.900  34.239  30.662  1.00  0.00     0.029 A 
ATOM     30  N   UNL A   1      40.523  32.749  30.356  1.00  0.00    -0.354 N 
ATOM     31  N   UNL A   1      43.262  31.733  30.547  1.00  0.00    -0.248 NA
ATOM     32  C   UNL A   1      45.517  32.048  31.076  1.00  0.00     0.031 C 
ATOM     33  C   UNL A   1      40.108  34.807  31.084  1.00  0.00     0.029 A 
ATOM     34  C   UNL A   1      41.115  33.871  30.911  1.00  0.00     0.049 A 
ATOM     35  H   UNL A   1      40.996  31.917  30.124  1.00  0.00     0.167 HD
ATOM     36  C   UNL A   1      43.437  33.014  31.052  1.00  0.00     0.074 A 
ATOM     37  C   UNL A   1      44.841  33.145  31.387  1.00  0.00     0.031 C 
ATOM     38  C   UNL A   1      42.516  33.994  31.223  1.00  0.00     0.031 A 
BRANCH  25  39
ATOM     39  C   UNL A   1      36.836  32.462  29.344  1.00  0.00    -0.014 A 
ATOM     40  C   UNL A   1      36.440  33.071  28.143  1.00  0.00     0.009 A 
ATOM     41  C   UNL A   1      35.873  32.229  30.338  1.00  0.00     0.009 A 
ATOM     42  C   UNL A   1      35.113  33.469  27.957  1.00  0.00     0.001 A 
ATOM     43  C   UNL A   1      34.544  32.606  30.140  1.00  0.00     0.001 A 
ATOM     44  C   UNL A   1      34.167  33.234  28.953  1.00  0.00     0.000 A 
ENDBRANCH  25  39
BRANCH  26  45
ATOM     45  C   UNL A   1      46.258  29.339  30.241  1.00  0.00    -0.014 A 
ATOM     46  C   UNL A   1      46.732  28.705  31.398  1.00  0.00     0.009 A 
ATOM     47  C   UNL A   1      47.129  29.508  29.151  1.00  0.00     0.009 A 
ATOM     48  C   UNL A   1      48.054  28.260  31.467  1.00  0.00     0.001 A 
ATOM     49  C   UNL A   1      48.441  29.038  29.213  1.00  0.00     0.001 A 
ATOM     50  C   UNL A   1      48.904  28.419  30.373  1.00  0.00     0.000 A 
ENDBRANCH  26  45
BRANCH  38  51
ATOM     51  C   UNL A   1      42.999  35.290  31.805  1.00  0.00    -0.014 A 
ATOM     52  C   UNL A   1      43.621  36.258  31.001  1.00  0.00     0.009 A 
ATOM     53  C   UNL A   1      42.797  35.560  33.166  1.00  0.00     0.009 A 
ATOM     54  C   UNL A   1      44.057  37.461  31.559  1.00  0.00     0.001 A 
ATOM     55  C   UNL A   1      43.212  36.773  33.716  1.00  0.00     0.001 A 
ATOM     56  C   UNL A   1      43.849  37.719  32.914  1.00  0.00     0.000 A 
ENDBRANCH  38  51
ENDBRANCH  12  13
ENDBRANCH   5   7
ENDBRANCH   2   3
ENDBRANCH   1   2
BRANCH   1  57
ATOM     57  C   UNL A   1      33.983  23.839  24.991  1.00  0.00     0.117 C 
BRANCH  57  58
ATOM     58  N   UNL A   1      34.220  25.186  24.517  1.00  0.00    -0.356 N 
ATOM     59  C   UNL A   1      33.523  26.070  23.766  1.00  0.00     0.224 C 
ATOM     60  H   UNL A   1      35.091  25.543  24.807  1.00  0.00     0.163 HD
ATOM     61  O   UNL A   1      34.041  27.193  23.680  1.00  0.00    -0.275 OA
BRANCH  59  62
ATOM     62  C   UNL A   1      32.217  25.818  23.009  1.00  0.00     0.098 C 
ATOM     63  C   UNL A   1      31.613  26.839  22.057  1.00  0.00     0.017 C 
ATOM     64  C   UNL A   1      31.151  25.243  23.943  1.00  0.00     0.134 C 
ATOM     65  C   UNL A   1      30.614  27.804  22.681  1.00  0.00     0.022 C 
ATOM     66  N   UNL A   1      30.479  26.289  24.713  1.00  0.00    -0.324 N 
ATOM     67  C   UNL A   1      29.822  27.300  23.888  1.00  0.00     0.121 C 
BRANCH  66  68
ATOM     68  C   UNL A   1      30.492  26.151  26.084  1.00  0.00     0.321 C 
ATOM     69  O   UNL A   1      29.792  25.306  26.656  1.00  0.00    -0.248 OA
ATOM     70  N   UNL A   1      31.366  26.789  26.896  1.00  0.00    -0.308 N 
ATOM     71  H   UNL A   1      31.442  26.357  27.776  1.00  0.00     0.171 HD
BRANCH  70  72
ATOM     72  C   UNL A   1      32.181  27.911  26.784  1.00  0.00     0.042 A 
ATOM     73  C   UNL A   1      31.544  29.137  26.588  1.00  0.00     0.026 A 
ATOM     74  C   UNL A   1      33.574  27.854  26.854  1.00  0.00     0.026 A 
ATOM     75  C   UNL A   1      32.280  30.315  26.628  1.00  0.00     0.002 A 
ATOM     76  C   UNL A   1      34.313  29.039  26.862  1.00  0.00     0.002 A 
ATOM     77  C   UNL A   1      33.664  30.270  26.777  1.00  0.00     0.000 A 
ENDBRANCH  70  72
ENDBRANCH  66  68
ENDBRANCH  59  62
ENDBRANCH  57  58
ENDBRANCH   1  57
TORSDOF 12
ENDMDL
