MODEL 1
REMARK VINA RESULT:     -10.1      0.000      0.000
REMARK SMILES COC(=O)[C@@H]1CN(C(=O)OC(C)(C)C)C[C@@H]1C(=O)NCCCNC(=O)c1ccc(-c2c3nc(c(-c4ccccc4)c4ccc([nH]4)c(-c4ccccc4)c4nc(c(-c5ccccc5)c5ccc2[nH]5)C=C4)C=C3)cc1
REMARK SMILES IDX 20 1 19 2 17 3 18 4 16 6 5 7 6 8 7 9 15 10 3 11 4 12 2 13
REMARK SMILES IDX 1 14 8 15 9 16 10 17 11 18 12 19 13 20 14 21 21 22 22 23
REMARK SMILES IDX 23 24 24 25 25 27 26 28 27 29 73 30 28 31 72 32 29 33 30 34
REMARK SMILES IDX 31 35 66 36 32 37 71 38 65 39 67 40 33 41 70 42 64 43 63 44
REMARK SMILES IDX 34 46 56 47 41 48 55 49 42 50 45 51 54 52 68 53 43 54 44 55
REMARK SMILES IDX 53 57 69 58 46 59 35 60 36 61 40 62 37 63 39 64 38 65 57 66
REMARK SMILES IDX 58 67 62 68 59 69 61 70 60 71 47 72 48 73 52 74 49 75 51 76
REMARK SMILES IDX 50 77
REMARK H PARENT 19 5 23 26 67 45 45 56
REMARK Flexibility Score: inf
ROOT
ATOM      1  C   UNL A   1      34.815  22.629  24.046  1.00  0.00     0.117 C 
ENDROOT
BRANCH   1   2
ATOM      2  N   UNL A   1      34.342  23.758  23.291  1.00  0.00    -0.356 N 
ATOM      3  C   UNL A   1      33.934  25.000  23.597  1.00  0.00     0.225 C 
ATOM      4  O   UNL A   1      33.887  25.748  22.606  1.00  0.00    -0.275 OA
ATOM      5  H   UNL A   1      34.308  23.577  22.323  1.00  0.00     0.163 HD
BRANCH   3   6
ATOM      6  C   UNL A   1      33.614  25.585  24.977  1.00  0.00     0.114 C 
ATOM      7  C   UNL A   1      32.278  25.532  25.732  1.00  0.00     0.133 C 
ATOM      8  C   UNL A   1      31.385  26.485  24.966  1.00  0.00     0.139 C 
ATOM      9  N   UNL A   1      32.315  27.569  24.681  1.00  0.00    -0.306 N 
ATOM     10  C   UNL A   1      33.702  27.119  24.776  1.00  0.00     0.137 C 
BRANCH   7  11
ATOM     11  C   UNL A   1      31.764  24.203  26.188  1.00  0.00     0.311 C 
ATOM     12  O   UNL A   1      31.491  23.979  27.361  1.00  0.00    -0.252 OA
BRANCH  11  13
ATOM     13  O   UNL A   1      31.628  23.314  25.172  1.00  0.00    -0.469 OA
ATOM     14  C   UNL A   1      31.549  21.928  25.545  1.00  0.00     0.282 C 
ENDBRANCH  11  13
ENDBRANCH   7  11
BRANCH   9  15
ATOM     15  C   UNL A   1      32.034  28.908  24.582  1.00  0.00     0.410 C 
ATOM     16  O   UNL A   1      31.133  29.338  23.867  1.00  0.00    -0.224 OA
BRANCH  15  17
ATOM     17  O   UNL A   1      32.886  29.679  25.302  1.00  0.00    -0.444 OA
BRANCH  17  18
ATOM     18  C   UNL A   1      32.482  30.151  26.617  1.00  0.00     0.106 C 
ATOM     19  C   UNL A   1      31.583  31.388  26.487  1.00  0.00     0.056 C 
ATOM     20  C   UNL A   1      31.821  29.052  27.459  1.00  0.00     0.056 C 
ATOM     21  C   UNL A   1      33.785  30.570  27.314  1.00  0.00     0.056 C 
ENDBRANCH  17  18
ENDBRANCH  15  17
ENDBRANCH   9  15
ENDBRANCH   3   6
ENDBRANCH   1   2
BRANCH   1  22
ATOM     22  C   UNL A   1      35.679  23.057  25.225  1.00  0.00     0.042 C 
BRANCH  22  23
ATOM     23  C   UNL A   1      37.095  23.445  24.816  1.00  0.00     0.118 C 
BRANCH  23  24
ATOM     24  N   UNL A   1      38.100  22.526  25.342  1.00  0.00    -0.352 N 
ATOM     25  C   UNL A   1      39.221  22.727  26.102  1.00  0.00     0.251 C 
ATOM     26  H   UNL A   1      37.942  21.584  25.105  1.00  0.00     0.163 HD
ATOM     27  O   UNL A   1      39.993  21.786  26.275  1.00  0.00    -0.269 OA
BRANCH  25  28
ATOM     28  C   UNL A   1      39.535  24.046  26.692  1.00  0.00     0.039 A 
ATOM     29  C   UNL A   1      39.099  24.307  27.996  1.00  0.00     0.014 A 
ATOM     30  C   UNL A   1      40.207  25.038  25.978  1.00  0.00     0.014 A 
ATOM     31  C   UNL A   1      39.394  25.531  28.596  1.00  0.00     0.010 A 
ATOM     32  C   UNL A   1      40.598  26.212  26.614  1.00  0.00     0.010 A 
ATOM     33  C   UNL A   1      40.184  26.478  27.925  1.00  0.00    -0.014 A 
BRANCH  33  34
ATOM     34  C   UNL A   1      40.571  27.749  28.583  1.00  0.00     0.031 A 
ATOM     35  C   UNL A   1      41.977  27.953  29.081  1.00  0.00     0.074 A 
ATOM     36  C   UNL A   1      39.641  28.708  28.763  1.00  0.00     0.049 A 
ATOM     37  N   UNL A   1      42.494  28.990  29.692  1.00  0.00    -0.248 NA
ATOM     38  C   UNL A   1      42.922  26.837  28.900  1.00  0.00     0.031 C 
ATOM     39  C   UNL A   1      38.230  28.608  28.376  1.00  0.00     0.029 A 
ATOM     40  N   UNL A   1      39.745  29.963  29.308  1.00  0.00    -0.354 N 
ATOM     41  C   UNL A   1      43.810  28.646  29.974  1.00  0.00     0.074 A 
ATOM     42  C   UNL A   1      43.998  27.284  29.528  1.00  0.00     0.031 C 
ATOM     43  C   UNL A   1      37.614  29.769  28.649  1.00  0.00     0.029 A 
ATOM     44  C   UNL A   1      38.573  30.679  29.263  1.00  0.00     0.049 A 
ATOM     45  H   UNL A   1      40.578  30.316  29.694  1.00  0.00     0.167 HD
ATOM     46  C   UNL A   1      44.786  29.405  30.526  1.00  0.00     0.031 A 
ATOM     47  C   UNL A   1      38.304  31.935  29.666  1.00  0.00     0.031 A 
ATOM     48  C   UNL A   1      44.606  30.768  30.947  1.00  0.00     0.049 A 
ATOM     49  C   UNL A   1      39.411  32.759  30.261  1.00  0.00     0.074 A 
ATOM     50  C   UNL A   1      45.540  31.638  31.480  1.00  0.00     0.029 A 
ATOM     51  N   UNL A   1      43.408  31.461  30.872  1.00  0.00    -0.354 N 
ATOM     52  N   UNL A   1      40.665  32.435  30.464  1.00  0.00    -0.248 NA
ATOM     53  C   UNL A   1      39.067  34.128  30.667  1.00  0.00     0.031 C 
ATOM     54  C   UNL A   1      44.898  32.849  31.759  1.00  0.00     0.029 A 
ATOM     55  C   UNL A   1      43.576  32.746  31.356  1.00  0.00     0.049 A 
ATOM     56  H   UNL A   1      42.563  31.094  30.525  1.00  0.00     0.167 HD
ATOM     57  C   UNL A   1      41.264  33.569  30.997  1.00  0.00     0.074 A 
ATOM     58  C   UNL A   1      40.243  34.593  31.059  1.00  0.00     0.031 C 
ATOM     59  C   UNL A   1      42.544  33.747  31.407  1.00  0.00     0.031 A 
BRANCH  46  60
ATOM     60  C   UNL A   1      46.144  28.780  30.686  1.00  0.00    -0.014 A 
ATOM     61  C   UNL A   1      47.156  29.001  29.739  1.00  0.00     0.009 A 
ATOM     62  C   UNL A   1      46.431  27.998  31.815  1.00  0.00     0.009 A 
ATOM     63  C   UNL A   1      48.418  28.426  29.903  1.00  0.00     0.001 A 
ATOM     64  C   UNL A   1      47.702  27.448  31.992  1.00  0.00     0.001 A 
ATOM     65  C   UNL A   1      48.692  27.656  31.032  1.00  0.00     0.000 A 
ENDBRANCH  46  60
BRANCH  47  66
ATOM     66  C   UNL A   1      36.942  32.507  29.499  1.00  0.00    -0.014 A 
ATOM     67  C   UNL A   1      36.629  33.279  28.369  1.00  0.00     0.009 A 
ATOM     68  C   UNL A   1      35.958  32.312  30.479  1.00  0.00     0.009 A 
ATOM     69  C   UNL A   1      35.373  33.879  28.246  1.00  0.00     0.001 A 
ATOM     70  C   UNL A   1      34.693  32.886  30.339  1.00  0.00     0.001 A 
ATOM     71  C   UNL A   1      34.406  33.680  29.230  1.00  0.00     0.000 A 
ENDBRANCH  47  66
BRANCH  59  72
ATOM     72  C   UNL A   1      42.905  35.109  31.924  1.00  0.00    -0.014 A 
ATOM     73  C   UNL A   1      43.477  36.078  31.084  1.00  0.00     0.009 A 
ATOM     74  C   UNL A   1      42.660  35.429  33.268  1.00  0.00     0.009 A 
ATOM     75  C   UNL A   1      43.839  37.326  31.593  1.00  0.00     0.001 A 
ATOM     76  C   UNL A   1      42.995  36.689  33.766  1.00  0.00     0.001 A 
ATOM     77  C   UNL A   1      43.596  37.630  32.932  1.00  0.00     0.000 A 
ENDBRANCH  59  72
ENDBRANCH  33  34
ENDBRANCH  25  28
ENDBRANCH  23  24
ENDBRANCH  22  23
ENDBRANCH   1  22
TORSDOF 15
ENDMDL
MODEL 2
REMARK VINA RESULT:     -10.1      2.875      5.534
REMARK SMILES COC(=O)[C@@H]1CN(C(=O)OC(C)(C)C)C[C@@H]1C(=O)NCCCNC(=O)c1ccc(-c2c3nc(c(-c4ccccc4)c4ccc([nH]4)c(-c4ccccc4)c4nc(c(-c5ccccc5)c5ccc2[nH]5)C=C4)C=C3)cc1
REMARK SMILES IDX 20 1 19 2 17 3 18 4 16 6 5 7 6 8 7 9 15 10 3 11 4 12 2 13
REMARK SMILES IDX 1 14 8 15 9 16 10 17 11 18 12 19 13 20 14 21 21 22 22 23
REMARK SMILES IDX 23 24 24 25 25 27 26 28 27 29 73 30 28 31 72 32 29 33 30 34
REMARK SMILES IDX 31 35 66 36 32 37 71 38 65 39 67 40 33 41 70 42 64 43 63 44
REMARK SMILES IDX 34 46 56 47 41 48 55 49 42 50 45 51 54 52 68 53 43 54 44 55
REMARK SMILES IDX 53 57 69 58 46 59 35 60 36 61 40 62 37 63 39 64 38 65 57 66
REMARK SMILES IDX 58 67 62 68 59 69 61 70 60 71 47 72 48 73 52 74 49 75 51 76
REMARK SMILES IDX 50 77
REMARK H PARENT 19 5 23 26 67 45 45 56
REMARK Flexibility Score: inf
ROOT
ATOM      1  C   UNL A   1      38.021  21.853  25.368  1.00  0.00     0.117 C 
ENDROOT
BRANCH   1   2
ATOM      2  N   UNL A   1      36.851  21.947  26.197  1.00  0.00    -0.356 N 
ATOM      3  C   UNL A   1      35.543  21.695  26.025  1.00  0.00     0.225 C 
ATOM      4  O   UNL A   1      34.920  21.635  27.097  1.00  0.00    -0.275 OA
ATOM      5  H   UNL A   1      37.056  22.273  27.104  1.00  0.00     0.163 HD
BRANCH   3   6
ATOM      6  C   UNL A   1      34.792  21.410  24.719  1.00  0.00     0.114 C 
ATOM      7  C   UNL A   1      33.340  21.770  24.373  1.00  0.00     0.133 C 
ATOM      8  C   UNL A   1      32.515  20.822  25.218  1.00  0.00     0.139 C 
ATOM      9  N   UNL A   1      33.284  19.593  25.088  1.00  0.00    -0.306 N 
ATOM     10  C   UNL A   1      34.660  19.867  24.679  1.00  0.00     0.137 C 
BRANCH   7  11
ATOM     11  C   UNL A   1      32.967  23.215  24.260  1.00  0.00     0.311 C 
ATOM     12  O   UNL A   1      31.855  23.625  24.570  1.00  0.00    -0.252 OA
BRANCH  11  13
ATOM     13  O   UNL A   1      33.984  23.988  23.804  1.00  0.00    -0.469 OA
ATOM     14  C   UNL A   1      34.373  25.088  24.643  1.00  0.00     0.282 C 
ENDBRANCH  11  13
ENDBRANCH   7  11
BRANCH   9  15
ATOM     15  C   UNL A   1      32.809  18.306  25.078  1.00  0.00     0.410 C 
ATOM     16  O   UNL A   1      31.705  18.018  24.626  1.00  0.00    -0.224 OA
BRANCH  15  17
ATOM     17  O   UNL A   1      33.658  17.427  25.667  1.00  0.00    -0.444 OA
BRANCH  17  18
ATOM     18  C   UNL A   1      34.079  16.244  24.935  1.00  0.00     0.106 C 
ATOM     19  C   UNL A   1      34.010  16.498  23.423  1.00  0.00     0.056 C 
ATOM     20  C   UNL A   1      35.464  15.747  25.367  1.00  0.00     0.056 C 
ATOM     21  C   UNL A   1      33.049  15.161  25.291  1.00  0.00     0.056 C 
ENDBRANCH  17  18
ENDBRANCH  15  17
ENDBRANCH   9  15
ENDBRANCH   3   6
ENDBRANCH   1   2
BRANCH   1  22
ATOM     22  C   UNL A   1      38.335  20.412  24.989  1.00  0.00     0.042 C 
BRANCH  22  23
ATOM     23  C   UNL A   1      38.948  19.616  26.136  1.00  0.00     0.118 C 
BRANCH  23  24
ATOM     24  N   UNL A   1      40.278  19.106  25.815  1.00  0.00    -0.352 N 
ATOM     25  C   UNL A   1      41.517  19.689  25.844  1.00  0.00     0.251 C 
ATOM     26  H   UNL A   1      40.286  18.167  25.522  1.00  0.00     0.163 HD
ATOM     27  O   UNL A   1      42.468  19.076  25.364  1.00  0.00    -0.269 OA
BRANCH  25  28
ATOM     28  C   UNL A   1      41.730  21.037  26.412  1.00  0.00     0.039 A 
ATOM     29  C   UNL A   1      41.643  21.192  27.800  1.00  0.00     0.014 A 
ATOM     30  C   UNL A   1      41.969  22.153  25.609  1.00  0.00     0.014 A 
ATOM     31  C   UNL A   1      41.858  22.444  28.376  1.00  0.00     0.010 A 
ATOM     32  C   UNL A   1      42.295  23.374  26.188  1.00  0.00     0.010 A 
ATOM     33  C   UNL A   1      42.230  23.537  27.577  1.00  0.00    -0.014 A 
BRANCH  33  34
ATOM     34  C   UNL A   1      42.539  24.854  28.187  1.00  0.00     0.031 A 
ATOM     35  C   UNL A   1      43.943  25.181  28.622  1.00  0.00     0.074 A 
ATOM     36  C   UNL A   1      41.543  25.741  28.379  1.00  0.00     0.049 A 
ATOM     37  N   UNL A   1      44.398  26.272  29.184  1.00  0.00    -0.248 NA
ATOM     38  C   UNL A   1      44.965  24.138  28.431  1.00  0.00     0.031 C 
ATOM     39  C   UNL A   1      40.132  25.520  28.053  1.00  0.00     0.029 A 
ATOM     40  N   UNL A   1      41.568  27.015  28.888  1.00  0.00    -0.354 N 
ATOM     41  C   UNL A   1      45.748  26.040  29.422  1.00  0.00     0.074 A 
ATOM     42  C   UNL A   1      46.026  24.685  29.004  1.00  0.00     0.031 C 
ATOM     43  C   UNL A   1      39.436  26.637  28.321  1.00  0.00     0.029 A 
ATOM     44  C   UNL A   1      40.342  27.636  28.872  1.00  0.00     0.049 A 
ATOM     45  H   UNL A   1      42.385  27.443  29.231  1.00  0.00     0.167 HD
ATOM     46  C   UNL A   1      46.681  26.889  29.914  1.00  0.00     0.031 A 
ATOM     47  C   UNL A   1      39.991  28.878  29.253  1.00  0.00     0.031 A 
ATOM     48  C   UNL A   1      46.409  28.245  30.307  1.00  0.00     0.049 A 
ATOM     49  C   UNL A   1      41.051  29.803  29.782  1.00  0.00     0.074 A 
ATOM     50  C   UNL A   1      47.291  29.201  30.779  1.00  0.00     0.029 A 
ATOM     51  N   UNL A   1      45.158  28.840  30.263  1.00  0.00    -0.354 N 
ATOM     52  N   UNL A   1      42.333  29.585  29.942  1.00  0.00    -0.248 NA
ATOM     53  C   UNL A   1      40.615  31.151  30.166  1.00  0.00     0.031 C 
ATOM     54  C   UNL A   1      46.566  30.365  31.053  1.00  0.00     0.029 A 
ATOM     55  C   UNL A   1      45.243  30.147  30.707  1.00  0.00     0.049 A 
ATOM     56  H   UNL A   1      44.332  28.398  29.960  1.00  0.00     0.167 HD
ATOM     57  C   UNL A   1      42.861  30.776  30.421  1.00  0.00     0.074 A 
ATOM     58  C   UNL A   1      41.764  31.718  30.498  1.00  0.00     0.031 C 
ATOM     59  C   UNL A   1      44.137  31.065  30.774  1.00  0.00     0.031 A 
BRANCH  46  60
ATOM     60  C   UNL A   1      48.089  26.377  30.035  1.00  0.00    -0.014 A 
ATOM     61  C   UNL A   1      48.998  26.505  28.972  1.00  0.00     0.009 A 
ATOM     62  C   UNL A   1      48.528  25.800  31.236  1.00  0.00     0.009 A 
ATOM     63  C   UNL A   1      50.307  26.038  29.098  1.00  0.00     0.001 A 
ATOM     64  C   UNL A   1      49.847  25.359  31.370  1.00  0.00     0.001 A 
ATOM     65  C   UNL A   1      50.732  25.472  30.298  1.00  0.00     0.000 A 
ENDBRANCH  46  60
BRANCH  47  66
ATOM     66  C   UNL A   1      38.582  29.337  29.127  1.00  0.00    -0.014 A 
ATOM     67  C   UNL A   1      37.709  29.265  30.224  1.00  0.00     0.009 A 
ATOM     68  C   UNL A   1      38.093  29.820  27.904  1.00  0.00     0.009 A 
ATOM     69  C   UNL A   1      36.367  29.626  30.087  1.00  0.00     0.001 A 
ATOM     70  C   UNL A   1      36.759  30.210  27.778  1.00  0.00     0.001 A 
ATOM     71  C   UNL A   1      35.893  30.101  28.866  1.00  0.00     0.000 A 
ENDBRANCH  47  66
BRANCH  59  72
ATOM     72  C   UNL A   1      44.408  32.466  31.241  1.00  0.00    -0.014 A 
ATOM     73  C   UNL A   1      44.757  33.480  30.336  1.00  0.00     0.009 A 
ATOM     74  C   UNL A   1      44.304  32.776  32.606  1.00  0.00     0.009 A 
ATOM     75  C   UNL A   1      45.041  34.768  30.794  1.00  0.00     0.001 A 
ATOM     76  C   UNL A   1      44.559  34.072  33.058  1.00  0.00     0.001 A 
ATOM     77  C   UNL A   1      44.940  35.061  32.153  1.00  0.00     0.000 A 
ENDBRANCH  59  72
ENDBRANCH  33  34
ENDBRANCH  25  28
ENDBRANCH  23  24
ENDBRANCH  22  23
ENDBRANCH   1  22
TORSDOF 15
ENDMDL
MODEL 3
REMARK VINA RESULT:     -10.0      2.600      7.247
REMARK SMILES COC(=O)[C@@H]1CN(C(=O)OC(C)(C)C)C[C@@H]1C(=O)NCCCNC(=O)c1ccc(-c2c3nc(c(-c4ccccc4)c4ccc([nH]4)c(-c4ccccc4)c4nc(c(-c5ccccc5)c5ccc2[nH]5)C=C4)C=C3)cc1
REMARK SMILES IDX 20 1 19 2 17 3 18 4 16 6 5 7 6 8 7 9 15 10 3 11 4 12 2 13
REMARK SMILES IDX 1 14 8 15 9 16 10 17 11 18 12 19 13 20 14 21 21 22 22 23
REMARK SMILES IDX 23 24 24 25 25 27 26 28 27 29 73 30 28 31 72 32 29 33 30 34
REMARK SMILES IDX 31 35 66 36 32 37 71 38 65 39 67 40 33 41 70 42 64 43 63 44
REMARK SMILES IDX 34 46 56 47 41 48 55 49 42 50 45 51 54 52 68 53 43 54 44 55
REMARK SMILES IDX 53 57 69 58 46 59 35 60 36 61 40 62 37 63 39 64 38 65 57 66
REMARK SMILES IDX 58 67 62 68 59 69 61 70 60 71 47 72 48 73 52 74 49 75 51 76
REMARK SMILES IDX 50 77
REMARK H PARENT 19 5 23 26 67 45 45 56
REMARK Flexibility Score: inf
ROOT
ATOM      1  C   UNL A   1      36.311  20.077  25.003  1.00  0.00     0.117 C 
ENDROOT
BRANCH   1   2
ATOM      2  N   UNL A   1      35.948  21.429  25.333  1.00  0.00    -0.356 N 
ATOM      3  C   UNL A   1      34.966  22.000  26.049  1.00  0.00     0.225 C 
ATOM      4  O   UNL A   1      35.196  23.190  26.319  1.00  0.00    -0.275 OA
ATOM      5  H   UNL A   1      36.565  22.092  24.943  1.00  0.00     0.163 HD
BRANCH   3   6
ATOM      6  C   UNL A   1      33.693  21.351  26.605  1.00  0.00     0.114 C 
ATOM      7  C   UNL A   1      32.481  20.835  25.817  1.00  0.00     0.133 C 
ATOM      8  C   UNL A   1      31.795  22.095  25.330  1.00  0.00     0.139 C 
ATOM      9  N   UNL A   1      31.918  22.948  26.504  1.00  0.00    -0.306 N 
ATOM     10  C   UNL A   1      32.989  22.490  27.385  1.00  0.00     0.137 C 
BRANCH   7  11
ATOM     11  C   UNL A   1      32.665  19.664  24.903  1.00  0.00     0.311 C 
ATOM     12  O   UNL A   1      32.962  19.802  23.722  1.00  0.00    -0.252 OA
BRANCH  11  13
ATOM     13  O   UNL A   1      32.485  18.473  25.529  1.00  0.00    -0.469 OA
ATOM     14  C   UNL A   1      32.630  17.299  24.714  1.00  0.00     0.282 C 
ENDBRANCH  11  13
ENDBRANCH   7  11
BRANCH   9  15
ATOM     15  C   UNL A   1      31.038  23.909  26.935  1.00  0.00     0.410 C 
ATOM     16  O   UNL A   1      29.875  23.649  27.230  1.00  0.00    -0.224 OA
BRANCH  15  17
ATOM     17  O   UNL A   1      31.578  25.153  26.937  1.00  0.00    -0.444 OA
BRANCH  17  18
ATOM     18  C   UNL A   1      31.464  25.981  25.748  1.00  0.00     0.106 C 
ATOM     19  C   UNL A   1      32.728  25.855  24.886  1.00  0.00     0.056 C 
ATOM     20  C   UNL A   1      30.193  25.683  24.943  1.00  0.00     0.056 C 
ATOM     21  C   UNL A   1      31.375  27.424  26.268  1.00  0.00     0.056 C 
ENDBRANCH  17  18
ENDBRANCH  15  17
ENDBRANCH   9  15
ENDBRANCH   3   6
ENDBRANCH   1   2
BRANCH   1  22
ATOM     22  C   UNL A   1      37.778  19.963  24.609  1.00  0.00     0.042 C 
BRANCH  22  23
ATOM     23  C   UNL A   1      38.729  20.312  25.748  1.00  0.00     0.118 C 
BRANCH  23  24
ATOM     24  N   UNL A   1      39.869  19.403  25.822  1.00  0.00    -0.352 N 
ATOM     25  C   UNL A   1      41.186  19.604  26.138  1.00  0.00     0.251 C 
ATOM     26  H   UNL A   1      39.649  18.469  25.603  1.00  0.00     0.163 HD
ATOM     27  O   UNL A   1      41.981  18.683  25.966  1.00  0.00    -0.269 OA
BRANCH  25  28
ATOM     28  C   UNL A   1      41.674  20.901  26.653  1.00  0.00     0.039 A 
ATOM     29  C   UNL A   1      41.940  21.920  25.732  1.00  0.00     0.014 A 
ATOM     30  C   UNL A   1      41.914  21.119  28.010  1.00  0.00     0.014 A 
ATOM     31  C   UNL A   1      42.381  23.166  26.179  1.00  0.00     0.010 A 
ATOM     32  C   UNL A   1      42.243  22.392  28.465  1.00  0.00     0.010 A 
ATOM     33  C   UNL A   1      42.494  23.425  27.554  1.00  0.00    -0.014 A 
BRANCH  33  34
ATOM     34  C   UNL A   1      42.885  24.769  28.045  1.00  0.00     0.031 A 
ATOM     35  C   UNL A   1      41.842  25.831  28.272  1.00  0.00     0.074 A 
ATOM     36  C   UNL A   1      44.189  25.042  28.250  1.00  0.00     0.049 A 
ATOM     37  N   UNL A   1      41.997  27.064  28.685  1.00  0.00    -0.248 NA
ATOM     38  C   UNL A   1      40.445  25.474  27.971  1.00  0.00     0.031 C 
ATOM     39  C   UNL A   1      45.300  24.117  28.011  1.00  0.00     0.029 A 
ATOM     40  N   UNL A   1      44.801  26.177  28.719  1.00  0.00    -0.354 N 
ATOM     41  C   UNL A   1      40.727  27.627  28.678  1.00  0.00     0.074 A 
ATOM     42  C   UNL A   1      39.821  26.626  28.163  1.00  0.00     0.031 C 
ATOM     43  C   UNL A   1      46.450  24.702  28.382  1.00  0.00     0.029 A 
ATOM     44  C   UNL A   1      46.164  26.052  28.848  1.00  0.00     0.049 A 
ATOM     45  H   UNL A   1      44.312  27.001  28.942  1.00  0.00     0.167 HD
ATOM     46  C   UNL A   1      40.342  28.857  29.095  1.00  0.00     0.031 A 
ATOM     47  C   UNL A   1      47.079  26.929  29.299  1.00  0.00     0.031 A 
ATOM     48  C   UNL A   1      41.239  29.844  29.631  1.00  0.00     0.049 A 
ATOM     49  C   UNL A   1      46.620  28.282  29.768  1.00  0.00     0.074 A 
ATOM     50  C   UNL A   1      40.945  31.104  30.120  1.00  0.00     0.029 A 
ATOM     51  N   UNL A   1      42.609  29.674  29.757  1.00  0.00    -0.354 N 
ATOM     52  N   UNL A   1      45.406  28.773  29.812  1.00  0.00    -0.248 NA
ATOM     53  C   UNL A   1      47.659  29.192  30.267  1.00  0.00     0.031 C 
ATOM     54  C   UNL A   1      42.143  31.711  30.510  1.00  0.00     0.029 A 
ATOM     55  C   UNL A   1      43.176  30.809  30.308  1.00  0.00     0.049 A 
ATOM     56  H   UNL A   1      43.105  28.865  29.494  1.00  0.00     0.167 HD
ATOM     57  C   UNL A   1      45.532  30.040  30.365  1.00  0.00     0.074 A 
ATOM     58  C   UNL A   1      46.936  30.227  30.667  1.00  0.00     0.031 C 
ATOM     59  C   UNL A   1      44.575  30.970  30.598  1.00  0.00     0.031 A 
BRANCH  46  60
ATOM     60  C   UNL A   1      38.879  29.192  29.004  1.00  0.00    -0.014 A 
ATOM     61  C   UNL A   1      38.314  29.642  27.800  1.00  0.00     0.009 A 
ATOM     62  C   UNL A   1      38.046  29.017  30.120  1.00  0.00     0.009 A 
ATOM     63  C   UNL A   1      36.952  29.937  27.722  1.00  0.00     0.001 A 
ATOM     64  C   UNL A   1      36.679  29.286  30.032  1.00  0.00     0.001 A 
ATOM     65  C   UNL A   1      36.135  29.754  28.836  1.00  0.00     0.000 A 
ENDBRANCH  46  60
BRANCH  47  66
ATOM     66  C   UNL A   1      48.517  26.557  29.359  1.00  0.00    -0.014 A 
ATOM     67  C   UNL A   1      49.049  25.954  30.509  1.00  0.00     0.009 A 
ATOM     68  C   UNL A   1      49.373  26.830  28.281  1.00  0.00     0.009 A 
ATOM     69  C   UNL A   1      50.414  25.670  30.595  1.00  0.00     0.001 A 
ATOM     70  C   UNL A   1      50.731  26.516  28.357  1.00  0.00     0.001 A 
ATOM     71  C   UNL A   1      51.253  25.950  29.519  1.00  0.00     0.000 A 
ENDBRANCH  47  66
BRANCH  59  72
ATOM     72  C   UNL A   1      45.021  32.254  31.237  1.00  0.00    -0.014 A 
ATOM     73  C   UNL A   1      45.123  32.375  32.632  1.00  0.00     0.009 A 
ATOM     74  C   UNL A   1      45.353  33.353  30.431  1.00  0.00     0.009 A 
ATOM     75  C   UNL A   1      45.504  33.588  33.208  1.00  0.00     0.001 A 
ATOM     76  C   UNL A   1      45.764  34.555  31.009  1.00  0.00     0.001 A 
ATOM     77  C   UNL A   1      45.825  34.675  32.396  1.00  0.00     0.000 A 
ENDBRANCH  59  72
ENDBRANCH  33  34
ENDBRANCH  25  28
ENDBRANCH  23  24
ENDBRANCH  22  23
ENDBRANCH   1  22
TORSDOF 15
ENDMDL
