MODEL 1
REMARK VINA RESULT:      -8.8      0.000      0.000
REMARK SMILES C[C@@]1(O)CC(NCCCNC(=O)c2ccc(-c3c4nc(c(-c5ccccc5)c5ccc([nH]5)c(-c5ccccc5)c5nc(c(-c6ccccc6)c6ccc3[nH]6)C=C5)C=C4)cc2)=C(C(=O)Nc2ccccc2)[C@H](c2ccccc2C(=O)[O-])[C@@H]1C(=O)Nc1ccccc1
REMARK SMILES IDX 8 1 7 2 6 3 5 5 1 6 2 7 4 8 81 9 71 10 61 11 3 12 82 14
REMARK SMILES IDX 83 15 84 16 85 18 86 19 90 20 87 21 89 22 88 23 72 24 73 25
REMARK SMILES IDX 77 26 74 27 76 28 75 29 78 30 79 31 80 32 62 33 63 34 64 35
REMARK SMILES IDX 65 37 66 38 70 39 67 40 69 41 68 42 9 43 10 44 11 45 12 47
REMARK SMILES IDX 13 48 14 49 60 50 15 51 59 52 16 53 17 54 18 55 53 56 19 57
REMARK SMILES IDX 58 58 52 59 54 60 20 61 57 62 51 63 50 64 21 66 43 67 28 68
REMARK SMILES IDX 42 69 29 70 32 71 41 72 55 73 30 74 31 75 40 77 56 78 33 79
REMARK SMILES IDX 22 80 23 81 27 82 24 83 26 84 25 85 44 86 45 87 49 88 46 89
REMARK SMILES IDX 48 90 47 91 34 92 35 93 39 94 36 95 38 96 37 97
REMARK H PARENT 6 4 3 13 84 17 64 36 10 46 54 65 32 76
REMARK Flexibility Score: inf
ROOT
ATOM      1  C   UNL A   1      47.191  30.329  27.404  1.00  0.00     0.042 C 
ENDROOT
BRANCH   1   2
ATOM      2  C   UNL A   1      46.579  29.393  26.379  1.00  0.00     0.114 C 
BRANCH   2   3
ATOM      3  N   UNL A   1      46.208  28.119  26.994  1.00  0.00    -0.388 N 
ATOM      4  H   UNL A   1      46.939  27.572  27.363  1.00  0.00     0.160 HD
BRANCH   3   5
ATOM      5  C   UNL A   1      44.917  27.607  27.106  1.00  0.00     0.023 C 
ATOM      6  C   UNL A   1      41.920  28.979  25.697  1.00  0.00     0.043 C 
ATOM      7  C   UNL A   1      42.562  27.601  25.963  1.00  0.00     0.080 C 
ATOM      8  C   UNL A   1      44.091  27.713  25.852  1.00  0.00     0.089 C 
ATOM      9  C   UNL A   1      42.043  27.052  27.334  1.00  0.00     0.123 C 
ATOM     10  C   UNL A   1      43.097  26.203  28.129  1.00  0.00     0.073 C 
ATOM     11  C   UNL A   1      44.404  27.016  28.215  1.00  0.00     0.045 C 
BRANCH   7  12
ATOM     12  O   UNL A   1      42.201  26.788  24.838  1.00  0.00    -0.389 OA
ATOM     13  H   UNL A   1      42.094  25.867  25.126  1.00  0.00     0.211 HD
ENDBRANCH   7  12
BRANCH   9  14
ATOM     14  C   UNL A   1      40.614  26.486  27.233  1.00  0.00     0.231 C 
ATOM     15  O   UNL A   1      40.263  25.719  26.333  1.00  0.00    -0.274 OA
ATOM     16  N   UNL A   1      39.709  26.686  28.230  1.00  0.00    -0.326 N 
ATOM     17  H   UNL A   1      39.325  25.857  28.594  1.00  0.00     0.169 HD
BRANCH  16  18
ATOM     18  C   UNL A   1      39.225  27.849  28.833  1.00  0.00     0.041 A 
ATOM     19  C   UNL A   1      38.701  27.705  30.124  1.00  0.00     0.026 A 
ATOM     20  C   UNL A   1      39.080  29.057  28.158  1.00  0.00     0.026 A 
ATOM     21  C   UNL A   1      38.019  28.756  30.734  1.00  0.00     0.002 A 
ATOM     22  C   UNL A   1      38.380  30.105  28.764  1.00  0.00     0.002 A 
ATOM     23  C   UNL A   1      37.847  29.953  30.046  1.00  0.00     0.000 A 
ENDBRANCH  16  18
ENDBRANCH   9  14
BRANCH  10  24
ATOM     24  C   UNL A   1      43.370  24.656  27.963  1.00  0.00    -0.030 A 
ATOM     25  C   UNL A   1      42.867  23.793  28.974  1.00  0.00     0.005 A 
ATOM     26  C   UNL A   1      43.674  24.000  26.752  1.00  0.00     0.001 A 
ATOM     27  C   UNL A   1      42.408  22.495  28.706  1.00  0.00     0.000 A 
ATOM     28  C   UNL A   1      43.180  22.709  26.468  1.00  0.00     0.010 A 
ATOM     29  C   UNL A   1      42.495  21.980  27.426  1.00  0.00     0.001 A 
BRANCH  26  30
ATOM     30  C   UNL A   1      44.610  24.479  25.727  1.00  0.00     0.072 C 
ATOM     31  O   UNL A   1      44.321  24.768  24.579  1.00  0.00    -0.545 OA
ATOM     32  O   UNL A   1      45.864  24.511  26.201  1.00  0.00    -0.545 OA
ENDBRANCH  26  30
ENDBRANCH  10  24
BRANCH  11  33
ATOM     33  C   UNL A   1      45.230  27.117  29.485  1.00  0.00     0.253 C 
ATOM     34  O   UNL A   1      46.262  26.448  29.610  1.00  0.00    -0.269 OA
ATOM     35  N   UNL A   1      45.041  28.180  30.326  1.00  0.00    -0.322 N 
ATOM     36  H   UNL A   1      45.712  28.897  30.252  1.00  0.00     0.170 HD
BRANCH  35  37
ATOM     37  C   UNL A   1      44.027  28.404  31.282  1.00  0.00     0.041 A 
ATOM     38  C   UNL A   1      44.418  28.589  32.612  1.00  0.00     0.026 A 
ATOM     39  C   UNL A   1      42.668  28.367  30.993  1.00  0.00     0.026 A 
ATOM     40  C   UNL A   1      43.463  28.814  33.609  1.00  0.00     0.002 A 
ATOM     41  C   UNL A   1      41.710  28.616  31.977  1.00  0.00     0.002 A 
ATOM     42  C   UNL A   1      42.109  28.847  33.287  1.00  0.00     0.000 A 
ENDBRANCH  35  37
ENDBRANCH  11  33
ENDBRANCH   3   5
ENDBRANCH   2   3
ENDBRANCH   1   2
BRANCH   1  43
ATOM     43  C   UNL A   1      47.086  31.795  27.018  1.00  0.00     0.118 C 
BRANCH  43  44
ATOM     44  N   UNL A   1      46.010  32.050  26.066  1.00  0.00    -0.352 N 
ATOM     45  C   UNL A   1      44.666  32.214  26.287  1.00  0.00     0.251 C 
ATOM     46  H   UNL A   1      46.291  32.114  25.125  1.00  0.00     0.163 HD
ATOM     47  O   UNL A   1      43.882  32.249  25.344  1.00  0.00    -0.269 OA
BRANCH  45  48
ATOM     48  C   UNL A   1      44.160  32.329  27.670  1.00  0.00     0.039 A 
ATOM     49  C   UNL A   1      44.159  33.581  28.291  1.00  0.00     0.014 A 
ATOM     50  C   UNL A   1      43.682  31.207  28.351  1.00  0.00     0.014 A 
ATOM     51  C   UNL A   1      43.614  33.717  29.569  1.00  0.00     0.010 A 
ATOM     52  C   UNL A   1      43.062  31.358  29.585  1.00  0.00     0.010 A 
ATOM     53  C   UNL A   1      43.026  32.614  30.209  1.00  0.00    -0.014 A 
BRANCH  53  54
ATOM     54  C   UNL A   1      42.386  32.742  31.541  1.00  0.00     0.031 A 
ATOM     55  C   UNL A   1      43.206  32.554  32.788  1.00  0.00     0.074 A 
ATOM     56  C   UNL A   1      41.060  32.969  31.628  1.00  0.00     0.049 A 
ATOM     57  N   UNL A   1      42.817  32.543  34.039  1.00  0.00    -0.248 NA
ATOM     58  C   UNL A   1      44.649  32.325  32.607  1.00  0.00     0.031 C 
ATOM     59  C   UNL A   1      40.148  33.138  30.495  1.00  0.00     0.029 A 
ATOM     60  N   UNL A   1      40.247  33.091  32.728  1.00  0.00    -0.354 N 
ATOM     61  C   UNL A   1      43.962  32.296  34.786  1.00  0.00     0.074 A 
ATOM     62  C   UNL A   1      45.048  32.108  33.852  1.00  0.00     0.031 C 
ATOM     63  C   UNL A   1      38.909  33.370  30.957  1.00  0.00     0.029 A 
ATOM     64  C   UNL A   1      38.930  33.324  32.416  1.00  0.00     0.049 A 
ATOM     65  H   UNL A   1      40.577  33.019  33.652  1.00  0.00     0.167 HD
ATOM     66  C   UNL A   1      44.103  32.256  36.131  1.00  0.00     0.031 A 
ATOM     67  C   UNL A   1      37.859  33.477  33.217  1.00  0.00     0.031 A 
ATOM     68  C   UNL A   1      43.028  32.458  37.064  1.00  0.00     0.049 A 
ATOM     69  C   UNL A   1      38.041  33.403  34.707  1.00  0.00     0.074 A 
ATOM     70  C   UNL A   1      43.074  32.462  38.448  1.00  0.00     0.029 A 
ATOM     71  N   UNL A   1      41.711  32.702  36.706  1.00  0.00    -0.354 N 
ATOM     72  N   UNL A   1      39.139  33.210  35.397  1.00  0.00    -0.248 NA
ATOM     73  C   UNL A   1      36.836  33.577  35.530  1.00  0.00     0.031 C 
ATOM     74  C   UNL A   1      41.779  32.674  38.927  1.00  0.00     0.029 A 
ATOM     75  C   UNL A   1      40.936  32.850  37.843  1.00  0.00     0.049 A 
ATOM     76  H   UNL A   1      41.379  32.761  35.781  1.00  0.00     0.167 HD
ATOM     77  C   UNL A   1      38.762  33.277  36.732  1.00  0.00     0.074 A 
ATOM     78  C   UNL A   1      37.338  33.542  36.754  1.00  0.00     0.031 C 
ATOM     79  C   UNL A   1      39.525  33.130  37.842  1.00  0.00     0.031 A 
BRANCH  66  80
ATOM     80  C   UNL A   1      45.479  31.999  36.676  1.00  0.00    -0.014 A 
ATOM     81  C   UNL A   1      46.345  33.063  36.975  1.00  0.00     0.009 A 
ATOM     82  C   UNL A   1      45.899  30.686  36.938  1.00  0.00     0.009 A 
ATOM     83  C   UNL A   1      47.614  32.817  37.499  1.00  0.00     0.001 A 
ATOM     84  C   UNL A   1      47.160  30.444  37.487  1.00  0.00     0.001 A 
ATOM     85  C   UNL A   1      48.018  31.508  37.761  1.00  0.00     0.000 A 
ENDBRANCH  66  80
BRANCH  67  86
ATOM     86  C   UNL A   1      36.512  33.727  32.638  1.00  0.00    -0.014 A 
ATOM     87  C   UNL A   1      35.972  35.022  32.628  1.00  0.00     0.009 A 
ATOM     88  C   UNL A   1      35.742  32.668  32.134  1.00  0.00     0.009 A 
ATOM     89  C   UNL A   1      34.674  35.246  32.162  1.00  0.00     0.001 A 
ATOM     90  C   UNL A   1      34.456  32.899  31.641  1.00  0.00     0.001 A 
ATOM     91  C   UNL A   1      33.918  34.185  31.669  1.00  0.00     0.000 A 
ENDBRANCH  67  86
BRANCH  79  92
ATOM     92  C   UNL A   1      38.844  33.306  39.170  1.00  0.00    -0.014 A 
ATOM     93  C   UNL A   1      38.175  32.242  39.794  1.00  0.00     0.009 A 
ATOM     94  C   UNL A   1      38.907  34.548  39.820  1.00  0.00     0.009 A 
ATOM     95  C   UNL A   1      37.552  32.430  41.029  1.00  0.00     0.001 A 
ATOM     96  C   UNL A   1      38.308  34.726  41.067  1.00  0.00     0.001 A 
ATOM     97  C   UNL A   1      37.623  33.669  41.665  1.00  0.00     0.000 A 
ENDBRANCH  79  92
ENDBRANCH  53  54
ENDBRANCH  45  48
ENDBRANCH  43  44
ENDBRANCH   1  43
TORSDOF 17
ENDMDL
MODEL 2
REMARK VINA RESULT:      -8.8      0.486      5.447
REMARK SMILES C[C@@]1(O)CC(NCCCNC(=O)c2ccc(-c3c4nc(c(-c5ccccc5)c5ccc([nH]5)c(-c5ccccc5)c5nc(c(-c6ccccc6)c6ccc3[nH]6)C=C5)C=C4)cc2)=C(C(=O)Nc2ccccc2)[C@H](c2ccccc2C(=O)[O-])[C@@H]1C(=O)Nc1ccccc1
REMARK SMILES IDX 8 1 7 2 6 3 5 5 1 6 2 7 4 8 81 9 71 10 61 11 3 12 82 14
REMARK SMILES IDX 83 15 84 16 85 18 86 19 90 20 87 21 89 22 88 23 72 24 73 25
REMARK SMILES IDX 77 26 74 27 76 28 75 29 78 30 79 31 80 32 62 33 63 34 64 35
REMARK SMILES IDX 65 37 66 38 70 39 67 40 69 41 68 42 9 43 10 44 11 45 12 47
REMARK SMILES IDX 13 48 14 49 60 50 15 51 59 52 16 53 17 54 18 55 53 56 19 57
REMARK SMILES IDX 58 58 52 59 54 60 20 61 57 62 51 63 50 64 21 66 43 67 28 68
REMARK SMILES IDX 42 69 29 70 32 71 41 72 55 73 30 74 31 75 40 77 56 78 33 79
REMARK SMILES IDX 22 80 23 81 27 82 24 83 26 84 25 85 44 86 45 87 49 88 46 89
REMARK SMILES IDX 48 90 47 91 34 92 35 93 39 94 36 95 38 96 37 97
REMARK H PARENT 6 4 3 13 84 17 64 36 10 46 54 65 32 76
REMARK Flexibility Score: inf
ROOT
ATOM      1  C   UNL A   1      47.131  30.102  27.629  1.00  0.00     0.042 C 
ENDROOT
BRANCH   1   2
ATOM      2  C   UNL A   1      46.522  29.314  26.484  1.00  0.00     0.114 C 
BRANCH   2   3
ATOM      3  N   UNL A   1      46.159  27.965  26.916  1.00  0.00    -0.388 N 
ATOM      4  H   UNL A   1      46.898  27.355  27.142  1.00  0.00     0.160 HD
BRANCH   3   5
ATOM      5  C   UNL A   1      44.865  27.462  27.036  1.00  0.00     0.023 C 
ATOM      6  C   UNL A   1      41.870  28.853  25.642  1.00  0.00     0.043 C 
ATOM      7  C   UNL A   1      42.504  27.470  25.906  1.00  0.00     0.080 C 
ATOM      8  C   UNL A   1      44.033  27.572  25.786  1.00  0.00     0.089 C 
ATOM      9  C   UNL A   1      41.989  26.928  27.281  1.00  0.00     0.123 C 
ATOM     10  C   UNL A   1      43.041  26.073  28.072  1.00  0.00     0.073 C 
ATOM     11  C   UNL A   1      44.354  26.877  28.149  1.00  0.00     0.045 C 
BRANCH   7  12
ATOM     12  O   UNL A   1      42.130  26.658  24.785  1.00  0.00    -0.389 OA
ATOM     13  H   UNL A   1      41.211  26.850  24.539  1.00  0.00     0.211 HD
ENDBRANCH   7  12
BRANCH   9  14
ATOM     14  C   UNL A   1      40.555  26.372  27.190  1.00  0.00     0.231 C 
ATOM     15  O   UNL A   1      40.195  25.600  26.297  1.00  0.00    -0.274 OA
ATOM     16  N   UNL A   1      39.655  26.587  28.187  1.00  0.00    -0.326 N 
ATOM     17  H   UNL A   1      39.265  25.764  28.559  1.00  0.00     0.169 HD
BRANCH  16  18
ATOM     18  C   UNL A   1      39.182  27.758  28.782  1.00  0.00     0.041 A 
ATOM     19  C   UNL A   1      38.737  27.645  30.105  1.00  0.00     0.026 A 
ATOM     20  C   UNL A   1      38.971  28.941  28.080  1.00  0.00     0.026 A 
ATOM     21  C   UNL A   1      38.069  28.702  30.723  1.00  0.00     0.002 A 
ATOM     22  C   UNL A   1      38.284  29.994  28.695  1.00  0.00     0.002 A 
ATOM     23  C   UNL A   1      37.830  29.872  30.009  1.00  0.00     0.000 A 
ENDBRANCH  16  18
ENDBRANCH   9  14
BRANCH  10  24
ATOM     24  C   UNL A   1      43.302  24.524  27.907  1.00  0.00    -0.030 A 
ATOM     25  C   UNL A   1      42.753  23.662  28.895  1.00  0.00     0.005 A 
ATOM     26  C   UNL A   1      43.642  23.871  26.704  1.00  0.00     0.001 A 
ATOM     27  C   UNL A   1      42.289  22.370  28.603  1.00  0.00     0.000 A 
ATOM     28  C   UNL A   1      43.144  22.587  26.395  1.00  0.00     0.010 A 
ATOM     29  C   UNL A   1      42.417  21.861  27.324  1.00  0.00     0.001 A 
BRANCH  26  30
ATOM     30  C   UNL A   1      44.620  24.344  25.717  1.00  0.00     0.072 C 
ATOM     31  O   UNL A   1      44.375  24.648  24.562  1.00  0.00    -0.545 OA
ATOM     32  O   UNL A   1      45.857  24.351  26.233  1.00  0.00    -0.545 OA
ENDBRANCH  26  30
ENDBRANCH  10  24
BRANCH  11  33
ATOM     33  C   UNL A   1      45.188  26.974  29.414  1.00  0.00     0.253 C 
ATOM     34  O   UNL A   1      46.211  26.291  29.538  1.00  0.00    -0.269 OA
ATOM     35  N   UNL A   1      45.018  28.045  30.249  1.00  0.00    -0.322 N 
ATOM     36  H   UNL A   1      45.699  28.752  30.167  1.00  0.00     0.170 HD
BRANCH  35  37
ATOM     37  C   UNL A   1      44.013  28.290  31.208  1.00  0.00     0.041 A 
ATOM     38  C   UNL A   1      42.714  28.522  30.745  1.00  0.00     0.026 A 
ATOM     39  C   UNL A   1      44.255  28.396  32.574  1.00  0.00     0.026 A 
ATOM     40  C   UNL A   1      41.672  28.771  31.644  1.00  0.00     0.002 A 
ATOM     41  C   UNL A   1      43.217  28.619  33.479  1.00  0.00     0.002 A 
ATOM     42  C   UNL A   1      41.921  28.801  33.013  1.00  0.00     0.000 A 
ENDBRANCH  35  37
ENDBRANCH  11  33
ENDBRANCH   3   5
ENDBRANCH   2   3
ENDBRANCH   1   2
BRANCH   1  43
ATOM     43  C   UNL A   1      47.160  31.600  27.378  1.00  0.00     0.118 C 
BRANCH  43  44
ATOM     44  N   UNL A   1      46.330  31.999  26.247  1.00  0.00    -0.352 N 
ATOM     45  C   UNL A   1      44.985  32.267  26.199  1.00  0.00     0.251 C 
ATOM     46  H   UNL A   1      46.806  32.087  25.390  1.00  0.00     0.163 HD
ATOM     47  O   UNL A   1      44.421  32.419  25.121  1.00  0.00    -0.269 OA
BRANCH  45  48
ATOM     48  C   UNL A   1      44.210  32.353  27.454  1.00  0.00     0.039 A 
ATOM     49  C   UNL A   1      43.650  31.189  27.986  1.00  0.00     0.014 A 
ATOM     50  C   UNL A   1      44.042  33.576  28.106  1.00  0.00     0.014 A 
ATOM     51  C   UNL A   1      42.980  31.242  29.209  1.00  0.00     0.010 A 
ATOM     52  C   UNL A   1      43.452  33.613  29.364  1.00  0.00     0.010 A 
ATOM     53  C   UNL A   1      42.910  32.449  29.926  1.00  0.00    -0.014 A 
BRANCH  53  54
ATOM     54  C   UNL A   1      42.258  32.522  31.257  1.00  0.00     0.031 A 
ATOM     55  C   UNL A   1      40.788  32.827  31.355  1.00  0.00     0.074 A 
ATOM     56  C   UNL A   1      42.996  32.372  32.374  1.00  0.00     0.049 A 
ATOM     57  N   UNL A   1      40.053  33.016  32.422  1.00  0.00    -0.248 NA
ATOM     58  C   UNL A   1      40.051  32.962  30.088  1.00  0.00     0.031 C 
ATOM     59  C   UNL A   1      44.436  32.105  32.415  1.00  0.00     0.029 A 
ATOM     60  N   UNL A   1      42.633  32.431  33.697  1.00  0.00    -0.354 N 
ATOM     61  C   UNL A   1      38.777  33.301  31.953  1.00  0.00     0.074 A 
ATOM     62  C   UNL A   1      38.846  33.316  30.510  1.00  0.00     0.031 C 
ATOM     63  C   UNL A   1      44.827  31.994  33.695  1.00  0.00     0.029 A 
ATOM     64  C   UNL A   1      43.678  32.224  34.565  1.00  0.00     0.049 A 
ATOM     65  H   UNL A   1      41.711  32.604  33.995  1.00  0.00     0.167 HD
ATOM     66  C   UNL A   1      37.641  33.505  32.661  1.00  0.00     0.031 A 
ATOM     67  C   UNL A   1      43.705  32.226  35.911  1.00  0.00     0.031 A 
ATOM     68  C   UNL A   1      37.565  33.476  34.096  1.00  0.00     0.049 A 
ATOM     69  C   UNL A   1      42.433  32.481  36.670  1.00  0.00     0.074 A 
ATOM     70  C   UNL A   1      36.455  33.646  34.905  1.00  0.00     0.029 A 
ATOM     71  N   UNL A   1      38.644  33.253  34.936  1.00  0.00    -0.354 N 
ATOM     72  N   UNL A   1      41.226  32.707  36.210  1.00  0.00    -0.248 NA
ATOM     73  C   UNL A   1      42.526  32.471  38.136  1.00  0.00     0.031 C 
ATOM     74  C   UNL A   1      36.869  33.560  36.237  1.00  0.00     0.029 A 
ATOM     75  C   UNL A   1      38.227  33.288  36.255  1.00  0.00     0.049 A 
ATOM     76  H   UNL A   1      39.569  33.092  34.638  1.00  0.00     0.167 HD
ATOM     77  C   UNL A   1      40.412  32.829  37.328  1.00  0.00     0.074 A 
ATOM     78  C   UNL A   1      41.260  32.638  38.487  1.00  0.00     0.031 C 
ATOM     79  C   UNL A   1      39.083  33.079  37.392  1.00  0.00     0.031 A 
BRANCH  66  80
ATOM     80  C   UNL A   1      36.380  33.762  31.886  1.00  0.00    -0.014 A 
ATOM     81  C   UNL A   1      35.893  32.817  30.969  1.00  0.00     0.009 A 
ATOM     82  C   UNL A   1      35.645  34.937  32.107  1.00  0.00     0.009 A 
ATOM     83  C   UNL A   1      34.710  33.055  30.268  1.00  0.00     0.001 A 
ATOM     84  C   UNL A   1      34.448  35.160  31.424  1.00  0.00     0.001 A 
ATOM     85  C   UNL A   1      33.985  34.223  30.501  1.00  0.00     0.000 A 
ENDBRANCH  66  80
BRANCH  67  86
ATOM     86  C   UNL A   1      44.975  31.970  36.640  1.00  0.00    -0.014 A 
ATOM     87  C   UNL A   1      45.827  33.033  36.978  1.00  0.00     0.009 A 
ATOM     88  C   UNL A   1      45.363  30.661  36.964  1.00  0.00     0.009 A 
ATOM     89  C   UNL A   1      47.060  32.788  37.588  1.00  0.00     0.001 A 
ATOM     90  C   UNL A   1      46.583  30.421  37.602  1.00  0.00     0.001 A 
ATOM     91  C   UNL A   1      47.436  31.483  37.900  1.00  0.00     0.000 A 
ENDBRANCH  67  86
BRANCH  79  92
ATOM     92  C   UNL A   1      38.455  33.107  38.757  1.00  0.00    -0.014 A 
ATOM     93  C   UNL A   1      37.673  32.040  39.223  1.00  0.00     0.009 A 
ATOM     94  C   UNL A   1      38.685  34.204  39.601  1.00  0.00     0.009 A 
ATOM     95  C   UNL A   1      37.102  32.088  40.496  1.00  0.00     0.001 A 
ATOM     96  C   UNL A   1      38.137  34.238  40.884  1.00  0.00     0.001 A 
ATOM     97  C   UNL A   1      37.339  33.184  41.325  1.00  0.00     0.000 A 
ENDBRANCH  79  92
ENDBRANCH  53  54
ENDBRANCH  45  48
ENDBRANCH  43  44
ENDBRANCH   1  43
TORSDOF 17
ENDMDL
MODEL 3
REMARK VINA RESULT:      -8.5      5.960     11.160
REMARK SMILES C[C@@]1(O)CC(NCCCNC(=O)c2ccc(-c3c4nc(c(-c5ccccc5)c5ccc([nH]5)c(-c5ccccc5)c5nc(c(-c6ccccc6)c6ccc3[nH]6)C=C5)C=C4)cc2)=C(C(=O)Nc2ccccc2)[C@H](c2ccccc2C(=O)[O-])[C@@H]1C(=O)Nc1ccccc1
REMARK SMILES IDX 8 1 7 2 6 3 5 5 1 6 2 7 4 8 81 9 71 10 61 11 3 12 82 14
REMARK SMILES IDX 83 15 84 16 85 18 86 19 90 20 87 21 89 22 88 23 72 24 73 25
REMARK SMILES IDX 77 26 74 27 76 28 75 29 78 30 79 31 80 32 62 33 63 34 64 35
REMARK SMILES IDX 65 37 66 38 70 39 67 40 69 41 68 42 9 43 10 44 11 45 12 47
REMARK SMILES IDX 13 48 14 49 60 50 15 51 59 52 16 53 17 54 18 55 53 56 19 57
REMARK SMILES IDX 58 58 52 59 54 60 20 61 57 62 51 63 50 64 21 66 43 67 28 68
REMARK SMILES IDX 42 69 29 70 32 71 41 72 55 73 30 74 31 75 40 77 56 78 33 79
REMARK SMILES IDX 22 80 23 81 27 82 24 83 26 84 25 85 44 86 45 87 49 88 46 89
REMARK SMILES IDX 48 90 47 91 34 92 35 93 39 94 36 95 38 96 37 97
REMARK H PARENT 6 4 3 13 84 17 64 36 10 46 54 65 32 76
REMARK Flexibility Score: inf
ROOT
ATOM      1  C   UNL A   1      35.883  22.337  24.267  1.00  0.00     0.042 C 
ENDROOT
BRANCH   1   2
ATOM      2  C   UNL A   1      35.906  23.766  23.756  1.00  0.00     0.114 C 
BRANCH   2   3
ATOM      3  N   UNL A   1      34.571  24.189  23.335  1.00  0.00    -0.388 N 
ATOM      4  H   UNL A   1      34.141  23.665  22.621  1.00  0.00     0.160 HD
BRANCH   3   5
ATOM      5  C   UNL A   1      33.851  25.264  23.850  1.00  0.00     0.023 C 
ATOM      6  C   UNL A   1      34.907  28.686  24.022  1.00  0.00     0.043 C 
ATOM      7  C   UNL A   1      33.624  27.871  23.750  1.00  0.00     0.080 C 
ATOM      8  C   UNL A   1      33.991  26.544  23.068  1.00  0.00     0.089 C 
ATOM      9  C   UNL A   1      32.823  27.721  25.087  1.00  0.00     0.123 C 
ATOM     10  C   UNL A   1      32.053  26.360  25.227  1.00  0.00     0.073 C 
ATOM     11  C   UNL A   1      33.043  25.215  24.940  1.00  0.00     0.045 C 
BRANCH   7  12
ATOM     12  O   UNL A   1      32.922  28.592  22.730  1.00  0.00    -0.389 OA
ATOM     13  H   UNL A   1      33.542  28.845  22.027  1.00  0.00     0.211 HD
ENDBRANCH   7  12
BRANCH   9  14
ATOM     14  C   UNL A   1      32.056  29.006  25.455  1.00  0.00     0.231 C 
ATOM     15  O   UNL A   1      31.138  29.455  24.764  1.00  0.00    -0.274 OA
ATOM     16  N   UNL A   1      32.256  29.621  26.652  1.00  0.00    -0.326 N 
ATOM     17  H   UNL A   1      31.434  29.745  27.180  1.00  0.00     0.169 HD
BRANCH  16  18
ATOM     18  C   UNL A   1      33.408  30.111  27.270  1.00  0.00     0.041 A 
ATOM     19  C   UNL A   1      33.456  31.494  27.485  1.00  0.00     0.026 A 
ATOM     20  C   UNL A   1      34.540  29.335  27.500  1.00  0.00     0.026 A 
ATOM     21  C   UNL A   1      34.633  32.105  27.914  1.00  0.00     0.002 A 
ATOM     22  C   UNL A   1      35.726  29.953  27.913  1.00  0.00     0.002 A 
ATOM     23  C   UNL A   1      35.773  31.334  28.113  1.00  0.00     0.000 A 
ENDBRANCH  16  18
ENDBRANCH   9  14
BRANCH  10  24
ATOM     24  C   UNL A   1      30.605  26.044  24.682  1.00  0.00    -0.030 A 
ATOM     25  C   UNL A   1      29.680  25.457  25.587  1.00  0.00     0.005 A 
ATOM     26  C   UNL A   1      29.999  26.646  23.559  1.00  0.00     0.001 A 
ATOM     27  C   UNL A   1      28.304  25.727  25.550  1.00  0.00     0.000 A 
ATOM     28  C   UNL A   1      28.621  26.951  23.538  1.00  0.00     0.010 A 
ATOM     29  C   UNL A   1      27.785  26.543  24.563  1.00  0.00     0.001 A 
BRANCH  26  30
ATOM     30  C   UNL A   1      30.648  26.900  22.267  1.00  0.00     0.072 C 
ATOM     31  O   UNL A   1      31.360  26.117  21.662  1.00  0.00    -0.545 OA
ATOM     32  O   UNL A   1      30.401  28.149  21.844  1.00  0.00    -0.545 OA
ENDBRANCH  26  30
ENDBRANCH  10  24
BRANCH  11  33
ATOM     33  C   UNL A   1      33.103  23.948  25.775  1.00  0.00     0.253 C 
ATOM     34  O   UNL A   1      33.720  23.939  26.847  1.00  0.00    -0.269 OA
ATOM     35  N   UNL A   1      32.208  22.942  25.534  1.00  0.00    -0.322 N 
ATOM     36  H   UNL A   1      31.449  22.897  26.160  1.00  0.00     0.170 HD
BRANCH  35  37
ATOM     37  C   UNL A   1      32.208  21.959  24.522  1.00  0.00     0.041 A 
ATOM     38  C   UNL A   1      32.612  20.666  24.872  1.00  0.00     0.026 A 
ATOM     39  C   UNL A   1      31.913  22.219  23.188  1.00  0.00     0.026 A 
ATOM     40  C   UNL A   1      32.635  19.645  23.915  1.00  0.00     0.002 A 
ATOM     41  C   UNL A   1      31.910  21.202  22.234  1.00  0.00     0.002 A 
ATOM     42  C   UNL A   1      32.265  19.910  22.600  1.00  0.00     0.000 A 
ENDBRANCH  35  37
ENDBRANCH  11  33
ENDBRANCH   3   5
ENDBRANCH   2   3
ENDBRANCH   1   2
BRANCH   1  43
ATOM     43  C   UNL A   1      36.461  22.189  25.664  1.00  0.00     0.118 C 
BRANCH  43  44
ATOM     44  N   UNL A   1      37.457  21.127  25.753  1.00  0.00    -0.352 N 
ATOM     45  C   UNL A   1      38.797  21.204  26.038  1.00  0.00     0.251 C 
ATOM     46  H   UNL A   1      37.116  20.219  25.582  1.00  0.00     0.163 HD
ATOM     47  O   UNL A   1      39.519  20.223  25.897  1.00  0.00    -0.269 OA
BRANCH  45  48
ATOM     48  C   UNL A   1      39.375  22.484  26.497  1.00  0.00     0.039 A 
ATOM     49  C   UNL A   1      40.469  22.462  27.364  1.00  0.00     0.014 A 
ATOM     50  C   UNL A   1      38.842  23.702  26.068  1.00  0.00     0.014 A 
ATOM     51  C   UNL A   1      41.072  23.662  27.746  1.00  0.00     0.010 A 
ATOM     52  C   UNL A   1      39.495  24.889  26.377  1.00  0.00     0.010 A 
ATOM     53  C   UNL A   1      40.613  24.883  27.223  1.00  0.00    -0.014 A 
BRANCH  53  54
ATOM     54  C   UNL A   1      41.273  26.167  27.563  1.00  0.00     0.031 A 
ATOM     55  C   UNL A   1      42.626  26.488  26.991  1.00  0.00     0.074 A 
ATOM     56  C   UNL A   1      40.683  27.015  28.429  1.00  0.00     0.049 A 
ATOM     57  N   UNL A   1      43.402  27.515  27.231  1.00  0.00    -0.248 NA
ATOM     58  C   UNL A   1      43.195  25.516  26.041  1.00  0.00     0.031 C 
ATOM     59  C   UNL A   1      39.387  26.806  29.078  1.00  0.00     0.029 A 
ATOM     60  N   UNL A   1      41.106  28.227  28.917  1.00  0.00    -0.354 N 
ATOM     61  C   UNL A   1      44.548  27.305  26.474  1.00  0.00     0.074 A 
ATOM     62  C   UNL A   1      44.394  26.031  25.810  1.00  0.00     0.031 C 
ATOM     63  C   UNL A   1      39.108  27.864  29.855  1.00  0.00     0.029 A 
ATOM     64  C   UNL A   1      40.221  28.807  29.793  1.00  0.00     0.049 A 
ATOM     65  H   UNL A   1      41.962  28.641  28.662  1.00  0.00     0.167 HD
ATOM     66  C   UNL A   1      45.623  28.115  26.322  1.00  0.00     0.031 A 
ATOM     67  C   UNL A   1      40.302  29.965  30.474  1.00  0.00     0.031 A 
ATOM     68  C   UNL A   1      45.773  29.389  26.968  1.00  0.00     0.049 A 
ATOM     69  C   UNL A   1      41.519  30.831  30.305  1.00  0.00     0.074 A 
ATOM     70  C   UNL A   1      46.815  30.295  26.859  1.00  0.00     0.029 A 
ATOM     71  N   UNL A   1      44.849  29.944  27.839  1.00  0.00    -0.354 N 
ATOM     72  N   UNL A   1      42.574  30.637  29.552  1.00  0.00    -0.248 NA
ATOM     73  C   UNL A   1      41.550  32.083  31.074  1.00  0.00     0.031 C 
ATOM     74  C   UNL A   1      46.536  31.383  27.691  1.00  0.00     0.029 A 
ATOM     75  C   UNL A   1      45.300  31.176  28.280  1.00  0.00     0.049 A 
ATOM     76  H   UNL A   1      43.999  29.524  28.104  1.00  0.00     0.167 HD
ATOM     77  C   UNL A   1      43.376  31.757  29.729  1.00  0.00     0.074 A 
ATOM     78  C   UNL A   1      42.678  32.632  30.649  1.00  0.00     0.031 C 
ATOM     79  C   UNL A   1      44.582  32.037  29.181  1.00  0.00     0.031 A 
BRANCH  66  80
ATOM     80  C   UNL A   1      46.716  27.648  25.404  1.00  0.00    -0.014 A 
ATOM     81  C   UNL A   1      46.732  28.027  24.052  1.00  0.00     0.009 A 
ATOM     82  C   UNL A   1      47.767  26.862  25.903  1.00  0.00     0.009 A 
ATOM     83  C   UNL A   1      47.762  27.605  23.211  1.00  0.00     0.001 A 
ATOM     84  C   UNL A   1      48.810  26.464  25.065  1.00  0.00     0.001 A 
ATOM     85  C   UNL A   1      48.804  26.830  23.719  1.00  0.00     0.000 A 
ENDBRANCH  66  80
BRANCH  67  86
ATOM     86  C   UNL A   1      39.199  30.390  31.375  1.00  0.00    -0.014 A 
ATOM     87  C   UNL A   1      38.201  31.263  30.915  1.00  0.00     0.009 A 
ATOM     88  C   UNL A   1      39.161  29.962  32.711  1.00  0.00     0.009 A 
ATOM     89  C   UNL A   1      37.211  31.731  31.783  1.00  0.00     0.001 A 
ATOM     90  C   UNL A   1      38.152  30.407  33.570  1.00  0.00     0.001 A 
ATOM     91  C   UNL A   1      37.188  31.302  33.109  1.00  0.00     0.000 A 
ENDBRANCH  67  86
BRANCH  79  92
ATOM     92  C   UNL A   1      45.198  33.365  29.522  1.00  0.00    -0.014 A 
ATOM     93  C   UNL A   1      44.936  34.509  28.753  1.00  0.00     0.009 A 
ATOM     94  C   UNL A   1      46.022  33.475  30.652  1.00  0.00     0.009 A 
ATOM     95  C   UNL A   1      45.519  35.732  29.092  1.00  0.00     0.001 A 
ATOM     96  C   UNL A   1      46.580  34.705  31.004  1.00  0.00     0.001 A 
ATOM     97  C   UNL A   1      46.335  35.829  30.218  1.00  0.00     0.000 A 
ENDBRANCH  79  92
ENDBRANCH  53  54
ENDBRANCH  45  48
ENDBRANCH  43  44
ENDBRANCH   1  43
TORSDOF 17
ENDMDL
