MODEL 1
REMARK VINA RESULT:     -10.3      0.000      0.000
REMARK SMILES COCc1cc(C)nc2sc3c(c12)N[C@H](c1ccccc1C(=O)NCCCNC(=O)c1ccc(-c2c4nc(c(-c5ccccc5)c5ccc([nH]5)c(-c5ccccc5)c5nc(c(-c6ccccc6)c6ccc2[nH]6)C=C5)C=C4)cc1)n1c-3nc2ccccc21
REMARK SMILES IDX 25 1 24 2 22 3 23 4 21 6 16 7 17 8 18 9 20 10 19 11 15 12
REMARK SMILES IDX 4 13 5 14 13 15 6 16 9 17 12 18 7 19 8 20 10 21 11 22 14 23
REMARK SMILES IDX 80 24 79 26 81 27 87 28 82 29 86 30 83 31 85 32 84 33 3 34
REMARK SMILES IDX 2 35 1 36 26 37 27 38 28 39 29 40 30 42 31 43 32 44 78 45
REMARK SMILES IDX 33 46 77 47 34 48 35 49 36 50 71 51 37 52 76 53 70 54 72 55
REMARK SMILES IDX 38 56 75 57 69 58 68 59 39 61 61 62 46 63 60 64 47 65 50 66
REMARK SMILES IDX 59 67 73 68 48 69 49 70 58 72 74 73 51 74 40 75 41 76 45 77
REMARK SMILES IDX 42 78 44 79 43 80 62 81 63 82 67 83 64 84 66 85 65 86 52 87
REMARK SMILES IDX 53 88 57 89 54 90 56 91 55 92
REMARK H PARENT 24 5 14 25 28 41 72 60 50 71
REMARK Flexibility Score: inf
ROOT
ATOM      1  C   UNL A   1      39.569  26.012  27.936  1.00  0.00     0.118 C 
ENDROOT
BRANCH   1   2
ATOM      2  N   UNL A   1      39.761  27.263  27.254  1.00  0.00    -0.352 N 
ATOM      3  C   UNL A   1      39.384  28.514  27.618  1.00  0.00     0.251 C 
ATOM      4  O   UNL A   1      39.674  29.450  26.875  1.00  0.00    -0.269 OA
ATOM      5  H   UNL A   1      40.238  27.201  26.395  1.00  0.00     0.163 HD
BRANCH   3   6
ATOM      6  C   UNL A   1      38.467  28.727  28.762  1.00  0.00     0.046 A 
ATOM      7  C   UNL A   1      37.135  29.227  28.779  1.00  0.00     0.008 A 
ATOM      8  C   UNL A   1      36.591  29.445  30.075  1.00  0.00     0.008 A 
ATOM      9  C   UNL A   1      37.271  29.091  31.257  1.00  0.00     0.000 A 
ATOM     10  C   UNL A   1      39.116  28.336  29.961  1.00  0.00     0.014 A 
ATOM     11  C   UNL A   1      38.521  28.499  31.198  1.00  0.00     0.001 A 
BRANCH   7  12
ATOM     12  C   UNL A   1      36.133  29.354  27.600  1.00  0.00     0.215 C 
ATOM     13  C   UNL A   1      32.805  25.857  25.774  1.00  0.00    -0.008 A 
ATOM     14  C   UNL A   1      31.442  25.609  25.399  1.00  0.00     0.030 A 
ATOM     15  C   UNL A   1      33.241  27.220  25.741  1.00  0.00     0.041 A 
ATOM     16  C   UNL A   1      30.672  26.578  24.792  1.00  0.00     0.039 A 
ATOM     17  C   UNL A   1      32.384  28.019  24.946  1.00  0.00     0.126 A 
ATOM     18  C   UNL A   1      34.271  28.112  26.346  1.00  0.00     0.068 A 
ATOM     19  C   UNL A   1      29.199  26.436  24.580  1.00  0.00     0.067 C 
ATOM     20  N   UNL A   1      31.198  27.725  24.404  1.00  0.00    -0.242 NA
ATOM     21  S   UNL A   1      32.905  29.607  24.751  1.00  0.00    -0.110 S 
ATOM     22  C   UNL A   1      33.785  29.384  26.150  1.00  0.00     0.096 A 
ATOM     23  N   UNL A   1      35.352  28.020  27.235  1.00  0.00    -0.359 N 
ATOM     24  C   UNL A   1      34.035  30.434  27.028  1.00  0.00     0.155 A 
ATOM     25  H   UNL A   1      35.619  27.155  27.620  1.00  0.00     0.163 HD
ATOM     26  N   UNL A   1      35.252  30.548  27.624  1.00  0.00    -0.298 N 
ATOM     27  N   UNL A   1      33.153  31.251  27.534  1.00  0.00    -0.227 NA
ATOM     28  C   UNL A   1      35.302  31.869  27.984  1.00  0.00     0.071 A 
ATOM     29  C   UNL A   1      33.937  32.190  28.113  1.00  0.00     0.089 A 
ATOM     30  C   UNL A   1      36.286  32.826  28.229  1.00  0.00     0.029 A 
ATOM     31  C   UNL A   1      33.516  33.382  28.696  1.00  0.00     0.030 A 
ATOM     32  C   UNL A   1      35.834  34.077  28.694  1.00  0.00     0.002 A 
ATOM     33  C   UNL A   1      34.486  34.334  28.972  1.00  0.00     0.002 A 
BRANCH  13  34
ATOM     34  C   UNL A   1      33.594  24.627  26.126  1.00  0.00     0.196 C 
BRANCH  34  35
ATOM     35  O   UNL A   1      34.480  24.282  25.048  1.00  0.00    -0.380 OA
ATOM     36  C   UNL A   1      35.836  24.032  25.423  1.00  0.00     0.195 C 
ENDBRANCH  34  35
ENDBRANCH  13  34
ENDBRANCH   7  12
ENDBRANCH   3   6
ENDBRANCH   1   2
BRANCH   1  37
ATOM     37  C   UNL A   1      40.872  25.339  28.310  1.00  0.00     0.042 C 
BRANCH  37  38
ATOM     38  C   UNL A   1      42.144  26.121  27.944  1.00  0.00     0.118 C 
BRANCH  38  39
ATOM     39  N   UNL A   1      43.393  25.676  28.522  1.00  0.00    -0.352 N 
ATOM     40  C   UNL A   1      43.791  25.738  29.837  1.00  0.00     0.251 C 
ATOM     41  H   UNL A   1      44.040  25.278  27.895  1.00  0.00     0.163 HD
ATOM     42  O   UNL A   1      44.678  25.024  30.295  1.00  0.00    -0.269 OA
BRANCH  40  43
ATOM     43  C   UNL A   1      43.288  26.866  30.631  1.00  0.00     0.039 A 
ATOM     44  C   UNL A   1      42.794  28.045  30.074  1.00  0.00     0.014 A 
ATOM     45  C   UNL A   1      43.573  26.779  31.992  1.00  0.00     0.014 A 
ATOM     46  C   UNL A   1      42.718  29.185  30.872  1.00  0.00     0.010 A 
ATOM     47  C   UNL A   1      43.467  27.902  32.793  1.00  0.00     0.010 A 
ATOM     48  C   UNL A   1      43.080  29.119  32.225  1.00  0.00    -0.014 A 
BRANCH  48  49
ATOM     49  C   UNL A   1      42.983  30.341  33.037  1.00  0.00     0.031 A 
ATOM     50  C   UNL A   1      43.320  31.580  32.266  1.00  0.00     0.074 A 
ATOM     51  C   UNL A   1      42.000  30.501  33.949  1.00  0.00     0.049 A 
ATOM     52  N   UNL A   1      42.447  32.328  31.652  1.00  0.00    -0.248 NA
ATOM     53  C   UNL A   1      44.712  31.860  31.915  1.00  0.00     0.031 C 
ATOM     54  C   UNL A   1      40.603  30.091  33.754  1.00  0.00     0.029 A 
ATOM     55  N   UNL A   1      41.970  31.313  35.058  1.00  0.00    -0.354 N 
ATOM     56  C   UNL A   1      43.167  33.159  30.808  1.00  0.00     0.074 A 
ATOM     57  C   UNL A   1      44.564  32.836  31.012  1.00  0.00     0.031 C 
ATOM     58  C   UNL A   1      39.829  30.794  34.607  1.00  0.00     0.029 A 
ATOM     59  C   UNL A   1      40.683  31.575  35.494  1.00  0.00     0.049 A 
ATOM     60  H   UNL A   1      42.776  31.671  35.493  1.00  0.00     0.167 HD
ATOM     61  C   UNL A   1      42.610  34.071  29.966  1.00  0.00     0.031 A 
ATOM     62  C   UNL A   1      40.311  32.616  36.280  1.00  0.00     0.031 A 
ATOM     63  C   UNL A   1      41.178  34.269  29.949  1.00  0.00     0.049 A 
ATOM     64  C   UNL A   1      39.955  33.667  35.269  1.00  0.00     0.074 A 
ATOM     65  C   UNL A   1      40.273  34.888  29.103  1.00  0.00     0.029 A 
ATOM     66  N   UNL A   1      40.432  33.833  31.012  1.00  0.00    -0.354 N 
ATOM     67  N   UNL A   1      38.820  33.802  34.638  1.00  0.00    -0.248 NA
ATOM     68  C   UNL A   1      41.058  34.488  34.734  1.00  0.00     0.031 C 
ATOM     69  C   UNL A   1      39.037  35.015  29.811  1.00  0.00     0.029 A 
ATOM     70  C   UNL A   1      39.233  34.505  31.079  1.00  0.00     0.049 A 
ATOM     71  H   UNL A   1      40.715  33.132  31.643  1.00  0.00     0.167 HD
ATOM     72  C   UNL A   1      39.150  34.494  33.482  1.00  0.00     0.074 A 
ATOM     73  C   UNL A   1      40.492  35.009  33.653  1.00  0.00     0.031 C 
ATOM     74  C   UNL A   1      38.481  34.387  32.302  1.00  0.00     0.031 A 
BRANCH  61  75
ATOM     75  C   UNL A   1      43.480  35.020  29.224  1.00  0.00    -0.014 A 
ATOM     76  C   UNL A   1      44.027  34.739  27.967  1.00  0.00     0.009 A 
ATOM     77  C   UNL A   1      43.698  36.284  29.797  1.00  0.00     0.009 A 
ATOM     78  C   UNL A   1      44.776  35.714  27.298  1.00  0.00     0.001 A 
ATOM     79  C   UNL A   1      44.443  37.254  29.129  1.00  0.00     0.001 A 
ATOM     80  C   UNL A   1      44.981  36.969  27.877  1.00  0.00     0.000 A 
ENDBRANCH  61  75
BRANCH  62  81
ATOM     81  C   UNL A   1      41.150  32.894  37.484  1.00  0.00    -0.014 A 
ATOM     82  C   UNL A   1      42.072  31.999  38.040  1.00  0.00     0.009 A 
ATOM     83  C   UNL A   1      41.033  34.162  38.094  1.00  0.00     0.009 A 
ATOM     84  C   UNL A   1      42.746  32.303  39.229  1.00  0.00     0.001 A 
ATOM     85  C   UNL A   1      41.725  34.479  39.265  1.00  0.00     0.001 A 
ATOM     86  C   UNL A   1      42.562  33.536  39.848  1.00  0.00     0.000 A 
ENDBRANCH  62  81
BRANCH  74  87
ATOM     87  C   UNL A   1      37.066  33.936  32.318  1.00  0.00    -0.014 A 
ATOM     88  C   UNL A   1      36.053  34.809  32.724  1.00  0.00     0.009 A 
ATOM     89  C   UNL A   1      36.722  32.617  31.993  1.00  0.00     0.009 A 
ATOM     90  C   UNL A   1      34.726  34.388  32.801  1.00  0.00     0.001 A 
ATOM     91  C   UNL A   1      35.394  32.190  32.070  1.00  0.00     0.001 A 
ATOM     92  C   UNL A   1      34.397  33.075  32.475  1.00  0.00     0.000 A 
ENDBRANCH  74  87
ENDBRANCH  48  49
ENDBRANCH  40  43
ENDBRANCH  38  39
ENDBRANCH  37  38
ENDBRANCH   1  37
TORSDOF 13
ENDMDL
MODEL 2
REMARK VINA RESULT:     -10.2      3.903      9.498
REMARK SMILES COCc1cc(C)nc2sc3c(c12)N[C@H](c1ccccc1C(=O)NCCCNC(=O)c1ccc(-c2c4nc(c(-c5ccccc5)c5ccc([nH]5)c(-c5ccccc5)c5nc(c(-c6ccccc6)c6ccc2[nH]6)C=C5)C=C4)cc1)n1c-3nc2ccccc21
REMARK SMILES IDX 25 1 24 2 22 3 23 4 21 6 16 7 17 8 18 9 20 10 19 11 15 12
REMARK SMILES IDX 4 13 5 14 13 15 6 16 9 17 12 18 7 19 8 20 10 21 11 22 14 23
REMARK SMILES IDX 80 24 79 26 81 27 87 28 82 29 86 30 83 31 85 32 84 33 3 34
REMARK SMILES IDX 2 35 1 36 26 37 27 38 28 39 29 40 30 42 31 43 32 44 78 45
REMARK SMILES IDX 33 46 77 47 34 48 35 49 36 50 71 51 37 52 76 53 70 54 72 55
REMARK SMILES IDX 38 56 75 57 69 58 68 59 39 61 61 62 46 63 60 64 47 65 50 66
REMARK SMILES IDX 59 67 73 68 48 69 49 70 58 72 74 73 51 74 40 75 41 76 45 77
REMARK SMILES IDX 42 78 44 79 43 80 62 81 63 82 67 83 64 84 66 85 65 86 52 87
REMARK SMILES IDX 53 88 57 89 54 90 56 91 55 92
REMARK H PARENT 24 5 14 25 28 41 72 60 50 71
REMARK Flexibility Score: inf
ROOT
ATOM      1  C   UNL A   1      44.735  32.703  27.030  1.00  0.00     0.118 C 
ENDROOT
BRANCH   1   2
ATOM      2  N   UNL A   1      45.065  33.149  28.356  1.00  0.00    -0.352 N 
ATOM      3  C   UNL A   1      46.190  32.940  29.084  1.00  0.00     0.251 C 
ATOM      4  O   UNL A   1      46.260  33.438  30.206  1.00  0.00    -0.269 OA
ATOM      5  H   UNL A   1      44.371  33.686  28.801  1.00  0.00     0.163 HD
BRANCH   3   6
ATOM      6  C   UNL A   1      47.215  31.967  28.636  1.00  0.00     0.046 A 
ATOM      7  C   UNL A   1      47.251  30.552  28.781  1.00  0.00     0.008 A 
ATOM      8  C   UNL A   1      48.461  29.936  28.362  1.00  0.00     0.008 A 
ATOM      9  C   UNL A   1      49.509  30.650  27.747  1.00  0.00     0.000 A 
ATOM     10  C   UNL A   1      48.260  32.660  27.974  1.00  0.00     0.014 A 
ATOM     11  C   UNL A   1      49.391  32.010  27.517  1.00  0.00     0.001 A 
BRANCH   7  12
ATOM     12  C   UNL A   1      46.085  29.584  29.119  1.00  0.00     0.215 C 
ATOM     13  C   UNL A   1      44.340  25.536  26.434  1.00  0.00    -0.008 A 
ATOM     14  C   UNL A   1      43.988  24.147  26.491  1.00  0.00     0.030 A 
ATOM     15  C   UNL A   1      44.289  26.262  27.666  1.00  0.00     0.041 A 
ATOM     16  C   UNL A   1      43.383  23.599  27.603  1.00  0.00     0.039 A 
ATOM     17  C   UNL A   1      43.498  25.590  28.631  1.00  0.00     0.126 A 
ATOM     18  C   UNL A   1      44.870  27.473  28.312  1.00  0.00     0.068 A 
ATOM     19  C   UNL A   1      43.193  22.129  27.789  1.00  0.00     0.067 C 
ATOM     20  N   UNL A   1      42.976  24.360  28.603  1.00  0.00    -0.242 NA
ATOM     21  S   UNL A   1      43.281  26.446  30.063  1.00  0.00    -0.110 S 
ATOM     22  C   UNL A   1      44.669  27.277  29.659  1.00  0.00     0.096 A 
ATOM     23  N   UNL A   1      45.744  28.522  27.989  1.00  0.00    -0.359 N 
ATOM     24  C   UNL A   1      45.533  27.768  30.632  1.00  0.00     0.155 A 
ATOM     25  H   UNL A   1      46.133  28.597  27.088  1.00  0.00     0.163 HD
ATOM     26  N   UNL A   1      46.110  28.989  30.478  1.00  0.00    -0.298 N 
ATOM     27  N   UNL A   1      46.045  27.096  31.628  1.00  0.00    -0.227 NA
ATOM     28  C   UNL A   1      46.457  29.335  31.758  1.00  0.00     0.071 A 
ATOM     29  C   UNL A   1      46.603  28.078  32.373  1.00  0.00     0.089 A 
ATOM     30  C   UNL A   1      46.679  30.511  32.475  1.00  0.00     0.029 A 
ATOM     31  C   UNL A   1      47.182  27.939  33.632  1.00  0.00     0.030 A 
ATOM     32  C   UNL A   1      47.140  30.354  33.797  1.00  0.00     0.002 A 
ATOM     33  C   UNL A   1      47.434  29.100  34.348  1.00  0.00     0.002 A 
BRANCH  13  34
ATOM     34  C   UNL A   1      44.692  26.040  25.061  1.00  0.00     0.196 C 
BRANCH  34  35
ATOM     35  O   UNL A   1      45.992  25.563  24.677  1.00  0.00    -0.380 OA
ATOM     36  C   UNL A   1      47.096  26.197  25.327  1.00  0.00     0.195 C 
ENDBRANCH  34  35
ENDBRANCH  13  34
ENDBRANCH   7  12
ENDBRANCH   3   6
ENDBRANCH   1   2
BRANCH   1  37
ATOM     37  C   UNL A   1      44.222  33.819  26.145  1.00  0.00     0.042 C 
BRANCH  37  38
ATOM     38  C   UNL A   1      44.775  35.218  26.463  1.00  0.00     0.118 C 
BRANCH  38  39
ATOM     39  N   UNL A   1      43.908  36.351  26.226  1.00  0.00    -0.352 N 
ATOM     40  C   UNL A   1      43.252  37.128  27.151  1.00  0.00     0.251 C 
ATOM     41  H   UNL A   1      43.770  36.598  25.282  1.00  0.00     0.163 HD
ATOM     42  O   UNL A   1      42.853  38.261  26.901  1.00  0.00    -0.269 OA
BRANCH  40  43
ATOM     43  C   UNL A   1      42.824  36.466  28.390  1.00  0.00     0.039 A 
ATOM     44  C   UNL A   1      43.617  36.376  29.533  1.00  0.00     0.014 A 
ATOM     45  C   UNL A   1      41.661  35.710  28.260  1.00  0.00     0.014 A 
ATOM     46  C   UNL A   1      43.306  35.414  30.492  1.00  0.00     0.010 A 
ATOM     47  C   UNL A   1      41.333  34.776  29.227  1.00  0.00     0.010 A 
ATOM     48  C   UNL A   1      42.179  34.596  30.325  1.00  0.00    -0.014 A 
BRANCH  48  49
ATOM     49  C   UNL A   1      41.881  33.594  31.360  1.00  0.00     0.031 A 
ATOM     50  C   UNL A   1      40.432  33.563  31.739  1.00  0.00     0.074 A 
ATOM     51  C   UNL A   1      42.484  32.387  31.362  1.00  0.00     0.049 A 
ATOM     52  N   UNL A   1      39.545  32.773  31.203  1.00  0.00    -0.248 NA
ATOM     53  C   UNL A   1      39.870  34.645  32.548  1.00  0.00     0.031 C 
ATOM     54  C   UNL A   1      42.759  31.586  30.161  1.00  0.00     0.029 A 
ATOM     55  N   UNL A   1      42.679  31.517  32.409  1.00  0.00    -0.354 N 
ATOM     56  C   UNL A   1      38.304  33.267  31.574  1.00  0.00     0.074 A 
ATOM     57  C   UNL A   1      38.558  34.421  32.411  1.00  0.00     0.031 C 
ATOM     58  C   UNL A   1      42.916  30.299  30.534  1.00  0.00     0.029 A 
ATOM     59  C   UNL A   1      42.905  30.217  31.990  1.00  0.00     0.049 A 
ATOM     60  H   UNL A   1      42.659  31.788  33.354  1.00  0.00     0.167 HD
ATOM     61  C   UNL A   1      37.115  32.734  31.184  1.00  0.00     0.031 A 
ATOM     62  C   UNL A   1      42.741  29.103  32.745  1.00  0.00     0.031 A 
ATOM     63  C   UNL A   1      37.083  31.538  30.373  1.00  0.00     0.049 A 
ATOM     64  C   UNL A   1      41.317  28.725  32.451  1.00  0.00     0.074 A 
ATOM     65  C   UNL A   1      36.129  30.880  29.615  1.00  0.00     0.029 A 
ATOM     66  N   UNL A   1      38.197  30.742  30.314  1.00  0.00    -0.354 N 
ATOM     67  N   UNL A   1      40.878  28.039  31.432  1.00  0.00    -0.248 NA
ATOM     68  C   UNL A   1      40.267  29.396  33.242  1.00  0.00     0.031 C 
ATOM     69  C   UNL A   1      36.636  29.575  29.320  1.00  0.00     0.029 A 
ATOM     70  C   UNL A   1      37.865  29.461  29.938  1.00  0.00     0.049 A 
ATOM     71  H   UNL A   1      39.112  31.046  30.513  1.00  0.00     0.167 HD
ATOM     72  C   UNL A   1      39.552  28.426  31.303  1.00  0.00     0.074 A 
ATOM     73  C   UNL A   1      39.191  29.142  32.508  1.00  0.00     0.031 C 
ATOM     74  C   UNL A   1      38.864  28.440  30.130  1.00  0.00     0.031 A 
BRANCH  61  75
ATOM     75  C   UNL A   1      35.848  33.244  31.770  1.00  0.00    -0.014 A 
ATOM     76  C   UNL A   1      35.353  32.826  33.010  1.00  0.00     0.009 A 
ATOM     77  C   UNL A   1      35.163  34.246  31.064  1.00  0.00     0.009 A 
ATOM     78  C   UNL A   1      34.191  33.408  33.531  1.00  0.00     0.001 A 
ATOM     79  C   UNL A   1      34.007  34.825  31.584  1.00  0.00     0.001 A 
ATOM     80  C   UNL A   1      33.522  34.407  32.820  1.00  0.00     0.000 A 
ENDBRANCH  61  75
BRANCH  62  81
ATOM     81  C   UNL A   1      43.310  29.126  34.126  1.00  0.00    -0.014 A 
ATOM     82  C   UNL A   1      43.519  30.285  34.884  1.00  0.00     0.009 A 
ATOM     83  C   UNL A   1      43.632  27.892  34.730  1.00  0.00     0.009 A 
ATOM     84  C   UNL A   1      44.149  30.225  36.134  1.00  0.00     0.001 A 
ATOM     85  C   UNL A   1      44.235  27.827  35.989  1.00  0.00     0.001 A 
ATOM     86  C   UNL A   1      44.519  28.999  36.679  1.00  0.00     0.000 A 
ENDBRANCH  62  81
BRANCH  74  87
ATOM     87  C   UNL A   1      39.316  27.560  29.023  1.00  0.00    -0.014 A 
ATOM     88  C   UNL A   1      39.099  26.181  29.084  1.00  0.00     0.009 A 
ATOM     89  C   UNL A   1      40.024  28.077  27.928  1.00  0.00     0.009 A 
ATOM     90  C   UNL A   1      39.567  25.331  28.083  1.00  0.00     0.001 A 
ATOM     91  C   UNL A   1      40.495  27.230  26.923  1.00  0.00     0.001 A 
ATOM     92  C   UNL A   1      40.267  25.857  27.001  1.00  0.00     0.000 A 
ENDBRANCH  74  87
ENDBRANCH  48  49
ENDBRANCH  40  43
ENDBRANCH  38  39
ENDBRANCH  37  38
ENDBRANCH   1  37
TORSDOF 13
ENDMDL
MODEL 3
REMARK VINA RESULT:     -10.1      7.965     13.141
REMARK SMILES COCc1cc(C)nc2sc3c(c12)N[C@H](c1ccccc1C(=O)NCCCNC(=O)c1ccc(-c2c4nc(c(-c5ccccc5)c5ccc([nH]5)c(-c5ccccc5)c5nc(c(-c6ccccc6)c6ccc2[nH]6)C=C5)C=C4)cc1)n1c-3nc2ccccc21
REMARK SMILES IDX 25 1 24 2 22 3 23 4 21 6 16 7 17 8 18 9 20 10 19 11 15 12
REMARK SMILES IDX 4 13 5 14 13 15 6 16 9 17 12 18 7 19 8 20 10 21 11 22 14 23
REMARK SMILES IDX 80 24 79 26 81 27 87 28 82 29 86 30 83 31 85 32 84 33 3 34
REMARK SMILES IDX 2 35 1 36 26 37 27 38 28 39 29 40 30 42 31 43 32 44 78 45
REMARK SMILES IDX 33 46 77 47 34 48 35 49 36 50 71 51 37 52 76 53 70 54 72 55
REMARK SMILES IDX 38 56 75 57 69 58 68 59 39 61 61 62 46 63 60 64 47 65 50 66
REMARK SMILES IDX 59 67 73 68 48 69 49 70 58 72 74 73 51 74 40 75 41 76 45 77
REMARK SMILES IDX 42 78 44 79 43 80 62 81 63 82 67 83 64 84 66 85 65 86 52 87
REMARK SMILES IDX 53 88 57 89 54 90 56 91 55 92
REMARK H PARENT 24 5 14 25 28 41 72 60 50 71
REMARK Flexibility Score: inf
ROOT
ATOM      1  C   UNL A   1      45.177  24.438  37.753  1.00  0.00     0.118 C 
ENDROOT
BRANCH   1   2
ATOM      2  N   UNL A   1      44.870  23.725  38.963  1.00  0.00    -0.352 N 
ATOM      3  C   UNL A   1      45.705  23.181  39.882  1.00  0.00     0.251 C 
ATOM      4  O   UNL A   1      45.212  22.624  40.862  1.00  0.00    -0.269 OA
ATOM      5  H   UNL A   1      43.910  23.616  39.152  1.00  0.00     0.163 HD
BRANCH   3   6
ATOM      6  C   UNL A   1      47.159  23.067  39.615  1.00  0.00     0.046 A 
ATOM      7  C   UNL A   1      48.019  21.939  39.723  1.00  0.00     0.008 A 
ATOM      8  C   UNL A   1      49.400  22.216  39.530  1.00  0.00     0.008 A 
ATOM      9  C   UNL A   1      49.879  23.486  39.152  1.00  0.00     0.000 A 
ATOM     10  C   UNL A   1      47.655  24.326  39.189  1.00  0.00     0.014 A 
ATOM     11  C   UNL A   1      48.999  24.534  38.943  1.00  0.00     0.001 A 
BRANCH   7  12
ATOM     12  C   UNL A   1      47.639  20.436  39.799  1.00  0.00     0.215 C 
ATOM     13  C   UNL A   1      44.715  17.995  43.283  1.00  0.00    -0.008 A 
ATOM     14  C   UNL A   1      43.608  17.104  43.476  1.00  0.00     0.030 A 
ATOM     15  C   UNL A   1      45.395  17.910  42.026  1.00  0.00     0.041 A 
ATOM     16  C   UNL A   1      43.371  16.049  42.620  1.00  0.00     0.039 A 
ATOM     17  C   UNL A   1      45.125  16.683  41.373  1.00  0.00     0.126 A 
ATOM     18  C   UNL A   1      46.245  18.735  41.121  1.00  0.00     0.068 A 
ATOM     19  C   UNL A   1      42.121  15.231  42.658  1.00  0.00     0.067 C 
ATOM     20  N   UNL A   1      44.233  15.733  41.671  1.00  0.00    -0.242 NA
ATOM     21  S   UNL A   1      45.993  16.452  39.950  1.00  0.00    -0.110 S 
ATOM     22  C   UNL A   1      46.154  18.112  39.898  1.00  0.00     0.096 A 
ATOM     23  N   UNL A   1      46.822  20.013  41.093  1.00  0.00    -0.359 N 
ATOM     24  C   UNL A   1      46.231  18.798  38.691  1.00  0.00     0.155 A 
ATOM     25  H   UNL A   1      46.724  20.630  41.854  1.00  0.00     0.163 HD
ATOM     26  N   UNL A   1      47.091  19.842  38.554  1.00  0.00    -0.298 N 
ATOM     27  N   UNL A   1      45.407  18.696  37.684  1.00  0.00    -0.227 NA
ATOM     28  C   UNL A   1      47.258  19.936  37.198  1.00  0.00     0.071 A 
ATOM     29  C   UNL A   1      46.058  19.380  36.715  1.00  0.00     0.089 A 
ATOM     30  C   UNL A   1      48.227  20.414  36.317  1.00  0.00     0.029 A 
ATOM     31  C   UNL A   1      45.688  19.482  35.376  1.00  0.00     0.030 A 
ATOM     32  C   UNL A   1      47.891  20.388  34.949  1.00  0.00     0.002 A 
ATOM     33  C   UNL A   1      46.631  19.981  34.491  1.00  0.00     0.002 A 
BRANCH  13  34
ATOM     34  C   UNL A   1      45.021  18.883  44.457  1.00  0.00     0.196 C 
BRANCH  34  35
ATOM     35  O   UNL A   1      46.248  19.597  44.233  1.00  0.00    -0.380 OA
ATOM     36  C   UNL A   1      47.279  19.362  45.194  1.00  0.00     0.195 C 
ENDBRANCH  34  35
ENDBRANCH  13  34
ENDBRANCH   7  12
ENDBRANCH   3   6
ENDBRANCH   1   2
BRANCH   1  37
ATOM     37  C   UNL A   1      44.716  23.710  36.509  1.00  0.00     0.042 C 
BRANCH  37  38
ATOM     38  C   UNL A   1      43.235  23.902  36.145  1.00  0.00     0.118 C 
BRANCH  38  39
ATOM     39  N   UNL A   1      42.390  24.576  37.107  1.00  0.00    -0.352 N 
ATOM     40  C   UNL A   1      41.622  25.701  36.924  1.00  0.00     0.251 C 
ATOM     41  H   UNL A   1      42.361  24.177  38.007  1.00  0.00     0.163 HD
ATOM     42  O   UNL A   1      40.676  25.983  37.652  1.00  0.00    -0.269 OA
BRANCH  40  43
ATOM     43  C   UNL A   1      42.121  26.697  35.966  1.00  0.00     0.039 A 
ATOM     44  C   UNL A   1      43.059  27.677  36.288  1.00  0.00     0.014 A 
ATOM     45  C   UNL A   1      41.400  26.755  34.775  1.00  0.00     0.014 A 
ATOM     46  C   UNL A   1      43.170  28.796  35.464  1.00  0.00     0.010 A 
ATOM     47  C   UNL A   1      41.533  27.849  33.940  1.00  0.00     0.010 A 
ATOM     48  C   UNL A   1      42.387  28.894  34.305  1.00  0.00    -0.014 A 
BRANCH  48  49
ATOM     49  C   UNL A   1      42.536  30.088  33.458  1.00  0.00     0.031 A 
ATOM     50  C   UNL A   1      42.399  29.785  31.997  1.00  0.00     0.074 A 
ATOM     51  C   UNL A   1      42.025  31.280  33.831  1.00  0.00     0.049 A 
ATOM     52  N   UNL A   1      41.284  29.868  31.328  1.00  0.00    -0.248 NA
ATOM     53  C   UNL A   1      43.477  29.089  31.296  1.00  0.00     0.031 C 
ATOM     54  C   UNL A   1      40.722  31.466  34.484  1.00  0.00     0.029 A 
ATOM     55  N   UNL A   1      42.398  32.544  33.439  1.00  0.00    -0.354 N 
ATOM     56  C   UNL A   1      41.497  29.208  30.127  1.00  0.00     0.074 A 
ATOM     57  C   UNL A   1      42.871  28.750  30.153  1.00  0.00     0.031 C 
ATOM     58  C   UNL A   1      40.326  32.741  34.289  1.00  0.00     0.029 A 
ATOM     59  C   UNL A   1      41.402  33.483  33.644  1.00  0.00     0.049 A 
ATOM     60  H   UNL A   1      43.277  32.758  33.053  1.00  0.00     0.167 HD
ATOM     61  C   UNL A   1      40.555  29.046  29.160  1.00  0.00     0.031 A 
ATOM     62  C   UNL A   1      41.309  34.684  33.022  1.00  0.00     0.031 A 
ATOM     63  C   UNL A   1      39.241  29.628  29.316  1.00  0.00     0.049 A 
ATOM     64  C   UNL A   1      40.462  34.359  31.825  1.00  0.00     0.074 A 
ATOM     65  C   UNL A   1      38.011  29.477  28.700  1.00  0.00     0.029 A 
ATOM     66  N   UNL A   1      39.062  30.635  30.228  1.00  0.00    -0.354 N 
ATOM     67  N   UNL A   1      39.159  34.288  31.776  1.00  0.00    -0.248 NA
ATOM     68  C   UNL A   1      41.153  33.818  30.639  1.00  0.00     0.031 C 
ATOM     69  C   UNL A   1      37.188  30.576  29.101  1.00  0.00     0.029 A 
ATOM     70  C   UNL A   1      37.951  31.386  29.919  1.00  0.00     0.049 A 
ATOM     71  H   UNL A   1      39.649  30.799  31.002  1.00  0.00     0.167 HD
ATOM     72  C   UNL A   1      38.902  33.451  30.699  1.00  0.00     0.074 A 
ATOM     73  C   UNL A   1      40.136  33.306  29.958  1.00  0.00     0.031 C 
ATOM     74  C   UNL A   1      37.806  32.652  30.590  1.00  0.00     0.031 A 
BRANCH  61  75
ATOM     75  C   UNL A   1      40.937  28.464  27.847  1.00  0.00    -0.014 A 
ATOM     76  C   UNL A   1      41.547  29.204  26.828  1.00  0.00     0.009 A 
ATOM     77  C   UNL A   1      40.730  27.087  27.662  1.00  0.00     0.009 A 
ATOM     78  C   UNL A   1      41.945  28.568  25.646  1.00  0.00     0.001 A 
ATOM     79  C   UNL A   1      41.129  26.456  26.485  1.00  0.00     0.001 A 
ATOM     80  C   UNL A   1      41.739  27.197  25.477  1.00  0.00     0.000 A 
ENDBRANCH  61  75
BRANCH  62  81
ATOM     81  C   UNL A   1      42.551  35.508  32.941  1.00  0.00    -0.014 A 
ATOM     82  C   UNL A   1      43.180  35.891  31.749  1.00  0.00     0.009 A 
ATOM     83  C   UNL A   1      43.123  35.965  34.148  1.00  0.00     0.009 A 
ATOM     84  C   UNL A   1      44.398  36.582  31.766  1.00  0.00     0.001 A 
ATOM     85  C   UNL A   1      44.324  36.679  34.166  1.00  0.00     0.001 A 
ATOM     86  C   UNL A   1      44.976  36.963  32.974  1.00  0.00     0.000 A 
ENDBRANCH  62  81
BRANCH  74  87
ATOM     87  C   UNL A   1      36.580  33.008  31.349  1.00  0.00    -0.014 A 
ATOM     88  C   UNL A   1      35.657  33.910  30.813  1.00  0.00     0.009 A 
ATOM     89  C   UNL A   1      36.352  32.503  32.636  1.00  0.00     0.009 A 
ATOM     90  C   UNL A   1      34.529  34.301  31.534  1.00  0.00     0.001 A 
ATOM     91  C   UNL A   1      35.224  32.892  33.363  1.00  0.00     0.001 A 
ATOM     92  C   UNL A   1      34.314  33.792  32.812  1.00  0.00     0.000 A 
ENDBRANCH  74  87
ENDBRANCH  48  49
ENDBRANCH  40  43
ENDBRANCH  38  39
ENDBRANCH  37  38
ENDBRANCH   1  37
TORSDOF 13
ENDMDL
