MODEL 1
REMARK VINA RESULT:     -11.3      0.000      0.000
REMARK SMILES O=C(NCCCNC(=O)[C@@H]1CCCCN1c1ccccc1[N+](=O)[O-])c1ccc(-c2c3nc(c(-c4ccccc4)c4ccc([nH]4)c(-c4ccccc4)c4nc(c(-c5ccccc5)c5ccc2[nH]5)C=C4)C=C3)cc1
REMARK SMILES IDX 5 1 4 2 3 3 1 4 2 5 25 7 26 8 72 9 27 10 71 11 28 12 29 13
REMARK SMILES IDX 30 14 65 15 31 16 70 17 64 18 66 19 32 20 69 21 63 22 62 23
REMARK SMILES IDX 33 25 55 26 40 27 54 28 41 29 44 30 53 31 67 32 42 33 43 34
REMARK SMILES IDX 52 36 68 37 45 38 34 39 35 40 39 41 36 42 38 43 37 44 56 45
REMARK SMILES IDX 57 46 61 47 58 48 60 49 59 50 46 51 47 52 51 53 48 54 50 55
REMARK SMILES IDX 49 56 6 57 7 58 8 59 9 61 10 62 11 63 15 64 12 65 14 66
REMARK SMILES IDX 13 67 16 68 17 69 21 70 18 71 20 72 19 73 22 74 23 75 24 76
REMARK H PARENT 3 6 66 24 44 35 7 60
REMARK Flexibility Score: inf
ROOT
ATOM      1  C   UNL A   1      33.281  29.027  27.259  1.00  0.00     0.042 C 
ENDROOT
BRANCH   1   2
ATOM      2  C   UNL A   1      34.702  29.458  27.592  1.00  0.00     0.118 C 
BRANCH   2   3
ATOM      3  N   UNL A   1      34.730  30.492  28.626  1.00  0.00    -0.352 N 
ATOM      4  O   UNL A   1      35.423  31.518  30.508  1.00  0.00    -0.269 OA
ATOM      5  C   UNL A   1      35.693  30.794  29.557  1.00  0.00     0.251 C 
ATOM      6  H   UNL A   1      33.929  31.063  28.660  1.00  0.00     0.163 HD
BRANCH   5   7
ATOM      7  C   UNL A   1      37.057  30.247  29.406  1.00  0.00     0.039 A 
ATOM      8  C   UNL A   1      37.719  30.366  28.184  1.00  0.00     0.014 A 
ATOM      9  C   UNL A   1      37.694  29.646  30.494  1.00  0.00     0.014 A 
ATOM     10  C   UNL A   1      38.933  29.730  27.996  1.00  0.00     0.010 A 
ATOM     11  C   UNL A   1      38.981  29.119  30.339  1.00  0.00     0.010 A 
ATOM     12  C   UNL A   1      39.599  29.136  29.080  1.00  0.00    -0.014 A 
BRANCH  12  13
ATOM     13  C   UNL A   1      40.976  28.631  28.862  1.00  0.00     0.031 A 
ATOM     14  C   UNL A   1      41.236  27.208  28.463  1.00  0.00     0.074 A 
ATOM     15  C   UNL A   1      41.993  29.511  28.962  1.00  0.00     0.049 A 
ATOM     16  N   UNL A   1      42.379  26.636  28.172  1.00  0.00    -0.248 NA
ATOM     17  C   UNL A   1      40.077  26.307  28.384  1.00  0.00     0.031 C 
ATOM     18  C   UNL A   1      41.853  30.919  29.349  1.00  0.00     0.029 A 
ATOM     19  N   UNL A   1      43.332  29.370  28.712  1.00  0.00    -0.354 N 
ATOM     20  C   UNL A   1      42.078  25.311  27.883  1.00  0.00     0.074 A 
ATOM     21  C   UNL A   1      40.651  25.153  28.070  1.00  0.00     0.031 C 
ATOM     22  C   UNL A   1      43.043  31.527  29.241  1.00  0.00     0.029 A 
ATOM     23  C   UNL A   1      44.042  30.537  28.865  1.00  0.00     0.049 A 
ATOM     24  H   UNL A   1      43.746  28.516  28.448  1.00  0.00     0.167 HD
ATOM     25  C   UNL A   1      42.916  24.322  27.491  1.00  0.00     0.031 A 
ATOM     26  C   UNL A   1      45.357  30.784  28.742  1.00  0.00     0.031 A 
ATOM     27  C   UNL A   1      44.338  24.486  27.325  1.00  0.00     0.049 A 
ATOM     28  C   UNL A   1      46.265  29.653  28.357  1.00  0.00     0.074 A 
ATOM     29  C   UNL A   1      45.275  23.546  26.934  1.00  0.00     0.029 A 
ATOM     30  N   UNL A   1      45.028  25.670  27.542  1.00  0.00    -0.354 N 
ATOM     31  N   UNL A   1      45.959  28.412  28.068  1.00  0.00    -0.248 NA
ATOM     32  C   UNL A   1      47.697  29.959  28.279  1.00  0.00     0.031 C 
ATOM     33  C   UNL A   1      46.539  24.145  26.967  1.00  0.00     0.029 A 
ATOM     34  C   UNL A   1      46.381  25.479  27.312  1.00  0.00     0.049 A 
ATOM     35  H   UNL A   1      44.616  26.520  27.819  1.00  0.00     0.167 HD
ATOM     36  C   UNL A   1      47.161  27.792  27.758  1.00  0.00     0.074 A 
ATOM     37  C   UNL A   1      48.192  28.804  27.860  1.00  0.00     0.031 C 
ATOM     38  C   UNL A   1      47.392  26.498  27.425  1.00  0.00     0.031 A 
BRANCH  25  39
ATOM     39  C   UNL A   1      42.320  22.964  27.233  1.00  0.00    -0.014 A 
ATOM     40  C   UNL A   1      41.754  22.642  25.988  1.00  0.00     0.009 A 
ATOM     41  C   UNL A   1      42.369  21.977  28.230  1.00  0.00     0.009 A 
ATOM     42  C   UNL A   1      41.226  21.369  25.759  1.00  0.00     0.001 A 
ATOM     43  C   UNL A   1      41.866  20.696  27.987  1.00  0.00     0.001 A 
ATOM     44  C   UNL A   1      41.289  20.396  26.755  1.00  0.00     0.000 A 
ENDBRANCH  25  39
BRANCH  26  45
ATOM     45  C   UNL A   1      45.893  32.140  29.028  1.00  0.00    -0.014 A 
ATOM     46  C   UNL A   1      46.266  32.512  30.327  1.00  0.00     0.009 A 
ATOM     47  C   UNL A   1      46.021  33.080  27.992  1.00  0.00     0.009 A 
ATOM     48  C   UNL A   1      46.720  33.808  30.589  1.00  0.00     0.001 A 
ATOM     49  C   UNL A   1      46.513  34.360  28.247  1.00  0.00     0.001 A 
ATOM     50  C   UNL A   1      46.848  34.727  29.548  1.00  0.00     0.000 A 
ENDBRANCH  26  45
BRANCH  38  51
ATOM     51  C   UNL A   1      48.814  26.127  27.113  1.00  0.00    -0.014 A 
ATOM     52  C   UNL A   1      49.358  26.319  25.833  1.00  0.00     0.009 A 
ATOM     53  C   UNL A   1      49.623  25.578  28.121  1.00  0.00     0.009 A 
ATOM     54  C   UNL A   1      50.668  25.926  25.557  1.00  0.00     0.001 A 
ATOM     55  C   UNL A   1      50.944  25.219  27.851  1.00  0.00     0.001 A 
ATOM     56  C   UNL A   1      51.461  25.380  26.566  1.00  0.00     0.000 A 
ENDBRANCH  38  51
ENDBRANCH  12  13
ENDBRANCH   5   7
ENDBRANCH   2   3
ENDBRANCH   1   2
BRANCH   1  57
ATOM     57  C   UNL A   1      32.723  29.786  26.065  1.00  0.00     0.117 C 
BRANCH  57  58
ATOM     58  N   UNL A   1      33.455  29.501  24.845  1.00  0.00    -0.354 N 
ATOM     59  C   UNL A   1      33.137  28.962  23.637  1.00  0.00     0.242 C 
ATOM     60  H   UNL A   1      34.403  29.760  24.904  1.00  0.00     0.163 HD
ATOM     61  O   UNL A   1      34.063  29.001  22.811  1.00  0.00    -0.273 OA
BRANCH  59  62
ATOM     62  C   UNL A   1      31.763  28.328  23.246  1.00  0.00     0.171 C 
ATOM     63  C   UNL A   1      30.505  29.108  23.638  1.00  0.00     0.035 C 
ATOM     64  N   UNL A   1      31.568  26.909  23.689  1.00  0.00    -0.354 N 
ATOM     65  C   UNL A   1      29.210  28.457  23.160  1.00  0.00     0.004 C 
ATOM     66  C   UNL A   1      30.379  26.243  23.142  1.00  0.00     0.117 C 
ATOM     67  C   UNL A   1      29.137  27.000  23.598  1.00  0.00     0.022 C 
BRANCH  64  68
ATOM     68  C   UNL A   1      32.637  26.126  24.107  1.00  0.00     0.116 A 
ATOM     69  C   UNL A   1      32.856  26.042  25.497  1.00  0.00     0.033 A 
ATOM     70  C   UNL A   1      33.497  25.354  23.299  1.00  0.00     0.292 A 
ATOM     71  C   UNL A   1      33.859  25.237  26.051  1.00  0.00     0.003 A 
ATOM     72  C   UNL A   1      34.500  24.528  23.848  1.00  0.00     0.088 A 
ATOM     73  C   UNL A   1      34.677  24.474  25.227  1.00  0.00     0.007 A 
BRANCH  70  74
ATOM     74  N   UNL A   1      33.411  25.368  21.844  1.00  0.00     0.064 N 
ATOM     75  O   UNL A   1      33.066  24.310  21.293  1.00  0.00    -0.258 OA
ATOM     76  O   UNL A   1      33.706  26.410  21.242  1.00  0.00    -0.258 OA
ENDBRANCH  70  74
ENDBRANCH  64  68
ENDBRANCH  59  62
ENDBRANCH  57  58
ENDBRANCH   1  57
TORSDOF 12
ENDMDL
MODEL 2
REMARK VINA RESULT:     -11.3      3.652      8.300
REMARK SMILES O=C(NCCCNC(=O)[C@@H]1CCCCN1c1ccccc1[N+](=O)[O-])c1ccc(-c2c3nc(c(-c4ccccc4)c4ccc([nH]4)c(-c4ccccc4)c4nc(c(-c5ccccc5)c5ccc2[nH]5)C=C4)C=C3)cc1
REMARK SMILES IDX 5 1 4 2 3 3 1 4 2 5 25 7 26 8 72 9 27 10 71 11 28 12 29 13
REMARK SMILES IDX 30 14 65 15 31 16 70 17 64 18 66 19 32 20 69 21 63 22 62 23
REMARK SMILES IDX 33 25 55 26 40 27 54 28 41 29 44 30 53 31 67 32 42 33 43 34
REMARK SMILES IDX 52 36 68 37 45 38 34 39 35 40 39 41 36 42 38 43 37 44 56 45
REMARK SMILES IDX 57 46 61 47 58 48 60 49 59 50 46 51 47 52 51 53 48 54 50 55
REMARK SMILES IDX 49 56 6 57 7 58 8 59 9 61 10 62 11 63 15 64 12 65 14 66
REMARK SMILES IDX 13 67 16 68 17 69 21 70 18 71 20 72 19 73 22 74 23 75 24 76
REMARK H PARENT 3 6 66 24 44 35 7 60
REMARK Flexibility Score: inf
ROOT
ATOM      1  C   UNL A   1      36.124  23.906  26.181  1.00  0.00     0.042 C 
ENDROOT
BRANCH   1   2
ATOM      2  C   UNL A   1      37.173  23.692  25.099  1.00  0.00     0.118 C 
BRANCH   2   3
ATOM      3  N   UNL A   1      38.189  22.723  25.508  1.00  0.00    -0.352 N 
ATOM      4  O   UNL A   1      40.229  22.005  26.139  1.00  0.00    -0.269 OA
ATOM      5  C   UNL A   1      39.405  22.911  26.119  1.00  0.00     0.251 C 
ATOM      6  H   UNL A   1      37.965  21.784  25.315  1.00  0.00     0.163 HD
BRANCH   5   7
ATOM      7  C   UNL A   1      39.713  24.207  26.756  1.00  0.00     0.039 A 
ATOM      8  C   UNL A   1      39.367  24.424  28.089  1.00  0.00     0.014 A 
ATOM      9  C   UNL A   1      40.382  25.200  26.034  1.00  0.00     0.014 A 
ATOM     10  C   UNL A   1      39.522  25.682  28.644  1.00  0.00     0.010 A 
ATOM     11  C   UNL A   1      40.659  26.430  26.640  1.00  0.00     0.010 A 
ATOM     12  C   UNL A   1      40.207  26.687  27.943  1.00  0.00    -0.014 A 
BRANCH  12  13
ATOM     13  C   UNL A   1      40.504  27.955  28.653  1.00  0.00     0.031 A 
ATOM     14  C   UNL A   1      39.481  29.045  28.775  1.00  0.00     0.074 A 
ATOM     15  C   UNL A   1      41.706  28.073  29.254  1.00  0.00     0.049 A 
ATOM     16  N   UNL A   1      39.570  30.181  29.422  1.00  0.00    -0.248 NA
ATOM     17  C   UNL A   1      38.198  28.847  28.084  1.00  0.00     0.031 C 
ATOM     18  C   UNL A   1      42.780  27.074  29.195  1.00  0.00     0.029 A 
ATOM     19  N   UNL A   1      42.215  29.056  30.061  1.00  0.00    -0.354 N 
ATOM     20  C   UNL A   1      38.362  30.834  29.210  1.00  0.00     0.074 A 
ATOM     21  C   UNL A   1      37.570  29.986  28.345  1.00  0.00     0.031 C 
ATOM     22  C   UNL A   1      43.787  27.462  29.989  1.00  0.00     0.029 A 
ATOM     23  C   UNL A   1      43.471  28.772  30.541  1.00  0.00     0.049 A 
ATOM     24  H   UNL A   1      41.730  29.885  30.275  1.00  0.00     0.167 HD
ATOM     25  C   UNL A   1      37.952  32.029  29.701  1.00  0.00     0.031 A 
ATOM     26  C   UNL A   1      44.294  29.494  31.320  1.00  0.00     0.031 A 
ATOM     27  C   UNL A   1      38.755  32.874  30.547  1.00  0.00     0.049 A 
ATOM     28  C   UNL A   1      43.829  30.835  31.803  1.00  0.00     0.074 A 
ATOM     29  C   UNL A   1      38.432  34.103  31.095  1.00  0.00     0.029 A 
ATOM     30  N   UNL A   1      40.043  32.576  30.968  1.00  0.00    -0.354 N 
ATOM     31  N   UNL A   1      42.675  31.426  31.610  1.00  0.00    -0.248 NA
ATOM     32  C   UNL A   1      44.778  31.606  32.613  1.00  0.00     0.031 C 
ATOM     33  C   UNL A   1      39.544  34.575  31.801  1.00  0.00     0.029 A 
ATOM     34  C   UNL A   1      40.536  33.608  31.751  1.00  0.00     0.049 A 
ATOM     35  H   UNL A   1      40.535  31.753  30.742  1.00  0.00     0.167 HD
ATOM     36  C   UNL A   1      42.754  32.634  32.289  1.00  0.00     0.074 A 
ATOM     37  C   UNL A   1      44.055  32.671  32.927  1.00  0.00     0.031 C 
ATOM     38  C   UNL A   1      41.835  33.627  32.372  1.00  0.00     0.031 A 
BRANCH  25  39
ATOM     39  C   UNL A   1      36.576  32.504  29.317  1.00  0.00    -0.014 A 
ATOM     40  C   UNL A   1      35.451  32.181  30.094  1.00  0.00     0.009 A 
ATOM     41  C   UNL A   1      36.408  33.328  28.193  1.00  0.00     0.009 A 
ATOM     42  C   UNL A   1      34.185  32.650  29.735  1.00  0.00     0.001 A 
ATOM     43  C   UNL A   1      35.145  33.820  27.854  1.00  0.00     0.001 A 
ATOM     44  C   UNL A   1      34.034  33.474  28.621  1.00  0.00     0.000 A 
ENDBRANCH  25  39
BRANCH  26  45
ATOM     45  C   UNL A   1      45.650  28.982  31.651  1.00  0.00    -0.014 A 
ATOM     46  C   UNL A   1      46.745  29.240  30.815  1.00  0.00     0.009 A 
ATOM     47  C   UNL A   1      45.850  28.215  32.811  1.00  0.00     0.009 A 
ATOM     48  C   UNL A   1      48.003  28.709  31.114  1.00  0.00     0.001 A 
ATOM     49  C   UNL A   1      47.114  27.720  33.129  1.00  0.00     0.001 A 
ATOM     50  C   UNL A   1      48.186  27.955  32.273  1.00  0.00     0.000 A 
ENDBRANCH  26  45
BRANCH  38  51
ATOM     51  C   UNL A   1      42.202  34.816  33.215  1.00  0.00    -0.014 A 
ATOM     52  C   UNL A   1      41.750  34.943  34.538  1.00  0.00     0.009 A 
ATOM     53  C   UNL A   1      43.018  35.822  32.674  1.00  0.00     0.009 A 
ATOM     54  C   UNL A   1      42.069  36.078  35.286  1.00  0.00     0.001 A 
ATOM     55  C   UNL A   1      43.365  36.938  33.437  1.00  0.00     0.001 A 
ATOM     56  C   UNL A   1      42.879  37.071  34.737  1.00  0.00     0.000 A 
ENDBRANCH  38  51
ENDBRANCH  12  13
ENDBRANCH   5   7
ENDBRANCH   2   3
ENDBRANCH   1   2
BRANCH   1  57
ATOM     57  C   UNL A   1      35.309  22.648  26.437  1.00  0.00     0.117 C 
BRANCH  57  58
ATOM     58  N   UNL A   1      34.000  22.946  26.987  1.00  0.00    -0.354 N 
ATOM     59  C   UNL A   1      32.772  23.204  26.461  1.00  0.00     0.242 C 
ATOM     60  H   UNL A   1      34.000  22.965  27.972  1.00  0.00     0.163 HD
ATOM     61  O   UNL A   1      31.873  23.302  27.311  1.00  0.00    -0.273 OA
BRANCH  59  62
ATOM     62  C   UNL A   1      32.440  23.382  24.944  1.00  0.00     0.171 C 
ATOM     63  C   UNL A   1      33.239  22.526  23.957  1.00  0.00     0.035 C 
ATOM     64  N   UNL A   1      32.477  24.796  24.445  1.00  0.00    -0.354 N 
ATOM     65  C   UNL A   1      32.808  22.707  22.504  1.00  0.00     0.004 C 
ATOM     66  C   UNL A   1      31.960  24.990  23.086  1.00  0.00     0.117 C 
ATOM     67  C   UNL A   1      32.810  24.179  22.114  1.00  0.00     0.022 C 
BRANCH  64  68
ATOM     68  C   UNL A   1      32.473  25.874  25.321  1.00  0.00     0.116 A 
ATOM     69  C   UNL A   1      33.716  26.485  25.581  1.00  0.00     0.033 A 
ATOM     70  C   UNL A   1      31.352  26.467  25.938  1.00  0.00     0.292 A 
ATOM     71  C   UNL A   1      33.839  27.619  26.394  1.00  0.00     0.003 A 
ATOM     72  C   UNL A   1      31.464  27.618  26.746  1.00  0.00     0.088 A 
ATOM     73  C   UNL A   1      32.712  28.190  26.971  1.00  0.00     0.007 A 
BRANCH  70  74
ATOM     74  N   UNL A   1      30.008  25.923  25.788  1.00  0.00     0.064 N 
ATOM     75  O   UNL A   1      29.377  26.261  24.773  1.00  0.00    -0.258 OA
ATOM     76  O   UNL A   1      29.564  25.184  26.679  1.00  0.00    -0.258 OA
ENDBRANCH  70  74
ENDBRANCH  64  68
ENDBRANCH  59  62
ENDBRANCH  57  58
ENDBRANCH   1  57
TORSDOF 12
ENDMDL
MODEL 3
REMARK VINA RESULT:     -11.3      3.393      8.111
REMARK SMILES O=C(NCCCNC(=O)[C@@H]1CCCCN1c1ccccc1[N+](=O)[O-])c1ccc(-c2c3nc(c(-c4ccccc4)c4ccc([nH]4)c(-c4ccccc4)c4nc(c(-c5ccccc5)c5ccc2[nH]5)C=C4)C=C3)cc1
REMARK SMILES IDX 5 1 4 2 3 3 1 4 2 5 25 7 26 8 72 9 27 10 71 11 28 12 29 13
REMARK SMILES IDX 30 14 65 15 31 16 70 17 64 18 66 19 32 20 69 21 63 22 62 23
REMARK SMILES IDX 33 25 55 26 40 27 54 28 41 29 44 30 53 31 67 32 42 33 43 34
REMARK SMILES IDX 52 36 68 37 45 38 34 39 35 40 39 41 36 42 38 43 37 44 56 45
REMARK SMILES IDX 57 46 61 47 58 48 60 49 59 50 46 51 47 52 51 53 48 54 50 55
REMARK SMILES IDX 49 56 6 57 7 58 8 59 9 61 10 62 11 63 15 64 12 65 14 66
REMARK SMILES IDX 13 67 16 68 17 69 21 70 18 71 20 72 19 73 22 74 23 75 24 76
REMARK H PARENT 3 6 66 24 44 35 7 60
REMARK Flexibility Score: inf
ROOT
ATOM      1  C   UNL A   1      35.980  23.974  26.098  1.00  0.00     0.042 C 
ENDROOT
BRANCH   1   2
ATOM      2  C   UNL A   1      37.037  23.717  25.034  1.00  0.00     0.118 C 
BRANCH   2   3
ATOM      3  N   UNL A   1      37.978  22.673  25.440  1.00  0.00    -0.352 N 
ATOM      4  O   UNL A   1      39.953  21.805  26.088  1.00  0.00    -0.269 OA
ATOM      5  C   UNL A   1      39.193  22.766  26.073  1.00  0.00     0.251 C 
ATOM      6  H   UNL A   1      37.694  21.755  25.224  1.00  0.00     0.163 HD
BRANCH   5   7
ATOM      7  C   UNL A   1      39.577  24.026  26.739  1.00  0.00     0.039 A 
ATOM      8  C   UNL A   1      39.325  24.196  28.100  1.00  0.00     0.014 A 
ATOM      9  C   UNL A   1      40.226  25.031  26.016  1.00  0.00     0.014 A 
ATOM     10  C   UNL A   1      39.550  25.425  28.694  1.00  0.00     0.010 A 
ATOM     11  C   UNL A   1      40.576  26.227  26.651  1.00  0.00     0.010 A 
ATOM     12  C   UNL A   1      40.216  26.441  27.990  1.00  0.00    -0.014 A 
BRANCH  12  13
ATOM     13  C   UNL A   1      40.595  27.670  28.730  1.00  0.00     0.031 A 
ATOM     14  C   UNL A   1      41.982  27.867  29.266  1.00  0.00     0.074 A 
ATOM     15  C   UNL A   1      39.670  28.645  28.846  1.00  0.00     0.049 A 
ATOM     16  N   UNL A   1      42.482  28.915  29.874  1.00  0.00    -0.248 NA
ATOM     17  C   UNL A   1      42.931  26.755  29.109  1.00  0.00     0.031 C 
ATOM     18  C   UNL A   1      38.286  28.556  28.365  1.00  0.00     0.029 A 
ATOM     19  N   UNL A   1      39.758  29.910  29.363  1.00  0.00    -0.354 N 
ATOM     20  C   UNL A   1      43.797  28.585  30.178  1.00  0.00     0.074 A 
ATOM     21  C   UNL A   1      44.008  27.229  29.722  1.00  0.00     0.031 C 
ATOM     22  C   UNL A   1      37.680  29.737  28.544  1.00  0.00     0.029 A 
ATOM     23  C   UNL A   1      38.598  30.635  29.231  1.00  0.00     0.049 A 
ATOM     24  H   UNL A   1      40.572  30.265  29.788  1.00  0.00     0.167 HD
ATOM     25  C   UNL A   1      44.741  29.351  30.776  1.00  0.00     0.031 A 
ATOM     26  C   UNL A   1      38.292  31.879  29.638  1.00  0.00     0.031 A 
ATOM     27  C   UNL A   1      44.515  30.695  31.243  1.00  0.00     0.049 A 
ATOM     28  C   UNL A   1      39.345  32.680  30.344  1.00  0.00     0.074 A 
ATOM     29  C   UNL A   1      45.405  31.554  31.864  1.00  0.00     0.029 A 
ATOM     30  N   UNL A   1      43.311  31.376  31.139  1.00  0.00    -0.354 N 
ATOM     31  N   UNL A   1      40.590  32.359  30.604  1.00  0.00    -0.248 NA
ATOM     32  C   UNL A   1      38.952  34.014  30.809  1.00  0.00     0.031 C 
ATOM     33  C   UNL A   1      44.725  32.734  32.186  1.00  0.00     0.029 A 
ATOM     34  C   UNL A   1      43.430  32.637  31.704  1.00  0.00     0.049 A 
ATOM     35  H   UNL A   1      42.493  31.016  30.727  1.00  0.00     0.167 HD
ATOM     36  C   UNL A   1      41.133  33.460  31.250  1.00  0.00     0.074 A 
ATOM     37  C   UNL A   1      40.093  34.467  31.308  1.00  0.00     0.031 C 
ATOM     38  C   UNL A   1      42.380  33.622  31.756  1.00  0.00     0.031 A 
BRANCH  25  39
ATOM     39  C   UNL A   1      46.104  28.744  30.980  1.00  0.00    -0.014 A 
ATOM     40  C   UNL A   1      47.115  28.887  30.016  1.00  0.00     0.009 A 
ATOM     41  C   UNL A   1      46.397  28.065  32.173  1.00  0.00     0.009 A 
ATOM     42  C   UNL A   1      48.381  28.337  30.232  1.00  0.00     0.001 A 
ATOM     43  C   UNL A   1      47.672  27.542  32.399  1.00  0.00     0.001 A 
ATOM     44  C   UNL A   1      48.661  27.672  31.425  1.00  0.00     0.000 A 
ENDBRANCH  25  39
BRANCH  26  45
ATOM     45  C   UNL A   1      36.924  32.419  29.427  1.00  0.00    -0.014 A 
ATOM     46  C   UNL A   1      36.596  33.125  28.260  1.00  0.00     0.009 A 
ATOM     47  C   UNL A   1      35.935  32.238  30.408  1.00  0.00     0.009 A 
ATOM     48  C   UNL A   1      35.319  33.669  28.099  1.00  0.00     0.001 A 
ATOM     49  C   UNL A   1      34.649  32.747  30.227  1.00  0.00     0.001 A 
ATOM     50  C   UNL A   1      34.347  33.475  29.079  1.00  0.00     0.000 A 
ENDBRANCH  26  45
BRANCH  38  51
ATOM     51  C   UNL A   1      42.686  34.953  32.382  1.00  0.00    -0.014 A 
ATOM     52  C   UNL A   1      43.350  35.963  31.667  1.00  0.00     0.009 A 
ATOM     53  C   UNL A   1      42.299  35.200  33.709  1.00  0.00     0.009 A 
ATOM     54  C   UNL A   1      43.661  37.176  32.284  1.00  0.00     0.001 A 
ATOM     55  C   UNL A   1      42.580  36.427  34.311  1.00  0.00     0.001 A 
ATOM     56  C   UNL A   1      43.273  37.408  33.603  1.00  0.00     0.000 A 
ENDBRANCH  38  51
ENDBRANCH  12  13
ENDBRANCH   5   7
ENDBRANCH   2   3
ENDBRANCH   1   2
BRANCH   1  57
ATOM     57  C   UNL A   1      35.276  22.693  26.519  1.00  0.00     0.117 C 
BRANCH  57  58
ATOM     58  N   UNL A   1      33.953  22.947  27.058  1.00  0.00    -0.354 N 
ATOM     59  C   UNL A   1      32.721  23.162  26.522  1.00  0.00     0.242 C 
ATOM     60  H   UNL A   1      33.944  22.967  28.043  1.00  0.00     0.163 HD
ATOM     61  O   UNL A   1      31.812  23.230  27.364  1.00  0.00    -0.273 OA
BRANCH  59  62
ATOM     62  C   UNL A   1      32.396  23.325  25.001  1.00  0.00     0.171 C 
ATOM     63  C   UNL A   1      33.200  22.460  24.026  1.00  0.00     0.035 C 
ATOM     64  N   UNL A   1      32.435  24.734  24.490  1.00  0.00    -0.354 N 
ATOM     65  C   UNL A   1      32.776  22.628  22.569  1.00  0.00     0.004 C 
ATOM     66  C   UNL A   1      31.924  24.916  23.126  1.00  0.00     0.117 C 
ATOM     67  C   UNL A   1      32.779  24.097  22.166  1.00  0.00     0.022 C 
BRANCH  64  68
ATOM     68  C   UNL A   1      32.426  25.821  25.356  1.00  0.00     0.116 A 
ATOM     69  C   UNL A   1      33.665  26.447  25.600  1.00  0.00     0.033 A 
ATOM     70  C   UNL A   1      31.304  26.408  25.975  1.00  0.00     0.292 A 
ATOM     71  C   UNL A   1      33.783  27.589  26.401  1.00  0.00     0.003 A 
ATOM     72  C   UNL A   1      31.411  27.568  26.772  1.00  0.00     0.088 A 
ATOM     73  C   UNL A   1      32.654  28.155  26.982  1.00  0.00     0.007 A 
BRANCH  70  74
ATOM     74  N   UNL A   1      29.965  25.849  25.842  1.00  0.00     0.064 N 
ATOM     75  O   UNL A   1      29.317  26.183  24.836  1.00  0.00    -0.258 OA
ATOM     76  O   UNL A   1      29.541  25.102  26.735  1.00  0.00    -0.258 OA
ENDBRANCH  70  74
ENDBRANCH  64  68
ENDBRANCH  59  62
ENDBRANCH  57  58
ENDBRANCH   1  57
TORSDOF 12
ENDMDL
