MODEL 1
REMARK VINA RESULT:     -11.7      0.000      0.000
REMARK SMILES C[C@@H]1[C@H](C(=O)NCCCNC(=O)c2ccc(-c3c4nc(c(-c5ccccc5)c5ccc([nH]5)c(-c5ccccc5)c5nc(c(-c6ccccc6)c6ccc3[nH]6)C=C5)C=C4)cc2)CCN1c1ccc(C(F)(F)F)cc1
REMARK SMILES IDX 8 1 7 2 6 3 4 4 5 5 3 7 1 8 2 9 63 10 61 11 62 12 64 13
REMARK SMILES IDX 65 14 73 15 66 16 72 17 67 18 68 19 69 20 70 21 71 22 9 23
REMARK SMILES IDX 10 24 11 25 12 27 13 28 14 29 60 30 15 31 59 32 16 33 17 34
REMARK SMILES IDX 18 35 53 36 19 37 58 38 52 39 54 40 20 41 57 42 51 43 50 44
REMARK SMILES IDX 21 46 43 47 28 48 42 49 29 50 32 51 41 52 55 53 30 54 31 55
REMARK SMILES IDX 40 57 56 58 33 59 22 60 23 61 27 62 24 63 26 64 25 65 44 66
REMARK SMILES IDX 45 67 49 68 46 69 48 70 47 71 34 72 35 73 39 74 36 75 38 76
REMARK SMILES IDX 37 77
REMARK H PARENT 6 6 10 26 54 45 32 56
REMARK Flexibility Score: inf
ROOT
ATOM      1  C   UNL A   1      37.183  19.768  24.818  1.00  0.00     0.042 C 
ENDROOT
BRANCH   1   2
ATOM      2  C   UNL A   1      35.890  20.557  25.013  1.00  0.00     0.117 C 
BRANCH   2   3
ATOM      3  N   UNL A   1      34.748  19.695  25.269  1.00  0.00    -0.356 N 
ATOM      4  C   UNL A   1      33.410  19.904  25.242  1.00  0.00     0.225 C 
ATOM      5  O   UNL A   1      32.702  18.953  25.595  1.00  0.00    -0.275 OA
ATOM      6  H   UNL A   1      34.997  18.773  25.510  1.00  0.00     0.163 HD
BRANCH   4   7
ATOM      7  C   UNL A   1      32.750  21.203  24.818  1.00  0.00     0.102 C 
ATOM      8  C   UNL A   1      33.476  22.214  27.124  1.00  0.00     0.032 C 
ATOM      9  C   UNL A   1      32.685  22.362  25.835  1.00  0.00     0.091 C 
ATOM     10  N   UNL A   1      33.102  23.544  25.049  1.00  0.00    -0.368 N 
ATOM     11  C   UNL A   1      33.249  21.795  23.498  1.00  0.00     0.037 C 
ATOM     12  C   UNL A   1      32.937  23.279  23.623  1.00  0.00     0.118 C 
BRANCH  10  13
ATOM     13  C   UNL A   1      32.841  24.811  25.545  1.00  0.00     0.037 A 
ATOM     14  C   UNL A   1      33.822  25.804  25.646  1.00  0.00     0.026 A 
ATOM     15  C   UNL A   1      31.543  25.139  25.958  1.00  0.00     0.026 A 
ATOM     16  C   UNL A   1      33.516  27.079  26.139  1.00  0.00     0.015 A 
ATOM     17  C   UNL A   1      31.227  26.411  26.448  1.00  0.00     0.015 A 
ATOM     18  C   UNL A   1      32.213  27.398  26.541  1.00  0.00     0.056 A 
BRANCH  18  19
ATOM     19  C   UNL A   1      31.897  28.773  27.072  1.00  0.00     0.416 C 
ATOM     20  F   UNL A   1      32.991  29.393  27.595  1.00  0.00    -0.166 F 
ATOM     21  F   UNL A   1      31.420  29.609  26.108  1.00  0.00    -0.166 F 
ATOM     22  F   UNL A   1      30.959  28.776  28.062  1.00  0.00    -0.166 F 
ENDBRANCH  18  19
ENDBRANCH  10  13
ENDBRANCH   4   7
ENDBRANCH   2   3
ENDBRANCH   1   2
BRANCH   1  23
ATOM     23  C   UNL A   1      38.408  20.354  25.507  1.00  0.00     0.118 C 
BRANCH  23  24
ATOM     24  N   UNL A   1      39.501  19.405  25.621  1.00  0.00    -0.352 N 
ATOM     25  C   UNL A   1      40.806  19.597  26.008  1.00  0.00     0.251 C 
ATOM     26  H   UNL A   1      39.272  18.479  25.383  1.00  0.00     0.163 HD
ATOM     27  O   UNL A   1      41.616  18.687  25.859  1.00  0.00    -0.269 OA
BRANCH  25  28
ATOM     28  C   UNL A   1      41.259  20.889  26.580  1.00  0.00     0.039 A 
ATOM     29  C   UNL A   1      41.788  21.855  25.716  1.00  0.00     0.014 A 
ATOM     30  C   UNL A   1      41.221  21.143  27.952  1.00  0.00     0.014 A 
ATOM     31  C   UNL A   1      42.220  23.086  26.220  1.00  0.00     0.010 A 
ATOM     32  C   UNL A   1      41.568  22.403  28.443  1.00  0.00     0.010 A 
ATOM     33  C   UNL A   1      42.088  23.383  27.585  1.00  0.00    -0.014 A 
BRANCH  33  34
ATOM     34  C   UNL A   1      42.515  24.696  28.139  1.00  0.00     0.031 A 
ATOM     35  C   UNL A   1      41.501  25.787  28.366  1.00  0.00     0.074 A 
ATOM     36  C   UNL A   1      43.817  24.932  28.390  1.00  0.00     0.049 A 
ATOM     37  N   UNL A   1      41.688  27.017  28.774  1.00  0.00    -0.248 NA
ATOM     38  C   UNL A   1      40.096  25.461  28.071  1.00  0.00     0.031 C 
ATOM     39  C   UNL A   1      44.909  23.979  28.186  1.00  0.00     0.029 A 
ATOM     40  N   UNL A   1      44.443  26.056  28.870  1.00  0.00    -0.354 N 
ATOM     41  C   UNL A   1      40.434  27.615  28.759  1.00  0.00     0.074 A 
ATOM     42  C   UNL A   1      39.501  26.629  28.260  1.00  0.00     0.031 C 
ATOM     43  C   UNL A   1      46.065  24.548  28.565  1.00  0.00     0.029 A 
ATOM     44  C   UNL A   1      45.802  25.915  29.002  1.00  0.00     0.049 A 
ATOM     45  H   UNL A   1      43.962  26.884  29.097  1.00  0.00     0.167 HD
ATOM     46  C   UNL A   1      40.081  28.865  29.144  1.00  0.00     0.031 A 
ATOM     47  C   UNL A   1      46.737  26.789  29.425  1.00  0.00     0.031 A 
ATOM     48  C   UNL A   1      40.996  29.842  29.668  1.00  0.00     0.049 A 
ATOM     49  C   UNL A   1      46.321  28.169  29.849  1.00  0.00     0.074 A 
ATOM     50  C   UNL A   1      40.722  31.115  30.138  1.00  0.00     0.029 A 
ATOM     51  N   UNL A   1      42.362  29.653  29.796  1.00  0.00    -0.354 N 
ATOM     52  N   UNL A   1      45.123  28.700  29.876  1.00  0.00    -0.248 NA
ATOM     53  C   UNL A   1      47.389  29.069  30.309  1.00  0.00     0.031 C 
ATOM     54  C   UNL A   1      41.931  31.711  30.516  1.00  0.00     0.029 A 
ATOM     55  C   UNL A   1      42.949  30.791  30.323  1.00  0.00     0.049 A 
ATOM     56  H   UNL A   1      42.845  28.831  29.548  1.00  0.00     0.167 HD
ATOM     57  C   UNL A   1      45.289  29.983  30.380  1.00  0.00     0.074 A 
ATOM     58  C   UNL A   1      46.701  30.147  30.657  1.00  0.00     0.031 C 
ATOM     59  C   UNL A   1      44.354  30.940  30.595  1.00  0.00     0.031 A 
BRANCH  46  60
ATOM     60  C   UNL A   1      38.634  29.246  29.009  1.00  0.00    -0.014 A 
ATOM     61  C   UNL A   1      37.753  29.156  30.099  1.00  0.00     0.009 A 
ATOM     62  C   UNL A   1      38.149  29.729  27.783  1.00  0.00     0.009 A 
ATOM     63  C   UNL A   1      36.410  29.504  29.954  1.00  0.00     0.001 A 
ATOM     64  C   UNL A   1      36.811  30.103  27.649  1.00  0.00     0.001 A 
ATOM     65  C   UNL A   1      35.940  29.981  28.731  1.00  0.00     0.000 A 
ENDBRANCH  46  60
BRANCH  47  66
ATOM     66  C   UNL A   1      48.163  26.377  29.491  1.00  0.00    -0.014 A 
ATOM     67  C   UNL A   1      49.008  26.574  28.389  1.00  0.00     0.009 A 
ATOM     68  C   UNL A   1      48.683  25.783  30.651  1.00  0.00     0.009 A 
ATOM     69  C   UNL A   1      50.341  26.161  28.437  1.00  0.00     0.001 A 
ATOM     70  C   UNL A   1      50.024  25.394  30.705  1.00  0.00     0.001 A 
ATOM     71  C   UNL A   1      50.848  25.576  29.597  1.00  0.00     0.000 A 
ENDBRANCH  47  66
BRANCH  59  72
ATOM     72  C   UNL A   1      44.823  32.237  31.189  1.00  0.00    -0.014 A 
ATOM     73  C   UNL A   1      44.879  32.422  32.578  1.00  0.00     0.009 A 
ATOM     74  C   UNL A   1      45.252  33.271  30.343  1.00  0.00     0.009 A 
ATOM     75  C   UNL A   1      45.328  33.633  33.109  1.00  0.00     0.001 A 
ATOM     76  C   UNL A   1      45.724  34.471  30.877  1.00  0.00     0.001 A 
ATOM     77  C   UNL A   1      45.754  34.653  32.259  1.00  0.00     0.000 A 
ENDBRANCH  59  72
ENDBRANCH  33  34
ENDBRANCH  25  28
ENDBRANCH  23  24
ENDBRANCH   1  23
TORSDOF 12
ENDMDL
MODEL 2
REMARK VINA RESULT:     -11.6      4.341      8.930
REMARK SMILES C[C@@H]1[C@H](C(=O)NCCCNC(=O)c2ccc(-c3c4nc(c(-c5ccccc5)c5ccc([nH]5)c(-c5ccccc5)c5nc(c(-c6ccccc6)c6ccc3[nH]6)C=C5)C=C4)cc2)CCN1c1ccc(C(F)(F)F)cc1
REMARK SMILES IDX 8 1 7 2 6 3 4 4 5 5 3 7 1 8 2 9 63 10 61 11 62 12 64 13
REMARK SMILES IDX 65 14 73 15 66 16 72 17 67 18 68 19 69 20 70 21 71 22 9 23
REMARK SMILES IDX 10 24 11 25 12 27 13 28 14 29 60 30 15 31 59 32 16 33 17 34
REMARK SMILES IDX 18 35 53 36 19 37 58 38 52 39 54 40 20 41 57 42 51 43 50 44
REMARK SMILES IDX 21 46 43 47 28 48 42 49 29 50 32 51 41 52 55 53 30 54 31 55
REMARK SMILES IDX 40 57 56 58 33 59 22 60 23 61 27 62 24 63 26 64 25 65 44 66
REMARK SMILES IDX 45 67 49 68 46 69 48 70 47 71 34 72 35 73 39 74 36 75 38 76
REMARK SMILES IDX 37 77
REMARK H PARENT 6 6 10 26 54 45 32 56
REMARK Flexibility Score: inf
ROOT
ATOM      1  C   UNL A   1      31.156  31.337  26.055  1.00  0.00     0.042 C 
ENDROOT
BRANCH   1   2
ATOM      2  C   UNL A   1      31.432  30.067  25.253  1.00  0.00     0.117 C 
BRANCH   2   3
ATOM      3  N   UNL A   1      30.833  30.106  23.928  1.00  0.00    -0.356 N 
ATOM      4  C   UNL A   1      30.572  29.150  23.006  1.00  0.00     0.225 C 
ATOM      5  O   UNL A   1      30.113  29.544  21.927  1.00  0.00    -0.275 OA
ATOM      6  H   UNL A   1      30.562  31.010  23.646  1.00  0.00     0.163 HD
BRANCH   4   7
ATOM      7  C   UNL A   1      30.804  27.665  23.215  1.00  0.00     0.102 C 
ATOM      8  C   UNL A   1      33.363  28.115  22.873  1.00  0.00     0.032 C 
ATOM      9  C   UNL A   1      32.233  27.111  23.034  1.00  0.00     0.091 C 
ATOM     10  N   UNL A   1      32.423  26.233  24.211  1.00  0.00    -0.368 N 
ATOM     11  C   UNL A   1      30.266  27.093  24.528  1.00  0.00     0.037 C 
ATOM     12  C   UNL A   1      31.125  25.860  24.768  1.00  0.00     0.118 C 
BRANCH  10  13
ATOM     13  C   UNL A   1      33.457  25.313  24.206  1.00  0.00     0.037 A 
ATOM     14  C   UNL A   1      34.342  25.159  25.279  1.00  0.00     0.026 A 
ATOM     15  C   UNL A   1      33.638  24.480  23.094  1.00  0.00     0.026 A 
ATOM     16  C   UNL A   1      35.367  24.206  25.245  1.00  0.00     0.015 A 
ATOM     17  C   UNL A   1      34.657  23.522  23.051  1.00  0.00     0.015 A 
ATOM     18  C   UNL A   1      35.534  23.373  24.131  1.00  0.00     0.056 A 
BRANCH  18  19
ATOM     19  C   UNL A   1      36.643  22.352  24.104  1.00  0.00     0.416 C 
ATOM     20  F   UNL A   1      37.173  22.193  22.859  1.00  0.00    -0.166 F 
ATOM     21  F   UNL A   1      37.685  22.691  24.913  1.00  0.00    -0.166 F 
ATOM     22  F   UNL A   1      36.252  21.109  24.503  1.00  0.00    -0.166 F 
ENDBRANCH  18  19
ENDBRANCH  10  13
ENDBRANCH   4   7
ENDBRANCH   2   3
ENDBRANCH   1   2
BRANCH   1  23
ATOM     23  C   UNL A   1      32.327  31.843  26.887  1.00  0.00     0.118 C 
BRANCH  23  24
ATOM     24  N   UNL A   1      32.171  33.227  27.297  1.00  0.00    -0.352 N 
ATOM     25  C   UNL A   1      32.954  34.001  28.121  1.00  0.00     0.251 C 
ATOM     26  H   UNL A   1      31.382  33.683  26.927  1.00  0.00     0.163 HD
ATOM     27  O   UNL A   1      32.540  35.100  28.482  1.00  0.00    -0.269 OA
BRANCH  25  28
ATOM     28  C   UNL A   1      34.274  33.526  28.602  1.00  0.00     0.039 A 
ATOM     29  C   UNL A   1      34.329  32.791  29.792  1.00  0.00     0.014 A 
ATOM     30  C   UNL A   1      35.459  33.835  27.931  1.00  0.00     0.014 A 
ATOM     31  C   UNL A   1      35.557  32.324  30.272  1.00  0.00     0.010 A 
ATOM     32  C   UNL A   1      36.671  33.293  28.361  1.00  0.00     0.010 A 
ATOM     33  C   UNL A   1      36.737  32.545  29.545  1.00  0.00    -0.014 A 
BRANCH  33  34
ATOM     34  C   UNL A   1      38.049  32.033  30.022  1.00  0.00     0.031 A 
ATOM     35  C   UNL A   1      38.581  30.719  29.508  1.00  0.00     0.074 A 
ATOM     36  C   UNL A   1      38.744  32.715  30.953  1.00  0.00     0.049 A 
ATOM     37  N   UNL A   1      39.667  30.075  29.854  1.00  0.00    -0.248 NA
ATOM     38  C   UNL A   1      37.772  30.027  28.492  1.00  0.00     0.031 C 
ATOM     39  C   UNL A   1      38.333  33.981  31.561  1.00  0.00     0.029 A 
ATOM     40  N   UNL A   1      39.945  32.432  31.555  1.00  0.00    -0.354 N 
ATOM     41  C   UNL A   1      39.656  28.895  29.120  1.00  0.00     0.074 A 
ATOM     42  C   UNL A   1      38.436  28.891  28.344  1.00  0.00     0.031 C 
ATOM     43  C   UNL A   1      39.279  34.380  32.427  1.00  0.00     0.029 A 
ATOM     44  C   UNL A   1      40.343  33.381  32.464  1.00  0.00     0.049 A 
ATOM     45  H   UNL A   1      40.470  31.624  31.354  1.00  0.00     0.167 HD
ATOM     46  C   UNL A   1      40.586  27.911  29.077  1.00  0.00     0.031 A 
ATOM     47  C   UNL A   1      41.439  33.442  33.244  1.00  0.00     0.031 A 
ATOM     48  C   UNL A   1      41.815  27.920  29.823  1.00  0.00     0.049 A 
ATOM     49  C   UNL A   1      42.457  32.339  33.177  1.00  0.00     0.074 A 
ATOM     50  C   UNL A   1      42.844  26.995  29.800  1.00  0.00     0.029 A 
ATOM     51  N   UNL A   1      42.183  28.907  30.722  1.00  0.00    -0.354 N 
ATOM     52  N   UNL A   1      42.455  31.256  32.439  1.00  0.00    -0.248 NA
ATOM     53  C   UNL A   1      43.635  32.472  34.047  1.00  0.00     0.031 C 
ATOM     54  C   UNL A   1      43.819  27.404  30.716  1.00  0.00     0.029 A 
ATOM     55  C   UNL A   1      43.417  28.607  31.273  1.00  0.00     0.049 A 
ATOM     56  H   UNL A   1      41.646  29.704  30.938  1.00  0.00     0.167 HD
ATOM     57  C   UNL A   1      43.639  30.595  32.734  1.00  0.00     0.074 A 
ATOM     58  C   UNL A   1      44.341  31.403  33.710  1.00  0.00     0.031 C 
ATOM     59  C   UNL A   1      44.104  29.421  32.240  1.00  0.00     0.031 A 
BRANCH  46  60
ATOM     60  C   UNL A   1      40.303  26.733  28.187  1.00  0.00    -0.014 A 
ATOM     61  C   UNL A   1      39.518  25.657  28.633  1.00  0.00     0.009 A 
ATOM     62  C   UNL A   1      40.804  26.711  26.876  1.00  0.00     0.009 A 
ATOM     63  C   UNL A   1      39.274  24.566  27.798  1.00  0.00     0.001 A 
ATOM     64  C   UNL A   1      40.534  25.631  26.033  1.00  0.00     0.001 A 
ATOM     65  C   UNL A   1      39.778  24.555  26.498  1.00  0.00     0.000 A 
ENDBRANCH  46  60
BRANCH  47  66
ATOM     66  C   UNL A   1      41.646  34.605  34.145  1.00  0.00    -0.014 A 
ATOM     67  C   UNL A   1      41.156  34.578  35.459  1.00  0.00     0.009 A 
ATOM     68  C   UNL A   1      42.328  35.746  33.696  1.00  0.00     0.009 A 
ATOM     69  C   UNL A   1      41.323  35.681  36.299  1.00  0.00     0.001 A 
ATOM     70  C   UNL A   1      42.515  36.838  34.547  1.00  0.00     0.001 A 
ATOM     71  C   UNL A   1      42.006  36.808  35.843  1.00  0.00     0.000 A 
ENDBRANCH  47  66
BRANCH  59  72
ATOM     72  C   UNL A   1      45.449  28.959  32.721  1.00  0.00    -0.014 A 
ATOM     73  C   UNL A   1      45.574  28.119  33.837  1.00  0.00     0.009 A 
ATOM     74  C   UNL A   1      46.604  29.339  32.019  1.00  0.00     0.009 A 
ATOM     75  C   UNL A   1      46.834  27.692  34.260  1.00  0.00     0.001 A 
ATOM     76  C   UNL A   1      47.861  28.890  32.429  1.00  0.00     0.001 A 
ATOM     77  C   UNL A   1      47.975  28.075  33.555  1.00  0.00     0.000 A 
ENDBRANCH  59  72
ENDBRANCH  33  34
ENDBRANCH  25  28
ENDBRANCH  23  24
ENDBRANCH   1  23
TORSDOF 12
ENDMDL
MODEL 3
REMARK VINA RESULT:     -11.6      0.290      5.952
REMARK SMILES C[C@@H]1[C@H](C(=O)NCCCNC(=O)c2ccc(-c3c4nc(c(-c5ccccc5)c5ccc([nH]5)c(-c5ccccc5)c5nc(c(-c6ccccc6)c6ccc3[nH]6)C=C5)C=C4)cc2)CCN1c1ccc(C(F)(F)F)cc1
REMARK SMILES IDX 8 1 7 2 6 3 4 4 5 5 3 7 1 8 2 9 63 10 61 11 62 12 64 13
REMARK SMILES IDX 65 14 73 15 66 16 72 17 67 18 68 19 69 20 70 21 71 22 9 23
REMARK SMILES IDX 10 24 11 25 12 27 13 28 14 29 60 30 15 31 59 32 16 33 17 34
REMARK SMILES IDX 18 35 53 36 19 37 58 38 52 39 54 40 20 41 57 42 51 43 50 44
REMARK SMILES IDX 21 46 43 47 28 48 42 49 29 50 32 51 41 52 55 53 30 54 31 55
REMARK SMILES IDX 40 57 56 58 33 59 22 60 23 61 27 62 24 63 26 64 25 65 44 66
REMARK SMILES IDX 45 67 49 68 46 69 48 70 47 71 34 72 35 73 39 74 36 75 38 76
REMARK SMILES IDX 37 77
REMARK H PARENT 6 6 10 26 54 45 32 56
REMARK Flexibility Score: inf
ROOT
ATOM      1  C   UNL A   1      37.257  19.539  24.912  1.00  0.00     0.042 C 
ENDROOT
BRANCH   1   2
ATOM      2  C   UNL A   1      35.972  20.356  25.020  1.00  0.00     0.117 C 
BRANCH   2   3
ATOM      3  N   UNL A   1      34.803  19.522  25.249  1.00  0.00    -0.356 N 
ATOM      4  C   UNL A   1      33.471  19.764  25.187  1.00  0.00     0.225 C 
ATOM      5  O   UNL A   1      32.732  18.830  25.524  1.00  0.00    -0.275 OA
ATOM      6  H   UNL A   1      35.023  18.596  25.499  1.00  0.00     0.163 HD
BRANCH   4   7
ATOM      7  C   UNL A   1      32.854  21.076  24.743  1.00  0.00     0.102 C 
ATOM      8  C   UNL A   1      33.434  22.041  27.109  1.00  0.00     0.032 C 
ATOM      9  C   UNL A   1      32.732  22.219  25.773  1.00  0.00     0.091 C 
ATOM     10  N   UNL A   1      33.213  23.410  25.038  1.00  0.00    -0.368 N 
ATOM     11  C   UNL A   1      33.445  21.684  23.469  1.00  0.00     0.037 C 
ATOM     12  C   UNL A   1      33.140  23.169  23.599  1.00  0.00     0.118 C 
BRANCH  10  13
ATOM     13  C   UNL A   1      32.932  24.670  25.538  1.00  0.00     0.037 A 
ATOM     14  C   UNL A   1      33.898  25.676  25.650  1.00  0.00     0.026 A 
ATOM     15  C   UNL A   1      31.627  24.979  25.944  1.00  0.00     0.026 A 
ATOM     16  C   UNL A   1      33.573  26.944  26.145  1.00  0.00     0.015 A 
ATOM     17  C   UNL A   1      31.291  26.244  26.437  1.00  0.00     0.015 A 
ATOM     18  C   UNL A   1      32.263  27.244  26.541  1.00  0.00     0.056 A 
BRANCH  18  19
ATOM     19  C   UNL A   1      31.924  28.613  27.075  1.00  0.00     0.416 C 
ATOM     20  F   UNL A   1      33.018  29.268  27.557  1.00  0.00    -0.166 F 
ATOM     21  F   UNL A   1      31.391  29.428  26.124  1.00  0.00    -0.166 F 
ATOM     22  F   UNL A   1      31.023  28.594  28.097  1.00  0.00    -0.166 F 
ENDBRANCH  18  19
ENDBRANCH  10  13
ENDBRANCH   4   7
ENDBRANCH   2   3
ENDBRANCH   1   2
BRANCH   1  23
ATOM     23  C   UNL A   1      38.518  20.253  25.381  1.00  0.00     0.118 C 
BRANCH  23  24
ATOM     24  N   UNL A   1      39.629  19.347  25.607  1.00  0.00    -0.352 N 
ATOM     25  C   UNL A   1      40.902  19.600  26.062  1.00  0.00     0.251 C 
ATOM     26  H   UNL A   1      39.443  18.403  25.403  1.00  0.00     0.163 HD
ATOM     27  O   UNL A   1      41.747  18.710  26.007  1.00  0.00    -0.269 OA
BRANCH  25  28
ATOM     28  C   UNL A   1      41.281  20.932  26.593  1.00  0.00     0.039 A 
ATOM     29  C   UNL A   1      41.833  21.872  25.715  1.00  0.00     0.014 A 
ATOM     30  C   UNL A   1      41.151  21.251  27.947  1.00  0.00     0.014 A 
ATOM     31  C   UNL A   1      42.198  23.139  26.182  1.00  0.00     0.010 A 
ATOM     32  C   UNL A   1      41.430  22.544  28.393  1.00  0.00     0.010 A 
ATOM     33  C   UNL A   1      41.972  23.498  27.519  1.00  0.00    -0.014 A 
BRANCH  33  34
ATOM     34  C   UNL A   1      42.325  24.849  28.031  1.00  0.00     0.031 A 
ATOM     35  C   UNL A   1      43.753  25.173  28.389  1.00  0.00     0.074 A 
ATOM     36  C   UNL A   1      41.363  25.771  28.226  1.00  0.00     0.049 A 
ATOM     37  N   UNL A   1      44.245  26.267  28.913  1.00  0.00    -0.248 NA
ATOM     38  C   UNL A   1      44.753  24.120  28.150  1.00  0.00     0.031 C 
ATOM     39  C   UNL A   1      39.937  25.582  27.954  1.00  0.00     0.029 A 
ATOM     40  N   UNL A   1      41.442  27.055  28.706  1.00  0.00    -0.354 N 
ATOM     41  C   UNL A   1      45.602  26.024  29.090  1.00  0.00     0.074 A 
ATOM     42  C   UNL A   1      45.847  24.665  28.660  1.00  0.00     0.031 C 
ATOM     43  C   UNL A   1      39.281  26.717  28.243  1.00  0.00     0.029 A 
ATOM     44  C   UNL A   1      40.230  27.700  28.755  1.00  0.00     0.049 A 
ATOM     45  H   UNL A   1      42.287  27.473  28.987  1.00  0.00     0.167 HD
ATOM     46  C   UNL A   1      46.565  26.859  29.550  1.00  0.00     0.031 A 
ATOM     47  C   UNL A   1      39.916  28.942  29.170  1.00  0.00     0.031 A 
ATOM     48  C   UNL A   1      46.335  28.220  29.953  1.00  0.00     0.049 A 
ATOM     49  C   UNL A   1      41.001  29.851  29.674  1.00  0.00     0.074 A 
ATOM     50  C   UNL A   1      47.257  29.161  30.377  1.00  0.00     0.029 A 
ATOM     51  N   UNL A   1      45.094  28.836  29.976  1.00  0.00    -0.354 N 
ATOM     52  N   UNL A   1      42.286  29.621  29.786  1.00  0.00    -0.248 NA
ATOM     53  C   UNL A   1      40.591  31.197  30.101  1.00  0.00     0.031 C 
ATOM     54  C   UNL A   1      46.568  30.336  30.694  1.00  0.00     0.029 A 
ATOM     55  C   UNL A   1      45.224  30.140  30.422  1.00  0.00     0.049 A 
ATOM     56  H   UNL A   1      44.246  28.409  29.713  1.00  0.00     0.167 HD
ATOM     57  C   UNL A   1      42.841  30.798  30.269  1.00  0.00     0.074 A 
ATOM     58  C   UNL A   1      41.755  31.745  30.418  1.00  0.00     0.031 C 
ATOM     59  C   UNL A   1      44.136  31.071  30.563  1.00  0.00     0.031 A 
BRANCH  46  60
ATOM     60  C   UNL A   1      47.963  26.316  29.642  1.00  0.00    -0.014 A 
ATOM     61  C   UNL A   1      48.428  25.700  30.815  1.00  0.00     0.009 A 
ATOM     62  C   UNL A   1      48.819  26.397  28.533  1.00  0.00     0.009 A 
ATOM     63  C   UNL A   1      49.732  25.210  30.888  1.00  0.00     0.001 A 
ATOM     64  C   UNL A   1      50.115  25.881  28.599  1.00  0.00     0.001 A 
ATOM     65  C   UNL A   1      50.573  25.297  29.780  1.00  0.00     0.000 A 
ENDBRANCH  46  60
BRANCH  47  66
ATOM     66  C   UNL A   1      38.508  29.413  29.106  1.00  0.00    -0.014 A 
ATOM     67  C   UNL A   1      38.015  30.013  27.937  1.00  0.00     0.009 A 
ATOM     68  C   UNL A   1      37.655  29.270  30.210  1.00  0.00     0.009 A 
ATOM     69  C   UNL A   1      36.702  30.483  27.884  1.00  0.00     0.001 A 
ATOM     70  C   UNL A   1      36.334  29.719  30.145  1.00  0.00     0.001 A 
ATOM     71  C   UNL A   1      35.861  30.331  28.986  1.00  0.00     0.000 A 
ENDBRANCH  47  66
BRANCH  59  72
ATOM     72  C   UNL A   1      44.453  32.458  31.042  1.00  0.00    -0.014 A 
ATOM     73  C   UNL A   1      44.545  32.751  32.411  1.00  0.00     0.009 A 
ATOM     74  C   UNL A   1      44.703  33.474  30.107  1.00  0.00     0.009 A 
ATOM     75  C   UNL A   1      44.853  34.046  32.834  1.00  0.00     0.001 A 
ATOM     76  C   UNL A   1      45.035  34.761  30.533  1.00  0.00     0.001 A 
ATOM     77  C   UNL A   1      45.102  35.047  31.896  1.00  0.00     0.000 A 
ENDBRANCH  59  72
ENDBRANCH  33  34
ENDBRANCH  25  28
ENDBRANCH  23  24
ENDBRANCH   1  23
TORSDOF 12
ENDMDL
