MODEL 1
REMARK VINA RESULT:     -11.3      0.000      0.000
REMARK SMILES O=C(NCCCNC(=O)[C@@H]1C[C@@H](O)CN1C(=O)c1ccccc1)c1ccc(-c2c3nc(c(-c4ccccc4)c4ccc([nH]4)c(-c4ccccc4)c4nc(c(-c5ccccc5)c5ccc2[nH]5)C=C4)C=C3)cc1
REMARK SMILES IDX 5 1 4 2 3 3 1 4 2 5 24 7 25 8 71 9 26 10 70 11 27 12 28 13
REMARK SMILES IDX 29 14 64 15 30 16 69 17 63 18 65 19 31 20 68 21 62 22 61 23
REMARK SMILES IDX 32 25 54 26 39 27 53 28 40 29 43 30 52 31 66 32 41 33 42 34
REMARK SMILES IDX 51 36 67 37 44 38 33 39 34 40 38 41 35 42 37 43 36 44 55 45
REMARK SMILES IDX 56 46 60 47 57 48 59 49 58 50 45 51 46 52 50 53 47 54 49 55
REMARK SMILES IDX 48 56 6 57 7 58 8 59 9 61 10 62 11 63 15 64 12 65 14 66
REMARK SMILES IDX 16 67 17 68 18 69 19 70 23 71 20 72 22 73 21 74 13 75
REMARK H PARENT 3 6 65 24 43 35 7 60 13 76
REMARK Flexibility Score: inf
ROOT
ATOM      1  C   UNL A   1      37.986  19.993  24.832  1.00  0.00     0.042 C 
ENDROOT
BRANCH   1   2
ATOM      2  C   UNL A   1      38.933  20.016  26.035  1.00  0.00     0.118 C 
BRANCH   2   3
ATOM      3  N   UNL A   1      40.149  19.249  25.822  1.00  0.00    -0.352 N 
ATOM      4  O   UNL A   1      42.356  18.860  25.626  1.00  0.00    -0.269 OA
ATOM      5  C   UNL A   1      41.461  19.621  25.987  1.00  0.00     0.251 C 
ATOM      6  H   UNL A   1      40.012  18.325  25.512  1.00  0.00     0.163 HD
BRANCH   5   7
ATOM      7  C   UNL A   1      41.809  20.939  26.565  1.00  0.00     0.039 A 
ATOM      8  C   UNL A   1      41.806  21.157  27.944  1.00  0.00     0.014 A 
ATOM      9  C   UNL A   1      42.189  21.968  25.697  1.00  0.00     0.014 A 
ATOM     10  C   UNL A   1      42.066  22.431  28.447  1.00  0.00     0.010 A 
ATOM     11  C   UNL A   1      42.508  23.230  26.207  1.00  0.00     0.010 A 
ATOM     12  C   UNL A   1      42.419  23.481  27.584  1.00  0.00    -0.014 A 
BRANCH  12  13
ATOM     13  C   UNL A   1      42.721  24.828  28.134  1.00  0.00     0.031 A 
ATOM     14  C   UNL A   1      44.125  25.211  28.513  1.00  0.00     0.074 A 
ATOM     15  C   UNL A   1      41.721  25.718  28.286  1.00  0.00     0.049 A 
ATOM     16  N   UNL A   1      44.568  26.345  28.996  1.00  0.00    -0.248 NA
ATOM     17  C   UNL A   1      45.166  24.188  28.333  1.00  0.00     0.031 C 
ATOM     18  C   UNL A   1      40.314  25.472  27.964  1.00  0.00     0.029 A 
ATOM     19  N   UNL A   1      41.737  27.011  28.744  1.00  0.00    -0.354 N 
ATOM     20  C   UNL A   1      45.932  26.169  29.192  1.00  0.00     0.074 A 
ATOM     21  C   UNL A   1      46.241  24.810  28.801  1.00  0.00     0.031 C 
ATOM     22  C   UNL A   1      39.608  26.588  28.202  1.00  0.00     0.029 A 
ATOM     23  C   UNL A   1      40.501  27.609  28.739  1.00  0.00     0.049 A 
ATOM     24  H   UNL A   1      42.556  27.467  29.046  1.00  0.00     0.167 HD
ATOM     25  C   UNL A   1      46.847  27.058  29.649  1.00  0.00     0.031 A 
ATOM     26  C   UNL A   1      40.122  28.839  29.132  1.00  0.00     0.031 A 
ATOM     27  C   UNL A   1      46.545  28.410  30.043  1.00  0.00     0.049 A 
ATOM     28  C   UNL A   1      41.149  29.794  29.668  1.00  0.00     0.074 A 
ATOM     29  C   UNL A   1      47.414  29.394  30.483  1.00  0.00     0.029 A 
ATOM     30  N   UNL A   1      45.276  28.965  30.050  1.00  0.00    -0.354 N 
ATOM     31  N   UNL A   1      42.441  29.623  29.804  1.00  0.00    -0.248 NA
ATOM     32  C   UNL A   1      40.663  31.111  30.102  1.00  0.00     0.031 C 
ATOM     33  C   UNL A   1      46.663  30.530  30.803  1.00  0.00     0.029 A 
ATOM     34  C   UNL A   1      45.334  30.271  30.513  1.00  0.00     0.049 A 
ATOM     35  H   UNL A   1      44.454  28.502  29.768  1.00  0.00     0.167 HD
ATOM     36  C   UNL A   1      42.926  30.817  30.321  1.00  0.00     0.074 A 
ATOM     37  C   UNL A   1      41.792  31.708  30.457  1.00  0.00     0.031 C 
ATOM     38  C   UNL A   1      44.199  31.145  30.651  1.00  0.00     0.031 A 
BRANCH  25  39
ATOM     39  C   UNL A   1      48.269  26.586  29.774  1.00  0.00    -0.014 A 
ATOM     40  C   UNL A   1      48.721  25.933  30.932  1.00  0.00     0.009 A 
ATOM     41  C   UNL A   1      49.157  26.759  28.701  1.00  0.00     0.009 A 
ATOM     42  C   UNL A   1      50.044  25.492  31.023  1.00  0.00     0.001 A 
ATOM     43  C   UNL A   1      50.471  26.296  28.786  1.00  0.00     0.001 A 
ATOM     44  C   UNL A   1      50.916  25.670  29.949  1.00  0.00     0.000 A 
ENDBRANCH  25  39
BRANCH  26  45
ATOM     45  C   UNL A   1      38.694  29.234  29.033  1.00  0.00    -0.014 A 
ATOM     46  C   UNL A   1      38.171  29.726  27.829  1.00  0.00     0.009 A 
ATOM     47  C   UNL A   1      37.844  29.107  30.143  1.00  0.00     0.009 A 
ATOM     48  C   UNL A   1      36.828  30.098  27.741  1.00  0.00     0.001 A 
ATOM     49  C   UNL A   1      36.496  29.453  30.045  1.00  0.00     0.001 A 
ATOM     50  C   UNL A   1      35.991  29.955  28.847  1.00  0.00     0.000 A 
ENDBRANCH  26  45
BRANCH  38  51
ATOM     51  C   UNL A   1      44.435  32.535  31.166  1.00  0.00    -0.014 A 
ATOM     52  C   UNL A   1      44.383  32.821  32.540  1.00  0.00     0.009 A 
ATOM     53  C   UNL A   1      44.746  33.567  30.268  1.00  0.00     0.009 A 
ATOM     54  C   UNL A   1      44.606  34.120  32.999  1.00  0.00     0.001 A 
ATOM     55  C   UNL A   1      44.993  34.860  30.731  1.00  0.00     0.001 A 
ATOM     56  C   UNL A   1      44.915  35.137  32.095  1.00  0.00     0.000 A 
ENDBRANCH  38  51
ENDBRANCH  12  13
ENDBRANCH   5   7
ENDBRANCH   2   3
ENDBRANCH   1   2
BRANCH   1  57
ATOM     57  C   UNL A   1      37.359  21.349  24.491  1.00  0.00     0.117 C 
BRANCH  57  58
ATOM     58  N   UNL A   1      36.307  21.675  25.431  1.00  0.00    -0.354 N 
ATOM     59  C   UNL A   1      35.101  22.281  25.244  1.00  0.00     0.242 C 
ATOM     60  H   UNL A   1      36.494  21.413  26.362  1.00  0.00     0.163 HD
ATOM     61  O   UNL A   1      34.637  22.870  26.226  1.00  0.00    -0.273 OA
BRANCH  59  62
ATOM     62  C   UNL A   1      34.349  22.173  23.890  1.00  0.00     0.177 C 
ATOM     63  C   UNL A   1      34.405  23.457  23.051  1.00  0.00     0.069 C 
ATOM     64  N   UNL A   1      32.911  21.980  24.144  1.00  0.00    -0.324 N 
ATOM     65  C   UNL A   1      32.977  23.651  22.551  1.00  0.00     0.136 C 
ATOM     66  C   UNL A   1      32.134  23.129  23.707  1.00  0.00     0.152 C 
BRANCH  64  67
ATOM     67  C   UNL A   1      32.437  20.811  24.704  1.00  0.00     0.254 C 
ATOM     68  O   UNL A   1      31.603  20.780  25.603  1.00  0.00    -0.269 OA
BRANCH  67  69
ATOM     69  C   UNL A   1      32.923  19.541  24.131  1.00  0.00     0.040 A 
ATOM     70  C   UNL A   1      32.276  19.032  23.001  1.00  0.00     0.014 A 
ATOM     71  C   UNL A   1      33.988  18.854  24.718  1.00  0.00     0.014 A 
ATOM     72  C   UNL A   1      32.712  17.830  22.443  1.00  0.00     0.001 A 
ATOM     73  C   UNL A   1      34.425  17.657  24.149  1.00  0.00     0.001 A 
ATOM     74  C   UNL A   1      33.788  17.146  23.014  1.00  0.00     0.000 A 
ENDBRANCH  67  69
ENDBRANCH  64  67
BRANCH  65  75
ATOM     75  O   UNL A   1      32.773  22.852  21.382  1.00  0.00    -0.391 OA
ATOM     76  H   UNL A   1      31.870  22.497  21.386  1.00  0.00     0.211 HD
ENDBRANCH  65  75
ENDBRANCH  59  62
ENDBRANCH  57  58
ENDBRANCH   1  57
TORSDOF 13
ENDMDL
MODEL 2
REMARK VINA RESULT:     -11.2      0.466      6.124
REMARK SMILES O=C(NCCCNC(=O)[C@@H]1C[C@@H](O)CN1C(=O)c1ccccc1)c1ccc(-c2c3nc(c(-c4ccccc4)c4ccc([nH]4)c(-c4ccccc4)c4nc(c(-c5ccccc5)c5ccc2[nH]5)C=C4)C=C3)cc1
REMARK SMILES IDX 5 1 4 2 3 3 1 4 2 5 24 7 25 8 71 9 26 10 70 11 27 12 28 13
REMARK SMILES IDX 29 14 64 15 30 16 69 17 63 18 65 19 31 20 68 21 62 22 61 23
REMARK SMILES IDX 32 25 54 26 39 27 53 28 40 29 43 30 52 31 66 32 41 33 42 34
REMARK SMILES IDX 51 36 67 37 44 38 33 39 34 40 38 41 35 42 37 43 36 44 55 45
REMARK SMILES IDX 56 46 60 47 57 48 59 49 58 50 45 51 46 52 50 53 47 54 49 55
REMARK SMILES IDX 48 56 6 57 7 58 8 59 9 61 10 62 11 63 15 64 12 65 14 66
REMARK SMILES IDX 16 67 17 68 18 69 19 70 23 71 20 72 22 73 21 74 13 75
REMARK H PARENT 3 6 65 24 43 35 7 60 13 76
REMARK Flexibility Score: inf
ROOT
ATOM      1  C   UNL A   1      37.776  20.012  24.595  1.00  0.00     0.042 C 
ENDROOT
BRANCH   1   2
ATOM      2  C   UNL A   1      38.710  20.225  25.790  1.00  0.00     0.118 C 
BRANCH   2   3
ATOM      3  N   UNL A   1      39.850  19.323  25.792  1.00  0.00    -0.352 N 
ATOM      4  O   UNL A   1      42.006  18.695  25.925  1.00  0.00    -0.269 OA
ATOM      5  C   UNL A   1      41.163  19.569  26.112  1.00  0.00     0.251 C 
ATOM      6  H   UNL A   1      39.651  18.397  25.525  1.00  0.00     0.163 HD
BRANCH   5   7
ATOM      7  C   UNL A   1      41.579  20.885  26.648  1.00  0.00     0.039 A 
ATOM      8  C   UNL A   1      41.564  21.155  28.018  1.00  0.00     0.014 A 
ATOM      9  C   UNL A   1      42.036  21.857  25.751  1.00  0.00     0.014 A 
ATOM     10  C   UNL A   1      41.891  22.430  28.479  1.00  0.00     0.010 A 
ATOM     11  C   UNL A   1      42.421  23.115  26.221  1.00  0.00     0.010 A 
ATOM     12  C   UNL A   1      42.322  23.423  27.586  1.00  0.00    -0.014 A 
BRANCH  12  13
ATOM     13  C   UNL A   1      42.695  24.770  28.092  1.00  0.00     0.031 A 
ATOM     14  C   UNL A   1      41.649  25.828  28.317  1.00  0.00     0.074 A 
ATOM     15  C   UNL A   1      43.987  25.040  28.359  1.00  0.00     0.049 A 
ATOM     16  N   UNL A   1      41.797  27.050  28.763  1.00  0.00    -0.248 NA
ATOM     17  C   UNL A   1      40.260  25.471  27.994  1.00  0.00     0.031 C 
ATOM     18  C   UNL A   1      45.100  24.106  28.177  1.00  0.00     0.029 A 
ATOM     19  N   UNL A   1      44.581  26.177  28.845  1.00  0.00    -0.354 N 
ATOM     20  C   UNL A   1      40.527  27.613  28.761  1.00  0.00     0.074 A 
ATOM     21  C   UNL A   1      39.623  26.608  28.243  1.00  0.00     0.031 C 
ATOM     22  C   UNL A   1      46.236  24.695  28.580  1.00  0.00     0.029 A 
ATOM     23  C   UNL A   1      45.941  26.061  28.999  1.00  0.00     0.049 A 
ATOM     24  H   UNL A   1      44.081  26.996  29.065  1.00  0.00     0.167 HD
ATOM     25  C   UNL A   1      40.144  28.851  29.159  1.00  0.00     0.031 A 
ATOM     26  C   UNL A   1      46.853  26.956  29.420  1.00  0.00     0.031 A 
ATOM     27  C   UNL A   1      41.040  29.855  29.672  1.00  0.00     0.049 A 
ATOM     28  C   UNL A   1      46.409  28.332  29.822  1.00  0.00     0.074 A 
ATOM     29  C   UNL A   1      40.736  31.125  30.135  1.00  0.00     0.029 A 
ATOM     30  N   UNL A   1      42.412  29.707  29.783  1.00  0.00    -0.354 N 
ATOM     31  N   UNL A   1      45.198  28.831  29.854  1.00  0.00    -0.248 NA
ATOM     32  C   UNL A   1      47.460  29.267  30.248  1.00  0.00     0.031 C 
ATOM     33  C   UNL A   1      41.932  31.762  30.480  1.00  0.00     0.029 A 
ATOM     34  C   UNL A   1      42.975  30.872  30.282  1.00  0.00     0.049 A 
ATOM     35  H   UNL A   1      42.916  28.895  29.543  1.00  0.00     0.167 HD
ATOM     36  C   UNL A   1      45.337  30.130  30.322  1.00  0.00     0.074 A 
ATOM     37  C   UNL A   1      46.749  30.337  30.576  1.00  0.00     0.031 C 
ATOM     38  C   UNL A   1      44.380  31.068  30.524  1.00  0.00     0.031 A 
BRANCH  25  39
ATOM     39  C   UNL A   1      38.688  29.200  29.032  1.00  0.00    -0.014 A 
ATOM     40  C   UNL A   1      37.805  29.043  30.113  1.00  0.00     0.009 A 
ATOM     41  C   UNL A   1      38.202  29.734  27.829  1.00  0.00     0.009 A 
ATOM     42  C   UNL A   1      36.456  29.384  29.978  1.00  0.00     0.001 A 
ATOM     43  C   UNL A   1      36.859  30.097  27.706  1.00  0.00     0.001 A 
ATOM     44  C   UNL A   1      35.986  29.914  28.777  1.00  0.00     0.000 A 
ENDBRANCH  25  39
BRANCH  26  45
ATOM     45  C   UNL A   1      48.287  26.572  29.477  1.00  0.00    -0.014 A 
ATOM     46  C   UNL A   1      48.820  25.976  30.629  1.00  0.00     0.009 A 
ATOM     47  C   UNL A   1      49.125  26.788  28.372  1.00  0.00     0.009 A 
ATOM     48  C   UNL A   1      50.169  25.618  30.680  1.00  0.00     0.001 A 
ATOM     49  C   UNL A   1      50.465  26.404  28.415  1.00  0.00     0.001 A 
ATOM     50  C   UNL A   1      50.988  25.826  29.571  1.00  0.00     0.000 A 
ENDBRANCH  26  45
BRANCH  38  51
ATOM     51  C   UNL A   1      44.825  32.393  31.071  1.00  0.00    -0.014 A 
ATOM     52  C   UNL A   1      45.173  33.453  30.219  1.00  0.00     0.009 A 
ATOM     53  C   UNL A   1      44.867  32.594  32.459  1.00  0.00     0.009 A 
ATOM     54  C   UNL A   1      45.584  34.678  30.747  1.00  0.00     0.001 A 
ATOM     55  C   UNL A   1      45.255  33.828  32.985  1.00  0.00     0.001 A 
ATOM     56  C   UNL A   1      45.621  34.866  32.129  1.00  0.00     0.000 A 
ENDBRANCH  38  51
ENDBRANCH  12  13
ENDBRANCH   5   7
ENDBRANCH   2   3
ENDBRANCH   1   2
BRANCH   1  57
ATOM     57  C   UNL A   1      36.319  19.724  24.971  1.00  0.00     0.117 C 
BRANCH  57  58
ATOM     58  N   UNL A   1      35.762  20.824  25.731  1.00  0.00    -0.354 N 
ATOM     59  C   UNL A   1      35.150  21.971  25.321  1.00  0.00     0.242 C 
ATOM     60  H   UNL A   1      35.837  20.727  26.708  1.00  0.00     0.163 HD
ATOM     61  O   UNL A   1      35.221  22.927  26.100  1.00  0.00    -0.273 OA
BRANCH  59  62
ATOM     62  C   UNL A   1      34.366  22.028  23.982  1.00  0.00     0.177 C 
ATOM     63  C   UNL A   1      34.692  23.264  23.132  1.00  0.00     0.069 C 
ATOM     64  N   UNL A   1      32.927  22.162  24.264  1.00  0.00    -0.324 N 
ATOM     65  C   UNL A   1      33.333  23.770  22.655  1.00  0.00     0.136 C 
ATOM     66  C   UNL A   1      32.418  23.455  23.831  1.00  0.00     0.152 C 
BRANCH  64  67
ATOM     67  C   UNL A   1      32.215  21.132  24.842  1.00  0.00     0.254 C 
ATOM     68  O   UNL A   1      31.366  21.299  25.711  1.00  0.00    -0.269 OA
BRANCH  67  69
ATOM     69  C   UNL A   1      32.455  19.770  24.325  1.00  0.00     0.040 A 
ATOM     70  C   UNL A   1      32.883  18.785  25.222  1.00  0.00     0.014 A 
ATOM     71  C   UNL A   1      32.282  19.479  22.971  1.00  0.00     0.014 A 
ATOM     72  C   UNL A   1      33.123  17.492  24.758  1.00  0.00     0.001 A 
ATOM     73  C   UNL A   1      32.515  18.181  22.516  1.00  0.00     0.001 A 
ATOM     74  C   UNL A   1      32.935  17.189  23.408  1.00  0.00     0.000 A 
ENDBRANCH  67  69
ENDBRANCH  64  67
BRANCH  65  75
ATOM     75  O   UNL A   1      32.933  23.032  21.497  1.00  0.00    -0.391 OA
ATOM     76  H   UNL A   1      32.931  23.619  20.725  1.00  0.00     0.211 HD
ENDBRANCH  65  75
ENDBRANCH  59  62
ENDBRANCH  57  58
ENDBRANCH   1  57
TORSDOF 13
ENDMDL
MODEL 3
REMARK VINA RESULT:     -11.0      4.723      9.730
REMARK SMILES O=C(NCCCNC(=O)[C@@H]1C[C@@H](O)CN1C(=O)c1ccccc1)c1ccc(-c2c3nc(c(-c4ccccc4)c4ccc([nH]4)c(-c4ccccc4)c4nc(c(-c5ccccc5)c5ccc2[nH]5)C=C4)C=C3)cc1
REMARK SMILES IDX 5 1 4 2 3 3 1 4 2 5 24 7 25 8 71 9 26 10 70 11 27 12 28 13
REMARK SMILES IDX 29 14 64 15 30 16 69 17 63 18 65 19 31 20 68 21 62 22 61 23
REMARK SMILES IDX 32 25 54 26 39 27 53 28 40 29 43 30 52 31 66 32 41 33 42 34
REMARK SMILES IDX 51 36 67 37 44 38 33 39 34 40 38 41 35 42 37 43 36 44 55 45
REMARK SMILES IDX 56 46 60 47 57 48 59 49 58 50 45 51 46 52 50 53 47 54 49 55
REMARK SMILES IDX 48 56 6 57 7 58 8 59 9 61 10 62 11 63 15 64 12 65 14 66
REMARK SMILES IDX 16 67 17 68 18 69 19 70 23 71 20 72 22 73 21 74 13 75
REMARK H PARENT 3 6 65 24 43 35 7 60 13 76
REMARK Flexibility Score: inf
ROOT
ATOM      1  C   UNL A   1      31.400  32.174  26.517  1.00  0.00     0.042 C 
ENDROOT
BRANCH   1   2
ATOM      2  C   UNL A   1      32.688  32.871  26.964  1.00  0.00     0.118 C 
BRANCH   2   3
ATOM      3  N   UNL A   1      32.449  34.126  27.657  1.00  0.00    -0.352 N 
ATOM      4  O   UNL A   1      32.703  35.718  29.226  1.00  0.00    -0.269 OA
ATOM      5  C   UNL A   1      33.146  34.706  28.689  1.00  0.00     0.251 C 
ATOM      6  H   UNL A   1      31.670  34.637  27.340  1.00  0.00     0.163 HD
BRANCH   5   7
ATOM      7  C   UNL A   1      34.408  34.108  29.181  1.00  0.00     0.039 A 
ATOM      8  C   UNL A   1      35.637  34.392  28.578  1.00  0.00     0.014 A 
ATOM      9  C   UNL A   1      34.359  33.275  30.303  1.00  0.00     0.014 A 
ATOM     10  C   UNL A   1      36.793  33.752  29.022  1.00  0.00     0.010 A 
ATOM     11  C   UNL A   1      35.528  32.680  30.785  1.00  0.00     0.010 A 
ATOM     12  C   UNL A   1      36.751  32.889  30.129  1.00  0.00    -0.014 A 
BRANCH  12  13
ATOM     13  C   UNL A   1      37.995  32.234  30.611  1.00  0.00     0.031 A 
ATOM     14  C   UNL A   1      38.774  32.807  31.762  1.00  0.00     0.074 A 
ATOM     15  C   UNL A   1      38.424  31.108  30.009  1.00  0.00     0.049 A 
ATOM     16  N   UNL A   1      39.873  32.360  32.318  1.00  0.00    -0.248 NA
ATOM     17  C   UNL A   1      38.258  34.045  32.366  1.00  0.00     0.031 C 
ATOM     18  C   UNL A   1      37.765  30.452  28.876  1.00  0.00     0.029 A 
ATOM     19  N   UNL A   1      39.510  30.312  30.270  1.00  0.00    -0.354 N 
ATOM     20  C   UNL A   1      40.188  33.265  33.323  1.00  0.00     0.074 A 
ATOM     21  C   UNL A   1      39.180  34.303  33.284  1.00  0.00     0.031 C 
ATOM     22  C   UNL A   1      38.442  29.336  28.563  1.00  0.00     0.029 A 
ATOM     23  C   UNL A   1      39.606  29.225  29.436  1.00  0.00     0.049 A 
ATOM     24  H   UNL A   1      40.158  30.500  30.987  1.00  0.00     0.167 HD
ATOM     25  C   UNL A   1      41.218  33.235  34.203  1.00  0.00     0.031 A 
ATOM     26  C   UNL A   1      40.532  28.251  29.370  1.00  0.00     0.031 A 
ATOM     27  C   UNL A   1      42.226  32.206  34.243  1.00  0.00     0.049 A 
ATOM     28  C   UNL A   1      41.682  28.258  30.333  1.00  0.00     0.074 A 
ATOM     29  C   UNL A   1      43.286  32.073  35.124  1.00  0.00     0.029 A 
ATOM     30  N   UNL A   1      42.302  31.140  33.362  1.00  0.00    -0.354 N 
ATOM     31  N   UNL A   1      41.939  29.099  31.305  1.00  0.00    -0.248 NA
ATOM     32  C   UNL A   1      42.670  27.179  30.191  1.00  0.00     0.031 C 
ATOM     33  C   UNL A   1      44.032  30.952  34.745  1.00  0.00     0.029 A 
ATOM     34  C   UNL A   1      43.407  30.358  33.661  1.00  0.00     0.049 A 
ATOM     35  H   UNL A   1      41.666  30.963  32.631  1.00  0.00     0.167 HD
ATOM     36  C   UNL A   1      43.105  28.641  31.902  1.00  0.00     0.074 A 
ATOM     37  C   UNL A   1      43.496  27.439  31.194  1.00  0.00     0.031 C 
ATOM     38  C   UNL A   1      43.790  29.169  32.946  1.00  0.00     0.031 A 
BRANCH  25  39
ATOM     39  C   UNL A   1      41.323  34.366  35.186  1.00  0.00    -0.014 A 
ATOM     40  C   UNL A   1      42.064  35.522  34.890  1.00  0.00     0.009 A 
ATOM     41  C   UNL A   1      40.637  34.295  36.408  1.00  0.00     0.009 A 
ATOM     42  C   UNL A   1      42.140  36.568  35.813  1.00  0.00     0.001 A 
ATOM     43  C   UNL A   1      40.695  35.352  37.318  1.00  0.00     0.001 A 
ATOM     44  C   UNL A   1      41.453  36.484  37.023  1.00  0.00     0.000 A 
ENDBRANCH  25  39
BRANCH  26  45
ATOM     45  C   UNL A   1      40.404  27.184  28.345  1.00  0.00    -0.014 A 
ATOM     46  C   UNL A   1      39.690  26.009  28.622  1.00  0.00     0.009 A 
ATOM     47  C   UNL A   1      40.986  27.344  27.077  1.00  0.00     0.009 A 
ATOM     48  C   UNL A   1      39.575  25.008  27.655  1.00  0.00     0.001 A 
ATOM     49  C   UNL A   1      40.845  26.355  26.104  1.00  0.00     0.001 A 
ATOM     50  C   UNL A   1      40.146  25.185  26.396  1.00  0.00     0.000 A 
ENDBRANCH  26  45
BRANCH  38  51
ATOM     51  C   UNL A   1      45.018  28.434  33.401  1.00  0.00    -0.014 A 
ATOM     52  C   UNL A   1      46.287  28.750  32.890  1.00  0.00     0.009 A 
ATOM     53  C   UNL A   1      44.907  27.433  34.378  1.00  0.00     0.009 A 
ATOM     54  C   UNL A   1      47.415  28.055  33.326  1.00  0.00     0.001 A 
ATOM     55  C   UNL A   1      46.040  26.757  34.831  1.00  0.00     0.001 A 
ATOM     56  C   UNL A   1      47.293  27.062  34.299  1.00  0.00     0.000 A 
ENDBRANCH  38  51
ENDBRANCH  12  13
ENDBRANCH   5   7
ENDBRANCH   2   3
ENDBRANCH   1   2
BRANCH   1  57
ATOM     57  C   UNL A   1      31.455  30.644  26.570  1.00  0.00     0.117 C 
BRANCH  57  58
ATOM     58  N   UNL A   1      32.176  30.119  25.428  1.00  0.00    -0.354 N 
ATOM     59  C   UNL A   1      32.260  28.853  24.933  1.00  0.00     0.242 C 
ATOM     60  H   UNL A   1      32.690  30.791  24.925  1.00  0.00     0.163 HD
ATOM     61  O   UNL A   1      33.286  28.593  24.295  1.00  0.00    -0.273 OA
BRANCH  59  62
ATOM     62  C   UNL A   1      31.101  27.838  25.120  1.00  0.00     0.177 C 
ATOM     63  C   UNL A   1      31.307  26.880  26.301  1.00  0.00     0.069 C 
ATOM     64  N   UNL A   1      31.039  26.947  23.949  1.00  0.00    -0.324 N 
ATOM     65  C   UNL A   1      30.927  25.507  25.752  1.00  0.00     0.136 C 
ATOM     66  C   UNL A   1      31.386  25.579  24.302  1.00  0.00     0.152 C 
BRANCH  64  67
ATOM     67  C   UNL A   1      30.660  27.423  22.710  1.00  0.00     0.254 C 
ATOM     68  O   UNL A   1      31.118  27.002  21.654  1.00  0.00    -0.269 OA
BRANCH  67  69
ATOM     69  C   UNL A   1      29.598  28.447  22.675  1.00  0.00     0.040 A 
ATOM     70  C   UNL A   1      29.935  29.740  22.264  1.00  0.00     0.014 A 
ATOM     71  C   UNL A   1      28.293  28.137  23.065  1.00  0.00     0.014 A 
ATOM     72  C   UNL A   1      28.951  30.728  22.228  1.00  0.00     0.001 A 
ATOM     73  C   UNL A   1      27.312  29.127  23.016  1.00  0.00     0.001 A 
ATOM     74  C   UNL A   1      27.641  30.421  22.599  1.00  0.00     0.000 A 
ENDBRANCH  67  69
ENDBRANCH  64  67
BRANCH  65  75
ATOM     75  O   UNL A   1      29.507  25.347  25.821  1.00  0.00    -0.391 OA
ATOM     76  H   UNL A   1      29.210  24.778  25.094  1.00  0.00     0.211 HD
ENDBRANCH  65  75
ENDBRANCH  59  62
ENDBRANCH  57  58
ENDBRANCH   1  57
TORSDOF 13
ENDMDL
