MODEL 1
REMARK VINA RESULT:     -11.9      0.000      0.000
REMARK SMILES Cc1ccccc1OCC(=O)c1nc(C)c(C(=O)NCCCNC(=O)c2ccc(-c3c4nc(c(-c5ccccc5)c5ccc([nH]5)c(-c5ccccc5)c5nc(c(-c6ccccc6)c6ccc3[nH]6)C=C5)C=C4)cc2)s1
REMARK SMILES IDX 20 1 19 2 17 3 18 4 16 6 12 7 13 8 74 9 14 10 15 11 10 12
REMARK SMILES IDX 11 13 9 14 8 15 7 16 1 17 2 18 3 19 4 20 6 21 5 22 21 23
REMARK SMILES IDX 22 24 23 25 24 26 25 28 26 29 27 30 73 31 28 32 72 33 29 34
REMARK SMILES IDX 30 35 31 36 66 37 32 38 71 39 65 40 67 41 33 42 70 43 64 44
REMARK SMILES IDX 63 45 34 47 56 48 41 49 55 50 42 51 45 52 54 53 68 54 43 55
REMARK SMILES IDX 44 56 53 58 69 59 46 60 35 61 36 62 40 63 37 64 39 65 38 66
REMARK SMILES IDX 57 67 58 68 62 69 59 70 61 71 60 72 47 73 48 74 52 75 49 76
REMARK SMILES IDX 51 77 50 78
REMARK H PARENT 19 5 23 27 67 46 45 57
REMARK Flexibility Score: inf
ROOT
ATOM      1  C   UNL A   1      31.897  30.623  26.369  1.00  0.00     0.118 C 
ENDROOT
BRANCH   1   2
ATOM      2  N   UNL A   1      31.702  29.297  26.910  1.00  0.00    -0.351 N 
ATOM      3  C   UNL A   1      31.629  28.030  26.390  1.00  0.00     0.263 C 
ATOM      4  O   UNL A   1      31.482  27.181  27.281  1.00  0.00    -0.268 OA
ATOM      5  H   UNL A   1      31.597  29.305  27.890  1.00  0.00     0.163 HD
BRANCH   3   6
ATOM      6  C   UNL A   1      31.703  27.655  24.974  1.00  0.00     0.115 A 
ATOM      7  C   UNL A   1      32.441  26.342  23.002  1.00  0.00     0.164 A 
ATOM      8  N   UNL A   1      31.597  27.280  22.655  1.00  0.00    -0.237 NA
ATOM      9  S   UNL A   1      32.772  26.291  24.661  1.00  0.00    -0.105 S 
ATOM     10  C   UNL A   1      31.153  28.019  23.744  1.00  0.00     0.062 A 
ATOM     11  C   UNL A   1      30.133  29.009  23.331  1.00  0.00     0.068 C 
BRANCH   7  12
ATOM     12  C   UNL A   1      32.978  25.431  21.997  1.00  0.00     0.228 C 
ATOM     13  O   UNL A   1      33.253  25.806  20.848  1.00  0.00    -0.288 OA
BRANCH  12  14
ATOM     14  C   UNL A   1      33.139  23.945  22.309  1.00  0.00     0.313 C 
BRANCH  14  15
ATOM     15  O   UNL A   1      34.397  23.328  22.363  1.00  0.00    -0.485 OA
BRANCH  15  16
ATOM     16  C   UNL A   1      34.931  22.757  23.477  1.00  0.00     0.122 A 
ATOM     17  C   UNL A   1      33.118  21.060  24.233  1.00  0.00     0.048 C 
ATOM     18  C   UNL A   1      34.441  21.762  24.334  1.00  0.00    -0.009 A 
ATOM     19  C   UNL A   1      35.275  21.324  25.391  1.00  0.00     0.007 A 
ATOM     20  C   UNL A   1      36.532  21.880  25.623  1.00  0.00     0.001 A 
ATOM     21  C   UNL A   1      36.200  23.312  23.732  1.00  0.00     0.047 A 
ATOM     22  C   UNL A   1      36.994  22.887  24.793  1.00  0.00     0.004 A 
ENDBRANCH  15  16
ENDBRANCH  14  15
ENDBRANCH  12  14
ENDBRANCH   7  12
ENDBRANCH   3   6
ENDBRANCH   1   2
BRANCH   1  23
ATOM     23  C   UNL A   1      32.777  31.478  27.271  1.00  0.00     0.042 C 
BRANCH  23  24
ATOM     24  C   UNL A   1      34.006  30.771  27.814  1.00  0.00     0.118 C 
BRANCH  24  25
ATOM     25  N   UNL A   1      34.764  31.602  28.755  1.00  0.00    -0.352 N 
ATOM     26  C   UNL A   1      35.981  31.342  29.360  1.00  0.00     0.251 C 
ATOM     27  H   UNL A   1      34.351  32.465  28.988  1.00  0.00     0.163 HD
ATOM     28  O   UNL A   1      36.506  32.153  30.104  1.00  0.00    -0.269 OA
BRANCH  26  29
ATOM     29  C   UNL A   1      36.699  30.115  28.952  1.00  0.00     0.039 A 
ATOM     30  C   UNL A   1      36.986  29.196  29.963  1.00  0.00     0.014 A 
ATOM     31  C   UNL A   1      37.377  30.091  27.736  1.00  0.00     0.014 A 
ATOM     32  C   UNL A   1      38.148  28.446  29.867  1.00  0.00     0.010 A 
ATOM     33  C   UNL A   1      38.590  29.436  27.692  1.00  0.00     0.010 A 
ATOM     34  C   UNL A   1      39.011  28.686  28.797  1.00  0.00    -0.014 A 
BRANCH  34  35
ATOM     35  C   UNL A   1      40.418  28.304  28.837  1.00  0.00     0.031 A 
ATOM     36  C   UNL A   1      40.837  27.000  28.288  1.00  0.00     0.074 A 
ATOM     37  C   UNL A   1      41.335  29.135  29.386  1.00  0.00     0.049 A 
ATOM     38  N   UNL A   1      41.844  26.316  28.716  1.00  0.00    -0.248 NA
ATOM     39  C   UNL A   1      40.085  26.329  27.233  1.00  0.00     0.031 C 
ATOM     40  C   UNL A   1      42.787  28.990  29.343  1.00  0.00     0.029 A 
ATOM     41  N   UNL A   1      41.127  30.168  30.307  1.00  0.00    -0.354 N 
ATOM     42  C   UNL A   1      42.046  25.287  27.825  1.00  0.00     0.074 A 
ATOM     43  C   UNL A   1      40.876  25.284  26.978  1.00  0.00     0.031 C 
ATOM     44  C   UNL A   1      43.314  29.648  30.389  1.00  0.00     0.029 A 
ATOM     45  C   UNL A   1      42.204  30.114  31.206  1.00  0.00     0.049 A 
ATOM     46  H   UNL A   1      40.377  30.806  30.320  1.00  0.00     0.167 HD
ATOM     47  C   UNL A   1      43.244  24.638  27.795  1.00  0.00     0.031 A 
ATOM     48  C   UNL A   1      42.066  29.895  32.546  1.00  0.00     0.031 A 
ATOM     49  C   UNL A   1      44.144  25.105  28.845  1.00  0.00     0.049 A 
ATOM     50  C   UNL A   1      42.845  28.691  33.035  1.00  0.00     0.074 A 
ATOM     51  C   UNL A   1      45.190  26.013  28.848  1.00  0.00     0.029 A 
ATOM     52  N   UNL A   1      43.830  24.858  30.176  1.00  0.00    -0.354 N 
ATOM     53  N   UNL A   1      43.301  27.755  32.251  1.00  0.00    -0.248 NA
ATOM     54  C   UNL A   1      43.093  28.406  34.447  1.00  0.00     0.031 C 
ATOM     55  C   UNL A   1      45.448  26.377  30.195  1.00  0.00     0.029 A 
ATOM     56  C   UNL A   1      44.579  25.668  31.005  1.00  0.00     0.049 A 
ATOM     57  H   UNL A   1      43.167  24.197  30.485  1.00  0.00     0.167 HD
ATOM     58  C   UNL A   1      43.865  26.763  33.007  1.00  0.00     0.074 A 
ATOM     59  C   UNL A   1      43.721  27.219  34.376  1.00  0.00     0.031 C 
ATOM     60  C   UNL A   1      44.381  25.633  32.446  1.00  0.00     0.031 A 
BRANCH  47  61
ATOM     61  C   UNL A   1      43.701  23.818  26.610  1.00  0.00    -0.014 A 
ATOM     62  C   UNL A   1      43.532  22.421  26.626  1.00  0.00     0.009 A 
ATOM     63  C   UNL A   1      44.364  24.341  25.487  1.00  0.00     0.009 A 
ATOM     64  C   UNL A   1      44.088  21.592  25.644  1.00  0.00     0.001 A 
ATOM     65  C   UNL A   1      44.962  23.517  24.523  1.00  0.00     0.001 A 
ATOM     66  C   UNL A   1      44.835  22.139  24.609  1.00  0.00     0.000 A 
ENDBRANCH  47  61
BRANCH  48  67
ATOM     67  C   UNL A   1      40.759  30.305  33.122  1.00  0.00    -0.014 A 
ATOM     68  C   UNL A   1      40.476  31.677  33.259  1.00  0.00     0.009 A 
ATOM     69  C   UNL A   1      39.702  29.389  33.219  1.00  0.00     0.009 A 
ATOM     70  C   UNL A   1      39.159  32.125  33.393  1.00  0.00     0.001 A 
ATOM     71  C   UNL A   1      38.385  29.841  33.358  1.00  0.00     0.001 A 
ATOM     72  C   UNL A   1      38.111  31.207  33.414  1.00  0.00     0.000 A 
ENDBRANCH  48  67
BRANCH  60  73
ATOM     73  C   UNL A   1      44.807  24.407  33.205  1.00  0.00    -0.014 A 
ATOM     74  C   UNL A   1      46.091  24.229  33.736  1.00  0.00     0.009 A 
ATOM     75  C   UNL A   1      43.834  23.441  33.540  1.00  0.00     0.009 A 
ATOM     76  C   UNL A   1      46.402  23.114  34.525  1.00  0.00     0.001 A 
ATOM     77  C   UNL A   1      44.130  22.348  34.359  1.00  0.00     0.001 A 
ATOM     78  C   UNL A   1      45.420  22.180  34.842  1.00  0.00     0.000 A 
ENDBRANCH  60  73
ENDBRANCH  34  35
ENDBRANCH  26  29
ENDBRANCH  24  25
ENDBRANCH  23  24
ENDBRANCH   1  23
TORSDOF 14
ENDMDL
MODEL 2
REMARK VINA RESULT:     -11.9      3.066      8.596
REMARK SMILES Cc1ccccc1OCC(=O)c1nc(C)c(C(=O)NCCCNC(=O)c2ccc(-c3c4nc(c(-c5ccccc5)c5ccc([nH]5)c(-c5ccccc5)c5nc(c(-c6ccccc6)c6ccc3[nH]6)C=C5)C=C4)cc2)s1
REMARK SMILES IDX 20 1 19 2 17 3 18 4 16 6 12 7 13 8 74 9 14 10 15 11 10 12
REMARK SMILES IDX 11 13 9 14 8 15 7 16 1 17 2 18 3 19 4 20 6 21 5 22 21 23
REMARK SMILES IDX 22 24 23 25 24 26 25 28 26 29 27 30 73 31 28 32 72 33 29 34
REMARK SMILES IDX 30 35 31 36 66 37 32 38 71 39 65 40 67 41 33 42 70 43 64 44
REMARK SMILES IDX 63 45 34 47 56 48 41 49 55 50 42 51 45 52 54 53 68 54 43 55
REMARK SMILES IDX 44 56 53 58 69 59 46 60 35 61 36 62 40 63 37 64 39 65 38 66
REMARK SMILES IDX 57 67 58 68 62 69 59 70 61 71 60 72 47 73 48 74 52 75 49 76
REMARK SMILES IDX 51 77 50 78
REMARK H PARENT 19 5 23 27 67 46 45 57
REMARK Flexibility Score: inf
ROOT
ATOM      1  C   UNL A   1      37.928  21.777  25.536  1.00  0.00     0.118 C 
ENDROOT
BRANCH   1   2
ATOM      2  N   UNL A   1      37.445  22.331  24.290  1.00  0.00    -0.351 N 
ATOM      3  C   UNL A   1      36.222  22.708  23.798  1.00  0.00     0.263 C 
ATOM      4  O   UNL A   1      36.318  23.174  22.653  1.00  0.00    -0.268 OA
ATOM      5  H   UNL A   1      38.170  22.471  23.638  1.00  0.00     0.163 HD
BRANCH   3   6
ATOM      6  C   UNL A   1      34.928  22.599  24.479  1.00  0.00     0.115 A 
ATOM      7  C   UNL A   1      32.832  23.414  25.530  1.00  0.00     0.164 A 
ATOM      8  N   UNL A   1      32.888  22.106  25.541  1.00  0.00    -0.237 NA
ATOM      9  S   UNL A   1      34.173  24.156  24.811  1.00  0.00    -0.105 S 
ATOM     10  C   UNL A   1      34.044  21.623  24.941  1.00  0.00     0.062 A 
ATOM     11  C   UNL A   1      34.033  20.144  24.888  1.00  0.00     0.068 C 
BRANCH   7  12
ATOM     12  C   UNL A   1      31.666  24.102  26.072  1.00  0.00     0.228 C 
ATOM     13  O   UNL A   1      31.425  24.133  27.288  1.00  0.00    -0.288 OA
BRANCH  12  14
ATOM     14  C   UNL A   1      30.643  24.742  25.136  1.00  0.00     0.313 C 
BRANCH  14  15
ATOM     15  O   UNL A   1      31.022  25.608  24.101  1.00  0.00    -0.485 OA
BRANCH  15  16
ATOM     16  C   UNL A   1      30.857  26.959  24.124  1.00  0.00     0.122 A 
ATOM     17  C   UNL A   1      32.601  27.768  25.869  1.00  0.00     0.048 C 
ATOM     18  C   UNL A   1      31.509  27.961  24.856  1.00  0.00    -0.009 A 
ATOM     19  C   UNL A   1      31.150  29.307  24.607  1.00  0.00     0.007 A 
ATOM     20  C   UNL A   1      30.151  29.653  23.699  1.00  0.00     0.001 A 
ATOM     21  C   UNL A   1      29.844  27.328  23.217  1.00  0.00     0.047 A 
ATOM     22  C   UNL A   1      29.487  28.657  23.006  1.00  0.00     0.004 A 
ENDBRANCH  15  16
ENDBRANCH  14  15
ENDBRANCH  12  14
ENDBRANCH   7  12
ENDBRANCH   3   6
ENDBRANCH   1   2
BRANCH   1  23
ATOM     23  C   UNL A   1      39.044  22.622  26.135  1.00  0.00     0.042 C 
BRANCH  23  24
ATOM     24  C   UNL A   1      40.045  21.849  26.974  1.00  0.00     0.118 C 
BRANCH  24  25
ATOM     25  N   UNL A   1      40.834  20.902  26.180  1.00  0.00    -0.352 N 
ATOM     26  C   UNL A   1      42.208  20.825  26.030  1.00  0.00     0.251 C 
ATOM     27  H   UNL A   1      40.316  20.227  25.683  1.00  0.00     0.163 HD
ATOM     28  O   UNL A   1      42.725  19.953  25.353  1.00  0.00    -0.269 OA
BRANCH  26  29
ATOM     29  C   UNL A   1      43.036  21.739  26.847  1.00  0.00     0.039 A 
ATOM     30  C   UNL A   1      42.884  21.645  28.232  1.00  0.00     0.014 A 
ATOM     31  C   UNL A   1      43.604  22.862  26.255  1.00  0.00     0.014 A 
ATOM     32  C   UNL A   1      43.030  22.794  28.994  1.00  0.00     0.010 A 
ATOM     33  C   UNL A   1      43.635  24.029  26.991  1.00  0.00     0.010 A 
ATOM     34  C   UNL A   1      43.262  24.005  28.340  1.00  0.00    -0.014 A 
BRANCH  34  35
ATOM     35  C   UNL A   1      42.986  25.290  28.970  1.00  0.00     0.031 A 
ATOM     36  C   UNL A   1      41.799  26.066  28.562  1.00  0.00     0.074 A 
ATOM     37  C   UNL A   1      43.822  25.777  29.919  1.00  0.00     0.049 A 
ATOM     38  N   UNL A   1      41.722  27.354  28.590  1.00  0.00    -0.248 NA
ATOM     39  C   UNL A   1      40.610  25.425  28.013  1.00  0.00     0.031 C 
ATOM     40  C   UNL A   1      43.598  26.944  30.769  1.00  0.00     0.029 A 
ATOM     41  N   UNL A   1      45.162  25.448  30.145  1.00  0.00    -0.354 N 
ATOM     42  C   UNL A   1      40.409  27.688  28.352  1.00  0.00     0.074 A 
ATOM     43  C   UNL A   1      39.780  26.466  27.909  1.00  0.00     0.031 C 
ATOM     44  C   UNL A   1      44.790  27.416  31.168  1.00  0.00     0.029 A 
ATOM     45  C   UNL A   1      45.811  26.650  30.471  1.00  0.00     0.049 A 
ATOM     46  H   UNL A   1      45.569  24.553  30.088  1.00  0.00     0.167 HD
ATOM     47  C   UNL A   1      39.948  28.925  28.695  1.00  0.00     0.031 A 
ATOM     48  C   UNL A   1      46.837  27.181  29.745  1.00  0.00     0.031 A 
ATOM     49  C   UNL A   1      41.014  29.782  29.203  1.00  0.00     0.049 A 
ATOM     50  C   UNL A   1      46.553  28.586  29.255  1.00  0.00     0.074 A 
ATOM     51  C   UNL A   1      41.419  30.115  30.486  1.00  0.00     0.029 A 
ATOM     52  N   UNL A   1      42.031  30.191  28.348  1.00  0.00    -0.354 N 
ATOM     53  N   UNL A   1      45.360  29.109  29.203  1.00  0.00    -0.248 NA
ATOM     54  C   UNL A   1      47.575  29.475  28.705  1.00  0.00     0.031 C 
ATOM     55  C   UNL A   1      42.730  30.651  30.404  1.00  0.00     0.029 A 
ATOM     56  C   UNL A   1      43.104  30.670  29.073  1.00  0.00     0.049 A 
ATOM     57  H   UNL A   1      41.991  30.146  27.365  1.00  0.00     0.167 HD
ATOM     58  C   UNL A   1      45.429  30.345  28.620  1.00  0.00     0.074 A 
ATOM     59  C   UNL A   1      46.838  30.537  28.334  1.00  0.00     0.031 C 
ATOM     60  C   UNL A   1      44.317  31.101  28.395  1.00  0.00     0.031 A 
BRANCH  47  61
ATOM     61  C   UNL A   1      38.479  29.231  28.869  1.00  0.00    -0.014 A 
ATOM     62  C   UNL A   1      37.737  29.716  27.776  1.00  0.00     0.009 A 
ATOM     63  C   UNL A   1      37.783  29.135  30.086  1.00  0.00     0.009 A 
ATOM     64  C   UNL A   1      36.422  30.182  27.915  1.00  0.00     0.001 A 
ATOM     65  C   UNL A   1      36.484  29.639  30.245  1.00  0.00     0.001 A 
ATOM     66  C   UNL A   1      35.807  30.176  29.160  1.00  0.00     0.000 A 
ENDBRANCH  47  61
BRANCH  48  67
ATOM     67  C   UNL A   1      47.640  26.199  28.971  1.00  0.00    -0.014 A 
ATOM     68  C   UNL A   1      47.358  26.016  27.604  1.00  0.00     0.009 A 
ATOM     69  C   UNL A   1      48.852  25.710  29.478  1.00  0.00     0.009 A 
ATOM     70  C   UNL A   1      48.305  25.445  26.750  1.00  0.00     0.001 A 
ATOM     71  C   UNL A   1      49.796  25.134  28.620  1.00  0.00     0.001 A 
ATOM     72  C   UNL A   1      49.536  25.031  27.254  1.00  0.00     0.000 A 
ENDBRANCH  48  67
BRANCH  60  73
ATOM     73  C   UNL A   1      44.276  32.353  27.564  1.00  0.00    -0.014 A 
ATOM     74  C   UNL A   1      44.406  32.365  26.169  1.00  0.00     0.009 A 
ATOM     75  C   UNL A   1      43.941  33.575  28.188  1.00  0.00     0.009 A 
ATOM     76  C   UNL A   1      44.255  33.549  25.436  1.00  0.00     0.001 A 
ATOM     77  C   UNL A   1      43.751  34.749  27.456  1.00  0.00     0.001 A 
ATOM     78  C   UNL A   1      43.919  34.737  26.079  1.00  0.00     0.000 A 
ENDBRANCH  60  73
ENDBRANCH  34  35
ENDBRANCH  26  29
ENDBRANCH  24  25
ENDBRANCH  23  24
ENDBRANCH   1  23
TORSDOF 14
ENDMDL
MODEL 3
REMARK VINA RESULT:     -11.6      2.290      3.778
REMARK SMILES Cc1ccccc1OCC(=O)c1nc(C)c(C(=O)NCCCNC(=O)c2ccc(-c3c4nc(c(-c5ccccc5)c5ccc([nH]5)c(-c5ccccc5)c5nc(c(-c6ccccc6)c6ccc3[nH]6)C=C5)C=C4)cc2)s1
REMARK SMILES IDX 20 1 19 2 17 3 18 4 16 6 12 7 13 8 74 9 14 10 15 11 10 12
REMARK SMILES IDX 11 13 9 14 8 15 7 16 1 17 2 18 3 19 4 20 6 21 5 22 21 23
REMARK SMILES IDX 22 24 23 25 24 26 25 28 26 29 27 30 73 31 28 32 72 33 29 34
REMARK SMILES IDX 30 35 31 36 66 37 32 38 71 39 65 40 67 41 33 42 70 43 64 44
REMARK SMILES IDX 63 45 34 47 56 48 41 49 55 50 42 51 45 52 54 53 68 54 43 55
REMARK SMILES IDX 44 56 53 58 69 59 46 60 35 61 36 62 40 63 37 64 39 65 38 66
REMARK SMILES IDX 57 67 58 68 62 69 59 70 61 71 60 72 47 73 48 74 52 75 49 76
REMARK SMILES IDX 51 77 50 78
REMARK H PARENT 19 5 23 27 67 46 45 57
REMARK Flexibility Score: inf
ROOT
ATOM      1  C   UNL A   1      33.361  30.023  26.540  1.00  0.00     0.118 C 
ENDROOT
BRANCH   1   2
ATOM      2  N   UNL A   1      33.543  29.688  25.145  1.00  0.00    -0.351 N 
ATOM      3  C   UNL A   1      33.157  28.655  24.330  1.00  0.00     0.263 C 
ATOM      4  O   UNL A   1      33.535  28.833  23.162  1.00  0.00    -0.268 OA
ATOM      5  H   UNL A   1      34.072  30.367  24.664  1.00  0.00     0.163 HD
BRANCH   3   6
ATOM      6  C   UNL A   1      32.399  27.463  24.721  1.00  0.00     0.115 A 
ATOM      7  C   UNL A   1      31.978  25.313  25.888  1.00  0.00     0.164 A 
ATOM      8  N   UNL A   1      30.939  25.677  25.181  1.00  0.00    -0.237 NA
ATOM      9  S   UNL A   1      33.279  26.394  25.810  1.00  0.00    -0.105 S 
ATOM     10  C   UNL A   1      31.141  26.888  24.531  1.00  0.00     0.062 A 
ATOM     11  C   UNL A   1      29.918  27.316  23.816  1.00  0.00     0.068 C 
BRANCH   7  12
ATOM     12  C   UNL A   1      31.933  24.089  26.680  1.00  0.00     0.228 C 
ATOM     13  O   UNL A   1      30.921  23.749  27.309  1.00  0.00    -0.288 OA
BRANCH  12  14
ATOM     14  C   UNL A   1      33.180  23.221  26.831  1.00  0.00     0.313 C 
BRANCH  14  15
ATOM     15  O   UNL A   1      33.835  22.662  25.725  1.00  0.00    -0.485 OA
BRANCH  15  16
ATOM     16  C   UNL A   1      33.275  21.768  24.866  1.00  0.00     0.122 A 
ATOM     17  C   UNL A   1      32.520  23.228  22.856  1.00  0.00     0.048 C 
ATOM     18  C   UNL A   1      32.693  21.936  23.601  1.00  0.00    -0.009 A 
ATOM     19  C   UNL A   1      32.249  20.780  22.914  1.00  0.00     0.007 A 
ATOM     20  C   UNL A   1      32.335  19.506  23.472  1.00  0.00     0.001 A 
ATOM     21  C   UNL A   1      33.345  20.473  25.416  1.00  0.00     0.047 A 
ATOM     22  C   UNL A   1      32.878  19.352  24.735  1.00  0.00     0.004 A 
ENDBRANCH  15  16
ENDBRANCH  14  15
ENDBRANCH  12  14
ENDBRANCH   7  12
ENDBRANCH   3   6
ENDBRANCH   1   2
BRANCH   1  23
ATOM     23  C   UNL A   1      34.637  29.806  27.343  1.00  0.00     0.042 C 
BRANCH  23  24
ATOM     24  C   UNL A   1      35.223  31.065  27.956  1.00  0.00     0.118 C 
BRANCH  24  25
ATOM     25  N   UNL A   1      34.206  32.089  28.219  1.00  0.00    -0.352 N 
ATOM     26  C   UNL A   1      34.222  33.110  29.153  1.00  0.00     0.251 C 
ATOM     27  H   UNL A   1      33.402  32.045  27.653  1.00  0.00     0.163 HD
ATOM     28  O   UNL A   1      33.306  33.912  29.232  1.00  0.00    -0.269 OA
BRANCH  26  29
ATOM     29  C   UNL A   1      35.456  33.292  29.946  1.00  0.00     0.039 A 
ATOM     30  C   UNL A   1      36.478  34.030  29.345  1.00  0.00     0.014 A 
ATOM     31  C   UNL A   1      35.709  32.449  31.024  1.00  0.00     0.014 A 
ATOM     32  C   UNL A   1      37.793  33.699  29.634  1.00  0.00     0.010 A 
ATOM     33  C   UNL A   1      37.010  32.039  31.226  1.00  0.00     0.010 A 
ATOM     34  C   UNL A   1      38.040  32.605  30.464  1.00  0.00    -0.014 A 
BRANCH  34  35
ATOM     35  C   UNL A   1      39.322  31.911  30.469  1.00  0.00     0.031 A 
ATOM     36  C   UNL A   1      39.462  30.628  29.755  1.00  0.00     0.074 A 
ATOM     37  C   UNL A   1      40.378  32.435  31.136  1.00  0.00     0.049 A 
ATOM     38  N   UNL A   1      40.271  29.683  30.100  1.00  0.00    -0.248 NA
ATOM     39  C   UNL A   1      38.624  30.286  28.611  1.00  0.00     0.031 C 
ATOM     40  C   UNL A   1      41.762  31.970  31.091  1.00  0.00     0.029 A 
ATOM     41  N   UNL A   1      40.368  33.361  32.185  1.00  0.00    -0.354 N 
ATOM     42  C   UNL A   1      40.274  28.758  29.081  1.00  0.00     0.074 A 
ATOM     43  C   UNL A   1      39.171  29.130  28.227  1.00  0.00     0.031 C 
ATOM     44  C   UNL A   1      42.378  32.351  32.222  1.00  0.00     0.029 A 
ATOM     45  C   UNL A   1      41.367  32.948  33.081  1.00  0.00     0.049 A 
ATOM     46  H   UNL A   1      39.780  34.146  32.275  1.00  0.00     0.167 HD
ATOM     47  C   UNL A   1      41.297  27.863  28.978  1.00  0.00     0.031 A 
ATOM     48  C   UNL A   1      41.127  32.597  34.378  1.00  0.00     0.031 A 
ATOM     49  C   UNL A   1      42.233  27.974  30.092  1.00  0.00     0.049 A 
ATOM     50  C   UNL A   1      41.596  31.195  34.710  1.00  0.00     0.074 A 
ATOM     51  C   UNL A   1      43.456  28.612  30.229  1.00  0.00     0.029 A 
ATOM     52  N   UNL A   1      41.817  27.636  31.374  1.00  0.00    -0.354 N 
ATOM     53  N   UNL A   1      41.863  30.288  33.813  1.00  0.00    -0.248 NA
ATOM     54  C   UNL A   1      41.714  30.682  36.074  1.00  0.00     0.031 C 
ATOM     55  C   UNL A   1      43.731  28.733  31.615  1.00  0.00     0.029 A 
ATOM     56  C   UNL A   1      42.693  28.142  32.313  1.00  0.00     0.049 A 
ATOM     57  H   UNL A   1      41.011  27.110  31.583  1.00  0.00     0.167 HD
ATOM     58  C   UNL A   1      42.158  29.105  34.435  1.00  0.00     0.074 A 
ATOM     59  C   UNL A   1      42.063  29.402  35.852  1.00  0.00     0.031 C 
ATOM     60  C   UNL A   1      42.431  27.968  33.734  1.00  0.00     0.031 A 
BRANCH  47  61
ATOM     61  C   UNL A   1      41.609  27.120  27.699  1.00  0.00    -0.014 A 
ATOM     62  C   UNL A   1      41.679  25.714  27.713  1.00  0.00     0.009 A 
ATOM     63  C   UNL A   1      41.911  27.735  26.473  1.00  0.00     0.009 A 
ATOM     64  C   UNL A   1      42.132  24.979  26.610  1.00  0.00     0.001 A 
ATOM     65  C   UNL A   1      42.407  27.013  25.378  1.00  0.00     0.001 A 
ATOM     66  C   UNL A   1      42.531  25.633  25.452  1.00  0.00     0.000 A 
ENDBRANCH  47  61
BRANCH  48  67
ATOM     67  C   UNL A   1      39.922  33.216  34.988  1.00  0.00    -0.014 A 
ATOM     68  C   UNL A   1      38.678  32.573  34.840  1.00  0.00     0.009 A 
ATOM     69  C   UNL A   1      40.048  34.219  35.959  1.00  0.00     0.009 A 
ATOM     70  C   UNL A   1      37.619  32.860  35.706  1.00  0.00     0.001 A 
ATOM     71  C   UNL A   1      38.983  34.506  36.822  1.00  0.00     0.001 A 
ATOM     72  C   UNL A   1      37.782  33.806  36.715  1.00  0.00     0.000 A 
ENDBRANCH  48  67
BRANCH  60  73
ATOM     73  C   UNL A   1      42.539  26.591  34.326  1.00  0.00    -0.014 A 
ATOM     74  C   UNL A   1      41.557  26.019  35.146  1.00  0.00     0.009 A 
ATOM     75  C   UNL A   1      43.607  25.759  33.927  1.00  0.00     0.009 A 
ATOM     76  C   UNL A   1      41.661  24.693  35.584  1.00  0.00     0.001 A 
ATOM     77  C   UNL A   1      43.694  24.424  34.331  1.00  0.00     0.001 A 
ATOM     78  C   UNL A   1      42.724  23.895  35.170  1.00  0.00     0.000 A 
ENDBRANCH  60  73
ENDBRANCH  34  35
ENDBRANCH  26  29
ENDBRANCH  24  25
ENDBRANCH  23  24
ENDBRANCH   1  23
TORSDOF 14
ENDMDL
