MODEL 1
REMARK VINA RESULT:     -12.4      0.000      0.000
REMARK SMILES O=C(NCCCNC(=O)c1cc(S(=O)(=O)NNC(=O)[C@H]2C=C(c3ccccc3)N=N2)ccc1F)c1ccc(-c2c3nc(c(-c4ccccc4)c4ccc([nH]4)c(-c4ccccc4)c4nc(c(-c5ccccc5)c5ccc2[nH]5)C=C4)C=C3)cc1
REMARK SMILES IDX 7 1 8 2 9 3 6 5 5 6 4 7 3 8 1 9 2 10 35 12 36 13 82 14 37 15
REMARK SMILES IDX 81 16 38 17 39 18 40 19 75 20 41 21 80 22 74 23 76 24 42 25
REMARK SMILES IDX 79 26 73 27 72 28 43 30 65 31 50 32 64 33 51 34 54 35 63 36
REMARK SMILES IDX 77 37 52 38 53 39 62 41 78 42 55 43 44 44 45 45 49 46 46 47
REMARK SMILES IDX 48 48 47 49 66 50 67 51 71 52 68 53 70 54 69 55 56 56 57 57
REMARK SMILES IDX 61 58 58 59 60 60 59 61 10 62 11 63 33 64 12 65 32 66 34 67
REMARK SMILES IDX 31 68 13 69 14 70 15 71 16 72 17 74 18 75 19 77 20 78 21 79
REMARK SMILES IDX 30 80 22 81 29 82 23 83 24 84 28 85 25 86 27 87 26 88
REMARK H PARENT 7 4 3 11 76 29 54 40 16 73 17 76
REMARK Flexibility Score: inf
ROOT
ATOM      1  N   UNL A   1      31.720  30.113  25.051  1.00  0.00    -0.352 N 
ATOM      2  C   UNL A   1      31.037  29.039  24.534  1.00  0.00     0.254 C 
ATOM      3  O   UNL A   1      30.082  29.209  23.781  1.00  0.00    -0.269 OA
ATOM      4  H   UNL A   1      31.334  30.996  24.850  1.00  0.00     0.163 HD
ENDROOT
BRANCH   1   5
ATOM      5  C   UNL A   1      32.938  30.134  25.858  1.00  0.00     0.118 C 
BRANCH   5   6
ATOM      6  C   UNL A   1      32.713  30.624  27.283  1.00  0.00     0.042 C 
BRANCH   6   7
ATOM      7  C   UNL A   1      33.298  31.998  27.557  1.00  0.00     0.118 C 
BRANCH   7   8
ATOM      8  N   UNL A   1      33.901  32.098  28.863  1.00  0.00    -0.352 N 
ATOM      9  O   UNL A   1      35.403  32.385  30.446  1.00  0.00    -0.269 OA
ATOM     10  C   UNL A   1      35.176  31.949  29.314  1.00  0.00     0.251 C 
ATOM     11  H   UNL A   1      33.257  32.321  29.574  1.00  0.00     0.163 HD
BRANCH  10  12
ATOM     12  C   UNL A   1      36.188  31.073  28.667  1.00  0.00     0.039 A 
ATOM     13  C   UNL A   1      36.119  29.754  28.218  1.00  0.00     0.014 A 
ATOM     14  C   UNL A   1      37.459  31.626  28.727  1.00  0.00     0.014 A 
ATOM     15  C   UNL A   1      37.331  28.942  28.302  1.00  0.00     0.010 A 
ATOM     16  C   UNL A   1      38.560  30.830  28.463  1.00  0.00     0.010 A 
ATOM     17  C   UNL A   1      38.576  29.489  28.826  1.00  0.00    -0.014 A 
BRANCH  17  18
ATOM     18  C   UNL A   1      40.145  28.932  28.783  1.00  0.00     0.031 A 
ATOM     19  C   UNL A   1      40.163  28.633  30.507  1.00  0.00     0.074 A 
ATOM     20  C   UNL A   1      41.163  28.665  27.637  1.00  0.00     0.049 A 
ATOM     21  N   UNL A   1      40.495  29.539  31.399  1.00  0.00    -0.248 NA
ATOM     22  C   UNL A   1      39.311  27.620  31.351  1.00  0.00     0.031 C 
ATOM     23  C   UNL A   1      41.258  28.774  26.022  1.00  0.00     0.029 A 
ATOM     24  N   UNL A   1      42.541  28.170  27.636  1.00  0.00    -0.354 N 
ATOM     25  C   UNL A   1      40.630  28.830  32.612  1.00  0.00     0.074 A 
ATOM     26  C   UNL A   1      39.634  27.846  32.633  1.00  0.00     0.031 C 
ATOM     27  C   UNL A   1      42.250  27.983  25.426  1.00  0.00     0.029 A 
ATOM     28  C   UNL A   1      43.136  27.469  26.444  1.00  0.00     0.049 A 
ATOM     29  H   UNL A   1      43.095  28.299  28.440  1.00  0.00     0.167 HD
ATOM     30  C   UNL A   1      41.875  28.663  33.121  1.00  0.00     0.031 A 
ATOM     31  C   UNL A   1      44.359  26.747  26.300  1.00  0.00     0.031 A 
ATOM     32  C   UNL A   1      42.712  29.631  32.472  1.00  0.00     0.049 A 
ATOM     33  C   UNL A   1      45.048  26.950  27.604  1.00  0.00     0.074 A 
ATOM     34  C   UNL A   1      42.658  31.002  32.317  1.00  0.00     0.029 A 
ATOM     35  N   UNL A   1      43.233  29.121  31.323  1.00  0.00    -0.354 N 
ATOM     36  N   UNL A   1      45.524  28.119  27.938  1.00  0.00    -0.248 NA
ATOM     37  C   UNL A   1      44.422  26.134  28.647  1.00  0.00     0.031 C 
ATOM     38  C   UNL A   1      43.108  31.275  30.994  1.00  0.00     0.029 A 
ATOM     39  C   UNL A   1      43.586  30.091  30.450  1.00  0.00     0.049 A 
ATOM     40  H   UNL A   1      43.341  28.158  31.149  1.00  0.00     0.167 HD
ATOM     41  C   UNL A   1      44.775  28.452  29.052  1.00  0.00     0.074 A 
ATOM     42  C   UNL A   1      44.122  27.153  29.469  1.00  0.00     0.031 C 
ATOM     43  C   UNL A   1      44.345  29.750  29.286  1.00  0.00     0.031 A 
BRANCH  30  44
ATOM     44  C   UNL A   1      42.428  27.325  33.589  1.00  0.00    -0.014 A 
ATOM     45  C   UNL A   1      41.872  26.847  34.779  1.00  0.00     0.009 A 
ATOM     46  C   UNL A   1      43.586  26.652  33.115  1.00  0.00     0.009 A 
ATOM     47  C   UNL A   1      42.436  25.780  35.477  1.00  0.00     0.001 A 
ATOM     48  C   UNL A   1      44.121  25.540  33.784  1.00  0.00     0.001 A 
ATOM     49  C   UNL A   1      43.549  25.116  34.974  1.00  0.00     0.000 A 
ENDBRANCH  30  44
BRANCH  31  50
ATOM     50  C   UNL A   1      44.704  25.445  25.478  1.00  0.00    -0.014 A 
ATOM     51  C   UNL A   1      45.946  24.767  25.177  1.00  0.00     0.009 A 
ATOM     52  C   UNL A   1      43.575  24.658  25.246  1.00  0.00     0.009 A 
ATOM     53  C   UNL A   1      45.982  23.405  24.699  1.00  0.00     0.001 A 
ATOM     54  C   UNL A   1      43.610  23.317  24.825  1.00  0.00     0.001 A 
ATOM     55  C   UNL A   1      44.806  22.675  24.558  1.00  0.00     0.000 A 
ENDBRANCH  31  50
BRANCH  43  56
ATOM     56  C   UNL A   1      44.760  30.925  28.408  1.00  0.00    -0.014 A 
ATOM     57  C   UNL A   1      45.938  31.709  28.470  1.00  0.00     0.009 A 
ATOM     58  C   UNL A   1      43.936  31.122  27.296  1.00  0.00     0.009 A 
ATOM     59  C   UNL A   1      46.133  32.792  27.587  1.00  0.00     0.001 A 
ATOM     60  C   UNL A   1      44.162  32.148  26.382  1.00  0.00     0.001 A 
ATOM     61  C   UNL A   1      45.222  33.027  26.563  1.00  0.00     0.000 A 
ENDBRANCH  43  56
ENDBRANCH  17  18
ENDBRANCH  10  12
ENDBRANCH   7   8
ENDBRANCH   6   7
ENDBRANCH   5   6
ENDBRANCH   1   5
BRANCH   2  62
ATOM     62  C   UNL A   1      31.496  27.673  24.831  1.00  0.00     0.076 A 
ATOM     63  C   UNL A   1      32.058  26.901  23.811  1.00  0.00     0.038 A 
ATOM     64  C   UNL A   1      31.417  27.163  26.126  1.00  0.00     0.136 A 
ATOM     65  C   UNL A   1      32.649  25.676  24.139  1.00  0.00     0.085 A 
ATOM     66  C   UNL A   1      32.052  25.975  26.459  1.00  0.00     0.041 A 
ATOM     67  F   UNL A   1      30.802  27.846  27.103  1.00  0.00    -0.206 F 
ATOM     68  C   UNL A   1      32.703  25.243  25.470  1.00  0.00     0.025 A 
BRANCH  65  69
ATOM     69  S   UNL A   1      33.278  24.687  22.809  1.00  0.00     0.257 S 
ATOM     70  O   UNL A   1      32.277  23.636  22.565  1.00  0.00    -0.205 OA
ATOM     71  O   UNL A   1      33.723  25.572  21.785  1.00  0.00    -0.205 OA
BRANCH  69  72
ATOM     72  N   UNL A   1      34.657  23.890  23.434  1.00  0.00    -0.123 NA
ATOM     73  H   UNL A   1      35.220  24.592  23.916  1.00  0.00     0.167 HD
BRANCH  72  74
ATOM     74  N   UNL A   1      34.451  22.793  24.362  1.00  0.00    -0.275 N 
ATOM     75  C   UNL A   1      35.402  21.932  24.826  1.00  0.00     0.265 C 
ATOM     76  H   UNL A   1      33.532  22.656  24.690  1.00  0.00     0.186 HD
ATOM     77  O   UNL A   1      35.024  21.061  25.622  1.00  0.00    -0.271 OA
BRANCH  75  78
ATOM     78  C   UNL A   1      36.855  21.968  24.352  1.00  0.00     0.244 C 
ATOM     79  C   UNL A   1      37.532  23.116  25.004  1.00  0.00     0.042 C 
ATOM     80  N   UNL A   1      37.669  20.813  24.820  1.00  0.00    -0.171 NA
ATOM     81  C   UNL A   1      38.503  22.579  25.743  1.00  0.00     0.091 C 
ATOM     82  N   UNL A   1      38.580  21.216  25.600  1.00  0.00    -0.155 NA
BRANCH  81  83
ATOM     83  C   UNL A   1      39.374  23.345  26.631  1.00  0.00     0.002 A 
ATOM     84  C   UNL A   1      39.120  24.694  26.904  1.00  0.00     0.010 A 
ATOM     85  C   UNL A   1      40.483  22.725  27.225  1.00  0.00     0.010 A 
ATOM     86  C   UNL A   1      39.962  25.409  27.761  1.00  0.00     0.001 A 
ATOM     87  C   UNL A   1      41.317  23.437  28.088  1.00  0.00     0.001 A 
ATOM     88  C   UNL A   1      41.056  24.779  28.355  1.00  0.00     0.000 A 
ENDBRANCH  81  83
ENDBRANCH  75  78
ENDBRANCH  72  74
ENDBRANCH  69  72
ENDBRANCH  65  69
ENDBRANCH   2  62
TORSDOF 15
ENDMDL
MODEL 2
REMARK VINA RESULT:     -12.4      4.839      7.679
REMARK SMILES O=C(NCCCNC(=O)c1cc(S(=O)(=O)NNC(=O)[C@H]2C=C(c3ccccc3)N=N2)ccc1F)c1ccc(-c2c3nc(c(-c4ccccc4)c4ccc([nH]4)c(-c4ccccc4)c4nc(c(-c5ccccc5)c5ccc2[nH]5)C=C4)C=C3)cc1
REMARK SMILES IDX 7 1 8 2 9 3 6 5 5 6 4 7 3 8 1 9 2 10 35 12 36 13 82 14 37 15
REMARK SMILES IDX 81 16 38 17 39 18 40 19 75 20 41 21 80 22 74 23 76 24 42 25
REMARK SMILES IDX 79 26 73 27 72 28 43 30 65 31 50 32 64 33 51 34 54 35 63 36
REMARK SMILES IDX 77 37 52 38 53 39 62 41 78 42 55 43 44 44 45 45 49 46 46 47
REMARK SMILES IDX 48 48 47 49 66 50 67 51 71 52 68 53 70 54 69 55 56 56 57 57
REMARK SMILES IDX 61 58 58 59 60 60 59 61 10 62 11 63 33 64 12 65 32 66 34 67
REMARK SMILES IDX 31 68 13 69 14 70 15 71 16 72 17 74 18 75 19 77 20 78 21 79
REMARK SMILES IDX 30 80 22 81 29 82 23 83 24 84 28 85 25 86 27 87 26 88
REMARK H PARENT 7 4 3 11 76 29 54 40 16 73 17 76
REMARK Flexibility Score: inf
ROOT
ATOM      1  N   UNL A   1      35.641  33.347  33.642  1.00  0.00    -0.352 N 
ATOM      2  C   UNL A   1      34.390  33.648  33.159  1.00  0.00     0.254 C 
ATOM      3  O   UNL A   1      33.467  32.845  33.272  1.00  0.00    -0.269 OA
ATOM      4  H   UNL A   1      35.752  32.432  33.987  1.00  0.00     0.163 HD
ENDROOT
BRANCH   1   5
ATOM      5  C   UNL A   1      36.831  34.191  33.717  1.00  0.00     0.118 C 
BRANCH   5   6
ATOM      6  C   UNL A   1      38.099  33.496  33.235  1.00  0.00     0.042 C 
BRANCH   6   7
ATOM      7  C   UNL A   1      38.890  34.304  32.222  1.00  0.00     0.118 C 
BRANCH   7   8
ATOM      8  N   UNL A   1      40.307  34.303  32.492  1.00  0.00    -0.352 N 
ATOM      9  O   UNL A   1      42.459  33.876  32.316  1.00  0.00    -0.269 OA
ATOM     10  C   UNL A   1      41.312  33.438  32.185  1.00  0.00     0.251 C 
ATOM     11  H   UNL A   1      40.609  35.089  33.002  1.00  0.00     0.163 HD
BRANCH  10  12
ATOM     12  C   UNL A   1      41.120  31.978  31.989  1.00  0.00     0.039 A 
ATOM     13  C   UNL A   1      40.694  30.976  32.861  1.00  0.00     0.014 A 
ATOM     14  C   UNL A   1      41.664  31.543  30.789  1.00  0.00     0.014 A 
ATOM     15  C   UNL A   1      41.252  29.637  32.684  1.00  0.00     0.010 A 
ATOM     16  C   UNL A   1      41.858  30.189  30.581  1.00  0.00     0.010 A 
ATOM     17  C   UNL A   1      42.214  29.348  31.628  1.00  0.00    -0.014 A 
BRANCH  17  18
ATOM     18  C   UNL A   1      42.791  27.916  31.004  1.00  0.00     0.031 A 
ATOM     19  C   UNL A   1      43.388  27.394  32.563  1.00  0.00     0.074 A 
ATOM     20  C   UNL A   1      42.720  27.245  29.603  1.00  0.00     0.049 A 
ATOM     21  N   UNL A   1      44.583  27.691  33.021  1.00  0.00    -0.248 NA
ATOM     22  C   UNL A   1      42.592  27.066  33.876  1.00  0.00     0.031 C 
ATOM     23  C   UNL A   1      42.118  27.535  28.125  1.00  0.00     0.029 A 
ATOM     24  N   UNL A   1      43.239  25.976  29.088  1.00  0.00    -0.354 N 
ATOM     25  C   UNL A   1      44.754  26.876  34.161  1.00  0.00     0.074 A 
ATOM     26  C   UNL A   1      43.516  26.804  34.811  1.00  0.00     0.031 C 
ATOM     27  C   UNL A   1      41.940  26.402  27.318  1.00  0.00     0.029 A 
ATOM     28  C   UNL A   1      42.608  25.271  27.917  1.00  0.00     0.049 A 
ATOM     29  H   UNL A   1      44.026  25.571  29.521  1.00  0.00     0.167 HD
ATOM     30  C   UNL A   1      45.636  25.850  34.089  1.00  0.00     0.031 A 
ATOM     31  C   UNL A   1      42.820  23.962  27.390  1.00  0.00     0.031 A 
ATOM     32  C   UNL A   1      46.482  26.121  32.962  1.00  0.00     0.049 A 
ATOM     33  C   UNL A   1      43.964  23.438  28.188  1.00  0.00     0.074 A 
ATOM     34  C   UNL A   1      47.270  27.190  32.585  1.00  0.00     0.029 A 
ATOM     35  N   UNL A   1      45.949  25.598  31.825  1.00  0.00    -0.354 N 
ATOM     36  N   UNL A   1      45.165  23.929  28.042  1.00  0.00    -0.248 NA
ATOM     37  C   UNL A   1      43.523  23.074  29.537  1.00  0.00     0.031 C 
ATOM     38  C   UNL A   1      47.123  27.319  31.174  1.00  0.00     0.029 A 
ATOM     39  C   UNL A   1      46.400  26.226  30.716  1.00  0.00     0.049 A 
ATOM     40  H   UNL A   1      45.311  24.849  31.812  1.00  0.00     0.167 HD
ATOM     41  C   UNL A   1      45.428  24.477  29.285  1.00  0.00     0.074 A 
ATOM     42  C   UNL A   1      44.375  23.881  30.190  1.00  0.00     0.031 C 
ATOM     43  C   UNL A   1      46.115  25.674  29.428  1.00  0.00     0.031 A 
BRANCH  30  44
ATOM     44  C   UNL A   1      45.317  24.424  34.514  1.00  0.00    -0.014 A 
ATOM     45  C   UNL A   1      46.336  23.785  35.226  1.00  0.00     0.009 A 
ATOM     46  C   UNL A   1      44.246  23.606  34.066  1.00  0.00     0.009 A 
ATOM     47  C   UNL A   1      46.314  22.411  35.464  1.00  0.00     0.001 A 
ATOM     48  C   UNL A   1      44.193  22.233  34.355  1.00  0.00     0.001 A 
ATOM     49  C   UNL A   1      45.238  21.637  35.045  1.00  0.00     0.000 A 
ENDBRANCH  30  44
BRANCH  31  50
ATOM     50  C   UNL A   1      41.813  22.917  26.771  1.00  0.00    -0.014 A 
ATOM     51  C   UNL A   1      41.909  21.502  26.485  1.00  0.00     0.009 A 
ATOM     52  C   UNL A   1      40.501  23.393  26.769  1.00  0.00     0.009 A 
ATOM     53  C   UNL A   1      40.743  20.687  26.239  1.00  0.00     0.001 A 
ATOM     54  C   UNL A   1      39.362  22.591  26.576  1.00  0.00     0.001 A 
ATOM     55  C   UNL A   1      39.468  21.235  26.320  1.00  0.00     0.000 A 
ENDBRANCH  31  50
BRANCH  43  56
ATOM     56  C   UNL A   1      46.734  26.413  28.247  1.00  0.00    -0.014 A 
ATOM     57  C   UNL A   1      47.999  26.219  27.641  1.00  0.00     0.009 A 
ATOM     58  C   UNL A   1      45.849  27.269  27.585  1.00  0.00     0.009 A 
ATOM     59  C   UNL A   1      48.420  27.034  26.569  1.00  0.00     0.001 A 
ATOM     60  C   UNL A   1      46.239  28.026  26.483  1.00  0.00     0.001 A 
ATOM     61  C   UNL A   1      47.544  27.961  26.014  1.00  0.00     0.000 A 
ENDBRANCH  43  56
ENDBRANCH  17  18
ENDBRANCH  10  12
ENDBRANCH   7   8
ENDBRANCH   6   7
ENDBRANCH   5   6
ENDBRANCH   1   5
BRANCH   2  62
ATOM     62  C   UNL A   1      34.137  34.969  32.562  1.00  0.00     0.076 A 
ATOM     63  C   UNL A   1      33.944  35.072  31.182  1.00  0.00     0.038 A 
ATOM     64  C   UNL A   1      34.042  36.105  33.365  1.00  0.00     0.136 A 
ATOM     65  C   UNL A   1      33.532  36.299  30.649  1.00  0.00     0.085 A 
ATOM     66  C   UNL A   1      33.580  37.304  32.843  1.00  0.00     0.041 A 
ATOM     67  F   UNL A   1      34.310  36.049  34.678  1.00  0.00    -0.206 F 
ATOM     68  C   UNL A   1      33.288  37.395  31.484  1.00  0.00     0.025 A 
BRANCH  65  69
ATOM     69  S   UNL A   1      33.378  36.414  28.886  1.00  0.00     0.257 S 
ATOM     70  O   UNL A   1      32.319  35.468  28.501  1.00  0.00    -0.205 OA
ATOM     71  O   UNL A   1      33.330  37.797  28.546  1.00  0.00    -0.205 OA
BRANCH  69  72
ATOM     72  N   UNL A   1      34.834  35.778  28.251  1.00  0.00    -0.123 NA
ATOM     73  H   UNL A   1      35.515  35.765  29.010  1.00  0.00     0.167 HD
BRANCH  72  74
ATOM     74  N   UNL A   1      34.804  34.446  27.675  1.00  0.00    -0.275 N 
ATOM     75  C   UNL A   1      35.463  33.345  28.140  1.00  0.00     0.265 C 
ATOM     76  H   UNL A   1      34.253  34.323  26.868  1.00  0.00     0.186 HD
ATOM     77  O   UNL A   1      35.302  32.291  27.508  1.00  0.00    -0.271 OA
BRANCH  75  78
ATOM     78  C   UNL A   1      36.415  33.392  29.335  1.00  0.00     0.244 C 
ATOM     79  C   UNL A   1      36.304  32.110  30.073  1.00  0.00     0.042 C 
ATOM     80  N   UNL A   1      37.854  33.414  28.956  1.00  0.00    -0.171 NA
ATOM     81  C   UNL A   1      37.513  31.555  30.002  1.00  0.00     0.091 C 
ATOM     82  N   UNL A   1      38.421  32.356  29.355  1.00  0.00    -0.155 NA
BRANCH  81  83
ATOM     83  C   UNL A   1      37.838  30.230  30.524  1.00  0.00     0.002 A 
ATOM     84  C   UNL A   1      38.546  29.304  29.750  1.00  0.00     0.010 A 
ATOM     85  C   UNL A   1      37.440  29.874  31.821  1.00  0.00     0.010 A 
ATOM     86  C   UNL A   1      38.851  28.042  30.268  1.00  0.00     0.001 A 
ATOM     87  C   UNL A   1      37.754  28.618  32.340  1.00  0.00     0.001 A 
ATOM     88  C   UNL A   1      38.460  27.702  31.563  1.00  0.00     0.000 A 
ENDBRANCH  81  83
ENDBRANCH  75  78
ENDBRANCH  72  74
ENDBRANCH  69  72
ENDBRANCH  65  69
ENDBRANCH   2  62
TORSDOF 15
ENDMDL
MODEL 3
REMARK VINA RESULT:     -12.4      1.318      1.724
REMARK SMILES O=C(NCCCNC(=O)c1cc(S(=O)(=O)NNC(=O)[C@H]2C=C(c3ccccc3)N=N2)ccc1F)c1ccc(-c2c3nc(c(-c4ccccc4)c4ccc([nH]4)c(-c4ccccc4)c4nc(c(-c5ccccc5)c5ccc2[nH]5)C=C4)C=C3)cc1
REMARK SMILES IDX 7 1 8 2 9 3 6 5 5 6 4 7 3 8 1 9 2 10 35 12 36 13 82 14 37 15
REMARK SMILES IDX 81 16 38 17 39 18 40 19 75 20 41 21 80 22 74 23 76 24 42 25
REMARK SMILES IDX 79 26 73 27 72 28 43 30 65 31 50 32 64 33 51 34 54 35 63 36
REMARK SMILES IDX 77 37 52 38 53 39 62 41 78 42 55 43 44 44 45 45 49 46 46 47
REMARK SMILES IDX 48 48 47 49 66 50 67 51 71 52 68 53 70 54 69 55 56 56 57 57
REMARK SMILES IDX 61 58 58 59 60 60 59 61 10 62 11 63 33 64 12 65 32 66 34 67
REMARK SMILES IDX 31 68 13 69 14 70 15 71 16 72 17 74 18 75 19 77 20 78 21 79
REMARK SMILES IDX 30 80 22 81 29 82 23 83 24 84 28 85 25 86 27 87 26 88
REMARK H PARENT 7 4 3 11 76 29 54 40 16 73 17 76
REMARK Flexibility Score: inf
ROOT
ATOM      1  N   UNL A   1      33.152  29.714  24.657  1.00  0.00    -0.352 N 
ATOM      2  C   UNL A   1      33.153  28.645  23.794  1.00  0.00     0.254 C 
ATOM      3  O   UNL A   1      34.122  28.426  23.071  1.00  0.00    -0.269 OA
ATOM      4  H   UNL A   1      33.925  30.319  24.581  1.00  0.00     0.163 HD
ENDROOT
BRANCH   1   5
ATOM      5  C   UNL A   1      32.169  30.083  25.672  1.00  0.00     0.118 C 
BRANCH   5   6
ATOM      6  C   UNL A   1      32.769  30.266  27.060  1.00  0.00     0.042 C 
BRANCH   6   7
ATOM      7  C   UNL A   1      33.208  31.690  27.353  1.00  0.00     0.118 C 
BRANCH   7   8
ATOM      8  N   UNL A   1      33.800  31.834  28.660  1.00  0.00    -0.352 N 
ATOM      9  O   UNL A   1      35.275  32.236  30.245  1.00  0.00    -0.269 OA
ATOM     10  C   UNL A   1      35.084  31.786  29.111  1.00  0.00     0.251 C 
ATOM     11  H   UNL A   1      33.141  32.002  29.372  1.00  0.00     0.163 HD
BRANCH  10  12
ATOM     12  C   UNL A   1      36.163  30.998  28.461  1.00  0.00     0.039 A 
ATOM     13  C   UNL A   1      36.141  29.772  27.796  1.00  0.00     0.014 A 
ATOM     14  C   UNL A   1      37.421  31.495  28.770  1.00  0.00     0.014 A 
ATOM     15  C   UNL A   1      37.325  28.922  27.897  1.00  0.00     0.010 A 
ATOM     16  C   UNL A   1      38.539  30.721  28.519  1.00  0.00     0.010 A 
ATOM     17  C   UNL A   1      38.497  29.339  28.656  1.00  0.00    -0.014 A 
BRANCH  17  18
ATOM     18  C   UNL A   1      40.054  28.750  28.719  1.00  0.00     0.031 A 
ATOM     19  C   UNL A   1      39.994  28.574  30.459  1.00  0.00     0.074 A 
ATOM     20  C   UNL A   1      41.112  28.384  27.640  1.00  0.00     0.049 A 
ATOM     21  N   UNL A   1      40.308  29.535  31.299  1.00  0.00    -0.248 NA
ATOM     22  C   UNL A   1      39.086  27.640  31.335  1.00  0.00     0.031 C 
ATOM     23  C   UNL A   1      41.277  28.376  26.027  1.00  0.00     0.029 A 
ATOM     24  N   UNL A   1      42.478  27.864  27.733  1.00  0.00    -0.354 N 
ATOM     25  C   UNL A   1      40.378  28.910  32.563  1.00  0.00     0.074 A 
ATOM     26  C   UNL A   1      39.360  27.950  32.610  1.00  0.00     0.031 C 
ATOM     27  C   UNL A   1      42.276  27.526  25.530  1.00  0.00     0.029 A 
ATOM     28  C   UNL A   1      43.107  27.069  26.619  1.00  0.00     0.049 A 
ATOM     29  H   UNL A   1      43.001  28.039  28.548  1.00  0.00     0.167 HD
ATOM     30  C   UNL A   1      41.596  28.756  33.135  1.00  0.00     0.031 A 
ATOM     31  C   UNL A   1      44.318  26.315  26.578  1.00  0.00     0.031 A 
ATOM     32  C   UNL A   1      42.481  29.659  32.457  1.00  0.00     0.049 A 
ATOM     33  C   UNL A   1      44.957  26.597  27.894  1.00  0.00     0.074 A 
ATOM     34  C   UNL A   1      42.463  31.017  32.205  1.00  0.00     0.029 A 
ATOM     35  N   UNL A   1      43.038  29.059  31.371  1.00  0.00    -0.354 N 
ATOM     36  N   UNL A   1      45.444  27.778  28.165  1.00  0.00    -0.248 NA
ATOM     37  C   UNL A   1      44.270  25.869  28.963  1.00  0.00     0.031 C 
ATOM     38  C   UNL A   1      42.974  31.187  30.886  1.00  0.00     0.029 A 
ATOM     39  C   UNL A   1      43.448  29.958  30.448  1.00  0.00     0.049 A 
ATOM     40  H   UNL A   1      43.131  28.085  31.269  1.00  0.00     0.167 HD
ATOM     41  C   UNL A   1      44.657  28.203  29.220  1.00  0.00     0.074 A 
ATOM     42  C   UNL A   1      43.959  26.949  29.698  1.00  0.00     0.031 C 
ATOM     43  C   UNL A   1      44.247  29.521  29.344  1.00  0.00     0.031 A 
BRANCH  30  44
ATOM     44  C   UNL A   1      42.100  27.444  33.719  1.00  0.00    -0.014 A 
ATOM     45  C   UNL A   1      41.532  27.096  34.949  1.00  0.00     0.009 A 
ATOM     46  C   UNL A   1      43.227  26.687  33.304  1.00  0.00     0.009 A 
ATOM     47  C   UNL A   1      42.058  26.073  35.737  1.00  0.00     0.001 A 
ATOM     48  C   UNL A   1      43.723  25.619  34.069  1.00  0.00     0.001 A 
ATOM     49  C   UNL A   1      43.142  25.324  35.293  1.00  0.00     0.000 A 
ENDBRANCH  30  44
BRANCH  31  50
ATOM     50  C   UNL A   1      44.668  24.951  25.865  1.00  0.00    -0.014 A 
ATOM     51  C   UNL A   1      43.880  23.999  25.116  1.00  0.00     0.009 A 
ATOM     52  C   UNL A   1      46.044  24.791  25.689  1.00  0.00     0.009 A 
ATOM     53  C   UNL A   1      44.485  23.000  24.266  1.00  0.00     0.001 A 
ATOM     54  C   UNL A   1      46.633  23.850  24.827  1.00  0.00     0.001 A 
ATOM     55  C   UNL A   1      45.865  22.955  24.101  1.00  0.00     0.000 A 
ENDBRANCH  31  50
BRANCH  43  56
ATOM     56  C   UNL A   1      44.723  30.623  28.405  1.00  0.00    -0.014 A 
ATOM     57  C   UNL A   1      45.966  31.303  28.389  1.00  0.00     0.009 A 
ATOM     58  C   UNL A   1      43.873  30.852  27.320  1.00  0.00     0.009 A 
ATOM     59  C   UNL A   1      46.216  32.332  27.457  1.00  0.00     0.001 A 
ATOM     60  C   UNL A   1      44.147  31.821  26.358  1.00  0.00     0.001 A 
ATOM     61  C   UNL A   1      45.285  32.609  26.461  1.00  0.00     0.000 A 
ENDBRANCH  43  56
ENDBRANCH  17  18
ENDBRANCH  10  12
ENDBRANCH   7   8
ENDBRANCH   6   7
ENDBRANCH   5   6
ENDBRANCH   1   5
BRANCH   2  62
ATOM     62  C   UNL A   1      32.012  27.717  23.783  1.00  0.00     0.076 A 
ATOM     63  C   UNL A   1      32.065  26.554  24.556  1.00  0.00     0.038 A 
ATOM     64  C   UNL A   1      30.864  28.011  23.047  1.00  0.00     0.136 A 
ATOM     65  C   UNL A   1      30.912  25.771  24.677  1.00  0.00     0.085 A 
ATOM     66  C   UNL A   1      29.706  27.264  23.213  1.00  0.00     0.041 A 
ATOM     67  F   UNL A   1      30.820  29.072  22.228  1.00  0.00    -0.206 F 
ATOM     68  C   UNL A   1      29.717  26.158  24.059  1.00  0.00     0.025 A 
BRANCH  65  69
ATOM     69  S   UNL A   1      31.041  24.261  25.598  1.00  0.00     0.257 S 
ATOM     70  O   UNL A   1      30.371  24.504  26.885  1.00  0.00    -0.205 OA
ATOM     71  O   UNL A   1      30.670  23.192  24.732  1.00  0.00    -0.205 OA
BRANCH  69  72
ATOM     72  N   UNL A   1      32.704  24.078  25.958  1.00  0.00    -0.123 NA
ATOM     73  H   UNL A   1      32.904  24.664  26.770  1.00  0.00     0.167 HD
BRANCH  72  74
ATOM     74  N   UNL A   1      33.197  22.746  26.255  1.00  0.00    -0.275 N 
ATOM     75  C   UNL A   1      34.420  22.241  25.924  1.00  0.00     0.265 C 
ATOM     76  H   UNL A   1      32.588  22.147  26.746  1.00  0.00     0.186 HD
ATOM     77  O   UNL A   1      34.655  21.076  26.275  1.00  0.00    -0.271 OA
BRANCH  75  78
ATOM     78  C   UNL A   1      35.443  23.020  25.098  1.00  0.00     0.244 C 
ATOM     79  C   UNL A   1      36.383  23.692  26.029  1.00  0.00     0.042 C 
ATOM     80  N   UNL A   1      36.355  22.156  24.299  1.00  0.00    -0.171 NA
ATOM     81  C   UNL A   1      37.580  23.172  25.760  1.00  0.00     0.091 C 
ATOM     82  N   UNL A   1      37.543  22.280  24.717  1.00  0.00    -0.155 NA
BRANCH  81  83
ATOM     83  C   UNL A   1      38.795  23.485  26.507  1.00  0.00     0.002 A 
ATOM     84  C   UNL A   1      39.817  22.540  26.651  1.00  0.00     0.010 A 
ATOM     85  C   UNL A   1      38.948  24.750  27.091  1.00  0.00     0.010 A 
ATOM     86  C   UNL A   1      40.975  22.859  27.366  1.00  0.00     0.001 A 
ATOM     87  C   UNL A   1      40.109  25.072  27.796  1.00  0.00     0.001 A 
ATOM     88  C   UNL A   1      41.122  24.125  27.933  1.00  0.00     0.000 A 
ENDBRANCH  81  83
ENDBRANCH  75  78
ENDBRANCH  72  74
ENDBRANCH  69  72
ENDBRANCH  65  69
ENDBRANCH   2  62
TORSDOF 15
ENDMDL
