MODEL 1
REMARK VINA RESULT:     -12.7      0.000      0.000
REMARK SMILES O=C(NCCCNC(=O)[C@H](CO)NC(=O)[C@H](Cc1c[nH]c2ccccc12)NC(=O)[C@H](Cc1ccc(O)cc1)NC(=O)c1ccc(F)cc1)c1ccc(-c2c3nc(c(-c4ccccc4)c4ccc([nH]4)c(-c4ccccc4)c4nc(c(-c5ccccc5)c5ccc2[nH]5)C=C4)C=C3)cc1
REMARK SMILES IDX 7 1 8 2 9 3 6 5 5 6 4 7 3 8 1 9 2 10 49 12 50 13 96 14 51 15
REMARK SMILES IDX 95 16 52 17 53 18 54 19 89 20 55 21 94 22 88 23 90 24 56 25
REMARK SMILES IDX 93 26 87 27 86 28 57 30 79 31 64 32 78 33 65 34 68 35 77 36
REMARK SMILES IDX 91 37 66 38 67 39 76 41 92 42 69 43 58 44 59 45 63 46 60 47
REMARK SMILES IDX 62 48 61 49 80 50 81 51 85 52 82 53 84 54 83 55 70 56 71 57
REMARK SMILES IDX 75 58 72 59 74 60 73 61 10 62 13 63 14 64 15 66 16 67 27 68
REMARK SMILES IDX 28 69 29 71 30 72 39 73 40 74 41 76 42 77 43 78 48 79 44 80
REMARK SMILES IDX 47 81 45 82 46 83 31 84 32 85 33 86 38 87 34 88 37 89 35 90
REMARK SMILES IDX 36 91 17 93 18 94 19 95 26 96 20 97 21 98 25 99 22 101
REMARK SMILES IDX 24 102 23 103 11 104 12 105
REMARK H PARENT 7 4 3 11 90 29 68 40 13 65 27 70 39 75 36 92 20 100 12 106
REMARK Flexibility Score: inf
ROOT
ATOM      1  N   UNL A   1      32.693  30.516  26.823  1.00  0.00    -0.354 N 
ATOM      2  C   UNL A   1      33.187  29.266  26.617  1.00  0.00     0.244 C 
ATOM      3  O   UNL A   1      34.316  29.017  27.045  1.00  0.00    -0.273 OA
ATOM      4  H   UNL A   1      33.308  31.155  27.248  1.00  0.00     0.163 HD
ENDROOT
BRANCH   1   5
ATOM      5  C   UNL A   1      31.372  31.031  26.493  1.00  0.00     0.117 C 
BRANCH   5   6
ATOM      6  C   UNL A   1      31.404  32.548  26.471  1.00  0.00     0.042 C 
BRANCH   6   7
ATOM      7  C   UNL A   1      32.545  33.065  27.333  1.00  0.00     0.118 C 
BRANCH   7   8
ATOM      8  N   UNL A   1      32.346  34.455  27.715  1.00  0.00    -0.352 N 
ATOM      9  O   UNL A   1      32.554  36.273  29.042  1.00  0.00    -0.269 OA
ATOM     10  C   UNL A   1      32.977  35.184  28.702  1.00  0.00     0.251 C 
ATOM     11  H   UNL A   1      31.666  34.944  27.198  1.00  0.00     0.163 HD
BRANCH  10  12
ATOM     12  C   UNL A   1      34.161  34.597  29.365  1.00  0.00     0.039 A 
ATOM     13  C   UNL A   1      35.417  34.711  28.771  1.00  0.00     0.014 A 
ATOM     14  C   UNL A   1      34.007  33.900  30.565  1.00  0.00     0.014 A 
ATOM     15  C   UNL A   1      36.474  33.961  29.258  1.00  0.00     0.010 A 
ATOM     16  C   UNL A   1      35.113  33.265  31.136  1.00  0.00     0.010 A 
ATOM     17  C   UNL A   1      36.349  33.264  30.469  1.00  0.00    -0.014 A 
BRANCH  17  18
ATOM     18  C   UNL A   1      37.552  32.639  31.066  1.00  0.00     0.031 A 
ATOM     19  C   UNL A   1      38.244  31.480  30.410  1.00  0.00     0.074 A 
ATOM     20  C   UNL A   1      38.013  33.139  32.230  1.00  0.00     0.049 A 
ATOM     21  N   UNL A   1      39.267  30.787  30.839  1.00  0.00    -0.248 NA
ATOM     22  C   UNL A   1      37.714  31.032  29.113  1.00  0.00     0.031 C 
ATOM     23  C   UNL A   1      37.415  34.263  32.960  1.00  0.00     0.029 A 
ATOM     24  N   UNL A   1      39.085  32.779  33.002  1.00  0.00    -0.354 N 
ATOM     25  C   UNL A   1      39.481  29.797  29.888  1.00  0.00     0.074 A 
ATOM     26  C   UNL A   1      38.473  29.972  28.864  1.00  0.00     0.031 C 
ATOM     27  C   UNL A   1      38.152  34.527  34.044  1.00  0.00     0.029 A 
ATOM     28  C   UNL A   1      39.210  33.533  34.143  1.00  0.00     0.049 A 
ATOM     29  H   UNL A   1      39.705  32.054  32.762  1.00  0.00     0.167 HD
ATOM     30  C   UNL A   1      40.429  28.828  29.879  1.00  0.00     0.031 A 
ATOM     31  C   UNL A   1      40.046  33.413  35.187  1.00  0.00     0.031 A 
ATOM     32  C   UNL A   1      41.421  28.664  30.912  1.00  0.00     0.049 A 
ATOM     33  C   UNL A   1      41.058  32.310  35.174  1.00  0.00     0.074 A 
ATOM     34  C   UNL A   1      42.450  27.741  30.982  1.00  0.00     0.029 A 
ATOM     35  N   UNL A   1      41.498  29.435  32.064  1.00  0.00    -0.354 N 
ATOM     36  N   UNL A   1      41.267  31.401  34.252  1.00  0.00    -0.248 NA
ATOM     37  C   UNL A   1      41.943  32.213  36.338  1.00  0.00     0.031 C 
ATOM     38  C   UNL A   1      43.108  27.911  32.205  1.00  0.00     0.029 A 
ATOM     39  C   UNL A   1      42.534  28.986  32.867  1.00  0.00     0.049 A 
ATOM     40  H   UNL A   1      40.904  30.190  32.278  1.00  0.00     0.167 HD
ATOM     41  C   UNL A   1      42.320  30.629  34.718  1.00  0.00     0.074 A 
ATOM     42  C   UNL A   1      42.715  31.191  35.996  1.00  0.00     0.031 C 
ATOM     43  C   UNL A   1      42.904  29.552  34.139  1.00  0.00     0.031 A 
BRANCH  30  44
ATOM     44  C   UNL A   1      40.402  27.837  28.746  1.00  0.00    -0.014 A 
ATOM     45  C   UNL A   1      39.703  26.622  28.841  1.00  0.00     0.009 A 
ATOM     46  C   UNL A   1      41.075  28.134  27.550  1.00  0.00     0.009 A 
ATOM     47  C   UNL A   1      39.718  25.710  27.782  1.00  0.00     0.001 A 
ATOM     48  C   UNL A   1      41.063  27.236  26.480  1.00  0.00     0.001 A 
ATOM     49  C   UNL A   1      40.396  26.019  26.602  1.00  0.00     0.000 A 
ENDBRANCH  30  44
BRANCH  31  50
ATOM     50  C   UNL A   1      39.907  34.341  36.337  1.00  0.00    -0.014 A 
ATOM     51  C   UNL A   1      39.157  33.981  37.465  1.00  0.00     0.009 A 
ATOM     52  C   UNL A   1      40.590  35.570  36.338  1.00  0.00     0.009 A 
ATOM     53  C   UNL A   1      39.089  34.837  38.567  1.00  0.00     0.001 A 
ATOM     54  C   UNL A   1      40.547  36.406  37.454  1.00  0.00     0.001 A 
ATOM     55  C   UNL A   1      39.791  36.042  38.565  1.00  0.00     0.000 A 
ENDBRANCH  31  50
BRANCH  43  56
ATOM     56  C   UNL A   1      44.059  28.930  34.873  1.00  0.00    -0.014 A 
ATOM     57  C   UNL A   1      45.375  29.374  34.674  1.00  0.00     0.009 A 
ATOM     58  C   UNL A   1      43.814  27.912  35.809  1.00  0.00     0.009 A 
ATOM     59  C   UNL A   1      46.428  28.792  35.383  1.00  0.00     0.001 A 
ATOM     60  C   UNL A   1      44.865  27.355  36.537  1.00  0.00     0.001 A 
ATOM     61  C   UNL A   1      46.171  27.789  36.318  1.00  0.00     0.000 A 
ENDBRANCH  43  56
ENDBRANCH  17  18
ENDBRANCH  10  12
ENDBRANCH   7   8
ENDBRANCH   6   7
ENDBRANCH   5   6
ENDBRANCH   1   5
BRANCH   2  62
ATOM     62  C   UNL A   1      32.293  28.196  25.960  1.00  0.00     0.197 C 
BRANCH  62  63
ATOM     63  N   UNL A   1      33.146  27.393  25.075  1.00  0.00    -0.340 N 
ATOM     64  C   UNL A   1      33.199  27.592  23.724  1.00  0.00     0.243 C 
ATOM     65  H   UNL A   1      33.703  26.685  25.470  1.00  0.00     0.164 HD
ATOM     66  O   UNL A   1      34.184  28.219  23.332  1.00  0.00    -0.273 OA
BRANCH  64  67
ATOM     67  C   UNL A   1      32.115  27.065  22.747  1.00  0.00     0.175 C 
BRANCH  67  68
ATOM     68  N   UNL A   1      32.765  26.549  21.540  1.00  0.00    -0.342 N 
ATOM     69  C   UNL A   1      33.044  25.249  21.232  1.00  0.00     0.243 C 
ATOM     70  H   UNL A   1      33.033  27.221  20.872  1.00  0.00     0.164 HD
ATOM     71  O   UNL A   1      33.012  24.990  20.019  1.00  0.00    -0.273 OA
BRANCH  69  72
ATOM     72  C   UNL A   1      33.624  24.174  22.208  1.00  0.00     0.176 C 
BRANCH  72  73
ATOM     73  N   UNL A   1      32.756  23.001  21.972  1.00  0.00    -0.340 N 
ATOM     74  C   UNL A   1      32.214  22.085  22.834  1.00  0.00     0.251 C 
ATOM     75  H   UNL A   1      32.527  22.851  21.027  1.00  0.00     0.164 HD
ATOM     76  O   UNL A   1      31.573  21.140  22.381  1.00  0.00    -0.269 OA
BRANCH  74  77
ATOM     77  C   UNL A   1      32.444  22.169  24.292  1.00  0.00     0.040 A 
ATOM     78  C   UNL A   1      31.861  23.163  25.085  1.00  0.00     0.017 A 
ATOM     79  C   UNL A   1      33.228  21.169  24.888  1.00  0.00     0.017 A 
ATOM     80  C   UNL A   1      32.138  23.212  26.452  1.00  0.00     0.040 A 
ATOM     81  C   UNL A   1      33.486  21.210  26.259  1.00  0.00     0.040 A 
ATOM     82  C   UNL A   1      32.954  22.241  27.025  1.00  0.00     0.123 A 
ATOM     83  F   UNL A   1      33.220  22.294  28.336  1.00  0.00    -0.207 F 
ENDBRANCH  74  77
ENDBRANCH  72  73
BRANCH  72  84
ATOM     84  C   UNL A   1      35.087  23.703  22.256  1.00  0.00     0.070 C 
BRANCH  84  85
ATOM     85  C   UNL A   1      35.702  23.371  23.601  1.00  0.00    -0.045 A 
ATOM     86  C   UNL A   1      36.591  22.277  23.669  1.00  0.00     0.007 A 
ATOM     87  C   UNL A   1      35.495  24.149  24.748  1.00  0.00     0.007 A 
ATOM     88  C   UNL A   1      37.378  22.071  24.799  1.00  0.00     0.046 A 
ATOM     89  C   UNL A   1      36.273  23.934  25.889  1.00  0.00     0.046 A 
ATOM     90  C   UNL A   1      37.240  22.934  25.877  1.00  0.00     0.115 A 
BRANCH  90  91
ATOM     91  O   UNL A   1      38.212  22.953  26.833  1.00  0.00    -0.508 OA
ATOM     92  H   UNL A   1      39.037  23.359  26.654  1.00  0.00     0.293 HD
ENDBRANCH  90  91
ENDBRANCH  84  85
ENDBRANCH  72  84
ENDBRANCH  69  72
ENDBRANCH  67  68
BRANCH  67  93
ATOM     93  C   UNL A   1      30.909  26.229  23.243  1.00  0.00     0.072 C 
BRANCH  93  94
ATOM     94  C   UNL A   1      29.561  26.867  23.423  1.00  0.00    -0.020 A 
ATOM     95  C   UNL A   1      28.396  26.304  23.898  1.00  0.00     0.087 A 
ATOM     96  C   UNL A   1      29.250  28.272  23.310  1.00  0.00     0.003 A 
ATOM     97  N   UNL A   1      27.364  27.166  23.685  1.00  0.00    -0.361 N 
ATOM     98  C   UNL A   1      27.859  28.396  23.359  1.00  0.00     0.046 A 
ATOM     99  C   UNL A   1      30.006  29.457  23.190  1.00  0.00     0.010 A 
ATOM    100  H   UNL A   1      26.409  26.938  23.755  1.00  0.00     0.166 HD
ATOM    101  C   UNL A   1      27.177  29.597  23.160  1.00  0.00     0.026 A 
ATOM    102  C   UNL A   1      29.338  30.690  23.102  1.00  0.00     0.001 A 
ATOM    103  C   UNL A   1      27.947  30.751  23.047  1.00  0.00     0.002 A 
ENDBRANCH  93  94
ENDBRANCH  67  93
ENDBRANCH  64  67
ENDBRANCH  62  63
BRANCH  62 104
ATOM    104  C   UNL A   1      31.756  27.333  27.121  1.00  0.00     0.191 C 
BRANCH 104 105
ATOM    105  O   UNL A   1      31.688  28.028  28.365  1.00  0.00    -0.394 OA
ATOM    106  H   UNL A   1      31.302  27.446  29.040  1.00  0.00     0.210 HD
ENDBRANCH 104 105
ENDBRANCH  62 104
ENDBRANCH   2  62
TORSDOF 23
ENDMDL
MODEL 2
REMARK VINA RESULT:     -12.5      0.819      5.326
REMARK SMILES O=C(NCCCNC(=O)[C@H](CO)NC(=O)[C@H](Cc1c[nH]c2ccccc12)NC(=O)[C@H](Cc1ccc(O)cc1)NC(=O)c1ccc(F)cc1)c1ccc(-c2c3nc(c(-c4ccccc4)c4ccc([nH]4)c(-c4ccccc4)c4nc(c(-c5ccccc5)c5ccc2[nH]5)C=C4)C=C3)cc1
REMARK SMILES IDX 7 1 8 2 9 3 6 5 5 6 4 7 3 8 1 9 2 10 49 12 50 13 96 14 51 15
REMARK SMILES IDX 95 16 52 17 53 18 54 19 89 20 55 21 94 22 88 23 90 24 56 25
REMARK SMILES IDX 93 26 87 27 86 28 57 30 79 31 64 32 78 33 65 34 68 35 77 36
REMARK SMILES IDX 91 37 66 38 67 39 76 41 92 42 69 43 58 44 59 45 63 46 60 47
REMARK SMILES IDX 62 48 61 49 80 50 81 51 85 52 82 53 84 54 83 55 70 56 71 57
REMARK SMILES IDX 75 58 72 59 74 60 73 61 10 62 13 63 14 64 15 66 16 67 27 68
REMARK SMILES IDX 28 69 29 71 30 72 39 73 40 74 41 76 42 77 43 78 48 79 44 80
REMARK SMILES IDX 47 81 45 82 46 83 31 84 32 85 33 86 38 87 34 88 37 89 35 90
REMARK SMILES IDX 36 91 17 93 18 94 19 95 26 96 20 97 21 98 25 99 22 101
REMARK SMILES IDX 24 102 23 103 11 104 12 105
REMARK H PARENT 7 4 3 11 90 29 68 40 13 65 27 70 39 75 36 92 20 100 12 106
REMARK Flexibility Score: inf
ROOT
ATOM      1  N   UNL A   1      32.638  30.392  26.760  1.00  0.00    -0.354 N 
ATOM      2  C   UNL A   1      33.007  29.085  26.684  1.00  0.00     0.244 C 
ATOM      3  O   UNL A   1      34.037  28.744  27.270  1.00  0.00    -0.273 OA
ATOM      4  H   UNL A   1      33.264  30.987  27.232  1.00  0.00     0.163 HD
ENDROOT
BRANCH   1   5
ATOM      5  C   UNL A   1      31.436  31.024  26.234  1.00  0.00     0.117 C 
BRANCH   5   6
ATOM      6  C   UNL A   1      31.439  32.501  26.585  1.00  0.00     0.042 C 
BRANCH   6   7
ATOM      7  C   UNL A   1      32.747  32.882  27.260  1.00  0.00     0.118 C 
BRANCH   7   8
ATOM      8  N   UNL A   1      32.681  34.208  27.854  1.00  0.00    -0.352 N 
ATOM      9  O   UNL A   1      33.108  35.786  29.416  1.00  0.00    -0.269 OA
ATOM     10  C   UNL A   1      33.424  34.733  28.892  1.00  0.00     0.251 C 
ATOM     11  H   UNL A   1      32.014  34.816  27.462  1.00  0.00     0.163 HD
BRANCH  10  12
ATOM     12  C   UNL A   1      34.593  33.971  29.380  1.00  0.00     0.039 A 
ATOM     13  C   UNL A   1      34.402  32.827  30.153  1.00  0.00     0.014 A 
ATOM     14  C   UNL A   1      35.882  34.425  29.095  1.00  0.00     0.014 A 
ATOM     15  C   UNL A   1      35.479  32.257  30.809  1.00  0.00     0.010 A 
ATOM     16  C   UNL A   1      36.980  33.756  29.642  1.00  0.00     0.010 A 
ATOM     17  C   UNL A   1      36.785  32.686  30.529  1.00  0.00    -0.014 A 
BRANCH  17  18
ATOM     18  C   UNL A   1      37.927  31.926  31.091  1.00  0.00     0.031 A 
ATOM     19  C   UNL A   1      38.474  32.225  32.457  1.00  0.00     0.074 A 
ATOM     20  C   UNL A   1      38.472  30.952  30.336  1.00  0.00     0.049 A 
ATOM     21  N   UNL A   1      39.505  31.692  33.061  1.00  0.00    -0.248 NA
ATOM     22  C   UNL A   1      37.786  33.262  33.241  1.00  0.00     0.031 C 
ATOM     23  C   UNL A   1      38.022  30.578  28.990  1.00  0.00     0.029 A 
ATOM     24  N   UNL A   1      39.511  30.096  30.585  1.00  0.00    -0.354 N 
ATOM     25  C   UNL A   1      39.616  32.354  34.278  1.00  0.00     0.074 A 
ATOM     26  C   UNL A   1      38.554  33.336  34.321  1.00  0.00     0.031 C 
ATOM     27  C   UNL A   1      38.749  29.544  28.553  1.00  0.00     0.029 A 
ATOM     28  C   UNL A   1      39.778  29.248  29.538  1.00  0.00     0.049 A 
ATOM     29  H   UNL A   1      40.015  30.088  31.430  1.00  0.00     0.167 HD
ATOM     30  C   UNL A   1      40.527  32.159  35.261  1.00  0.00     0.031 A 
ATOM     31  C   UNL A   1      40.772  28.363  29.357  1.00  0.00     0.031 A 
ATOM     32  C   UNL A   1      41.584  31.181  35.198  1.00  0.00     0.049 A 
ATOM     33  C   UNL A   1      41.790  28.196  30.441  1.00  0.00     0.074 A 
ATOM     34  C   UNL A   1      42.537  30.876  36.154  1.00  0.00     0.029 A 
ATOM     35  N   UNL A   1      41.834  30.358  34.108  1.00  0.00    -0.354 N 
ATOM     36  N   UNL A   1      41.864  28.807  31.599  1.00  0.00    -0.248 NA
ATOM     37  C   UNL A   1      42.861  27.225  30.195  1.00  0.00     0.031 C 
ATOM     38  C   UNL A   1      43.402  29.916  35.618  1.00  0.00     0.029 A 
ATOM     39  C   UNL A   1      42.947  29.570  34.354  1.00  0.00     0.049 A 
ATOM     40  H   UNL A   1      41.299  30.336  33.282  1.00  0.00     0.167 HD
ATOM     41  C   UNL A   1      42.982  28.284  32.229  1.00  0.00     0.074 A 
ATOM     42  C   UNL A   1      43.543  27.294  31.331  1.00  0.00     0.031 C 
ATOM     43  C   UNL A   1      43.496  28.598  33.443  1.00  0.00     0.031 A 
BRANCH  30  44
ATOM     44  C   UNL A   1      40.456  33.063  36.465  1.00  0.00    -0.014 A 
ATOM     45  C   UNL A   1      39.647  32.760  37.572  1.00  0.00     0.009 A 
ATOM     46  C   UNL A   1      41.232  34.233  36.498  1.00  0.00     0.009 A 
ATOM     47  C   UNL A   1      39.582  33.631  38.663  1.00  0.00     0.001 A 
ATOM     48  C   UNL A   1      41.190  35.087  37.602  1.00  0.00     0.001 A 
ATOM     49  C   UNL A   1      40.354  34.793  38.678  1.00  0.00     0.000 A 
ENDBRANCH  30  44
BRANCH  31  50
ATOM     50  C   UNL A   1      40.856  27.620  28.074  1.00  0.00    -0.014 A 
ATOM     51  C   UNL A   1      41.593  28.128  26.997  1.00  0.00     0.009 A 
ATOM     52  C   UNL A   1      40.253  26.356  27.951  1.00  0.00     0.009 A 
ATOM     53  C   UNL A   1      41.718  27.388  25.818  1.00  0.00     0.001 A 
ATOM     54  C   UNL A   1      40.408  25.605  26.785  1.00  0.00     0.001 A 
ATOM     55  C   UNL A   1      41.136  26.125  25.717  1.00  0.00     0.000 A 
ENDBRANCH  31  50
BRANCH  43  56
ATOM     56  C   UNL A   1      44.714  27.836  33.883  1.00  0.00    -0.014 A 
ATOM     57  C   UNL A   1      46.007  28.319  33.631  1.00  0.00     0.009 A 
ATOM     58  C   UNL A   1      44.559  26.638  34.597  1.00  0.00     0.009 A 
ATOM     59  C   UNL A   1      47.123  27.602  34.067  1.00  0.00     0.001 A 
ATOM     60  C   UNL A   1      45.675  25.940  35.057  1.00  0.00     0.001 A 
ATOM     61  C   UNL A   1      46.956  26.418  34.785  1.00  0.00     0.000 A 
ENDBRANCH  43  56
ENDBRANCH  17  18
ENDBRANCH  10  12
ENDBRANCH   7   8
ENDBRANCH   6   7
ENDBRANCH   5   6
ENDBRANCH   1   5
BRANCH   2  62
ATOM     62  C   UNL A   1      32.086  28.078  25.969  1.00  0.00     0.197 C 
BRANCH  62  63
ATOM     63  N   UNL A   1      32.938  27.206  25.152  1.00  0.00    -0.340 N 
ATOM     64  C   UNL A   1      33.108  27.390  23.808  1.00  0.00     0.243 C 
ATOM     65  H   UNL A   1      33.407  26.459  25.589  1.00  0.00     0.164 HD
ATOM     66  O   UNL A   1      34.166  27.937  23.492  1.00  0.00    -0.273 OA
BRANCH  64  67
ATOM     67  C   UNL A   1      32.064  26.942  22.752  1.00  0.00     0.175 C 
BRANCH  67  68
ATOM     68  N   UNL A   1      32.763  26.450  21.563  1.00  0.00    -0.342 N 
ATOM     69  C   UNL A   1      33.065  25.158  21.247  1.00  0.00     0.243 C 
ATOM     70  H   UNL A   1      33.049  27.135  20.915  1.00  0.00     0.164 HD
ATOM     71  O   UNL A   1      33.081  24.916  20.029  1.00  0.00    -0.273 OA
BRANCH  69  72
ATOM     72  C   UNL A   1      33.621  24.073  22.228  1.00  0.00     0.176 C 
BRANCH  72  73
ATOM     73  N   UNL A   1      32.747  22.908  21.971  1.00  0.00    -0.340 N 
ATOM     74  C   UNL A   1      32.214  21.971  22.815  1.00  0.00     0.251 C 
ATOM     75  H   UNL A   1      32.506  22.784  21.025  1.00  0.00     0.164 HD
ATOM     76  O   UNL A   1      31.566  21.039  22.345  1.00  0.00    -0.269 OA
BRANCH  74  77
ATOM     77  C   UNL A   1      32.462  22.015  24.272  1.00  0.00     0.040 A 
ATOM     78  C   UNL A   1      33.299  21.097  24.916  1.00  0.00     0.017 A 
ATOM     79  C   UNL A   1      31.875  23.060  25.002  1.00  0.00     0.017 A 
ATOM     80  C   UNL A   1      33.472  21.168  26.299  1.00  0.00     0.040 A 
ATOM     81  C   UNL A   1      32.067  23.138  26.382  1.00  0.00     0.040 A 
ATOM     82  C   UNL A   1      32.848  22.182  27.021  1.00  0.00     0.123 A 
ATOM     83  F   UNL A   1      33.013  22.243  28.348  1.00  0.00    -0.207 F 
ENDBRANCH  74  77
ENDBRANCH  72  73
BRANCH  72  84
ATOM     84  C   UNL A   1      35.079  23.590  22.299  1.00  0.00     0.070 C 
BRANCH  84  85
ATOM     85  C   UNL A   1      35.698  23.341  23.660  1.00  0.00    -0.045 A 
ATOM     86  C   UNL A   1      36.661  22.316  23.769  1.00  0.00     0.007 A 
ATOM     87  C   UNL A   1      35.422  24.136  24.782  1.00  0.00     0.007 A 
ATOM     88  C   UNL A   1      37.445  22.198  24.913  1.00  0.00     0.046 A 
ATOM     89  C   UNL A   1      36.198  24.008  25.936  1.00  0.00     0.046 A 
ATOM     90  C   UNL A   1      37.233  23.080  25.964  1.00  0.00     0.115 A 
BRANCH  90  91
ATOM     91  O   UNL A   1      38.189  23.194  26.930  1.00  0.00    -0.508 OA
ATOM     92  H   UNL A   1      37.958  23.503  27.784  1.00  0.00     0.293 HD
ENDBRANCH  90  91
ENDBRANCH  84  85
ENDBRANCH  72  84
ENDBRANCH  69  72
ENDBRANCH  67  68
BRANCH  67  93
ATOM     93  C   UNL A   1      30.804  26.132  23.147  1.00  0.00     0.072 C 
BRANCH  93  94
ATOM     94  C   UNL A   1      29.490  26.826  23.372  1.00  0.00    -0.020 A 
ATOM     95  C   UNL A   1      28.343  26.332  23.955  1.00  0.00     0.087 A 
ATOM     96  C   UNL A   1      29.215  28.231  23.190  1.00  0.00     0.003 A 
ATOM     97  N   UNL A   1      27.325  27.215  23.753  1.00  0.00    -0.361 N 
ATOM     98  C   UNL A   1      27.835  28.405  23.320  1.00  0.00     0.046 A 
ATOM     99  C   UNL A   1      29.997  29.380  22.948  1.00  0.00     0.010 A 
ATOM    100  H   UNL A   1      26.370  27.025  23.898  1.00  0.00     0.166 HD
ATOM    101  C   UNL A   1      27.178  29.615  23.089  1.00  0.00     0.026 A 
ATOM    102  C   UNL A   1      29.363  30.627  22.826  1.00  0.00     0.001 A 
ATOM    103  C   UNL A   1      27.973  30.732  22.855  1.00  0.00     0.002 A 
ENDBRANCH  93  94
ENDBRANCH  67  93
ENDBRANCH  64  67
ENDBRANCH  62  63
BRANCH  62 104
ATOM    104  C   UNL A   1      31.403  27.269  27.091  1.00  0.00     0.191 C 
BRANCH 104 105
ATOM    105  O   UNL A   1      31.308  27.974  28.327  1.00  0.00    -0.394 OA
ATOM    106  H   UNL A   1      30.982  27.375  29.018  1.00  0.00     0.210 HD
ENDBRANCH 104 105
ENDBRANCH  62 104
ENDBRANCH   2  62
TORSDOF 23
ENDMDL
MODEL 3
REMARK VINA RESULT:     -12.0      4.284      9.820
REMARK SMILES O=C(NCCCNC(=O)[C@H](CO)NC(=O)[C@H](Cc1c[nH]c2ccccc12)NC(=O)[C@H](Cc1ccc(O)cc1)NC(=O)c1ccc(F)cc1)c1ccc(-c2c3nc(c(-c4ccccc4)c4ccc([nH]4)c(-c4ccccc4)c4nc(c(-c5ccccc5)c5ccc2[nH]5)C=C4)C=C3)cc1
REMARK SMILES IDX 7 1 8 2 9 3 6 5 5 6 4 7 3 8 1 9 2 10 49 12 50 13 96 14 51 15
REMARK SMILES IDX 95 16 52 17 53 18 54 19 89 20 55 21 94 22 88 23 90 24 56 25
REMARK SMILES IDX 93 26 87 27 86 28 57 30 79 31 64 32 78 33 65 34 68 35 77 36
REMARK SMILES IDX 91 37 66 38 67 39 76 41 92 42 69 43 58 44 59 45 63 46 60 47
REMARK SMILES IDX 62 48 61 49 80 50 81 51 85 52 82 53 84 54 83 55 70 56 71 57
REMARK SMILES IDX 75 58 72 59 74 60 73 61 10 62 13 63 14 64 15 66 16 67 27 68
REMARK SMILES IDX 28 69 29 71 30 72 39 73 40 74 41 76 42 77 43 78 48 79 44 80
REMARK SMILES IDX 47 81 45 82 46 83 31 84 32 85 33 86 38 87 34 88 37 89 35 90
REMARK SMILES IDX 36 91 17 93 18 94 19 95 26 96 20 97 21 98 25 99 22 101
REMARK SMILES IDX 24 102 23 103 11 104 12 105
REMARK H PARENT 7 4 3 11 90 29 68 40 13 65 27 70 39 75 36 92 20 100 12 106
REMARK Flexibility Score: inf
ROOT
ATOM      1  N   UNL A   1      37.037  22.248  25.776  1.00  0.00    -0.354 N 
ATOM      2  C   UNL A   1      36.524  23.504  25.874  1.00  0.00     0.244 C 
ATOM      3  O   UNL A   1      37.273  24.401  26.269  1.00  0.00    -0.273 OA
ATOM      4  H   UNL A   1      37.962  22.137  26.091  1.00  0.00     0.163 HD
ENDROOT
BRANCH   1   5
ATOM      5  C   UNL A   1      36.392  21.047  25.264  1.00  0.00     0.117 C 
BRANCH   5   6
ATOM      6  C   UNL A   1      37.411  19.928  25.151  1.00  0.00     0.042 C 
BRANCH   6   7
ATOM      7  C   UNL A   1      38.812  20.460  25.407  1.00  0.00     0.118 C 
BRANCH   7   8
ATOM      8  N   UNL A   1      39.760  19.386  25.664  1.00  0.00    -0.352 N 
ATOM      9  O   UNL A   1      41.802  18.488  26.029  1.00  0.00    -0.269 OA
ATOM     10  C   UNL A   1      41.079  19.467  26.060  1.00  0.00     0.251 C 
ATOM     11  H   UNL A   1      39.411  18.475  25.538  1.00  0.00     0.163 HD
BRANCH  10  12
ATOM     12  C   UNL A   1      41.608  20.779  26.489  1.00  0.00     0.039 A 
ATOM     13  C   UNL A   1      41.645  21.103  27.844  1.00  0.00     0.014 A 
ATOM     14  C   UNL A   1      42.034  21.700  25.530  1.00  0.00     0.014 A 
ATOM     15  C   UNL A   1      41.906  22.407  28.229  1.00  0.00     0.010 A 
ATOM     16  C   UNL A   1      42.440  22.974  25.936  1.00  0.00     0.010 A 
ATOM     17  C   UNL A   1      42.350  23.347  27.287  1.00  0.00    -0.014 A 
BRANCH  17  18
ATOM     18  C   UNL A   1      42.814  24.673  27.759  1.00  0.00     0.031 A 
ATOM     19  C   UNL A   1      41.847  25.728  28.211  1.00  0.00     0.074 A 
ATOM     20  C   UNL A   1      44.140  24.912  27.767  1.00  0.00     0.049 A 
ATOM     21  N   UNL A   1      42.094  26.956  28.591  1.00  0.00    -0.248 NA
ATOM     22  C   UNL A   1      40.422  25.368  28.228  1.00  0.00     0.031 C 
ATOM     23  C   UNL A   1      45.171  23.958  27.344  1.00  0.00     0.029 A 
ATOM     24  N   UNL A   1      44.852  26.019  28.146  1.00  0.00    -0.354 N 
ATOM     25  C   UNL A   1      40.856  27.528  28.855  1.00  0.00     0.074 A 
ATOM     26  C   UNL A   1      39.858  26.517  28.580  1.00  0.00     0.031 C 
ATOM     27  C   UNL A   1      46.379  24.502  27.528  1.00  0.00     0.029 A 
ATOM     28  C   UNL A   1      46.208  25.874  27.983  1.00  0.00     0.049 A 
ATOM     29  H   UNL A   1      44.433  26.836  28.500  1.00  0.00     0.167 HD
ATOM     30  C   UNL A   1      40.583  28.786  29.281  1.00  0.00     0.031 A 
ATOM     31  C   UNL A   1      47.208  26.757  28.129  1.00  0.00     0.031 A 
ATOM     32  C   UNL A   1      41.591  29.783  29.542  1.00  0.00     0.049 A 
ATOM     33  C   UNL A   1      46.878  28.152  28.560  1.00  0.00     0.074 A 
ATOM     34  C   UNL A   1      41.425  31.074  30.013  1.00  0.00     0.029 A 
ATOM     35  N   UNL A   1      42.952  29.603  29.342  1.00  0.00    -0.354 N 
ATOM     36  N   UNL A   1      45.705  28.669  28.835  1.00  0.00    -0.248 NA
ATOM     37  C   UNL A   1      48.002  29.083  28.698  1.00  0.00     0.031 C 
ATOM     38  C   UNL A   1      42.679  31.695  30.035  1.00  0.00     0.029 A 
ATOM     39  C   UNL A   1      43.635  30.769  29.645  1.00  0.00     0.049 A 
ATOM     40  H   UNL A   1      43.371  28.768  29.031  1.00  0.00     0.167 HD
ATOM     41  C   UNL A   1      45.949  29.985  29.194  1.00  0.00     0.074 A 
ATOM     42  C   UNL A   1      47.384  30.179  29.118  1.00  0.00     0.031 C 
ATOM     43  C   UNL A   1      45.062  30.945  29.553  1.00  0.00     0.031 A 
BRANCH  30  44
ATOM     44  C   UNL A   1      39.135  29.170  29.434  1.00  0.00    -0.014 A 
ATOM     45  C   UNL A   1      38.425  28.927  30.620  1.00  0.00     0.009 A 
ATOM     46  C   UNL A   1      38.473  29.808  28.371  1.00  0.00     0.009 A 
ATOM     47  C   UNL A   1      37.074  29.271  30.722  1.00  0.00     0.001 A 
ATOM     48  C   UNL A   1      37.132  30.180  28.486  1.00  0.00     0.001 A 
ATOM     49  C   UNL A   1      36.429  29.899  29.656  1.00  0.00     0.000 A 
ENDBRANCH  30  44
BRANCH  31  50
ATOM     50  C   UNL A   1      48.597  26.338  27.811  1.00  0.00    -0.014 A 
ATOM     51  C   UNL A   1      49.423  25.781  28.795  1.00  0.00     0.009 A 
ATOM     52  C   UNL A   1      49.076  26.429  26.492  1.00  0.00     0.009 A 
ATOM     53  C   UNL A   1      50.704  25.329  28.467  1.00  0.00     0.001 A 
ATOM     54  C   UNL A   1      50.342  25.947  26.161  1.00  0.00     0.001 A 
ATOM     55  C   UNL A   1      51.158  25.403  27.150  1.00  0.00     0.000 A 
ENDBRANCH  31  50
BRANCH  43  56
ATOM     56  C   UNL A   1      45.628  32.288  29.922  1.00  0.00    -0.014 A 
ATOM     57  C   UNL A   1      45.775  33.305  28.967  1.00  0.00     0.009 A 
ATOM     58  C   UNL A   1      45.976  32.547  31.257  1.00  0.00     0.009 A 
ATOM     59  C   UNL A   1      46.284  34.550  29.339  1.00  0.00     0.001 A 
ATOM     60  C   UNL A   1      46.456  33.802  31.630  1.00  0.00     0.001 A 
ATOM     61  C   UNL A   1      46.617  34.799  30.670  1.00  0.00     0.000 A 
ENDBRANCH  43  56
ENDBRANCH  17  18
ENDBRANCH  10  12
ENDBRANCH   7   8
ENDBRANCH   6   7
ENDBRANCH   5   6
ENDBRANCH   1   5
BRANCH   2  62
ATOM     62  C   UNL A   1      35.083  23.775  25.399  1.00  0.00     0.197 C 
BRANCH  62  63
ATOM     63  N   UNL A   1      34.810  22.862  24.283  1.00  0.00    -0.340 N 
ATOM     64  C   UNL A   1      33.962  23.181  23.260  1.00  0.00     0.243 C 
ATOM     65  H   UNL A   1      35.257  21.984  24.270  1.00  0.00     0.164 HD
ATOM     66  O   UNL A   1      34.518  23.537  22.220  1.00  0.00    -0.273 OA
BRANCH  64  67
ATOM     67  C   UNL A   1      32.418  23.097  23.382  1.00  0.00     0.175 C 
BRANCH  67  68
ATOM     68  N   UNL A   1      31.808  24.004  22.407  1.00  0.00    -0.342 N 
ATOM     69  C   UNL A   1      31.748  25.366  22.458  1.00  0.00     0.243 C 
ATOM     70  H   UNL A   1      31.392  23.579  21.622  1.00  0.00     0.164 HD
ATOM     71  O   UNL A   1      31.763  25.924  21.349  1.00  0.00    -0.273 OA
BRANCH  69  72
ATOM     72  C   UNL A   1      31.416  26.229  23.719  1.00  0.00     0.176 C 
BRANCH  72  73
ATOM     73  N   UNL A   1      29.998  25.905  23.985  1.00  0.00    -0.340 N 
ATOM     74  C   UNL A   1      28.849  26.617  23.769  1.00  0.00     0.251 C 
ATOM     75  H   UNL A   1      29.855  25.020  24.390  1.00  0.00     0.164 HD
ATOM     76  O   UNL A   1      27.776  26.155  24.148  1.00  0.00    -0.269 OA
BRANCH  74  77
ATOM     77  C   UNL A   1      28.879  27.961  23.153  1.00  0.00     0.040 A 
ATOM     78  C   UNL A   1      27.746  28.779  23.089  1.00  0.00     0.017 A 
ATOM     79  C   UNL A   1      30.112  28.435  22.679  1.00  0.00     0.017 A 
ATOM     80  C   UNL A   1      27.824  30.027  22.468  1.00  0.00     0.040 A 
ATOM     81  C   UNL A   1      30.191  29.691  22.078  1.00  0.00     0.040 A 
ATOM     82  C   UNL A   1      29.043  30.468  21.961  1.00  0.00     0.123 A 
ATOM     83  F   UNL A   1      29.113  31.664  21.363  1.00  0.00    -0.207 F 
ENDBRANCH  74  77
ENDBRANCH  72  73
BRANCH  72  84
ATOM     84  C   UNL A   1      32.186  26.205  25.051  1.00  0.00     0.070 C 
BRANCH  84  85
ATOM     85  C   UNL A   1      32.697  27.513  25.620  1.00  0.00    -0.045 A 
ATOM     86  C   UNL A   1      31.875  28.652  25.499  1.00  0.00     0.007 A 
ATOM     87  C   UNL A   1      33.901  27.617  26.332  1.00  0.00     0.007 A 
ATOM     88  C   UNL A   1      32.163  29.814  26.210  1.00  0.00     0.046 A 
ATOM     89  C   UNL A   1      34.199  28.788  27.033  1.00  0.00     0.046 A 
ATOM     90  C   UNL A   1      33.299  29.847  27.006  1.00  0.00     0.115 A 
BRANCH  90  91
ATOM     91  O   UNL A   1      33.415  30.828  27.947  1.00  0.00    -0.508 OA
ATOM     92  H   UNL A   1      32.671  31.076  28.459  1.00  0.00     0.293 HD
ENDBRANCH  90  91
ENDBRANCH  84  85
ENDBRANCH  72  84
ENDBRANCH  69  72
ENDBRANCH  67  68
BRANCH  67  93
ATOM     93  C   UNL A   1      31.687  21.742  23.553  1.00  0.00     0.072 C 
BRANCH  93  94
ATOM     94  C   UNL A   1      32.307  20.638  24.362  1.00  0.00    -0.020 A 
ATOM     95  C   UNL A   1      32.463  20.553  25.729  1.00  0.00     0.087 A 
ATOM     96  C   UNL A   1      32.705  19.336  23.882  1.00  0.00     0.003 A 
ATOM     97  N   UNL A   1      33.272  19.496  26.021  1.00  0.00    -0.361 N 
ATOM     98  C   UNL A   1      33.408  18.708  24.914  1.00  0.00     0.046 A 
ATOM     99  C   UNL A   1      32.525  18.615  22.683  1.00  0.00     0.010 A 
ATOM    100  H   UNL A   1      33.693  19.326  26.895  1.00  0.00     0.166 HD
ATOM    101  C   UNL A   1      34.053  17.478  24.780  1.00  0.00     0.026 A 
ATOM    102  C   UNL A   1      33.072  17.325  22.571  1.00  0.00     0.001 A 
ATOM    103  C   UNL A   1      33.857  16.786  23.589  1.00  0.00     0.002 A 
ENDBRANCH  93  94
ENDBRANCH  67  93
ENDBRANCH  64  67
ENDBRANCH  62  63
BRANCH  62 104
ATOM    104  C   UNL A   1      34.178  23.443  26.604  1.00  0.00     0.191 C 
BRANCH 104 105
ATOM    105  O   UNL A   1      34.878  22.853  27.698  1.00  0.00    -0.394 OA
ATOM    106  H   UNL A   1      34.523  21.966  27.870  1.00  0.00     0.210 HD
ENDBRANCH 104 105
ENDBRANCH  62 104
ENDBRANCH   2  62
TORSDOF 23
ENDMDL
