MODEL 1
REMARK VINA RESULT:     -12.9      0.000      0.000
REMARK SMILES CC(=O)Nc1ccc(/C=C2/CCc3oc(C(=O)NCCCNC(=O)c4ccc(-c5c6nc(c(-c7ccccc7)c7ccc([nH]7)c(-c7ccccc7)c7nc(c(-c8ccccc8)c8ccc5[nH]8)C=C7)C=C6)cc4)c(C)c3C2=O)cc1
REMARK SMILES IDX 20 1 19 2 18 3 16 4 17 5 15 7 9 8 10 9 11 10 76 11 12 12
REMARK SMILES IDX 75 13 77 14 13 15 73 16 14 17 74 18 8 19 5 20 6 21 79 22
REMARK SMILES IDX 7 23 78 24 4 25 1 26 2 27 3 28 21 30 22 31 23 32 24 34 25 35
REMARK SMILES IDX 26 36 72 37 27 38 71 39 28 40 29 41 30 42 65 43 31 44 70 45
REMARK SMILES IDX 64 46 66 47 32 48 69 49 63 50 62 51 33 53 55 54 40 55 54 56
REMARK SMILES IDX 41 57 44 58 53 59 67 60 42 61 43 62 52 64 68 65 45 66 34 67
REMARK SMILES IDX 35 68 39 69 36 70 38 71 37 72 56 73 57 74 61 75 58 76 60 77
REMARK SMILES IDX 59 78 46 79 47 80 51 81 48 82 50 83 49 84
REMARK H PARENT 18 6 4 29 22 33 66 52 44 63
REMARK Flexibility Score: inf
ROOT
ATOM      1  C   UNL A   1      38.093  33.927  33.611  1.00  0.00     0.042 C 
ENDROOT
BRANCH   1   2
ATOM      2  C   UNL A   1      37.014  34.717  32.862  1.00  0.00     0.118 C 
BRANCH   2   3
ATOM      3  N   UNL A   1      35.664  34.400  33.312  1.00  0.00    -0.349 N 
ATOM      4  C   UNL A   1      34.742  33.485  32.839  1.00  0.00     0.287 C 
ATOM      5  O   UNL A   1      33.702  33.377  33.492  1.00  0.00    -0.266 OA
ATOM      6  H   UNL A   1      35.355  34.927  34.084  1.00  0.00     0.163 HD
BRANCH   4   7
ATOM      7  C   UNL A   1      35.017  32.700  31.644  1.00  0.00     0.195 A 
ATOM      8  C   UNL A   1      35.134  29.054  27.125  1.00  0.00     0.016 C 
ATOM      9  C   UNL A   1      35.660  29.935  28.000  1.00  0.00     0.001 C 
ATOM     10  C   UNL A   1      36.760  29.467  28.954  1.00  0.00     0.048 C 
ATOM     11  C   UNL A   1      35.252  31.384  28.185  1.00  0.00     0.192 C 
ATOM     12  C   UNL A   1      36.316  29.600  30.416  1.00  0.00     0.081 C 
ATOM     13  C   UNL A   1      35.232  31.768  29.591  1.00  0.00     0.067 A 
ATOM     14  O   UNL A   1      35.025  32.155  27.269  1.00  0.00    -0.289 OA
ATOM     15  C   UNL A   1      35.727  30.941  30.566  1.00  0.00     0.116 A 
ATOM     16  C   UNL A   1      34.777  32.938  30.285  1.00  0.00     0.012 A 
ATOM     17  O   UNL A   1      35.643  31.491  31.783  1.00  0.00    -0.455 OA
ATOM     18  C   UNL A   1      34.149  34.129  29.651  1.00  0.00     0.049 C 
BRANCH   8  19
ATOM     19  C   UNL A   1      34.040  29.090  26.135  1.00  0.00    -0.025 A 
ATOM     20  C   UNL A   1      31.817  29.348  24.387  1.00  0.00     0.041 A 
ATOM     21  C   UNL A   1      33.043  28.876  23.922  1.00  0.00     0.027 A 
ATOM     22  C   UNL A   1      31.687  29.652  25.738  1.00  0.00     0.027 A 
ATOM     23  C   UNL A   1      34.151  28.784  24.779  1.00  0.00     0.010 A 
ATOM     24  C   UNL A   1      32.783  29.517  26.598  1.00  0.00     0.010 A 
BRANCH  20  25
ATOM     25  N   UNL A   1      30.762  29.436  23.469  1.00  0.00    -0.326 N 
ATOM     26  C   UNL A   1      29.813  27.147  23.686  1.00  0.00     0.114 C 
ATOM     27  C   UNL A   1      29.919  28.475  22.983  1.00  0.00     0.221 C 
ATOM     28  O   UNL A   1      29.195  28.740  22.022  1.00  0.00    -0.275 OA
ATOM     29  H   UNL A   1      30.602  30.339  23.113  1.00  0.00     0.169 HD
ENDBRANCH  20  25
ENDBRANCH   8  19
ENDBRANCH   4   7
ENDBRANCH   2   3
ENDBRANCH   1   2
BRANCH   1  30
ATOM     30  C   UNL A   1      39.467  34.118  32.983  1.00  0.00     0.118 C 
BRANCH  30  31
ATOM     31  N   UNL A   1      39.394  34.534  31.576  1.00  0.00    -0.352 N 
ATOM     32  C   UNL A   1      39.938  33.932  30.458  1.00  0.00     0.251 C 
ATOM     33  H   UNL A   1      38.885  35.361  31.407  1.00  0.00     0.163 HD
ATOM     34  O   UNL A   1      40.058  34.553  29.409  1.00  0.00    -0.269 OA
BRANCH  32  35
ATOM     35  C   UNL A   1      40.384  32.532  30.548  1.00  0.00     0.039 A 
ATOM     36  C   UNL A   1      39.475  31.488  30.741  1.00  0.00     0.014 A 
ATOM     37  C   UNL A   1      41.739  32.271  30.393  1.00  0.00     0.014 A 
ATOM     38  C   UNL A   1      39.938  30.175  30.675  1.00  0.00     0.010 A 
ATOM     39  C   UNL A   1      42.158  30.991  30.144  1.00  0.00     0.010 A 
ATOM     40  C   UNL A   1      41.281  29.933  30.346  1.00  0.00    -0.014 A 
BRANCH  40  41
ATOM     41  C   UNL A   1      41.766  28.578  30.102  1.00  0.00     0.031 A 
ATOM     42  C   UNL A   1      42.529  27.973  31.226  1.00  0.00     0.074 A 
ATOM     43  C   UNL A   1      41.367  27.828  29.052  1.00  0.00     0.049 A 
ATOM     44  N   UNL A   1      43.773  27.629  31.237  1.00  0.00    -0.248 NA
ATOM     45  C   UNL A   1      41.855  27.829  32.527  1.00  0.00     0.031 C 
ATOM     46  C   UNL A   1      40.364  28.151  28.027  1.00  0.00     0.029 A 
ATOM     47  N   UNL A   1      41.689  26.541  28.753  1.00  0.00    -0.354 N 
ATOM     48  C   UNL A   1      44.000  27.049  32.481  1.00  0.00     0.074 A 
ATOM     49  C   UNL A   1      42.843  27.349  33.286  1.00  0.00     0.031 C 
ATOM     50  C   UNL A   1      39.983  27.019  27.392  1.00  0.00     0.029 A 
ATOM     51  C   UNL A   1      40.845  25.938  27.828  1.00  0.00     0.049 A 
ATOM     52  H   UNL A   1      42.456  26.074  29.158  1.00  0.00     0.167 HD
ATOM     53  C   UNL A   1      45.012  26.159  32.677  1.00  0.00     0.031 A 
ATOM     54  C   UNL A   1      40.839  24.636  27.457  1.00  0.00     0.031 A 
ATOM     55  C   UNL A   1      45.973  26.194  31.605  1.00  0.00     0.049 A 
ATOM     56  C   UNL A   1      42.153  24.067  27.827  1.00  0.00     0.074 A 
ATOM     57  C   UNL A   1      46.785  27.170  31.059  1.00  0.00     0.029 A 
ATOM     58  N   UNL A   1      45.896  25.200  30.659  1.00  0.00    -0.354 N 
ATOM     59  N   UNL A   1      43.271  24.415  27.259  1.00  0.00    -0.248 NA
ATOM     60  C   UNL A   1      42.285  23.431  29.127  1.00  0.00     0.031 C 
ATOM     61  C   UNL A   1      46.733  26.943  29.652  1.00  0.00     0.029 A 
ATOM     62  C   UNL A   1      45.962  25.800  29.427  1.00  0.00     0.049 A 
ATOM     63  H   UNL A   1      45.810  24.235  30.832  1.00  0.00     0.167 HD
ATOM     64  C   UNL A   1      44.189  24.468  28.296  1.00  0.00     0.074 A 
ATOM     65  C   UNL A   1      43.557  23.739  29.394  1.00  0.00     0.031 C 
ATOM     66  C   UNL A   1      45.243  25.337  28.260  1.00  0.00     0.031 A 
BRANCH  53  67
ATOM     67  C   UNL A   1      44.910  24.989  33.623  1.00  0.00    -0.014 A 
ATOM     68  C   UNL A   1      44.207  23.841  33.217  1.00  0.00     0.009 A 
ATOM     69  C   UNL A   1      45.240  25.079  34.990  1.00  0.00     0.009 A 
ATOM     70  C   UNL A   1      43.811  22.866  34.143  1.00  0.00     0.001 A 
ATOM     71  C   UNL A   1      44.884  24.087  35.908  1.00  0.00     0.001 A 
ATOM     72  C   UNL A   1      44.147  22.992  35.487  1.00  0.00     0.000 A 
ENDBRANCH  53  67
BRANCH  54  73
ATOM     73  C   UNL A   1      39.712  23.789  27.022  1.00  0.00    -0.014 A 
ATOM     74  C   UNL A   1      38.485  24.363  26.657  1.00  0.00     0.009 A 
ATOM     75  C   UNL A   1      39.929  22.439  26.691  1.00  0.00     0.009 A 
ATOM     76  C   UNL A   1      37.530  23.628  25.940  1.00  0.00     0.001 A 
ATOM     77  C   UNL A   1      38.976  21.704  25.977  1.00  0.00     0.001 A 
ATOM     78  C   UNL A   1      37.784  22.305  25.586  1.00  0.00     0.000 A 
ENDBRANCH  54  73
BRANCH  66  79
ATOM     79  C   UNL A   1      45.514  26.063  26.961  1.00  0.00    -0.014 A 
ATOM     80  C   UNL A   1      44.836  27.234  26.572  1.00  0.00     0.009 A 
ATOM     81  C   UNL A   1      46.583  25.627  26.165  1.00  0.00     0.009 A 
ATOM     82  C   UNL A   1      45.192  27.920  25.404  1.00  0.00     0.001 A 
ATOM     83  C   UNL A   1      46.954  26.323  25.013  1.00  0.00     0.001 A 
ATOM     84  C   UNL A   1      46.254  27.464  24.627  1.00  0.00     0.000 A 
ENDBRANCH  66  79
ENDBRANCH  40  41
ENDBRANCH  32  35
ENDBRANCH  30  31
ENDBRANCH   1  30
TORSDOF 12
ENDMDL
MODEL 2
REMARK VINA RESULT:     -12.6      3.676      8.895
REMARK SMILES CC(=O)Nc1ccc(/C=C2/CCc3oc(C(=O)NCCCNC(=O)c4ccc(-c5c6nc(c(-c7ccccc7)c7ccc([nH]7)c(-c7ccccc7)c7nc(c(-c8ccccc8)c8ccc5[nH]8)C=C7)C=C6)cc4)c(C)c3C2=O)cc1
REMARK SMILES IDX 20 1 19 2 18 3 16 4 17 5 15 7 9 8 10 9 11 10 76 11 12 12
REMARK SMILES IDX 75 13 77 14 13 15 73 16 14 17 74 18 8 19 5 20 6 21 79 22
REMARK SMILES IDX 7 23 78 24 4 25 1 26 2 27 3 28 21 30 22 31 23 32 24 34 25 35
REMARK SMILES IDX 26 36 72 37 27 38 71 39 28 40 29 41 30 42 65 43 31 44 70 45
REMARK SMILES IDX 64 46 66 47 32 48 69 49 63 50 62 51 33 53 55 54 40 55 54 56
REMARK SMILES IDX 41 57 44 58 53 59 67 60 42 61 43 62 52 64 68 65 45 66 34 67
REMARK SMILES IDX 35 68 39 69 36 70 38 71 37 72 56 73 57 74 61 75 58 76 60 77
REMARK SMILES IDX 59 78 46 79 47 80 51 81 48 82 50 83 49 84
REMARK H PARENT 18 6 4 29 22 33 66 52 44 63
REMARK Flexibility Score: inf
ROOT
ATOM      1  C   UNL A   1      37.896  19.615  25.020  1.00  0.00     0.042 C 
ENDROOT
BRANCH   1   2
ATOM      2  C   UNL A   1      36.986  20.820  24.756  1.00  0.00     0.118 C 
BRANCH   2   3
ATOM      3  N   UNL A   1      37.599  22.087  25.140  1.00  0.00    -0.349 N 
ATOM      4  C   UNL A   1      37.033  23.303  25.474  1.00  0.00     0.287 C 
ATOM      5  O   UNL A   1      37.815  24.178  25.850  1.00  0.00    -0.266 OA
ATOM      6  H   UNL A   1      38.583  22.074  25.165  1.00  0.00     0.163 HD
BRANCH   4   7
ATOM      7  C   UNL A   1      35.594  23.503  25.390  1.00  0.00     0.195 A 
ATOM      8  C   UNL A   1      30.089  25.356  25.406  1.00  0.00     0.016 C 
ATOM      9  C   UNL A   1      31.068  24.428  25.378  1.00  0.00     0.001 C 
ATOM     10  C   UNL A   1      31.189  23.442  26.541  1.00  0.00     0.048 C 
ATOM     11  C   UNL A   1      32.129  24.259  24.307  1.00  0.00     0.192 C 
ATOM     12  C   UNL A   1      32.539  23.592  27.253  1.00  0.00     0.081 C 
ATOM     13  C   UNL A   1      33.431  23.937  24.878  1.00  0.00     0.067 A 
ATOM     14  O   UNL A   1      31.911  24.325  23.110  1.00  0.00    -0.289 OA
ATOM     15  C   UNL A   1      33.575  23.634  26.207  1.00  0.00     0.116 A 
ATOM     16  C   UNL A   1      34.750  23.837  24.324  1.00  0.00     0.012 A 
ATOM     17  O   UNL A   1      34.841  23.338  26.522  1.00  0.00    -0.455 OA
ATOM     18  C   UNL A   1      35.111  24.082  22.900  1.00  0.00     0.049 C 
BRANCH   8  19
ATOM     19  C   UNL A   1      29.705  26.495  24.551  1.00  0.00    -0.025 A 
ATOM     20  C   UNL A   1      29.230  28.718  22.848  1.00  0.00     0.041 A 
ATOM     21  C   UNL A   1      28.228  27.782  23.101  1.00  0.00     0.027 A 
ATOM     22  C   UNL A   1      30.460  28.567  23.480  1.00  0.00     0.027 A 
ATOM     23  C   UNL A   1      28.476  26.664  23.913  1.00  0.00     0.010 A 
ATOM     24  C   UNL A   1      30.688  27.474  24.324  1.00  0.00     0.010 A 
BRANCH  20  25
ATOM     25  N   UNL A   1      28.917  29.795  22.008  1.00  0.00    -0.326 N 
ATOM     26  C   UNL A   1      27.688  31.246  23.611  1.00  0.00     0.114 C 
ATOM     27  C   UNL A   1      28.116  30.883  22.213  1.00  0.00     0.221 C 
ATOM     28  O   UNL A   1      27.821  31.602  21.256  1.00  0.00    -0.275 OA
ATOM     29  H   UNL A   1      29.345  29.763  21.123  1.00  0.00     0.169 HD
ENDBRANCH  20  25
ENDBRANCH   8  19
ENDBRANCH   4   7
ENDBRANCH   2   3
ENDBRANCH   1   2
BRANCH   1  30
ATOM     30  C   UNL A   1      39.052  19.975  25.943  1.00  0.00     0.118 C 
BRANCH  30  31
ATOM     31  N   UNL A   1      40.199  19.070  25.796  1.00  0.00    -0.352 N 
ATOM     32  C   UNL A   1      41.550  19.353  25.869  1.00  0.00     0.251 C 
ATOM     33  H   UNL A   1      39.973  18.128  25.619  1.00  0.00     0.163 HD
ATOM     34  O   UNL A   1      42.378  18.570  25.420  1.00  0.00    -0.269 OA
BRANCH  32  35
ATOM     35  C   UNL A   1      41.981  20.618  26.485  1.00  0.00     0.039 A 
ATOM     36  C   UNL A   1      42.375  21.712  25.708  1.00  0.00     0.014 A 
ATOM     37  C   UNL A   1      41.946  20.711  27.870  1.00  0.00     0.014 A 
ATOM     38  C   UNL A   1      42.635  22.926  26.341  1.00  0.00     0.010 A 
ATOM     39  C   UNL A   1      42.019  21.941  28.469  1.00  0.00     0.010 A 
ATOM     40  C   UNL A   1      42.426  23.041  27.724  1.00  0.00    -0.014 A 
BRANCH  40  41
ATOM     41  C   UNL A   1      42.524  24.332  28.398  1.00  0.00     0.031 A 
ATOM     42  C   UNL A   1      41.410  25.274  28.113  1.00  0.00     0.074 A 
ATOM     43  C   UNL A   1      43.411  24.585  29.385  1.00  0.00     0.049 A 
ATOM     44  N   UNL A   1      41.476  26.412  27.507  1.00  0.00    -0.248 NA
ATOM     45  C   UNL A   1      40.039  24.854  28.449  1.00  0.00     0.031 C 
ATOM     46  C   UNL A   1      44.364  23.661  30.017  1.00  0.00     0.029 A 
ATOM     47  N   UNL A   1      43.556  25.713  30.131  1.00  0.00    -0.354 N 
ATOM     48  C   UNL A   1      40.193  26.946  27.548  1.00  0.00     0.074 A 
ATOM     49  C   UNL A   1      39.325  25.882  27.986  1.00  0.00     0.031 C 
ATOM     50  C   UNL A   1      44.789  24.181  31.190  1.00  0.00     0.029 A 
ATOM     51  C   UNL A   1      44.295  25.540  31.295  1.00  0.00     0.049 A 
ATOM     52  H   UNL A   1      43.169  26.580  29.870  1.00  0.00     0.167 HD
ATOM     53  C   UNL A   1      39.977  28.288  27.456  1.00  0.00     0.031 A 
ATOM     54  C   UNL A   1      44.475  26.442  32.288  1.00  0.00     0.031 A 
ATOM     55  C   UNL A   1      41.135  28.985  26.961  1.00  0.00     0.049 A 
ATOM     56  C   UNL A   1      44.165  27.777  31.733  1.00  0.00     0.074 A 
ATOM     57  C   UNL A   1      41.894  28.914  25.809  1.00  0.00     0.029 A 
ATOM     58  N   UNL A   1      41.918  29.638  27.884  1.00  0.00    -0.354 N 
ATOM     59  N   UNL A   1      44.888  28.360  30.820  1.00  0.00    -0.248 NA
ATOM     60  C   UNL A   1      42.808  28.280  31.869  1.00  0.00     0.031 C 
ATOM     61  C   UNL A   1      43.242  29.066  26.249  1.00  0.00     0.029 A 
ATOM     62  C   UNL A   1      43.223  29.301  27.625  1.00  0.00     0.049 A 
ATOM     63  H   UNL A   1      41.602  30.236  28.598  1.00  0.00     0.167 HD
ATOM     64  C   UNL A   1      43.967  28.963  29.977  1.00  0.00     0.074 A 
ATOM     65  C   UNL A   1      42.718  28.982  30.736  1.00  0.00     0.031 C 
ATOM     66  C   UNL A   1      44.234  29.128  28.647  1.00  0.00     0.031 A 
BRANCH  53  67
ATOM     67  C   UNL A   1      38.869  28.997  28.194  1.00  0.00    -0.014 A 
ATOM     68  C   UNL A   1      38.848  28.957  29.599  1.00  0.00     0.009 A 
ATOM     69  C   UNL A   1      37.704  29.466  27.556  1.00  0.00     0.009 A 
ATOM     70  C   UNL A   1      37.702  29.316  30.319  1.00  0.00     0.001 A 
ATOM     71  C   UNL A   1      36.573  29.866  28.274  1.00  0.00     0.001 A 
ATOM     72  C   UNL A   1      36.564  29.767  29.656  1.00  0.00     0.000 A 
ENDBRANCH  53  67
BRANCH  54  73
ATOM     73  C   UNL A   1      44.669  26.220  33.734  1.00  0.00    -0.014 A 
ATOM     74  C   UNL A   1      45.517  27.054  34.478  1.00  0.00     0.009 A 
ATOM     75  C   UNL A   1      43.801  25.368  34.441  1.00  0.00     0.009 A 
ATOM     76  C   UNL A   1      45.462  27.071  35.879  1.00  0.00     0.001 A 
ATOM     77  C   UNL A   1      43.747  25.383  35.839  1.00  0.00     0.001 A 
ATOM     78  C   UNL A   1      44.565  26.249  36.557  1.00  0.00     0.000 A 
ENDBRANCH  54  73
BRANCH  66  79
ATOM     79  C   UNL A   1      45.643  28.855  28.171  1.00  0.00    -0.014 A 
ATOM     80  C   UNL A   1      46.622  29.858  28.034  1.00  0.00     0.009 A 
ATOM     81  C   UNL A   1      46.035  27.522  27.982  1.00  0.00     0.009 A 
ATOM     82  C   UNL A   1      47.938  29.537  27.680  1.00  0.00     0.001 A 
ATOM     83  C   UNL A   1      47.353  27.199  27.653  1.00  0.00     0.001 A 
ATOM     84  C   UNL A   1      48.303  28.205  27.493  1.00  0.00     0.000 A 
ENDBRANCH  66  79
ENDBRANCH  40  41
ENDBRANCH  32  35
ENDBRANCH  30  31
ENDBRANCH   1  30
TORSDOF 12
ENDMDL
MODEL 3
REMARK VINA RESULT:     -12.5      3.740      7.948
REMARK SMILES CC(=O)Nc1ccc(/C=C2/CCc3oc(C(=O)NCCCNC(=O)c4ccc(-c5c6nc(c(-c7ccccc7)c7ccc([nH]7)c(-c7ccccc7)c7nc(c(-c8ccccc8)c8ccc5[nH]8)C=C7)C=C6)cc4)c(C)c3C2=O)cc1
REMARK SMILES IDX 20 1 19 2 18 3 16 4 17 5 15 7 9 8 10 9 11 10 76 11 12 12
REMARK SMILES IDX 75 13 77 14 13 15 73 16 14 17 74 18 8 19 5 20 6 21 79 22
REMARK SMILES IDX 7 23 78 24 4 25 1 26 2 27 3 28 21 30 22 31 23 32 24 34 25 35
REMARK SMILES IDX 26 36 72 37 27 38 71 39 28 40 29 41 30 42 65 43 31 44 70 45
REMARK SMILES IDX 64 46 66 47 32 48 69 49 63 50 62 51 33 53 55 54 40 55 54 56
REMARK SMILES IDX 41 57 44 58 53 59 67 60 42 61 43 62 52 64 68 65 45 66 34 67
REMARK SMILES IDX 35 68 39 69 36 70 38 71 37 72 56 73 57 74 61 75 58 76 60 77
REMARK SMILES IDX 59 78 46 79 47 80 51 81 48 82 50 83 49 84
REMARK H PARENT 18 6 4 29 22 33 66 52 44 63
REMARK Flexibility Score: inf
ROOT
ATOM      1  C   UNL A   1      34.957  28.928  27.173  1.00  0.00     0.042 C 
ENDROOT
BRANCH   1   2
ATOM      2  C   UNL A   1      33.477  28.770  27.540  1.00  0.00     0.118 C 
BRANCH   2   3
ATOM      3  N   UNL A   1      32.622  29.750  26.879  1.00  0.00    -0.349 N 
ATOM      4  C   UNL A   1      31.878  29.666  25.717  1.00  0.00     0.287 C 
ATOM      5  O   UNL A   1      31.172  30.642  25.457  1.00  0.00    -0.266 OA
ATOM      6  H   UNL A   1      32.565  30.618  27.338  1.00  0.00     0.163 HD
BRANCH   4   7
ATOM      7  C   UNL A   1      31.937  28.478  24.879  1.00  0.00     0.195 A 
ATOM      8  C   UNL A   1      33.104  23.491  22.139  1.00  0.00     0.016 C 
ATOM      9  C   UNL A   1      32.505  24.689  22.297  1.00  0.00     0.001 C 
ATOM     10  C   UNL A   1      32.803  25.807  21.295  1.00  0.00     0.048 C 
ATOM     11  C   UNL A   1      31.561  25.092  23.413  1.00  0.00     0.192 C 
ATOM     12  C   UNL A   1      33.454  27.010  21.988  1.00  0.00     0.081 C 
ATOM     13  C   UNL A   1      31.806  26.455  23.868  1.00  0.00     0.067 A 
ATOM     14  O   UNL A   1      30.664  24.386  23.840  1.00  0.00    -0.289 OA
ATOM     15  C   UNL A   1      32.660  27.292  23.196  1.00  0.00     0.116 A 
ATOM     16  C   UNL A   1      31.310  27.229  24.968  1.00  0.00     0.012 A 
ATOM     17  O   UNL A   1      32.722  28.504  23.757  1.00  0.00    -0.455 OA
ATOM     18  C   UNL A   1      30.347  26.750  25.998  1.00  0.00     0.049 C 
BRANCH   8  19
ATOM     19  C   UNL A   1      33.142  22.233  22.907  1.00  0.00    -0.025 A 
ATOM     20  C   UNL A   1      33.350  19.948  24.581  1.00  0.00     0.041 A 
ATOM     21  C   UNL A   1      32.345  20.043  23.620  1.00  0.00     0.027 A 
ATOM     22  C   UNL A   1      34.280  20.977  24.679  1.00  0.00     0.027 A 
ATOM     23  C   UNL A   1      32.221  21.189  22.819  1.00  0.00     0.010 A 
ATOM     24  C   UNL A   1      34.179  22.099  23.848  1.00  0.00     0.010 A 
BRANCH  20  25
ATOM     25  N   UNL A   1      33.397  18.785  25.361  1.00  0.00    -0.326 N 
ATOM     26  C   UNL A   1      34.184  17.156  23.654  1.00  0.00     0.114 C 
ATOM     27  C   UNL A   1      33.608  17.481  25.007  1.00  0.00     0.221 C 
ATOM     28  O   UNL A   1      33.400  16.592  25.835  1.00  0.00    -0.275 OA
ATOM     29  H   UNL A   1      33.254  18.930  26.324  1.00  0.00     0.169 HD
ENDBRANCH  20  25
ENDBRANCH   8  19
ENDBRANCH   4   7
ENDBRANCH   2   3
ENDBRANCH   1   2
BRANCH   1  30
ATOM     30  C   UNL A   1      35.519  30.256  27.663  1.00  0.00     0.118 C 
BRANCH  30  31
ATOM     31  N   UNL A   1      35.577  30.340  29.128  1.00  0.00    -0.352 N 
ATOM     32  C   UNL A   1      36.458  29.734  30.003  1.00  0.00     0.251 C 
ATOM     33  H   UNL A   1      34.890  30.910  29.545  1.00  0.00     0.163 HD
ATOM     34  O   UNL A   1      36.195  29.647  31.196  1.00  0.00    -0.269 OA
BRANCH  32  35
ATOM     35  C   UNL A   1      37.718  29.183  29.478  1.00  0.00     0.039 A 
ATOM     36  C   UNL A   1      38.391  29.786  28.412  1.00  0.00     0.014 A 
ATOM     37  C   UNL A   1      38.246  28.060  30.102  1.00  0.00     0.014 A 
ATOM     38  C   UNL A   1      39.648  29.303  28.053  1.00  0.00     0.010 A 
ATOM     39  C   UNL A   1      39.549  27.707  29.874  1.00  0.00     0.010 A 
ATOM     40  C   UNL A   1      40.236  28.278  28.810  1.00  0.00    -0.014 A 
BRANCH  40  41
ATOM     41  C   UNL A   1      41.614  27.859  28.574  1.00  0.00     0.031 A 
ATOM     42  C   UNL A   1      41.763  26.549  27.888  1.00  0.00     0.074 A 
ATOM     43  C   UNL A   1      42.674  28.681  28.737  1.00  0.00     0.049 A 
ATOM     44  N   UNL A   1      42.290  25.469  28.360  1.00  0.00    -0.248 NA
ATOM     45  C   UNL A   1      41.158  26.387  26.555  1.00  0.00     0.031 C 
ATOM     46  C   UNL A   1      42.680  30.108  29.091  1.00  0.00     0.029 A 
ATOM     47  N   UNL A   1      43.989  28.435  28.487  1.00  0.00    -0.354 N 
ATOM     48  C   UNL A   1      42.260  24.542  27.325  1.00  0.00     0.074 A 
ATOM     49  C   UNL A   1      41.410  25.101  26.303  1.00  0.00     0.031 C 
ATOM     50  C   UNL A   1      43.881  30.646  28.786  1.00  0.00     0.029 A 
ATOM     51  C   UNL A   1      44.779  29.574  28.403  1.00  0.00     0.049 A 
ATOM     52  H   UNL A   1      44.350  27.526  28.375  1.00  0.00     0.167 HD
ATOM     53  C   UNL A   1      43.131  23.495  27.280  1.00  0.00     0.031 A 
ATOM     54  C   UNL A   1      46.078  29.639  28.025  1.00  0.00     0.031 A 
ATOM     55  C   UNL A   1      43.777  23.281  28.549  1.00  0.00     0.049 A 
ATOM     56  C   UNL A   1      46.648  28.283  28.173  1.00  0.00     0.074 A 
ATOM     57  C   UNL A   1      43.337  23.007  29.830  1.00  0.00     0.029 A 
ATOM     58  N   UNL A   1      45.062  23.751  28.688  1.00  0.00    -0.354 N 
ATOM     59  N   UNL A   1      46.819  27.698  29.323  1.00  0.00    -0.248 NA
ATOM     60  C   UNL A   1      46.623  27.398  27.020  1.00  0.00     0.031 C 
ATOM     61  C   UNL A   1      44.175  23.790  30.679  1.00  0.00     0.029 A 
ATOM     62  C   UNL A   1      45.123  24.430  29.879  1.00  0.00     0.049 A 
ATOM     63  H   UNL A   1      45.801  23.624  28.052  1.00  0.00     0.167 HD
ATOM     64  C   UNL A   1      46.466  26.376  29.100  1.00  0.00     0.074 A 
ATOM     65  C   UNL A   1      46.472  26.227  27.646  1.00  0.00     0.031 C 
ATOM     66  C   UNL A   1      45.929  25.612  30.097  1.00  0.00     0.031 A 
BRANCH  53  67
ATOM     67  C   UNL A   1      43.688  22.940  25.994  1.00  0.00    -0.014 A 
ATOM     68  C   UNL A   1      43.706  21.548  25.801  1.00  0.00     0.009 A 
ATOM     69  C   UNL A   1      44.442  23.714  25.089  1.00  0.00     0.009 A 
ATOM     70  C   UNL A   1      44.481  20.964  24.790  1.00  0.00     0.001 A 
ATOM     71  C   UNL A   1      45.181  23.138  24.053  1.00  0.00     0.001 A 
ATOM     72  C   UNL A   1      45.221  21.759  23.919  1.00  0.00     0.000 A 
ENDBRANCH  53  67
BRANCH  54  73
ATOM     73  C   UNL A   1      46.801  30.723  27.331  1.00  0.00    -0.014 A 
ATOM     74  C   UNL A   1      46.102  31.795  26.757  1.00  0.00     0.009 A 
ATOM     75  C   UNL A   1      48.194  30.851  27.481  1.00  0.00     0.009 A 
ATOM     76  C   UNL A   1      46.767  32.975  26.392  1.00  0.00     0.001 A 
ATOM     77  C   UNL A   1      48.858  32.027  27.115  1.00  0.00     0.001 A 
ATOM     78  C   UNL A   1      48.140  33.096  26.588  1.00  0.00     0.000 A 
ENDBRANCH  54  73
BRANCH  66  79
ATOM     79  C   UNL A   1      45.951  26.171  31.503  1.00  0.00    -0.014 A 
ATOM     80  C   UNL A   1      44.948  27.014  32.017  1.00  0.00     0.009 A 
ATOM     81  C   UNL A   1      46.948  25.723  32.381  1.00  0.00     0.009 A 
ATOM     82  C   UNL A   1      44.968  27.425  33.355  1.00  0.00     0.001 A 
ATOM     83  C   UNL A   1      46.956  26.113  33.721  1.00  0.00     0.001 A 
ATOM     84  C   UNL A   1      45.972  26.971  34.207  1.00  0.00     0.000 A 
ENDBRANCH  66  79
ENDBRANCH  40  41
ENDBRANCH  32  35
ENDBRANCH  30  31
ENDBRANCH   1  30
TORSDOF 12
ENDMDL
