MODEL 1
REMARK VINA RESULT:     -11.3      0.000      0.000
REMARK SMILES O=C1OC(c2ccc(Cl)cc2)=N/C1=C/Nc1ccc(O)c(C(=O)NCCCNC(=O)c2ccc(-c3c4nc(c(-c5ccccc5)c5ccc([nH]5)c(-c5ccccc5)c5nc(c(-c6ccccc6)c6ccc3[nH]6)C=C5)C=C4)cc2)c1
REMARK SMILES IDX 25 1 24 2 22 3 23 4 21 6 16 7 17 8 79 9 18 10 19 11 15 12
REMARK SMILES IDX 14 14 1 15 2 16 3 17 13 18 4 19 12 20 5 21 6 22 11 23 7 24
REMARK SMILES IDX 10 25 8 26 9 27 20 28 26 30 27 31 28 32 29 33 30 35 31 36
REMARK SMILES IDX 32 37 78 38 33 39 77 40 34 41 35 42 36 43 71 44 37 45 76 46
REMARK SMILES IDX 70 47 72 48 38 49 75 50 69 51 68 52 39 54 61 55 46 56 60 57
REMARK SMILES IDX 47 58 50 59 59 60 73 61 48 62 49 63 58 65 74 66 51 67 40 68
REMARK SMILES IDX 41 69 45 70 42 71 44 72 43 73 62 74 63 75 67 76 64 77 66 78
REMARK SMILES IDX 65 79 52 80 53 81 57 82 54 83 56 84 55 85
REMARK H PARENT 24 5 15 13 20 29 28 34 72 53 50 64
REMARK Flexibility Score: inf
ROOT
ATOM      1  C   UNL A   1      35.335  34.678  28.544  1.00  0.00     0.118 C 
ENDROOT
BRANCH   1   2
ATOM      2  N   UNL A   1      34.039  35.310  28.429  1.00  0.00    -0.352 N 
ATOM      3  C   UNL A   1      33.162  35.803  29.358  1.00  0.00     0.255 C 
ATOM      4  O   UNL A   1      32.084  36.208  28.910  1.00  0.00    -0.269 OA
ATOM      5  H   UNL A   1      33.724  35.402  27.501  1.00  0.00     0.163 HD
BRANCH   3   6
ATOM      6  C   UNL A   1      33.442  35.978  30.818  1.00  0.00     0.083 A 
ATOM      7  C   UNL A   1      34.143  34.747  32.834  1.00  0.00     0.039 A 
ATOM      8  C   UNL A   1      33.947  35.901  33.591  1.00  0.00     0.030 A 
ATOM      9  C   UNL A   1      33.865  34.795  31.464  1.00  0.00     0.043 A 
ATOM     10  C   UNL A   1      33.584  37.095  32.976  1.00  0.00     0.049 A 
ATOM     11  C   UNL A   1      33.365  37.141  31.593  1.00  0.00     0.128 A 
BRANCH   7  12
ATOM     12  N   UNL A   1      34.549  33.538  33.411  1.00  0.00    -0.360 N 
ATOM     13  H   UNL A   1      34.147  33.303  34.278  1.00  0.00     0.166 HD
BRANCH  12  14
ATOM     14  C   UNL A   1      35.448  32.649  32.886  1.00  0.00     0.119 C 
ATOM     15  O   UNL A   1      36.596  33.218  35.623  1.00  0.00    -0.244 OA
ATOM     16  C   UNL A   1      37.072  32.488  34.779  1.00  0.00     0.365 C 
ATOM     17  O   UNL A   1      38.200  31.725  34.874  1.00  0.00    -0.402 OA
ATOM     18  C   UNL A   1      36.589  32.186  33.405  1.00  0.00     0.168 C 
ATOM     19  C   UNL A   1      38.342  31.122  33.672  1.00  0.00     0.231 C 
ATOM     20  N   UNL A   1      37.451  31.341  32.763  1.00  0.00    -0.204 NA
BRANCH  19  21
ATOM     21  C   UNL A   1      39.548  30.321  33.516  1.00  0.00     0.037 A 
ATOM     22  C   UNL A   1      40.785  30.808  33.948  1.00  0.00     0.015 A 
ATOM     23  C   UNL A   1      39.432  29.041  32.965  1.00  0.00     0.015 A 
ATOM     24  C   UNL A   1      41.915  29.997  33.828  1.00  0.00     0.021 A 
ATOM     25  C   UNL A   1      40.568  28.244  32.830  1.00  0.00     0.021 A 
ATOM     26  C   UNL A   1      41.803  28.723  33.268  1.00  0.00     0.041 A 
ATOM     27  Cl  UNL A   1      43.200  27.729  33.120  1.00  0.00    -0.084 Cl
ENDBRANCH  19  21
ENDBRANCH  12  14
ENDBRANCH   7  12
BRANCH  11  28
ATOM     28  O   UNL A   1      33.144  38.373  31.057  1.00  0.00    -0.507 OA
ATOM     29  H   UNL A   1      33.409  39.142  31.524  1.00  0.00     0.293 HD
ENDBRANCH  11  28
ENDBRANCH   3   6
ENDBRANCH   1   2
BRANCH   1  30
ATOM     30  C   UNL A   1      35.262  33.224  28.074  1.00  0.00     0.042 C 
BRANCH  30  31
ATOM     31  C   UNL A   1      34.601  32.300  29.088  1.00  0.00     0.118 C 
BRANCH  31  32
ATOM     32  N   UNL A   1      34.041  31.116  28.449  1.00  0.00    -0.352 N 
ATOM     33  C   UNL A   1      34.673  30.019  27.920  1.00  0.00     0.251 C 
ATOM     34  H   UNL A   1      33.059  31.100  28.386  1.00  0.00     0.163 HD
ATOM     35  O   UNL A   1      34.055  29.255  27.185  1.00  0.00    -0.269 OA
BRANCH  33  36
ATOM     36  C   UNL A   1      36.096  29.758  28.222  1.00  0.00     0.039 A 
ATOM     37  C   UNL A   1      36.441  29.297  29.496  1.00  0.00     0.014 A 
ATOM     38  C   UNL A   1      37.090  29.992  27.269  1.00  0.00     0.014 A 
ATOM     39  C   UNL A   1      37.774  29.009  29.790  1.00  0.00     0.010 A 
ATOM     40  C   UNL A   1      38.407  29.631  27.537  1.00  0.00     0.010 A 
ATOM     41  C   UNL A   1      38.761  29.135  28.799  1.00  0.00    -0.014 A 
BRANCH  41  42
ATOM     42  C   UNL A   1      40.163  28.722  29.052  1.00  0.00     0.031 A 
ATOM     43  C   UNL A   1      41.143  29.685  29.658  1.00  0.00     0.074 A 
ATOM     44  C   UNL A   1      40.568  27.498  28.665  1.00  0.00     0.049 A 
ATOM     45  N   UNL A   1      42.422  29.525  29.890  1.00  0.00    -0.248 NA
ATOM     46  C   UNL A   1      40.625  31.011  30.033  1.00  0.00     0.031 C 
ATOM     47  C   UNL A   1      39.716  26.483  28.038  1.00  0.00     0.029 A 
ATOM     48  N   UNL A   1      41.801  26.900  28.733  1.00  0.00    -0.354 N 
ATOM     49  C   UNL A   1      42.861  30.729  30.425  1.00  0.00     0.074 A 
ATOM     50  C   UNL A   1      41.728  31.627  30.432  1.00  0.00     0.031 C 
ATOM     51  C   UNL A   1      40.445  25.379  27.810  1.00  0.00     0.029 A 
ATOM     52  C   UNL A   1      41.823  25.625  28.222  1.00  0.00     0.049 A 
ATOM     53  H   UNL A   1      42.594  27.342  29.112  1.00  0.00     0.167 HD
ATOM     54  C   UNL A   1      44.095  31.052  30.882  1.00  0.00     0.031 A 
ATOM     55  C   UNL A   1      42.841  24.756  28.085  1.00  0.00     0.031 A 
ATOM     56  C   UNL A   1      45.224  30.160  30.856  1.00  0.00     0.049 A 
ATOM     57  C   UNL A   1      44.213  25.159  28.545  1.00  0.00     0.074 A 
ATOM     58  C   UNL A   1      46.505  30.375  31.335  1.00  0.00     0.029 A 
ATOM     59  N   UNL A   1      45.211  28.885  30.308  1.00  0.00    -0.354 N 
ATOM     60  N   UNL A   1      44.598  26.276  29.114  1.00  0.00    -0.248 NA
ATOM     61  C   UNL A   1      45.289  24.178  28.349  1.00  0.00     0.031 C 
ATOM     62  C   UNL A   1      47.284  29.257  31.014  1.00  0.00     0.029 A 
ATOM     63  C   UNL A   1      46.471  28.317  30.401  1.00  0.00     0.049 A 
ATOM     64  H   UNL A   1      44.422  28.449  29.911  1.00  0.00     0.167 HD
ATOM     65  C   UNL A   1      45.956  26.123  29.366  1.00  0.00     0.074 A 
ATOM     66  C   UNL A   1      46.320  24.799  28.906  1.00  0.00     0.031 C 
ATOM     67  C   UNL A   1      46.821  27.001  29.930  1.00  0.00     0.031 A 
BRANCH  54  68
ATOM     68  C   UNL A   1      44.286  32.442  31.428  1.00  0.00    -0.014 A 
ATOM     69  C   UNL A   1      44.090  32.727  32.789  1.00  0.00     0.009 A 
ATOM     70  C   UNL A   1      44.685  33.481  30.572  1.00  0.00     0.009 A 
ATOM     71  C   UNL A   1      44.239  34.029  33.271  1.00  0.00     0.001 A 
ATOM     72  C   UNL A   1      44.869  34.775  31.062  1.00  0.00     0.001 A 
ATOM     73  C   UNL A   1      44.632  35.051  32.408  1.00  0.00     0.000 A 
ENDBRANCH  54  68
BRANCH  55  74
ATOM     74  C   UNL A   1      42.595  23.414  27.495  1.00  0.00    -0.014 A 
ATOM     75  C   UNL A   1      42.150  22.354  28.300  1.00  0.00     0.009 A 
ATOM     76  C   UNL A   1      42.794  23.185  26.124  1.00  0.00     0.009 A 
ATOM     77  C   UNL A   1      41.930  21.090  27.749  1.00  0.00     0.001 A 
ATOM     78  C   UNL A   1      42.543  21.928  25.570  1.00  0.00     0.001 A 
ATOM     79  C   UNL A   1      42.120  20.880  26.384  1.00  0.00     0.000 A 
ENDBRANCH  55  74
BRANCH  67  80
ATOM     80  C   UNL A   1      48.244  26.547  30.107  1.00  0.00    -0.014 A 
ATOM     81  C   UNL A   1      49.228  26.835  29.148  1.00  0.00     0.009 A 
ATOM     82  C   UNL A   1      48.614  25.862  31.276  1.00  0.00     0.009 A 
ATOM     83  C   UNL A   1      50.546  26.420  29.343  1.00  0.00     0.001 A 
ATOM     84  C   UNL A   1      49.938  25.478  31.483  1.00  0.00     0.001 A 
ATOM     85  C   UNL A   1      50.902  25.749  30.513  1.00  0.00     0.000 A 
ENDBRANCH  67  80
ENDBRANCH  41  42
ENDBRANCH  33  36
ENDBRANCH  31  32
ENDBRANCH  30  31
ENDBRANCH   1  30
TORSDOF 14
ENDMDL
MODEL 2
REMARK VINA RESULT:     -10.9      0.259      5.783
REMARK SMILES O=C1OC(c2ccc(Cl)cc2)=N/C1=C/Nc1ccc(O)c(C(=O)NCCCNC(=O)c2ccc(-c3c4nc(c(-c5ccccc5)c5ccc([nH]5)c(-c5ccccc5)c5nc(c(-c6ccccc6)c6ccc3[nH]6)C=C5)C=C4)cc2)c1
REMARK SMILES IDX 25 1 24 2 22 3 23 4 21 6 16 7 17 8 79 9 18 10 19 11 15 12
REMARK SMILES IDX 14 14 1 15 2 16 3 17 13 18 4 19 12 20 5 21 6 22 11 23 7 24
REMARK SMILES IDX 10 25 8 26 9 27 20 28 26 30 27 31 28 32 29 33 30 35 31 36
REMARK SMILES IDX 32 37 78 38 33 39 77 40 34 41 35 42 36 43 71 44 37 45 76 46
REMARK SMILES IDX 70 47 72 48 38 49 75 50 69 51 68 52 39 54 61 55 46 56 60 57
REMARK SMILES IDX 47 58 50 59 59 60 73 61 48 62 49 63 58 65 74 66 51 67 40 68
REMARK SMILES IDX 41 69 45 70 42 71 44 72 43 73 62 74 63 75 67 76 64 77 66 78
REMARK SMILES IDX 65 79 52 80 53 81 57 82 54 83 56 84 55 85
REMARK H PARENT 24 5 15 13 20 29 28 34 72 53 50 64
REMARK Flexibility Score: inf
ROOT
ATOM      1  C   UNL A   1      35.402  34.590  28.502  1.00  0.00     0.118 C 
ENDROOT
BRANCH   1   2
ATOM      2  N   UNL A   1      34.107  35.215  28.347  1.00  0.00    -0.352 N 
ATOM      3  C   UNL A   1      33.228  35.761  29.244  1.00  0.00     0.255 C 
ATOM      4  O   UNL A   1      32.152  36.140  28.770  1.00  0.00    -0.269 OA
ATOM      5  H   UNL A   1      33.796  35.255  27.414  1.00  0.00     0.163 HD
BRANCH   3   6
ATOM      6  C   UNL A   1      33.502  36.017  30.692  1.00  0.00     0.083 A 
ATOM      7  C   UNL A   1      34.308  34.928  32.751  1.00  0.00     0.039 A 
ATOM      8  C   UNL A   1      34.028  36.095  33.461  1.00  0.00     0.030 A 
ATOM      9  C   UNL A   1      34.018  34.898  31.383  1.00  0.00     0.043 A 
ATOM     10  C   UNL A   1      33.572  37.231  32.801  1.00  0.00     0.049 A 
ATOM     11  C   UNL A   1      33.342  37.202  31.420  1.00  0.00     0.128 A 
BRANCH   7  12
ATOM     12  N   UNL A   1      34.808  33.779  33.373  1.00  0.00    -0.360 N 
ATOM     13  H   UNL A   1      34.508  33.606  34.295  1.00  0.00     0.166 HD
BRANCH  12  14
ATOM     14  C   UNL A   1      35.673  32.870  32.825  1.00  0.00     0.119 C 
ATOM     15  O   UNL A   1      36.648  33.078  35.678  1.00  0.00    -0.244 OA
ATOM     16  C   UNL A   1      37.128  32.392  34.801  1.00  0.00     0.365 C 
ATOM     17  O   UNL A   1      38.182  31.530  34.896  1.00  0.00    -0.402 OA
ATOM     18  C   UNL A   1      36.730  32.264  33.373  1.00  0.00     0.168 C 
ATOM     19  C   UNL A   1      38.368  31.033  33.652  1.00  0.00     0.231 C 
ATOM     20  N   UNL A   1      37.570  31.413  32.710  1.00  0.00    -0.204 NA
BRANCH  19  21
ATOM     21  C   UNL A   1      39.517  30.150  33.500  1.00  0.00     0.037 A 
ATOM     22  C   UNL A   1      39.388  28.923  32.845  1.00  0.00     0.015 A 
ATOM     23  C   UNL A   1      40.755  30.579  33.987  1.00  0.00     0.015 A 
ATOM     24  C   UNL A   1      40.519  28.121  32.674  1.00  0.00     0.021 A 
ATOM     25  C   UNL A   1      41.877  29.765  33.830  1.00  0.00     0.021 A 
ATOM     26  C   UNL A   1      41.754  28.542  33.169  1.00  0.00     0.041 A 
ATOM     27  Cl  UNL A   1      43.143  27.549  32.958  1.00  0.00    -0.084 Cl
ENDBRANCH  19  21
ENDBRANCH  12  14
ENDBRANCH   7  12
BRANCH  11  28
ATOM     28  O   UNL A   1      33.023  38.391  30.836  1.00  0.00    -0.507 OA
ATOM     29  H   UNL A   1      32.433  38.981  31.264  1.00  0.00     0.293 HD
ENDBRANCH  11  28
ENDBRANCH   3   6
ENDBRANCH   1   2
BRANCH   1  30
ATOM     30  C   UNL A   1      35.334  33.117  28.096  1.00  0.00     0.042 C 
BRANCH  30  31
ATOM     31  C   UNL A   1      34.614  32.247  29.118  1.00  0.00     0.118 C 
BRANCH  31  32
ATOM     32  N   UNL A   1      34.068  31.042  28.506  1.00  0.00    -0.352 N 
ATOM     33  C   UNL A   1      34.714  29.962  27.959  1.00  0.00     0.251 C 
ATOM     34  H   UNL A   1      33.085  30.996  28.479  1.00  0.00     0.163 HD
ATOM     35  O   UNL A   1      34.093  29.174  27.252  1.00  0.00    -0.269 OA
BRANCH  33  36
ATOM     36  C   UNL A   1      36.154  29.746  28.211  1.00  0.00     0.039 A 
ATOM     37  C   UNL A   1      36.558  29.288  29.467  1.00  0.00     0.014 A 
ATOM     38  C   UNL A   1      37.106  30.022  27.226  1.00  0.00     0.014 A 
ATOM     39  C   UNL A   1      37.909  29.043  29.714  1.00  0.00     0.010 A 
ATOM     40  C   UNL A   1      38.443  29.703  27.446  1.00  0.00     0.010 A 
ATOM     41  C   UNL A   1      38.857  29.210  28.691  1.00  0.00    -0.014 A 
BRANCH  41  42
ATOM     42  C   UNL A   1      40.280  28.843  28.892  1.00  0.00     0.031 A 
ATOM     43  C   UNL A   1      40.781  27.487  28.487  1.00  0.00     0.074 A 
ATOM     44  C   UNL A   1      41.102  29.711  29.510  1.00  0.00     0.049 A 
ATOM     45  N   UNL A   1      41.971  26.965  28.645  1.00  0.00    -0.248 NA
ATOM     46  C   UNL A   1      39.812  26.588  27.837  1.00  0.00     0.031 C 
ATOM     47  C   UNL A   1      40.725  31.048  29.977  1.00  0.00     0.029 A 
ATOM     48  N   UNL A   1      42.424  29.598  29.859  1.00  0.00    -0.354 N 
ATOM     49  C   UNL A   1      41.891  25.679  28.127  1.00  0.00     0.074 A 
ATOM     50  C   UNL A   1      40.524  25.479  27.701  1.00  0.00     0.031 C 
ATOM     51  C   UNL A   1      41.799  31.641  30.522  1.00  0.00     0.029 A 
ATOM     52  C   UNL A   1      42.922  30.710  30.493  1.00  0.00     0.049 A 
ATOM     53  H   UNL A   1      42.964  28.797  29.674  1.00  0.00     0.167 HD
ATOM     54  C   UNL A   1      42.873  24.752  28.005  1.00  0.00     0.031 A 
ATOM     55  C   UNL A   1      44.142  30.951  31.007  1.00  0.00     0.031 A 
ATOM     56  C   UNL A   1      44.228  24.950  28.447  1.00  0.00     0.049 A 
ATOM     57  C   UNL A   1      45.197  29.885  30.912  1.00  0.00     0.074 A 
ATOM     58  C   UNL A   1      45.308  24.092  28.330  1.00  0.00     0.029 A 
ATOM     59  N   UNL A   1      44.686  26.082  29.106  1.00  0.00    -0.354 N 
ATOM     60  N   UNL A   1      45.126  28.700  30.357  1.00  0.00    -0.248 NA
ATOM     61  C   UNL A   1      46.503  30.195  31.511  1.00  0.00     0.031 C 
ATOM     62  C   UNL A   1      46.402  24.676  28.978  1.00  0.00     0.029 A 
ATOM     63  C   UNL A   1      46.023  25.928  29.436  1.00  0.00     0.049 A 
ATOM     64  H   UNL A   1      44.142  26.877  29.308  1.00  0.00     0.167 HD
ATOM     65  C   UNL A   1      46.384  28.131  30.517  1.00  0.00     0.074 A 
ATOM     66  C   UNL A   1      47.201  29.110  31.204  1.00  0.00     0.031 C 
ATOM     67  C   UNL A   1      46.821  26.908  30.128  1.00  0.00     0.031 A 
BRANCH  54  68
ATOM     68  C   UNL A   1      42.501  23.431  27.386  1.00  0.00    -0.014 A 
ATOM     69  C   UNL A   1      42.709  23.178  26.020  1.00  0.00     0.009 A 
ATOM     70  C   UNL A   1      41.949  22.416  28.184  1.00  0.00     0.009 A 
ATOM     71  C   UNL A   1      42.328  21.958  25.458  1.00  0.00     0.001 A 
ATOM     72  C   UNL A   1      41.600  21.184  27.626  1.00  0.00     0.001 A 
ATOM     73  C   UNL A   1      41.777  20.962  26.262  1.00  0.00     0.000 A 
ENDBRANCH  54  68
BRANCH  55  74
ATOM     74  C   UNL A   1      44.432  32.261  31.647  1.00  0.00    -0.014 A 
ATOM     75  C   UNL A   1      44.220  32.442  33.022  1.00  0.00     0.009 A 
ATOM     76  C   UNL A   1      44.930  33.334  30.890  1.00  0.00     0.009 A 
ATOM     77  C   UNL A   1      44.481  33.675  33.622  1.00  0.00     0.001 A 
ATOM     78  C   UNL A   1      45.220  34.556  31.499  1.00  0.00     0.001 A 
ATOM     79  C   UNL A   1      44.987  34.730  32.862  1.00  0.00     0.000 A 
ENDBRANCH  55  74
BRANCH  67  80
ATOM     80  C   UNL A   1      48.259  26.569  30.412  1.00  0.00    -0.014 A 
ATOM     81  C   UNL A   1      49.281  26.901  29.508  1.00  0.00     0.009 A 
ATOM     82  C   UNL A   1      48.600  25.951  31.625  1.00  0.00     0.009 A 
ATOM     83  C   UNL A   1      50.610  26.593  29.802  1.00  0.00     0.001 A 
ATOM     84  C   UNL A   1      49.932  25.675  31.931  1.00  0.00     0.001 A 
ATOM     85  C   UNL A   1      50.936  25.988  31.015  1.00  0.00     0.000 A 
ENDBRANCH  67  80
ENDBRANCH  41  42
ENDBRANCH  33  36
ENDBRANCH  31  32
ENDBRANCH  30  31
ENDBRANCH   1  30
TORSDOF 14
ENDMDL
MODEL 3
REMARK VINA RESULT:     -10.7      2.183      3.405
REMARK SMILES O=C1OC(c2ccc(Cl)cc2)=N/C1=C/Nc1ccc(O)c(C(=O)NCCCNC(=O)c2ccc(-c3c4nc(c(-c5ccccc5)c5ccc([nH]5)c(-c5ccccc5)c5nc(c(-c6ccccc6)c6ccc3[nH]6)C=C5)C=C4)cc2)c1
REMARK SMILES IDX 25 1 24 2 22 3 23 4 21 6 16 7 17 8 79 9 18 10 19 11 15 12
REMARK SMILES IDX 14 14 1 15 2 16 3 17 13 18 4 19 12 20 5 21 6 22 11 23 7 24
REMARK SMILES IDX 10 25 8 26 9 27 20 28 26 30 27 31 28 32 29 33 30 35 31 36
REMARK SMILES IDX 32 37 78 38 33 39 77 40 34 41 35 42 36 43 71 44 37 45 76 46
REMARK SMILES IDX 70 47 72 48 38 49 75 50 69 51 68 52 39 54 61 55 46 56 60 57
REMARK SMILES IDX 47 58 50 59 59 60 73 61 48 62 49 63 58 65 74 66 51 67 40 68
REMARK SMILES IDX 41 69 45 70 42 71 44 72 43 73 62 74 63 75 67 76 64 77 66 78
REMARK SMILES IDX 65 79 52 80 53 81 57 82 54 83 56 84 55 85
REMARK H PARENT 24 5 15 13 20 29 28 34 72 53 50 64
REMARK Flexibility Score: inf
ROOT
ATOM      1  C   UNL A   1      34.841  32.378  31.334  1.00  0.00     0.118 C 
ENDROOT
BRANCH   1   2
ATOM      2  N   UNL A   1      34.605  32.852  32.680  1.00  0.00    -0.352 N 
ATOM      3  C   UNL A   1      35.449  33.217  33.694  1.00  0.00     0.255 C 
ATOM      4  O   UNL A   1      34.902  33.500  34.766  1.00  0.00    -0.269 OA
ATOM      5  H   UNL A   1      33.652  32.926  32.912  1.00  0.00     0.163 HD
BRANCH   3   6
ATOM      6  C   UNL A   1      36.931  33.392  33.580  1.00  0.00     0.083 A 
ATOM      7  C   UNL A   1      39.075  32.377  34.245  1.00  0.00     0.039 A 
ATOM      8  C   UNL A   1      39.748  33.454  33.670  1.00  0.00     0.030 A 
ATOM      9  C   UNL A   1      37.677  32.374  34.213  1.00  0.00     0.043 A 
ATOM     10  C   UNL A   1      39.046  34.444  32.992  1.00  0.00     0.049 A 
ATOM     11  C   UNL A   1      37.648  34.396  32.919  1.00  0.00     0.128 A 
BRANCH   7  12
ATOM     12  N   UNL A   1      39.750  31.340  34.899  1.00  0.00    -0.360 N 
ATOM     13  H   UNL A   1      40.085  31.530  35.805  1.00  0.00     0.166 HD
BRANCH  12  14
ATOM     14  C   UNL A   1      39.990  30.086  34.403  1.00  0.00     0.119 C 
ATOM     15  O   UNL A   1      41.789  30.196  36.828  1.00  0.00    -0.244 OA
ATOM     16  C   UNL A   1      41.679  29.269  36.054  1.00  0.00     0.365 C 
ATOM     17  O   UNL A   1      42.297  28.054  36.112  1.00  0.00    -0.402 OA
ATOM     18  C   UNL A   1      40.847  29.153  34.826  1.00  0.00     0.168 C 
ATOM     19  C   UNL A   1      41.890  27.377  35.013  1.00  0.00     0.231 C 
ATOM     20  N   UNL A   1      41.052  27.949  34.213  1.00  0.00    -0.204 NA
BRANCH  19  21
ATOM     21  C   UNL A   1      42.508  26.072  34.821  1.00  0.00     0.037 A 
ATOM     22  C   UNL A   1      43.656  25.939  34.036  1.00  0.00     0.015 A 
ATOM     23  C   UNL A   1      41.950  24.969  35.474  1.00  0.00     0.015 A 
ATOM     24  C   UNL A   1      44.252  24.682  33.910  1.00  0.00     0.021 A 
ATOM     25  C   UNL A   1      42.539  23.713  35.328  1.00  0.00     0.021 A 
ATOM     26  C   UNL A   1      43.690  23.577  34.552  1.00  0.00     0.041 A 
ATOM     27  Cl  UNL A   1      44.427  22.030  34.390  1.00  0.00    -0.084 Cl
ENDBRANCH  19  21
ENDBRANCH  12  14
ENDBRANCH   7  12
BRANCH  11  28
ATOM     28  O   UNL A   1      37.052  35.330  32.126  1.00  0.00    -0.507 OA
ATOM     29  H   UNL A   1      36.135  35.269  31.937  1.00  0.00     0.293 HD
ENDBRANCH  11  28
ENDBRANCH   3   6
ENDBRANCH   1   2
BRANCH   1  30
ATOM     30  C   UNL A   1      34.530  33.480  30.319  1.00  0.00     0.042 C 
BRANCH  30  31
ATOM     31  C   UNL A   1      35.033  33.162  28.917  1.00  0.00     0.118 C 
BRANCH  31  32
ATOM     32  N   UNL A   1      34.200  32.160  28.264  1.00  0.00    -0.352 N 
ATOM     33  C   UNL A   1      34.528  30.917  27.786  1.00  0.00     0.251 C 
ATOM     34  H   UNL A   1      33.256  32.415  28.147  1.00  0.00     0.163 HD
ATOM     35  O   UNL A   1      33.760  30.333  27.028  1.00  0.00    -0.269 OA
BRANCH  33  36
ATOM     36  C   UNL A   1      35.806  30.282  28.170  1.00  0.00     0.039 A 
ATOM     37  C   UNL A   1      36.858  30.271  27.250  1.00  0.00     0.014 A 
ATOM     38  C   UNL A   1      35.960  29.673  29.418  1.00  0.00     0.014 A 
ATOM     39  C   UNL A   1      38.084  29.709  27.606  1.00  0.00     0.010 A 
ATOM     40  C   UNL A   1      37.205  29.184  29.801  1.00  0.00     0.010 A 
ATOM     41  C   UNL A   1      38.279  29.198  28.900  1.00  0.00    -0.014 A 
BRANCH  41  42
ATOM     42  C   UNL A   1      39.607  28.705  29.340  1.00  0.00     0.031 A 
ATOM     43  C   UNL A   1      40.496  29.566  30.190  1.00  0.00     0.074 A 
ATOM     44  C   UNL A   1      40.038  27.504  28.910  1.00  0.00     0.049 A 
ATOM     45  N   UNL A   1      41.712  29.332  30.614  1.00  0.00    -0.248 NA
ATOM     46  C   UNL A   1      39.958  30.874  30.600  1.00  0.00     0.031 C 
ATOM     47  C   UNL A   1      39.278  26.588  28.056  1.00  0.00     0.029 A 
ATOM     48  N   UNL A   1      41.226  26.851  29.123  1.00  0.00    -0.354 N 
ATOM     49  C   UNL A   1      42.087  30.463  31.328  1.00  0.00     0.074 A 
ATOM     50  C   UNL A   1      40.993  31.404  31.233  1.00  0.00     0.031 C 
ATOM     51  C   UNL A   1      40.005  25.479  27.846  1.00  0.00     0.029 A 
ATOM     52  C   UNL A   1      41.300  25.628  28.503  1.00  0.00     0.049 A 
ATOM     53  H   UNL A   1      41.955  27.223  29.670  1.00  0.00     0.167 HD
ATOM     54  C   UNL A   1      43.234  30.691  32.012  1.00  0.00     0.031 A 
ATOM     55  C   UNL A   1      42.302  24.732  28.453  1.00  0.00     0.031 A 
ATOM     56  C   UNL A   1      44.327  29.758  32.087  1.00  0.00     0.049 A 
ATOM     57  C   UNL A   1      43.587  25.034  29.171  1.00  0.00     0.074 A 
ATOM     58  C   UNL A   1      45.514  29.874  32.790  1.00  0.00     0.029 A 
ATOM     59  N   UNL A   1      44.372  28.540  31.425  1.00  0.00    -0.354 N 
ATOM     60  N   UNL A   1      43.901  26.077  29.900  1.00  0.00    -0.248 NA
ATOM     61  C   UNL A   1      44.654  24.029  29.063  1.00  0.00     0.031 C 
ATOM     62  C   UNL A   1      46.305  28.758  32.497  1.00  0.00     0.029 A 
ATOM     63  C   UNL A   1      45.583  27.912  31.670  1.00  0.00     0.049 A 
ATOM     64  H   UNL A   1      43.651  28.175  30.863  1.00  0.00     0.167 HD
ATOM     65  C   UNL A   1      45.192  25.844  30.358  1.00  0.00     0.074 A 
ATOM     66  C   UNL A   1      45.593  24.553  29.839  1.00  0.00     0.031 C 
ATOM     67  C   UNL A   1      45.972  26.631  31.140  1.00  0.00     0.031 A 
BRANCH  54  68
ATOM     68  C   UNL A   1      43.367  32.017  32.713  1.00  0.00    -0.014 A 
ATOM     69  C   UNL A   1      43.135  32.142  34.093  1.00  0.00     0.009 A 
ATOM     70  C   UNL A   1      43.747  33.157  31.987  1.00  0.00     0.009 A 
ATOM     71  C   UNL A   1      43.231  33.386  34.719  1.00  0.00     0.001 A 
ATOM     72  C   UNL A   1      43.877  34.393  32.622  1.00  0.00     0.001 A 
ATOM     73  C   UNL A   1      43.606  34.509  33.984  1.00  0.00     0.000 A 
ENDBRANCH  54  68
BRANCH  55  74
ATOM     74  C   UNL A   1      42.124  23.460  27.704  1.00  0.00    -0.014 A 
ATOM     75  C   UNL A   1      41.539  22.347  28.325  1.00  0.00     0.009 A 
ATOM     76  C   UNL A   1      42.528  23.355  26.363  1.00  0.00     0.009 A 
ATOM     77  C   UNL A   1      41.381  21.148  27.626  1.00  0.00     0.001 A 
ATOM     78  C   UNL A   1      42.340  22.165  25.658  1.00  0.00     0.001 A 
ATOM     79  C   UNL A   1      41.776  21.060  26.292  1.00  0.00     0.000 A 
ENDBRANCH  55  74
BRANCH  67  80
ATOM     80  C   UNL A   1      47.333  26.102  31.506  1.00  0.00    -0.014 A 
ATOM     81  C   UNL A   1      48.410  26.173  30.608  1.00  0.00     0.009 A 
ATOM     82  C   UNL A   1      47.549  25.570  32.786  1.00  0.00     0.009 A 
ATOM     83  C   UNL A   1      49.668  25.693  30.977  1.00  0.00     0.001 A 
ATOM     84  C   UNL A   1      48.815  25.122  33.164  1.00  0.00     0.001 A 
ATOM     85  C   UNL A   1      49.871  25.176  32.256  1.00  0.00     0.000 A 
ENDBRANCH  67  80
ENDBRANCH  41  42
ENDBRANCH  33  36
ENDBRANCH  31  32
ENDBRANCH  30  31
ENDBRANCH   1  30
TORSDOF 14
ENDMDL
