MODEL 1
REMARK VINA RESULT:     -13.4      0.000      0.000
REMARK SMILES O=C(NCCCNC(=O)[C@H]1[C@H]2CC[C@H](CC2)[C@@H]1C(=O)Nc1sc2c(c1C(=O)N1CCCCC1)CCCC2)c1ccc(-c2c3nc(c(-c4ccccc4)c4ccc([nH]4)c(-c4ccccc4)c4nc(c(-c5ccccc5)c5ccc2[nH]5)C=C4)C=C3)cc1
REMARK SMILES IDX 5 1 4 2 3 3 1 4 2 5 38 7 39 8 85 9 40 10 84 11 41 12 42 13
REMARK SMILES IDX 43 14 78 15 44 16 83 17 77 18 79 19 45 20 82 21 76 22 75 23
REMARK SMILES IDX 46 25 68 26 53 27 67 28 54 29 57 30 66 31 80 32 55 33 56 34
REMARK SMILES IDX 65 36 81 37 58 38 47 39 48 40 52 41 49 42 51 43 50 44 69 45
REMARK SMILES IDX 70 46 74 47 71 48 73 49 72 50 59 51 60 52 64 53 61 54 63 55
REMARK SMILES IDX 62 56 6 57 7 58 8 59 9 61 10 62 11 63 17 64 12 65 16 66
REMARK SMILES IDX 14 67 13 68 15 69 18 70 19 71 20 72 21 74 22 75 25 76 23 77
REMARK SMILES IDX 24 78 37 79 34 80 36 81 35 82 26 83 27 84 28 85 29 86 33 87
REMARK SMILES IDX 30 88 32 89 31 90
REMARK H PARENT 3 6 79 24 57 35 7 60 20 73
REMARK Flexibility Score: inf
ROOT
ATOM      1  C   UNL A   1      31.454  31.184  26.509  1.00  0.00     0.042 C 
ENDROOT
BRANCH   1   2
ATOM      2  C   UNL A   1      32.663  31.987  27.002  1.00  0.00     0.118 C 
BRANCH   2   3
ATOM      3  N   UNL A   1      32.349  33.321  27.485  1.00  0.00    -0.352 N 
ATOM      4  O   UNL A   1      32.649  35.230  28.655  1.00  0.00    -0.269 OA
ATOM      5  C   UNL A   1      33.090  34.144  28.311  1.00  0.00     0.251 C 
ATOM      6  H   UNL A   1      31.489  33.691  27.181  1.00  0.00     0.163 HD
BRANCH   5   7
ATOM      7  C   UNL A   1      34.414  33.703  28.818  1.00  0.00     0.039 A 
ATOM      8  C   UNL A   1      35.593  34.067  28.172  1.00  0.00     0.014 A 
ATOM      9  C   UNL A   1      34.478  32.936  29.983  1.00  0.00     0.014 A 
ATOM     10  C   UNL A   1      36.820  33.539  28.598  1.00  0.00     0.010 A 
ATOM     11  C   UNL A   1      35.716  32.472  30.453  1.00  0.00     0.010 A 
ATOM     12  C   UNL A   1      36.901  32.730  29.745  1.00  0.00    -0.014 A 
BRANCH  12  13
ATOM     13  C   UNL A   1      38.210  32.179  30.213  1.00  0.00     0.031 A 
ATOM     14  C   UNL A   1      38.760  30.888  29.652  1.00  0.00     0.074 A 
ATOM     15  C   UNL A   1      38.917  32.820  31.168  1.00  0.00     0.049 A 
ATOM     16  N   UNL A   1      39.833  30.218  30.008  1.00  0.00    -0.248 NA
ATOM     17  C   UNL A   1      38.005  30.261  28.556  1.00  0.00     0.031 C 
ATOM     18  C   UNL A   1      38.532  34.078  31.808  1.00  0.00     0.029 A 
ATOM     19  N   UNL A   1      40.112  32.497  31.766  1.00  0.00    -0.354 N 
ATOM     20  C   UNL A   1      39.853  29.074  29.218  1.00  0.00     0.074 A 
ATOM     21  C   UNL A   1      38.682  29.136  28.367  1.00  0.00     0.031 C 
ATOM     22  C   UNL A   1      39.486  34.438  32.679  1.00  0.00     0.029 A 
ATOM     23  C   UNL A   1      40.517  33.406  32.713  1.00  0.00     0.049 A 
ATOM     24  H   UNL A   1      40.628  31.690  31.539  1.00  0.00     0.167 HD
ATOM     25  C   UNL A   1      40.757  28.063  29.196  1.00  0.00     0.031 A 
ATOM     26  C   UNL A   1      41.579  33.408  33.542  1.00  0.00     0.031 A 
ATOM     27  C   UNL A   1      41.942  27.999  30.013  1.00  0.00     0.049 A 
ATOM     28  C   UNL A   1      42.550  32.262  33.519  1.00  0.00     0.074 A 
ATOM     29  C   UNL A   1      42.937  27.033  30.012  1.00  0.00     0.029 A 
ATOM     30  N   UNL A   1      42.295  28.931  30.974  1.00  0.00    -0.354 N 
ATOM     31  N   UNL A   1      42.559  31.202  32.751  1.00  0.00    -0.248 NA
ATOM     32  C   UNL A   1      43.657  32.318  34.485  1.00  0.00     0.031 C 
ATOM     33  C   UNL A   1      43.867  27.356  31.007  1.00  0.00     0.029 A 
ATOM     34  C   UNL A   1      43.480  28.552  31.588  1.00  0.00     0.049 A 
ATOM     35  H   UNL A   1      41.781  29.742  31.189  1.00  0.00     0.167 HD
ATOM     36  C   UNL A   1      43.685  30.477  33.123  1.00  0.00     0.074 A 
ATOM     37  C   UNL A   1      44.342  31.226  34.174  1.00  0.00     0.031 C 
ATOM     38  C   UNL A   1      44.132  29.296  32.632  1.00  0.00     0.031 A 
BRANCH  25  39
ATOM     39  C   UNL A   1      40.487  26.907  28.270  1.00  0.00    -0.014 A 
ATOM     40  C   UNL A   1      39.673  25.831  28.656  1.00  0.00     0.009 A 
ATOM     41  C   UNL A   1      41.013  26.927  26.968  1.00  0.00     0.009 A 
ATOM     42  C   UNL A   1      39.420  24.782  27.768  1.00  0.00     0.001 A 
ATOM     43  C   UNL A   1      40.737  25.891  26.074  1.00  0.00     0.001 A 
ATOM     44  C   UNL A   1      39.949  24.815  26.477  1.00  0.00     0.000 A 
ENDBRANCH  25  39
BRANCH  26  45
ATOM     45  C   UNL A   1      41.782  34.539  34.483  1.00  0.00    -0.014 A 
ATOM     46  C   UNL A   1      42.509  35.671  34.085  1.00  0.00     0.009 A 
ATOM     47  C   UNL A   1      41.257  34.491  35.784  1.00  0.00     0.009 A 
ATOM     48  C   UNL A   1      42.724  36.723  34.977  1.00  0.00     0.001 A 
ATOM     49  C   UNL A   1      41.448  35.557  36.664  1.00  0.00     0.001 A 
ATOM     50  C   UNL A   1      42.188  36.669  36.262  1.00  0.00     0.000 A 
ENDBRANCH  26  45
BRANCH  38  51
ATOM     51  C   UNL A   1      45.421  28.762  33.194  1.00  0.00    -0.014 A 
ATOM     52  C   UNL A   1      46.660  29.092  32.625  1.00  0.00     0.009 A 
ATOM     53  C   UNL A   1      45.392  27.927  34.322  1.00  0.00     0.009 A 
ATOM     54  C   UNL A   1      47.842  28.564  33.150  1.00  0.00     0.001 A 
ATOM     55  C   UNL A   1      46.576  27.423  34.862  1.00  0.00     0.001 A 
ATOM     56  C   UNL A   1      47.800  27.733  34.270  1.00  0.00     0.000 A 
ENDBRANCH  38  51
ENDBRANCH  12  13
ENDBRANCH   5   7
ENDBRANCH   2   3
ENDBRANCH   1   2
BRANCH   1  57
ATOM     57  C   UNL A   1      31.769  30.075  25.501  1.00  0.00     0.117 C 
BRANCH  57  58
ATOM     58  N   UNL A   1      32.567  28.984  26.043  1.00  0.00    -0.356 N 
ATOM     59  C   UNL A   1      32.578  27.629  25.990  1.00  0.00     0.224 C 
ATOM     60  H   UNL A   1      33.302  29.323  26.603  1.00  0.00     0.163 HD
ATOM     61  O   UNL A   1      33.586  27.139  26.520  1.00  0.00    -0.275 OA
BRANCH  59  62
ATOM     62  C   UNL A   1      31.449  26.711  25.458  1.00  0.00     0.094 C 
ATOM     63  C   UNL A   1      30.797  27.115  24.113  1.00  0.00     0.002 C 
ATOM     64  C   UNL A   1      31.973  25.224  25.361  1.00  0.00     0.094 C 
ATOM     65  C   UNL A   1      31.840  27.096  22.993  1.00  0.00     0.005 C 
ATOM     66  C   UNL A   1      29.683  26.100  23.781  1.00  0.00     0.005 C 
ATOM     67  C   UNL A   1      31.778  24.734  23.880  1.00  0.00     0.002 C 
ATOM     68  C   UNL A   1      32.495  25.713  22.925  1.00  0.00     0.005 C 
ATOM     69  C   UNL A   1      30.287  24.727  23.501  1.00  0.00     0.005 C 
BRANCH  64  70
ATOM     70  C   UNL A   1      31.481  24.107  26.353  1.00  0.00     0.229 C 
ATOM     71  O   UNL A   1      30.500  24.311  27.080  1.00  0.00    -0.274 OA
ATOM     72  N   UNL A   1      31.865  22.797  26.203  1.00  0.00    -0.317 N 
ATOM     73  H   UNL A   1      31.125  22.152  26.130  1.00  0.00     0.170 HD
BRANCH  72  74
ATOM     74  C   UNL A   1      33.126  22.250  26.139  1.00  0.00     0.108 A 
ATOM     75  S   UNL A   1      34.276  22.768  27.272  1.00  0.00    -0.122 S 
ATOM     76  C   UNL A   1      33.586  21.141  25.420  1.00  0.00     0.078 A 
ATOM     77  C   UNL A   1      35.507  22.127  26.326  1.00  0.00     0.011 A 
ATOM     78  C   UNL A   1      35.043  21.159  25.458  1.00  0.00    -0.019 A 
ATOM     79  C   UNL A   1      36.911  22.583  26.450  1.00  0.00     0.047 C 
ATOM     80  C   UNL A   1      36.013  20.379  24.625  1.00  0.00     0.037 C 
ATOM     81  C   UNL A   1      37.661  22.220  25.169  1.00  0.00     0.006 C 
ATOM     82  C   UNL A   1      37.484  20.749  24.839  1.00  0.00     0.005 C 
BRANCH  76  83
ATOM     83  C   UNL A   1      32.671  20.305  24.613  1.00  0.00     0.257 C 
ATOM     84  O   UNL A   1      31.791  20.821  23.920  1.00  0.00    -0.269 OA
ATOM     85  N   UNL A   1      32.887  18.924  24.569  1.00  0.00    -0.339 N 
ATOM     86  C   UNL A   1      32.693  18.273  23.284  1.00  0.00     0.120 C 
ATOM     87  C   UNL A   1      32.641  18.054  25.718  1.00  0.00     0.120 C 
ATOM     88  C   UNL A   1      33.675  17.118  23.151  1.00  0.00     0.022 C 
ATOM     89  C   UNL A   1      33.484  16.768  25.656  1.00  0.00     0.022 C 
ATOM     90  C   UNL A   1      33.483  16.105  24.279  1.00  0.00     0.004 C 
ENDBRANCH  76  83
ENDBRANCH  72  74
ENDBRANCH  64  70
ENDBRANCH  59  62
ENDBRANCH  57  58
ENDBRANCH   1  57
TORSDOF 13
ENDMDL
MODEL 2
REMARK VINA RESULT:     -13.3      3.612      9.357
REMARK SMILES O=C(NCCCNC(=O)[C@H]1[C@H]2CC[C@H](CC2)[C@@H]1C(=O)Nc1sc2c(c1C(=O)N1CCCCC1)CCCC2)c1ccc(-c2c3nc(c(-c4ccccc4)c4ccc([nH]4)c(-c4ccccc4)c4nc(c(-c5ccccc5)c5ccc2[nH]5)C=C4)C=C3)cc1
REMARK SMILES IDX 5 1 4 2 3 3 1 4 2 5 38 7 39 8 85 9 40 10 84 11 41 12 42 13
REMARK SMILES IDX 43 14 78 15 44 16 83 17 77 18 79 19 45 20 82 21 76 22 75 23
REMARK SMILES IDX 46 25 68 26 53 27 67 28 54 29 57 30 66 31 80 32 55 33 56 34
REMARK SMILES IDX 65 36 81 37 58 38 47 39 48 40 52 41 49 42 51 43 50 44 69 45
REMARK SMILES IDX 70 46 74 47 71 48 73 49 72 50 59 51 60 52 64 53 61 54 63 55
REMARK SMILES IDX 62 56 6 57 7 58 8 59 9 61 10 62 11 63 17 64 12 65 16 66
REMARK SMILES IDX 14 67 13 68 15 69 18 70 19 71 20 72 21 74 22 75 25 76 23 77
REMARK SMILES IDX 24 78 37 79 34 80 36 81 35 82 26 83 27 84 28 85 29 86 33 87
REMARK SMILES IDX 30 88 32 89 31 90
REMARK H PARENT 3 6 79 24 57 35 7 60 20 73
REMARK Flexibility Score: inf
ROOT
ATOM      1  C   UNL A   1      37.735  19.987  24.742  1.00  0.00     0.042 C 
ENDROOT
BRANCH   1   2
ATOM      2  C   UNL A   1      38.877  20.267  25.725  1.00  0.00     0.118 C 
BRANCH   2   3
ATOM      3  N   UNL A   1      39.954  19.291  25.699  1.00  0.00    -0.352 N 
ATOM      4  O   UNL A   1      42.063  18.519  25.937  1.00  0.00    -0.269 OA
ATOM      5  C   UNL A   1      41.276  19.445  26.067  1.00  0.00     0.251 C 
ATOM      6  H   UNL A   1      39.706  18.395  25.373  1.00  0.00     0.163 HD
BRANCH   5   7
ATOM      7  C   UNL A   1      41.763  20.746  26.591  1.00  0.00     0.039 A 
ATOM      8  C   UNL A   1      41.886  20.972  27.960  1.00  0.00     0.014 A 
ATOM      9  C   UNL A   1      42.135  21.747  25.693  1.00  0.00     0.014 A 
ATOM     10  C   UNL A   1      42.231  22.246  28.433  1.00  0.00     0.010 A 
ATOM     11  C   UNL A   1      42.555  22.999  26.169  1.00  0.00     0.010 A 
ATOM     12  C   UNL A   1      42.569  23.281  27.545  1.00  0.00    -0.014 A 
BRANCH  12  13
ATOM     13  C   UNL A   1      42.954  24.637  28.046  1.00  0.00     0.031 A 
ATOM     14  C   UNL A   1      41.907  25.680  28.363  1.00  0.00     0.074 A 
ATOM     15  C   UNL A   1      44.255  24.961  28.204  1.00  0.00     0.049 A 
ATOM     16  N   UNL A   1      42.067  26.935  28.718  1.00  0.00    -0.248 NA
ATOM     17  C   UNL A   1      40.499  25.267  28.258  1.00  0.00     0.031 C 
ATOM     18  C   UNL A   1      45.388  24.070  27.950  1.00  0.00     0.029 A 
ATOM     19  N   UNL A   1      44.843  26.133  28.617  1.00  0.00    -0.354 N 
ATOM     20  C   UNL A   1      40.787  27.469  28.830  1.00  0.00     0.074 A 
ATOM     21  C   UNL A   1      39.861  26.404  28.500  1.00  0.00     0.031 C 
ATOM     22  C   UNL A   1      46.528  24.712  28.248  1.00  0.00     0.029 A 
ATOM     23  C   UNL A   1      46.215  26.081  28.646  1.00  0.00     0.049 A 
ATOM     24  H   UNL A   1      44.329  26.934  28.868  1.00  0.00     0.167 HD
ATOM     25  C   UNL A   1      40.409  28.725  29.177  1.00  0.00     0.031 A 
ATOM     26  C   UNL A   1      47.132  27.026  28.931  1.00  0.00     0.031 A 
ATOM     27  C   UNL A   1      41.314  29.787  29.538  1.00  0.00     0.049 A 
ATOM     28  C   UNL A   1      46.689  28.418  29.283  1.00  0.00     0.074 A 
ATOM     29  C   UNL A   1      41.008  31.075  29.952  1.00  0.00     0.029 A 
ATOM     30  N   UNL A   1      42.695  29.692  29.527  1.00  0.00    -0.354 N 
ATOM     31  N   UNL A   1      45.475  28.894  29.402  1.00  0.00    -0.248 NA
ATOM     32  C   UNL A   1      47.751  29.402  29.537  1.00  0.00     0.031 C 
ATOM     33  C   UNL A   1      42.204  31.772  30.146  1.00  0.00     0.029 A 
ATOM     34  C   UNL A   1      43.255  30.903  29.906  1.00  0.00     0.049 A 
ATOM     35  H   UNL A   1      43.203  28.884  29.287  1.00  0.00     0.167 HD
ATOM     36  C   UNL A   1      45.627  30.225  29.769  1.00  0.00     0.074 A 
ATOM     37  C   UNL A   1      47.049  30.477  29.868  1.00  0.00     0.031 C 
ATOM     38  C   UNL A   1      44.669  31.153  30.005  1.00  0.00     0.031 A 
BRANCH  25  39
ATOM     39  C   UNL A   1      38.938  29.041  29.154  1.00  0.00    -0.014 A 
ATOM     40  C   UNL A   1      38.154  28.979  30.316  1.00  0.00     0.009 A 
ATOM     41  C   UNL A   1      38.341  29.465  27.955  1.00  0.00     0.009 A 
ATOM     42  C   UNL A   1      36.795  29.300  30.270  1.00  0.00     0.001 A 
ATOM     43  C   UNL A   1      36.989  29.811  27.918  1.00  0.00     0.001 A 
ATOM     44  C   UNL A   1      36.215  29.720  29.073  1.00  0.00     0.000 A 
ENDBRANCH  25  39
BRANCH  26  45
ATOM     45  C   UNL A   1      48.578  26.692  28.888  1.00  0.00    -0.014 A 
ATOM     46  C   UNL A   1      49.310  26.864  27.703  1.00  0.00     0.009 A 
ATOM     47  C   UNL A   1      49.233  26.194  30.026  1.00  0.00     0.009 A 
ATOM     48  C   UNL A   1      50.664  26.525  27.653  1.00  0.00     0.001 A 
ATOM     49  C   UNL A   1      50.593  25.885  29.981  1.00  0.00     0.001 A 
ATOM     50  C   UNL A   1      51.305  26.042  28.793  1.00  0.00     0.000 A 
ENDBRANCH  26  45
BRANCH  38  51
ATOM     51  C   UNL A   1      45.126  32.518  30.440  1.00  0.00    -0.014 A 
ATOM     52  C   UNL A   1      45.367  33.540  29.510  1.00  0.00     0.009 A 
ATOM     53  C   UNL A   1      45.303  32.787  31.806  1.00  0.00     0.009 A 
ATOM     54  C   UNL A   1      45.815  34.793  29.936  1.00  0.00     0.001 A 
ATOM     55  C   UNL A   1      45.724  34.048  32.232  1.00  0.00     0.001 A 
ATOM     56  C   UNL A   1      45.989  35.047  31.296  1.00  0.00     0.000 A 
ENDBRANCH  38  51
ENDBRANCH  12  13
ENDBRANCH   5   7
ENDBRANCH   2   3
ENDBRANCH   1   2
BRANCH   1  57
ATOM     57  C   UNL A   1      36.386  20.611  25.108  1.00  0.00     0.117 C 
BRANCH  57  58
ATOM     58  N   UNL A   1      36.394  22.067  25.157  1.00  0.00    -0.356 N 
ATOM     59  C   UNL A   1      35.507  23.079  24.997  1.00  0.00     0.224 C 
ATOM     60  H   UNL A   1      37.293  22.411  25.365  1.00  0.00     0.163 HD
ATOM     61  O   UNL A   1      35.984  24.183  25.297  1.00  0.00    -0.275 OA
BRANCH  59  62
ATOM     62  C   UNL A   1      34.081  22.980  24.398  1.00  0.00     0.094 C 
ATOM     63  C   UNL A   1      33.094  22.020  25.105  1.00  0.00     0.002 C 
ATOM     64  C   UNL A   1      33.440  24.420  24.307  1.00  0.00     0.094 C 
ATOM     65  C   UNL A   1      32.852  22.477  26.546  1.00  0.00     0.005 C 
ATOM     66  C   UNL A   1      31.753  22.039  24.340  1.00  0.00     0.005 C 
ATOM     67  C   UNL A   1      32.084  24.400  25.103  1.00  0.00     0.002 C 
ATOM     68  C   UNL A   1      32.352  23.925  26.548  1.00  0.00     0.005 C 
ATOM     69  C   UNL A   1      31.094  23.409  24.467  1.00  0.00     0.005 C 
BRANCH  64  70
ATOM     70  C   UNL A   1      33.229  25.146  22.929  1.00  0.00     0.229 C 
ATOM     71  O   UNL A   1      33.527  24.573  21.873  1.00  0.00    -0.274 OA
ATOM     72  N   UNL A   1      32.408  26.242  22.816  1.00  0.00    -0.317 N 
ATOM     73  H   UNL A   1      31.692  26.157  22.146  1.00  0.00     0.170 HD
BRANCH  72  74
ATOM     74  C   UNL A   1      32.435  27.438  23.494  1.00  0.00     0.108 A 
ATOM     75  S   UNL A   1      33.949  28.090  23.895  1.00  0.00    -0.122 S 
ATOM     76  C   UNL A   1      31.408  28.358  23.731  1.00  0.00     0.078 A 
ATOM     77  C   UNL A   1      33.219  29.118  25.006  1.00  0.00     0.011 A 
ATOM     78  C   UNL A   1      31.878  29.300  24.740  1.00  0.00    -0.019 A 
ATOM     79  C   UNL A   1      33.976  29.731  26.123  1.00  0.00     0.047 C 
ATOM     80  C   UNL A   1      31.086  30.286  25.543  1.00  0.00     0.037 C 
ATOM     81  C   UNL A   1      32.989  30.163  27.206  1.00  0.00     0.006 C 
ATOM     82  C   UNL A   1      31.887  31.027  26.618  1.00  0.00     0.005 C 
BRANCH  76  83
ATOM     83  C   UNL A   1      30.053  28.168  23.172  1.00  0.00     0.257 C 
ATOM     84  O   UNL A   1      29.548  27.045  23.110  1.00  0.00    -0.269 OA
ATOM     85  N   UNL A   1      29.311  29.297  22.810  1.00  0.00    -0.339 N 
ATOM     86  C   UNL A   1      27.891  29.273  23.118  1.00  0.00     0.120 C 
ATOM     87  C   UNL A   1      29.653  30.122  21.653  1.00  0.00     0.120 C 
ATOM     88  C   UNL A   1      27.425  30.681  23.457  1.00  0.00     0.022 C 
ATOM     89  C   UNL A   1      29.131  31.562  21.799  1.00  0.00     0.022 C 
ATOM     90  C   UNL A   1      27.686  31.638  22.295  1.00  0.00     0.004 C 
ENDBRANCH  76  83
ENDBRANCH  72  74
ENDBRANCH  64  70
ENDBRANCH  59  62
ENDBRANCH  57  58
ENDBRANCH   1  57
TORSDOF 13
ENDMDL
MODEL 3
REMARK VINA RESULT:     -13.3      3.528      9.179
REMARK SMILES O=C(NCCCNC(=O)[C@H]1[C@H]2CC[C@H](CC2)[C@@H]1C(=O)Nc1sc2c(c1C(=O)N1CCCCC1)CCCC2)c1ccc(-c2c3nc(c(-c4ccccc4)c4ccc([nH]4)c(-c4ccccc4)c4nc(c(-c5ccccc5)c5ccc2[nH]5)C=C4)C=C3)cc1
REMARK SMILES IDX 5 1 4 2 3 3 1 4 2 5 38 7 39 8 85 9 40 10 84 11 41 12 42 13
REMARK SMILES IDX 43 14 78 15 44 16 83 17 77 18 79 19 45 20 82 21 76 22 75 23
REMARK SMILES IDX 46 25 68 26 53 27 67 28 54 29 57 30 66 31 80 32 55 33 56 34
REMARK SMILES IDX 65 36 81 37 58 38 47 39 48 40 52 41 49 42 51 43 50 44 69 45
REMARK SMILES IDX 70 46 74 47 71 48 73 49 72 50 59 51 60 52 64 53 61 54 63 55
REMARK SMILES IDX 62 56 6 57 7 58 8 59 9 61 10 62 11 63 17 64 12 65 16 66
REMARK SMILES IDX 14 67 13 68 15 69 18 70 19 71 20 72 21 74 22 75 25 76 23 77
REMARK SMILES IDX 24 78 37 79 34 80 36 81 35 82 26 83 27 84 28 85 29 86 33 87
REMARK SMILES IDX 30 88 32 89 31 90
REMARK H PARENT 3 6 79 24 57 35 7 60 20 73
REMARK Flexibility Score: inf
ROOT
ATOM      1  C   UNL A   1      37.750  19.849  24.730  1.00  0.00     0.042 C 
ENDROOT
BRANCH   1   2
ATOM      2  C   UNL A   1      38.847  20.172  25.751  1.00  0.00     0.118 C 
BRANCH   2   3
ATOM      3  N   UNL A   1      39.962  19.241  25.759  1.00  0.00    -0.352 N 
ATOM      4  O   UNL A   1      42.103  18.566  26.015  1.00  0.00    -0.269 OA
ATOM      5  C   UNL A   1      41.279  19.464  26.111  1.00  0.00     0.251 C 
ATOM      6  H   UNL A   1      39.750  18.322  25.474  1.00  0.00     0.163 HD
BRANCH   5   7
ATOM      7  C   UNL A   1      41.716  20.805  26.575  1.00  0.00     0.039 A 
ATOM      8  C   UNL A   1      41.770  21.117  27.931  1.00  0.00     0.014 A 
ATOM      9  C   UNL A   1      42.111  21.757  25.634  1.00  0.00     0.014 A 
ATOM     10  C   UNL A   1      42.067  22.425  28.339  1.00  0.00     0.010 A 
ATOM     11  C   UNL A   1      42.483  23.045  26.050  1.00  0.00     0.010 A 
ATOM     12  C   UNL A   1      42.427  23.411  27.405  1.00  0.00    -0.014 A 
BRANCH  12  13
ATOM     13  C   UNL A   1      42.761  24.803  27.838  1.00  0.00     0.031 A 
ATOM     14  C   UNL A   1      44.195  25.238  28.036  1.00  0.00     0.074 A 
ATOM     15  C   UNL A   1      41.778  25.696  28.081  1.00  0.00     0.049 A 
ATOM     16  N   UNL A   1      44.661  26.376  28.496  1.00  0.00    -0.248 NA
ATOM     17  C   UNL A   1      45.242  24.266  27.683  1.00  0.00     0.031 C 
ATOM     18  C   UNL A   1      40.344  25.441  27.931  1.00  0.00     0.029 A 
ATOM     19  N   UNL A   1      41.838  27.002  28.506  1.00  0.00    -0.354 N 
ATOM     20  C   UNL A   1      46.045  26.239  28.533  1.00  0.00     0.074 A 
ATOM     21  C   UNL A   1      46.343  24.904  28.055  1.00  0.00     0.031 C 
ATOM     22  C   UNL A   1      39.666  26.561  28.223  1.00  0.00     0.029 A 
ATOM     23  C   UNL A   1      40.606  27.593  28.647  1.00  0.00     0.049 A 
ATOM     24  H   UNL A   1      42.684  27.469  28.694  1.00  0.00     0.167 HD
ATOM     25  C   UNL A   1      46.985  27.135  28.925  1.00  0.00     0.031 A 
ATOM     26  C   UNL A   1      40.256  28.816  29.091  1.00  0.00     0.031 A 
ATOM     27  C   UNL A   1      46.709  28.476  29.374  1.00  0.00     0.049 A 
ATOM     28  C   UNL A   1      41.314  29.779  29.548  1.00  0.00     0.074 A 
ATOM     29  C   UNL A   1      47.611  29.464  29.740  1.00  0.00     0.029 A 
ATOM     30  N   UNL A   1      45.444  29.019  29.523  1.00  0.00    -0.354 N 
ATOM     31  N   UNL A   1      42.615  29.635  29.556  1.00  0.00    -0.248 NA
ATOM     32  C   UNL A   1      40.847  31.075  30.061  1.00  0.00     0.031 C 
ATOM     33  C   UNL A   1      46.890  30.588  30.154  1.00  0.00     0.029 A 
ATOM     34  C   UNL A   1      45.541  30.320  29.995  1.00  0.00     0.049 A 
ATOM     35  H   UNL A   1      44.602  28.551  29.322  1.00  0.00     0.167 HD
ATOM     36  C   UNL A   1      43.124  30.830  30.049  1.00  0.00     0.074 A 
ATOM     37  C   UNL A   1      41.993  31.693  30.315  1.00  0.00     0.031 C 
ATOM     38  C   UNL A   1      44.416  31.178  30.259  1.00  0.00     0.031 A 
BRANCH  25  39
ATOM     39  C   UNL A   1      48.422  26.685  28.918  1.00  0.00    -0.014 A 
ATOM     40  C   UNL A   1      48.993  26.035  30.023  1.00  0.00     0.009 A 
ATOM     41  C   UNL A   1      49.197  26.866  27.761  1.00  0.00     0.009 A 
ATOM     42  C   UNL A   1      50.323  25.608  29.981  1.00  0.00     0.001 A 
ATOM     43  C   UNL A   1      50.517  26.413  27.712  1.00  0.00     0.001 A 
ATOM     44  C   UNL A   1      51.082  25.793  28.825  1.00  0.00     0.000 A 
ENDBRANCH  25  39
BRANCH  26  45
ATOM     45  C   UNL A   1      38.823  29.205  29.138  1.00  0.00    -0.014 A 
ATOM     46  C   UNL A   1      38.221  29.826  28.033  1.00  0.00     0.009 A 
ATOM     47  C   UNL A   1      38.052  28.963  30.286  1.00  0.00     0.009 A 
ATOM     48  C   UNL A   1      36.881  30.216  28.085  1.00  0.00     0.001 A 
ATOM     49  C   UNL A   1      36.706  29.328  30.324  1.00  0.00     0.001 A 
ATOM     50  C   UNL A   1      36.124  29.961  29.226  1.00  0.00     0.000 A 
ENDBRANCH  26  45
BRANCH  38  51
ATOM     51  C   UNL A   1      44.680  32.571  30.760  1.00  0.00    -0.014 A 
ATOM     52  C   UNL A   1      44.832  33.650  29.877  1.00  0.00     0.009 A 
ATOM     53  C   UNL A   1      44.764  32.807  32.142  1.00  0.00     0.009 A 
ATOM     54  C   UNL A   1      45.100  34.931  30.365  1.00  0.00     0.001 A 
ATOM     55  C   UNL A   1      45.005  34.092  32.628  1.00  0.00     0.001 A 
ATOM     56  C   UNL A   1      45.183  35.152  31.739  1.00  0.00     0.000 A 
ENDBRANCH  38  51
ENDBRANCH  12  13
ENDBRANCH   5   7
ENDBRANCH   2   3
ENDBRANCH   1   2
BRANCH   1  57
ATOM     57  C   UNL A   1      36.390  20.498  25.001  1.00  0.00     0.117 C 
BRANCH  57  58
ATOM     58  N   UNL A   1      36.420  21.954  25.043  1.00  0.00    -0.356 N 
ATOM     59  C   UNL A   1      35.549  22.979  24.873  1.00  0.00     0.224 C 
ATOM     60  H   UNL A   1      37.322  22.286  25.255  1.00  0.00     0.163 HD
ATOM     61  O   UNL A   1      36.041  24.077  25.170  1.00  0.00    -0.275 OA
BRANCH  59  62
ATOM     62  C   UNL A   1      34.126  22.898  24.264  1.00  0.00     0.094 C 
ATOM     63  C   UNL A   1      33.132  21.927  24.946  1.00  0.00     0.002 C 
ATOM     64  C   UNL A   1      33.491  24.343  24.202  1.00  0.00     0.094 C 
ATOM     65  C   UNL A   1      32.884  22.354  26.395  1.00  0.00     0.005 C 
ATOM     66  C   UNL A   1      31.795  21.968  24.174  1.00  0.00     0.005 C 
ATOM     67  C   UNL A   1      32.131  24.311  24.991  1.00  0.00     0.002 C 
ATOM     68  C   UNL A   1      32.390  23.803  26.426  1.00  0.00     0.005 C 
ATOM     69  C   UNL A   1      31.140  23.338  24.328  1.00  0.00     0.005 C 
BRANCH  64  70
ATOM     70  C   UNL A   1      33.290  25.100  22.839  1.00  0.00     0.229 C 
ATOM     71  O   UNL A   1      33.596  24.550  21.772  1.00  0.00    -0.274 OA
ATOM     72  N   UNL A   1      32.468  26.196  22.744  1.00  0.00    -0.317 N 
ATOM     73  H   UNL A   1      31.757  26.126  22.067  1.00  0.00     0.170 HD
BRANCH  72  74
ATOM     74  C   UNL A   1      32.489  27.377  23.449  1.00  0.00     0.108 A 
ATOM     75  S   UNL A   1      33.998  28.031  23.860  1.00  0.00    -0.122 S 
ATOM     76  C   UNL A   1      31.455  28.284  23.711  1.00  0.00     0.078 A 
ATOM     77  C   UNL A   1      33.265  29.028  24.996  1.00  0.00     0.011 A 
ATOM     78  C   UNL A   1      31.921  29.206  24.739  1.00  0.00    -0.019 A 
ATOM     79  C   UNL A   1      34.021  29.621  26.124  1.00  0.00     0.047 C 
ATOM     80  C   UNL A   1      31.125  30.168  25.567  1.00  0.00     0.037 C 
ATOM     81  C   UNL A   1      33.034  30.022  27.221  1.00  0.00     0.006 C 
ATOM     82  C   UNL A   1      31.923  30.889  26.655  1.00  0.00     0.005 C 
BRANCH  76  83
ATOM     83  C   UNL A   1      30.099  28.096  23.151  1.00  0.00     0.257 C 
ATOM     84  O   UNL A   1      29.602  26.971  23.068  1.00  0.00    -0.269 OA
ATOM     85  N   UNL A   1      29.350  29.227  22.815  1.00  0.00    -0.339 N 
ATOM     86  C   UNL A   1      27.930  29.188  23.126  1.00  0.00     0.120 C 
ATOM     87  C   UNL A   1      29.683  30.078  21.673  1.00  0.00     0.120 C 
ATOM     88  C   UNL A   1      27.456  30.586  23.495  1.00  0.00     0.022 C 
ATOM     89  C   UNL A   1      29.151  31.511  21.850  1.00  0.00     0.022 C 
ATOM     90  C   UNL A   1      27.708  31.568  22.352  1.00  0.00     0.004 C 
ENDBRANCH  76  83
ENDBRANCH  72  74
ENDBRANCH  64  70
ENDBRANCH  59  62
ENDBRANCH  57  58
ENDBRANCH   1  57
TORSDOF 13
ENDMDL
