MODEL 1
REMARK VINA RESULT:     -13.7      0.000      0.000
REMARK SMILES C[C@@H](CCC(=O)NCCCNC(=O)c1ccc(-c2c3nc(c(-c4ccccc4)c4ccc([nH]4)c(-c4ccccc4)c4nc(c(-c5ccccc5)c5ccc2[nH]5)C=C4)C=C3)cc1)[C@@H]1CC[C@H]2[C@@H]3CC[C@H]4CC(=O)CC[C@@]4(C)[C@H]3CC(=O)[C@@]21C
REMARK SMILES IDX 8 1 7 2 5 3 6 4 4 6 3 7 2 8 1 9 62 10 63 11 81 12 64 13
REMARK SMILES IDX 65 14 79 15 82 16 66 17 78 18 80 19 67 20 77 21 68 22 75 23
REMARK SMILES IDX 69 24 74 25 76 26 70 27 73 28 71 29 72 30 9 31 10 32 11 33
REMARK SMILES IDX 12 34 13 36 14 37 15 38 61 39 16 40 60 41 17 42 18 43 19 44
REMARK SMILES IDX 54 45 20 46 59 47 53 48 55 49 21 50 58 51 52 52 51 53 22 55
REMARK SMILES IDX 44 56 29 57 43 58 30 59 33 60 42 61 56 62 31 63 32 64 41 66
REMARK SMILES IDX 57 67 34 68 23 69 24 70 28 71 25 72 27 73 26 74 45 75 46 76
REMARK SMILES IDX 50 77 47 78 49 79 48 80 35 81 36 82 40 83 37 84 39 85 38 86
REMARK H PARENT 7 5 11 35 55 54 33 65
REMARK Flexibility Score: inf
ROOT
ATOM      1  C   UNL A   1      39.861  20.453  25.998  1.00  0.00     0.117 C 
ENDROOT
BRANCH   1   2
ATOM      2  N   UNL A   1      39.147  21.689  25.752  1.00  0.00    -0.356 N 
ATOM      3  C   UNL A   1      37.807  21.919  25.581  1.00  0.00     0.220 C 
ATOM      4  O   UNL A   1      37.402  23.073  25.756  1.00  0.00    -0.275 OA
ATOM      5  H   UNL A   1      39.716  22.491  25.697  1.00  0.00     0.163 HD
BRANCH   3   6
ATOM      6  C   UNL A   1      36.850  20.837  25.115  1.00  0.00     0.100 C 
BRANCH   6   7
ATOM      7  C   UNL A   1      35.483  21.366  24.636  1.00  0.00     0.013 C 
BRANCH   7   8
ATOM      8  C   UNL A   1      34.194  20.718  25.214  1.00  0.00    -0.010 C 
ATOM      9  C   UNL A   1      34.291  19.188  25.135  1.00  0.00     0.008 C 
BRANCH   8  10
ATOM     10  C   UNL A   1      32.875  21.216  24.593  1.00  0.00     0.005 C 
ATOM     11  C   UNL A   1      32.859  21.162  23.038  1.00  0.00     0.005 C 
ATOM     12  C   UNL A   1      32.358  22.665  24.960  1.00  0.00     0.032 C 
ATOM     13  C   UNL A   1      31.924  22.258  22.605  1.00  0.00     0.005 C 
ATOM     14  C   UNL A   1      32.382  23.328  23.562  1.00  0.00     0.006 C 
ATOM     15  C   UNL A   1      33.111  23.692  25.811  1.00  0.00     0.139 C 
ATOM     16  C   UNL A   1      31.007  22.577  25.699  1.00  0.00     0.020 C 
ATOM     17  C   UNL A   1      31.697  24.668  23.418  1.00  0.00    -0.003 C 
ATOM     18  C   UNL A   1      32.434  25.077  25.856  1.00  0.00     0.080 C 
ATOM     19  O   UNL A   1      34.125  23.456  26.448  1.00  0.00    -0.299 OA
ATOM     20  C   UNL A   1      31.887  25.172  21.975  1.00  0.00     0.004 C 
ATOM     21  C   UNL A   1      32.318  25.657  24.433  1.00  0.00     0.006 C 
ATOM     22  C   UNL A   1      31.618  26.648  21.752  1.00  0.00     0.005 C 
ATOM     23  C   UNL A   1      31.680  27.076  24.271  1.00  0.00    -0.025 C 
ATOM     24  C   UNL A   1      32.149  27.576  22.876  1.00  0.00     0.002 C 
ATOM     25  C   UNL A   1      30.139  27.093  24.270  1.00  0.00     0.015 C 
ATOM     26  C   UNL A   1      32.139  27.996  25.413  1.00  0.00     0.012 C 
ATOM     27  C   UNL A   1      31.711  29.017  22.626  1.00  0.00     0.079 C 
ATOM     28  C   UNL A   1      29.447  28.245  23.512  1.00  0.00     0.076 C 
ATOM     29  C   UNL A   1      30.225  29.011  22.479  1.00  0.00     0.133 C 
ATOM     30  O   UNL A   1      29.666  29.642  21.583  1.00  0.00    -0.300 OA
ENDBRANCH   8  10
ENDBRANCH   7   8
ENDBRANCH   6   7
ENDBRANCH   3   6
ENDBRANCH   1   2
BRANCH   1  31
ATOM     31  C   UNL A   1      41.179  20.486  26.812  1.00  0.00     0.042 C 
BRANCH  31  32
ATOM     32  C   UNL A   1      42.562  20.113  26.188  1.00  0.00     0.118 C 
BRANCH  32  33
ATOM     33  N   UNL A   1      43.039  21.232  25.328  1.00  0.00    -0.352 N 
ATOM     34  C   UNL A   1      43.180  22.598  25.234  1.00  0.00     0.251 C 
ATOM     35  H   UNL A   1      43.395  20.839  24.499  1.00  0.00     0.163 HD
ATOM     36  O   UNL A   1      43.357  22.979  24.066  1.00  0.00    -0.269 OA
BRANCH  34  37
ATOM     37  C   UNL A   1      43.203  23.708  26.254  1.00  0.00     0.039 A 
ATOM     38  C   UNL A   1      42.203  23.667  27.256  1.00  0.00     0.014 A 
ATOM     39  C   UNL A   1      43.871  24.922  26.130  1.00  0.00     0.014 A 
ATOM     40  C   UNL A   1      41.869  24.775  28.090  1.00  0.00     0.010 A 
ATOM     41  C   UNL A   1      43.552  26.027  27.002  1.00  0.00     0.010 A 
ATOM     42  C   UNL A   1      42.548  25.996  28.013  1.00  0.00    -0.014 A 
BRANCH  42  43
ATOM     43  C   UNL A   1      42.255  27.185  28.980  1.00  0.00     0.031 A 
ATOM     44  C   UNL A   1      42.832  27.212  30.409  1.00  0.00     0.074 A 
ATOM     45  C   UNL A   1      41.288  28.122  28.732  1.00  0.00     0.049 A 
ATOM     46  N   UNL A   1      42.429  27.891  31.466  1.00  0.00    -0.248 NA
ATOM     47  C   UNL A   1      43.943  26.297  30.696  1.00  0.00     0.031 C 
ATOM     48  C   UNL A   1      40.493  28.253  27.508  1.00  0.00     0.029 A 
ATOM     49  N   UNL A   1      40.671  29.039  29.593  1.00  0.00    -0.354 N 
ATOM     50  C   UNL A   1      43.181  27.430  32.549  1.00  0.00     0.074 A 
ATOM     51  C   UNL A   1      44.034  26.384  32.016  1.00  0.00     0.031 C 
ATOM     52  C   UNL A   1      39.437  29.055  27.734  1.00  0.00     0.029 A 
ATOM     53  C   UNL A   1      39.455  29.515  29.120  1.00  0.00     0.049 A 
ATOM     54  H   UNL A   1      41.061  29.320  30.453  1.00  0.00     0.167 HD
ATOM     55  C   UNL A   1      43.203  27.825  33.854  1.00  0.00     0.031 A 
ATOM     56  C   UNL A   1      38.424  30.178  29.701  1.00  0.00     0.031 A 
ATOM     57  C   UNL A   1      42.397  28.873  34.440  1.00  0.00     0.049 A 
ATOM     58  C   UNL A   1      38.451  30.614  31.147  1.00  0.00     0.074 A 
ATOM     59  C   UNL A   1      42.538  29.481  35.682  1.00  0.00     0.029 A 
ATOM     60  N   UNL A   1      41.275  29.430  33.862  1.00  0.00    -0.354 N 
ATOM     61  N   UNL A   1      39.305  30.313  32.087  1.00  0.00    -0.248 NA
ATOM     62  C   UNL A   1      37.373  31.522  31.594  1.00  0.00     0.031 C 
ATOM     63  C   UNL A   1      41.476  30.374  35.870  1.00  0.00     0.029 A 
ATOM     64  C   UNL A   1      40.716  30.373  34.716  1.00  0.00     0.049 A 
ATOM     65  H   UNL A   1      40.921  29.193  32.974  1.00  0.00     0.167 HD
ATOM     66  C   UNL A   1      38.924  31.064  33.201  1.00  0.00     0.074 A 
ATOM     67  C   UNL A   1      37.738  31.800  32.836  1.00  0.00     0.031 C 
ATOM     68  C   UNL A   1      39.549  31.154  34.398  1.00  0.00     0.031 A 
BRANCH  55  69
ATOM     69  C   UNL A   1      44.196  27.153  34.782  1.00  0.00    -0.014 A 
ATOM     70  C   UNL A   1      45.501  27.653  34.922  1.00  0.00     0.009 A 
ATOM     71  C   UNL A   1      43.800  26.080  35.599  1.00  0.00     0.009 A 
ATOM     72  C   UNL A   1      46.407  27.054  35.801  1.00  0.00     0.001 A 
ATOM     73  C   UNL A   1      44.693  25.510  36.512  1.00  0.00     0.001 A 
ATOM     74  C   UNL A   1      46.001  25.987  36.599  1.00  0.00     0.000 A 
ENDBRANCH  55  69
BRANCH  56  75
ATOM     75  C   UNL A   1      37.201  30.533  28.915  1.00  0.00    -0.014 A 
ATOM     76  C   UNL A   1      36.964  31.869  28.554  1.00  0.00     0.009 A 
ATOM     77  C   UNL A   1      36.210  29.581  28.636  1.00  0.00     0.009 A 
ATOM     78  C   UNL A   1      35.758  32.239  27.951  1.00  0.00     0.001 A 
ATOM     79  C   UNL A   1      35.021  29.944  27.997  1.00  0.00     0.001 A 
ATOM     80  C   UNL A   1      34.792  31.277  27.664  1.00  0.00     0.000 A 
ENDBRANCH  56  75
BRANCH  68  81
ATOM     81  C   UNL A   1      39.072  32.191  35.384  1.00  0.00    -0.014 A 
ATOM     82  C   UNL A   1      38.195  31.896  36.440  1.00  0.00     0.009 A 
ATOM     83  C   UNL A   1      39.544  33.511  35.259  1.00  0.00     0.009 A 
ATOM     84  C   UNL A   1      37.782  32.901  37.325  1.00  0.00     0.001 A 
ATOM     85  C   UNL A   1      39.154  34.505  36.161  1.00  0.00     0.001 A 
ATOM     86  C   UNL A   1      38.266  34.201  37.188  1.00  0.00     0.000 A 
ENDBRANCH  68  81
ENDBRANCH  42  43
ENDBRANCH  34  37
ENDBRANCH  32  33
ENDBRANCH  31  32
ENDBRANCH   1  31
TORSDOF 13
ENDMDL
MODEL 2
REMARK VINA RESULT:     -13.5      3.241      9.119
REMARK SMILES C[C@@H](CCC(=O)NCCCNC(=O)c1ccc(-c2c3nc(c(-c4ccccc4)c4ccc([nH]4)c(-c4ccccc4)c4nc(c(-c5ccccc5)c5ccc2[nH]5)C=C4)C=C3)cc1)[C@@H]1CC[C@H]2[C@@H]3CC[C@H]4CC(=O)CC[C@@]4(C)[C@H]3CC(=O)[C@@]21C
REMARK SMILES IDX 8 1 7 2 5 3 6 4 4 6 3 7 2 8 1 9 62 10 63 11 81 12 64 13
REMARK SMILES IDX 65 14 79 15 82 16 66 17 78 18 80 19 67 20 77 21 68 22 75 23
REMARK SMILES IDX 69 24 74 25 76 26 70 27 73 28 71 29 72 30 9 31 10 32 11 33
REMARK SMILES IDX 12 34 13 36 14 37 15 38 61 39 16 40 60 41 17 42 18 43 19 44
REMARK SMILES IDX 54 45 20 46 59 47 53 48 55 49 21 50 58 51 52 52 51 53 22 55
REMARK SMILES IDX 44 56 29 57 43 58 30 59 33 60 42 61 56 62 31 63 32 64 41 66
REMARK SMILES IDX 57 67 34 68 23 69 24 70 28 71 25 72 27 73 26 74 45 75 46 76
REMARK SMILES IDX 50 77 47 78 49 79 48 80 35 81 36 82 40 83 37 84 39 85 38 86
REMARK H PARENT 7 5 11 35 55 54 33 65
REMARK Flexibility Score: inf
ROOT
ATOM      1  C   UNL A   1      34.519  34.287  27.750  1.00  0.00     0.117 C 
ENDROOT
BRANCH   1   2
ATOM      2  N   UNL A   1      35.291  33.090  28.013  1.00  0.00    -0.356 N 
ATOM      3  C   UNL A   1      34.996  31.774  27.770  1.00  0.00     0.220 C 
ATOM      4  O   UNL A   1      35.938  30.977  27.733  1.00  0.00    -0.275 OA
ATOM      5  H   UNL A   1      36.167  33.247  28.435  1.00  0.00     0.163 HD
BRANCH   3   6
ATOM      6  C   UNL A   1      33.569  31.274  27.631  1.00  0.00     0.100 C 
BRANCH   6   7
ATOM      7  C   UNL A   1      33.443  29.911  26.923  1.00  0.00     0.013 C 
BRANCH   7   8
ATOM      8  C   UNL A   1      32.422  29.773  25.760  1.00  0.00    -0.010 C 
ATOM      9  C   UNL A   1      31.502  31.002  25.715  1.00  0.00     0.008 C 
BRANCH   8  10
ATOM     10  C   UNL A   1      31.596  28.472  25.763  1.00  0.00     0.005 C 
ATOM     11  C   UNL A   1      31.374  27.878  27.184  1.00  0.00     0.005 C 
ATOM     12  C   UNL A   1      32.089  27.255  24.882  1.00  0.00     0.032 C 
ATOM     13  C   UNL A   1      31.231  26.394  26.986  1.00  0.00     0.005 C 
ATOM     14  C   UNL A   1      32.342  26.200  25.986  1.00  0.00     0.006 C 
ATOM     15  C   UNL A   1      33.396  27.200  24.085  1.00  0.00     0.139 C 
ATOM     16  C   UNL A   1      31.045  26.929  23.793  1.00  0.00     0.020 C 
ATOM     17  C   UNL A   1      32.576  24.774  25.542  1.00  0.00    -0.003 C 
ATOM     18  C   UNL A   1      33.685  25.819  23.461  1.00  0.00     0.080 C 
ATOM     19  O   UNL A   1      34.135  28.152  23.899  1.00  0.00    -0.299 OA
ATOM     20  C   UNL A   1      32.862  23.907  26.784  1.00  0.00     0.004 C 
ATOM     21  C   UNL A   1      33.775  24.747  24.564  1.00  0.00     0.006 C 
ATOM     22  C   UNL A   1      33.500  22.558  26.512  1.00  0.00     0.005 C 
ATOM     23  C   UNL A   1      34.091  23.277  24.132  1.00  0.00    -0.025 C 
ATOM     24  C   UNL A   1      34.603  22.575  25.421  1.00  0.00     0.002 C 
ATOM     25  C   UNL A   1      32.875  22.478  23.625  1.00  0.00     0.015 C 
ATOM     26  C   UNL A   1      35.135  23.271  23.003  1.00  0.00     0.012 C 
ATOM     27  C   UNL A   1      35.082  21.156  25.128  1.00  0.00     0.079 C 
ATOM     28  C   UNL A   1      32.922  20.944  23.787  1.00  0.00     0.076 C 
ATOM     29  C   UNL A   1      33.878  20.342  24.778  1.00  0.00     0.133 C 
ATOM     30  O   UNL A   1      33.706  19.218  25.244  1.00  0.00    -0.300 OA
ENDBRANCH   8  10
ENDBRANCH   7   8
ENDBRANCH   6   7
ENDBRANCH   3   6
ENDBRANCH   1   2
BRANCH   1  31
ATOM     31  C   UNL A   1      34.222  35.270  28.911  1.00  0.00     0.042 C 
BRANCH  31  32
ATOM     32  C   UNL A   1      32.888  36.076  29.009  1.00  0.00     0.118 C 
BRANCH  32  33
ATOM     33  N   UNL A   1      32.694  36.553  30.406  1.00  0.00    -0.352 N 
ATOM     34  C   UNL A   1      32.883  36.249  31.736  1.00  0.00     0.251 C 
ATOM     35  H   UNL A   1      32.260  37.435  30.363  1.00  0.00     0.163 HD
ATOM     36  O   UNL A   1      32.174  36.936  32.487  1.00  0.00    -0.269 OA
BRANCH  34  37
ATOM     37  C   UNL A   1      33.795  35.290  32.457  1.00  0.00     0.039 A 
ATOM     38  C   UNL A   1      35.184  35.549  32.367  1.00  0.00     0.014 A 
ATOM     39  C   UNL A   1      33.457  34.019  32.911  1.00  0.00     0.014 A 
ATOM     40  C   UNL A   1      36.193  34.596  32.698  1.00  0.00     0.010 A 
ATOM     41  C   UNL A   1      34.482  33.073  33.278  1.00  0.00     0.010 A 
ATOM     42  C   UNL A   1      35.884  33.324  33.191  1.00  0.00    -0.014 A 
BRANCH  42  43
ATOM     43  C   UNL A   1      36.976  32.306  33.642  1.00  0.00     0.031 A 
ATOM     44  C   UNL A   1      37.907  32.611  34.832  1.00  0.00     0.074 A 
ATOM     45  C   UNL A   1      37.348  31.230  32.882  1.00  0.00     0.049 A 
ATOM     46  N   UNL A   1      39.084  32.095  35.133  1.00  0.00    -0.248 NA
ATOM     47  C   UNL A   1      37.498  33.690  35.739  1.00  0.00     0.031 C 
ATOM     48  C   UNL A   1      36.718  30.784  31.636  1.00  0.00     0.029 A 
ATOM     49  N   UNL A   1      38.488  30.420  32.952  1.00  0.00    -0.354 N 
ATOM     50  C   UNL A   1      39.582  32.833  36.209  1.00  0.00     0.074 A 
ATOM     51  C   UNL A   1      38.590  33.858  36.474  1.00  0.00     0.031 C 
ATOM     52  C   UNL A   1      37.527  29.915  31.003  1.00  0.00     0.029 A 
ATOM     53  C   UNL A   1      38.748  29.722  31.779  1.00  0.00     0.049 A 
ATOM     54  H   UNL A   1      39.053  30.351  33.756  1.00  0.00     0.167 HD
ATOM     55  C   UNL A   1      40.726  32.689  36.938  1.00  0.00     0.031 A 
ATOM     56  C   UNL A   1      39.836  29.058  31.312  1.00  0.00     0.031 A 
ATOM     57  C   UNL A   1      41.740  31.678  36.740  1.00  0.00     0.049 A 
ATOM     58  C   UNL A   1      41.101  28.902  32.121  1.00  0.00     0.074 A 
ATOM     59  C   UNL A   1      42.790  31.329  37.580  1.00  0.00     0.029 A 
ATOM     60  N   UNL A   1      41.871  30.894  35.611  1.00  0.00    -0.354 N 
ATOM     61  N   UNL A   1      41.442  29.470  33.245  1.00  0.00    -0.248 NA
ATOM     62  C   UNL A   1      42.120  27.969  31.596  1.00  0.00     0.031 C 
ATOM     63  C   UNL A   1      43.578  30.365  36.941  1.00  0.00     0.029 A 
ATOM     64  C   UNL A   1      42.978  30.063  35.734  1.00  0.00     0.049 A 
ATOM     65  H   UNL A   1      41.268  30.920  34.833  1.00  0.00     0.167 HD
ATOM     66  C   UNL A   1      42.661  28.896  33.607  1.00  0.00     0.074 A 
ATOM     67  C   UNL A   1      43.025  27.969  32.564  1.00  0.00     0.031 C 
ATOM     68  C   UNL A   1      43.377  29.103  34.738  1.00  0.00     0.031 A 
BRANCH  55  69
ATOM     69  C   UNL A   1      40.948  33.634  38.102  1.00  0.00    -0.014 A 
ATOM     70  C   UNL A   1      41.641  34.844  37.924  1.00  0.00     0.009 A 
ATOM     71  C   UNL A   1      40.377  33.369  39.359  1.00  0.00     0.009 A 
ATOM     72  C   UNL A   1      41.817  35.730  38.989  1.00  0.00     0.001 A 
ATOM     73  C   UNL A   1      40.516  34.278  40.412  1.00  0.00     0.001 A 
ATOM     74  C   UNL A   1      41.251  35.450  40.231  1.00  0.00     0.000 A 
ENDBRANCH  55  69
BRANCH  56  75
ATOM     75  C   UNL A   1      39.820  28.421  29.957  1.00  0.00    -0.014 A 
ATOM     76  C   UNL A   1      39.415  27.085  29.818  1.00  0.00     0.009 A 
ATOM     77  C   UNL A   1      40.324  29.087  28.832  1.00  0.00     0.009 A 
ATOM     78  C   UNL A   1      39.535  26.430  28.588  1.00  0.00     0.001 A 
ATOM     79  C   UNL A   1      40.406  28.445  27.592  1.00  0.00     0.001 A 
ATOM     80  C   UNL A   1      40.021  27.112  27.474  1.00  0.00     0.000 A 
ENDBRANCH  56  75
BRANCH  68  81
ATOM     81  C   UNL A   1      44.565  28.214  35.012  1.00  0.00    -0.014 A 
ATOM     82  C   UNL A   1      45.876  28.558  34.649  1.00  0.00     0.009 A 
ATOM     83  C   UNL A   1      44.357  26.996  35.684  1.00  0.00     0.009 A 
ATOM     84  C   UNL A   1      46.942  27.692  34.926  1.00  0.00     0.001 A 
ATOM     85  C   UNL A   1      45.425  26.147  35.986  1.00  0.00     0.001 A 
ATOM     86  C   UNL A   1      46.717  26.492  35.598  1.00  0.00     0.000 A 
ENDBRANCH  68  81
ENDBRANCH  42  43
ENDBRANCH  34  37
ENDBRANCH  32  33
ENDBRANCH  31  32
ENDBRANCH   1  31
TORSDOF 13
ENDMDL
MODEL 3
REMARK VINA RESULT:     -13.4      4.217      6.179
REMARK SMILES C[C@@H](CCC(=O)NCCCNC(=O)c1ccc(-c2c3nc(c(-c4ccccc4)c4ccc([nH]4)c(-c4ccccc4)c4nc(c(-c5ccccc5)c5ccc2[nH]5)C=C4)C=C3)cc1)[C@@H]1CC[C@H]2[C@@H]3CC[C@H]4CC(=O)CC[C@@]4(C)[C@H]3CC(=O)[C@@]21C
REMARK SMILES IDX 8 1 7 2 5 3 6 4 4 6 3 7 2 8 1 9 62 10 63 11 81 12 64 13
REMARK SMILES IDX 65 14 79 15 82 16 66 17 78 18 80 19 67 20 77 21 68 22 75 23
REMARK SMILES IDX 69 24 74 25 76 26 70 27 73 28 71 29 72 30 9 31 10 32 11 33
REMARK SMILES IDX 12 34 13 36 14 37 15 38 61 39 16 40 60 41 17 42 18 43 19 44
REMARK SMILES IDX 54 45 20 46 59 47 53 48 55 49 21 50 58 51 52 52 51 53 22 55
REMARK SMILES IDX 44 56 29 57 43 58 30 59 33 60 42 61 56 62 31 63 32 64 41 66
REMARK SMILES IDX 57 67 34 68 23 69 24 70 28 71 25 72 27 73 26 74 45 75 46 76
REMARK SMILES IDX 50 77 47 78 49 79 48 80 35 81 36 82 40 83 37 84 39 85 38 86
REMARK H PARENT 7 5 11 35 55 54 33 65
REMARK Flexibility Score: inf
ROOT
ATOM      1  C   UNL A   1      40.854  20.252  26.625  1.00  0.00     0.117 C 
ENDROOT
BRANCH   1   2
ATOM      2  N   UNL A   1      40.596  21.666  26.803  1.00  0.00    -0.356 N 
ATOM      3  C   UNL A   1      39.480  22.406  26.512  1.00  0.00     0.220 C 
ATOM      4  O   UNL A   1      39.355  23.494  27.084  1.00  0.00    -0.275 OA
ATOM      5  H   UNL A   1      41.342  22.176  27.194  1.00  0.00     0.163 HD
BRANCH   3   6
ATOM      6  C   UNL A   1      38.465  21.971  25.471  1.00  0.00     0.100 C 
BRANCH   6   7
ATOM      7  C   UNL A   1      37.021  22.423  25.768  1.00  0.00     0.013 C 
BRANCH   7   8
ATOM      8  C   UNL A   1      35.856  21.451  25.433  1.00  0.00    -0.010 C 
ATOM      9  C   UNL A   1      36.413  20.067  25.068  1.00  0.00     0.008 C 
BRANCH   8  10
ATOM     10  C   UNL A   1      34.877  21.949  24.353  1.00  0.00     0.005 C 
ATOM     11  C   UNL A   1      35.573  22.684  23.171  1.00  0.00     0.005 C 
ATOM     12  C   UNL A   1      33.686  22.898  24.783  1.00  0.00     0.032 C 
ATOM     13  C   UNL A   1      34.556  23.661  22.647  1.00  0.00     0.005 C 
ATOM     14  C   UNL A   1      34.038  24.166  23.969  1.00  0.00     0.006 C 
ATOM     15  C   UNL A   1      33.464  23.472  26.185  1.00  0.00     0.139 C 
ATOM     16  C   UNL A   1      32.332  22.211  24.509  1.00  0.00     0.020 C 
ATOM     17  C   UNL A   1      32.986  25.250  23.885  1.00  0.00    -0.003 C 
ATOM     18  C   UNL A   1      32.316  24.500  26.261  1.00  0.00     0.080 C 
ATOM     19  O   UNL A   1      34.083  23.133  27.180  1.00  0.00    -0.299 OA
ATOM     20  C   UNL A   1      33.557  26.436  23.085  1.00  0.00     0.004 C 
ATOM     21  C   UNL A   1      32.604  25.686  25.320  1.00  0.00     0.006 C 
ATOM     22  C   UNL A   1      32.810  27.748  23.230  1.00  0.00     0.005 C 
ATOM     23  C   UNL A   1      31.564  26.854  25.274  1.00  0.00    -0.025 C 
ATOM     24  C   UNL A   1      32.335  28.062  24.673  1.00  0.00     0.002 C 
ATOM     25  C   UNL A   1      30.342  26.594  24.373  1.00  0.00     0.015 C 
ATOM     26  C   UNL A   1      31.028  27.138  26.687  1.00  0.00     0.012 C 
ATOM     27  C   UNL A   1      31.482  29.328  24.688  1.00  0.00     0.079 C 
ATOM     28  C   UNL A   1      29.637  27.826  23.768  1.00  0.00     0.076 C 
ATOM     29  C   UNL A   1      30.378  29.133  23.702  1.00  0.00     0.133 C 
ATOM     30  O   UNL A   1      30.061  30.017  22.908  1.00  0.00    -0.300 OA
ENDBRANCH   8  10
ENDBRANCH   7   8
ENDBRANCH   6   7
ENDBRANCH   3   6
ENDBRANCH   1   2
BRANCH   1  31
ATOM     31  C   UNL A   1      42.315  19.759  26.473  1.00  0.00     0.042 C 
BRANCH  31  32
ATOM     32  C   UNL A   1      42.672  18.342  25.922  1.00  0.00     0.118 C 
BRANCH  32  33
ATOM     33  N   UNL A   1      44.008  18.383  25.266  1.00  0.00    -0.352 N 
ATOM     34  C   UNL A   1      44.923  19.188  24.626  1.00  0.00     0.251 C 
ATOM     35  H   UNL A   1      44.388  17.476  25.307  1.00  0.00     0.163 HD
ATOM     36  O   UNL A   1      45.760  18.538  23.981  1.00  0.00    -0.269 OA
BRANCH  34  37
ATOM     37  C   UNL A   1      45.136  20.680  24.583  1.00  0.00     0.039 A 
ATOM     38  C   UNL A   1      45.634  21.282  25.764  1.00  0.00     0.014 A 
ATOM     39  C   UNL A   1      44.596  21.560  23.650  1.00  0.00     0.014 A 
ATOM     40  C   UNL A   1      45.592  22.685  26.019  1.00  0.00     0.010 A 
ATOM     41  C   UNL A   1      44.589  22.981  23.899  1.00  0.00     0.010 A 
ATOM     42  C   UNL A   1      45.088  23.597  25.085  1.00  0.00    -0.014 A 
BRANCH  42  43
ATOM     43  C   UNL A   1      45.119  25.140  25.312  1.00  0.00     0.031 A 
ATOM     44  C   UNL A   1      46.453  25.898  25.458  1.00  0.00     0.074 A 
ATOM     45  C   UNL A   1      44.007  25.863  25.650  1.00  0.00     0.049 A 
ATOM     46  N   UNL A   1      46.697  27.074  26.004  1.00  0.00    -0.248 NA
ATOM     47  C   UNL A   1      47.666  25.203  25.011  1.00  0.00     0.031 C 
ATOM     48  C   UNL A   1      42.630  25.365  25.716  1.00  0.00     0.029 A 
ATOM     49  N   UNL A   1      43.890  27.147  26.197  1.00  0.00    -0.354 N 
ATOM     50  C   UNL A   1      48.085  27.223  26.034  1.00  0.00     0.074 A 
ATOM     51  C   UNL A   1      48.622  25.991  25.485  1.00  0.00     0.031 C 
ATOM     52  C   UNL A   1      41.860  26.242  26.384  1.00  0.00     0.029 A 
ATOM     53  C   UNL A   1      42.666  27.383  26.810  1.00  0.00     0.049 A 
ATOM     54  H   UNL A   1      44.608  27.820  26.153  1.00  0.00     0.167 HD
ATOM     55  C   UNL A   1      48.864  28.265  26.444  1.00  0.00     0.031 A 
ATOM     56  C   UNL A   1      42.221  28.336  27.666  1.00  0.00     0.031 A 
ATOM     57  C   UNL A   1      48.391  29.522  26.976  1.00  0.00     0.049 A 
ATOM     58  C   UNL A   1      43.086  29.488  28.120  1.00  0.00     0.074 A 
ATOM     59  C   UNL A   1      49.104  30.698  27.184  1.00  0.00     0.029 A 
ATOM     60  N   UNL A   1      47.111  29.760  27.437  1.00  0.00    -0.354 N 
ATOM     61  N   UNL A   1      44.365  29.683  27.945  1.00  0.00    -0.248 NA
ATOM     62  C   UNL A   1      42.417  30.575  28.865  1.00  0.00     0.031 C 
ATOM     63  C   UNL A   1      48.266  31.629  27.808  1.00  0.00     0.029 A 
ATOM     64  C   UNL A   1      47.013  31.059  27.923  1.00  0.00     0.049 A 
ATOM     65  H   UNL A   1      46.376  29.106  27.423  1.00  0.00     0.167 HD
ATOM     66  C   UNL A   1      44.631  30.949  28.470  1.00  0.00     0.074 A 
ATOM     67  C   UNL A   1      43.394  31.458  29.010  1.00  0.00     0.031 C 
ATOM     68  C   UNL A   1      45.802  31.629  28.451  1.00  0.00     0.031 A 
BRANCH  55  69
ATOM     69  C   UNL A   1      50.365  28.133  26.286  1.00  0.00    -0.014 A 
ATOM     70  C   UNL A   1      51.158  27.634  27.334  1.00  0.00     0.009 A 
ATOM     71  C   UNL A   1      50.983  28.408  25.054  1.00  0.00     0.009 A 
ATOM     72  C   UNL A   1      52.537  27.481  27.178  1.00  0.00     0.001 A 
ATOM     73  C   UNL A   1      52.357  28.211  24.885  1.00  0.00     0.001 A 
ATOM     74  C   UNL A   1      53.136  27.765  25.952  1.00  0.00     0.000 A 
ENDBRANCH  55  69
BRANCH  56  75
ATOM     75  C   UNL A   1      40.820  28.300  28.192  1.00  0.00    -0.014 A 
ATOM     76  C   UNL A   1      39.798  28.977  27.508  1.00  0.00     0.009 A 
ATOM     77  C   UNL A   1      40.519  27.711  29.428  1.00  0.00     0.009 A 
ATOM     78  C   UNL A   1      38.518  29.078  28.060  1.00  0.00     0.001 A 
ATOM     79  C   UNL A   1      39.228  27.777  29.962  1.00  0.00     0.001 A 
ATOM     80  C   UNL A   1      38.231  28.470  29.281  1.00  0.00     0.000 A 
ENDBRANCH  56  75
BRANCH  68  81
ATOM     81  C   UNL A   1      45.804  33.071  28.895  1.00  0.00    -0.014 A 
ATOM     82  C   UNL A   1      45.505  34.137  28.031  1.00  0.00     0.009 A 
ATOM     83  C   UNL A   1      46.095  33.365  30.240  1.00  0.00     0.009 A 
ATOM     84  C   UNL A   1      45.525  35.458  28.497  1.00  0.00     0.001 A 
ATOM     85  C   UNL A   1      46.086  34.681  30.710  1.00  0.00     0.001 A 
ATOM     86  C   UNL A   1      45.809  35.728  29.835  1.00  0.00     0.000 A 
ENDBRANCH  68  81
ENDBRANCH  42  43
ENDBRANCH  34  37
ENDBRANCH  32  33
ENDBRANCH  31  32
ENDBRANCH   1  31
TORSDOF 13
ENDMDL
