MODEL 1
REMARK VINA RESULT:     -11.0      0.000      0.000
REMARK SMILES CCOC(=O)C1=NN(c2ccc(Cl)cc2F)[C@@H](C(=O)NCCCNC(=O)c2ccc(-c3c4nc(c(-c5ccccc5)c5ccc([nH]5)c(-c5ccccc5)c5nc(c(-c6ccccc6)c6ccc3[nH]6)C=C5)C=C4)cc2)C1
REMARK SMILES IDX 21 1 20 2 18 3 19 4 17 6 6 7 7 8 75 9 8 10 4 11 5 12 3 13
REMARK SMILES IDX 2 14 1 15 9 16 10 17 15 18 11 19 14 20 16 21 12 22 13 23
REMARK SMILES IDX 22 24 23 25 24 26 25 27 26 29 27 30 28 31 74 32 29 33 73 34
REMARK SMILES IDX 30 35 31 36 32 37 67 38 33 39 72 40 66 41 68 42 34 43 71 44
REMARK SMILES IDX 65 45 64 46 35 48 57 49 42 50 56 51 43 52 46 53 55 54 69 55
REMARK SMILES IDX 44 56 45 57 54 59 70 60 47 61 36 62 37 63 41 64 38 65 40 66
REMARK SMILES IDX 39 67 58 68 59 69 63 70 60 71 62 72 61 73 48 74 49 75 53 76
REMARK SMILES IDX 50 77 52 78 51 79
REMARK H PARENT 20 5 24 28 68 47 46 58
REMARK Flexibility Score: inf
ROOT
ATOM      1  C   UNL A   1      31.388  27.693  26.590  1.00  0.00     0.117 C 
ENDROOT
BRANCH   1   2
ATOM      2  N   UNL A   1      31.246  26.254  26.692  1.00  0.00    -0.354 N 
ATOM      3  C   UNL A   1      32.070  25.221  26.348  1.00  0.00     0.245 C 
ATOM      4  O   UNL A   1      31.617  24.099  26.600  1.00  0.00    -0.273 OA
ATOM      5  H   UNL A   1      30.391  25.966  27.087  1.00  0.00     0.163 HD
BRANCH   3   6
ATOM      6  C   UNL A   1      33.414  25.447  25.616  1.00  0.00     0.203 C 
ATOM      7  C   UNL A   1      34.726  24.131  24.230  1.00  0.00     0.148 C 
ATOM      8  N   UNL A   1      34.045  24.845  23.394  1.00  0.00    -0.169 NA
ATOM      9  C   UNL A   1      34.358  24.252  25.665  1.00  0.00     0.103 C 
ATOM     10  N   UNL A   1      33.207  25.604  24.165  1.00  0.00    -0.249 N 
BRANCH   7  11
ATOM     11  C   UNL A   1      35.848  23.208  23.852  1.00  0.00     0.354 C 
ATOM     12  O   UNL A   1      36.357  23.204  22.745  1.00  0.00    -0.245 OA
BRANCH  11  13
ATOM     13  O   UNL A   1      36.235  22.533  24.954  1.00  0.00    -0.461 OA
BRANCH  13  14
ATOM     14  C   UNL A   1      36.240  21.105  24.827  1.00  0.00     0.230 C 
ATOM     15  C   UNL A   1      37.652  20.564  24.917  1.00  0.00     0.049 C 
ENDBRANCH  13  14
ENDBRANCH  11  13
ENDBRANCH   7  11
BRANCH  10  16
ATOM     16  C   UNL A   1      32.498  26.641  23.568  1.00  0.00     0.096 A 
ATOM     17  C   UNL A   1      31.193  26.407  23.107  1.00  0.00     0.032 A 
ATOM     18  C   UNL A   1      33.015  27.936  23.409  1.00  0.00     0.149 A 
ATOM     19  C   UNL A   1      30.427  27.431  22.542  1.00  0.00     0.023 A 
ATOM     20  C   UNL A   1      32.276  28.957  22.814  1.00  0.00     0.062 A 
ATOM     21  F   UNL A   1      34.271  28.215  23.796  1.00  0.00    -0.205 F 
ATOM     22  C   UNL A   1      30.977  28.701  22.392  1.00  0.00     0.044 A 
ATOM     23  Cl  UNL A   1      30.044  29.959  21.682  1.00  0.00    -0.084 Cl
ENDBRANCH  10  16
ENDBRANCH   3   6
ENDBRANCH   1   2
BRANCH   1  24
ATOM     24  C   UNL A   1      32.216  28.294  27.715  1.00  0.00     0.042 C 
BRANCH  24  25
ATOM     25  C   UNL A   1      33.470  29.034  27.273  1.00  0.00     0.118 C 
BRANCH  25  26
ATOM     26  N   UNL A   1      33.565  30.386  27.806  1.00  0.00    -0.352 N 
ATOM     27  C   UNL A   1      34.594  31.015  28.467  1.00  0.00     0.251 C 
ATOM     28  H   UNL A   1      32.762  30.939  27.671  1.00  0.00     0.163 HD
ATOM     29  O   UNL A   1      34.409  32.125  28.956  1.00  0.00    -0.269 OA
BRANCH  27  30
ATOM     30  C   UNL A   1      35.909  30.353  28.629  1.00  0.00     0.039 A 
ATOM     31  C   UNL A   1      36.808  30.375  27.558  1.00  0.00     0.014 A 
ATOM     32  C   UNL A   1      36.259  29.708  29.816  1.00  0.00     0.014 A 
ATOM     33  C   UNL A   1      38.086  29.828  27.711  1.00  0.00     0.010 A 
ATOM     34  C   UNL A   1      37.561  29.248  29.999  1.00  0.00     0.010 A 
ATOM     35  C   UNL A   1      38.488  29.302  28.949  1.00  0.00    -0.014 A 
BRANCH  35  36
ATOM     36  C   UNL A   1      39.871  28.809  29.170  1.00  0.00     0.031 A 
ATOM     37  C   UNL A   1      40.928  29.729  29.718  1.00  0.00     0.074 A 
ATOM     38  C   UNL A   1      40.204  27.558  28.793  1.00  0.00     0.049 A 
ATOM     39  N   UNL A   1      42.206  29.509  29.891  1.00  0.00    -0.248 NA
ATOM     40  C   UNL A   1      40.497  31.087  30.087  1.00  0.00     0.031 C 
ATOM     41  C   UNL A   1      39.292  26.581  28.194  1.00  0.00     0.029 A 
ATOM     42  N   UNL A   1      41.407  26.900  28.844  1.00  0.00    -0.354 N 
ATOM     43  C   UNL A   1      42.736  30.707  30.355  1.00  0.00     0.074 A 
ATOM     44  C   UNL A   1      41.650  31.662  30.397  1.00  0.00     0.031 C 
ATOM     45  C   UNL A   1      39.964  25.444  27.951  1.00  0.00     0.029 A 
ATOM     46  C   UNL A   1      41.359  25.624  28.341  1.00  0.00     0.049 A 
ATOM     47  H   UNL A   1      42.228  27.307  29.206  1.00  0.00     0.167 HD
ATOM     48  C   UNL A   1      44.008  30.985  30.729  1.00  0.00     0.031 A 
ATOM     49  C   UNL A   1      42.328  24.701  28.199  1.00  0.00     0.031 A 
ATOM     50  C   UNL A   1      45.083  30.032  30.718  1.00  0.00     0.049 A 
ATOM     51  C   UNL A   1      43.725  25.022  28.649  1.00  0.00     0.074 A 
ATOM     52  C   UNL A   1      46.385  30.195  31.159  1.00  0.00     0.029 A 
ATOM     53  N   UNL A   1      44.982  28.736  30.240  1.00  0.00    -0.354 N 
ATOM     54  N   UNL A   1      44.190  26.134  29.162  1.00  0.00    -0.248 NA
ATOM     55  C   UNL A   1      44.726  23.954  28.511  1.00  0.00     0.031 C 
ATOM     56  C   UNL A   1      47.083  29.009  30.907  1.00  0.00     0.029 A 
ATOM     57  C   UNL A   1      46.204  28.094  30.352  1.00  0.00     0.049 A 
ATOM     58  H   UNL A   1      44.163  28.330  29.873  1.00  0.00     0.167 HD
ATOM     59  C   UNL A   1      45.532  25.895  29.427  1.00  0.00     0.074 A 
ATOM     60  C   UNL A   1      45.802  24.528  29.032  1.00  0.00     0.031 C 
ATOM     61  C   UNL A   1      46.458  26.735  29.951  1.00  0.00     0.031 A 
BRANCH  48  62
ATOM     62  C   UNL A   1      44.301  32.391  31.177  1.00  0.00    -0.014 A 
ATOM     63  C   UNL A   1      44.705  33.378  30.263  1.00  0.00     0.009 A 
ATOM     64  C   UNL A   1      44.152  32.736  32.528  1.00  0.00     0.009 A 
ATOM     65  C   UNL A   1      44.996  34.671  30.702  1.00  0.00     0.001 A 
ATOM     66  C   UNL A   1      44.417  34.037  32.960  1.00  0.00     0.001 A 
ATOM     67  C   UNL A   1      44.849  35.000  32.049  1.00  0.00     0.000 A 
ENDBRANCH  48  62
BRANCH  49  68
ATOM     68  C   UNL A   1      42.004  23.373  27.617  1.00  0.00    -0.014 A 
ATOM     69  C   UNL A   1      42.218  23.125  26.253  1.00  0.00     0.009 A 
ATOM     70  C   UNL A   1      41.492  22.347  28.424  1.00  0.00     0.009 A 
ATOM     71  C   UNL A   1      41.906  21.879  25.704  1.00  0.00     0.001 A 
ATOM     72  C   UNL A   1      41.205  21.094  27.877  1.00  0.00     0.001 A 
ATOM     73  C   UNL A   1      41.405  20.863  26.518  1.00  0.00     0.000 A 
ENDBRANCH  49  68
BRANCH  61  74
ATOM     74  C   UNL A   1      47.842  26.190  30.150  1.00  0.00    -0.014 A 
ATOM     75  C   UNL A   1      48.762  26.138  29.092  1.00  0.00     0.009 A 
ATOM     76  C   UNL A   1      48.244  25.763  31.426  1.00  0.00     0.009 A 
ATOM     77  C   UNL A   1      50.049  25.639  29.300  1.00  0.00     0.001 A 
ATOM     78  C   UNL A   1      49.540  25.288  31.636  1.00  0.00     0.001 A 
ATOM     79  C   UNL A   1      50.438  25.219  30.572  1.00  0.00     0.000 A 
ENDBRANCH  61  74
ENDBRANCH  35  36
ENDBRANCH  27  30
ENDBRANCH  25  26
ENDBRANCH  24  25
ENDBRANCH   1  24
TORSDOF 14
ENDMDL
MODEL 2
REMARK VINA RESULT:     -11.0      2.356      4.130
REMARK SMILES CCOC(=O)C1=NN(c2ccc(Cl)cc2F)[C@@H](C(=O)NCCCNC(=O)c2ccc(-c3c4nc(c(-c5ccccc5)c5ccc([nH]5)c(-c5ccccc5)c5nc(c(-c6ccccc6)c6ccc3[nH]6)C=C5)C=C4)cc2)C1
REMARK SMILES IDX 21 1 20 2 18 3 19 4 17 6 6 7 7 8 75 9 8 10 4 11 5 12 3 13
REMARK SMILES IDX 2 14 1 15 9 16 10 17 15 18 11 19 14 20 16 21 12 22 13 23
REMARK SMILES IDX 22 24 23 25 24 26 25 27 26 29 27 30 28 31 74 32 29 33 73 34
REMARK SMILES IDX 30 35 31 36 32 37 67 38 33 39 72 40 66 41 68 42 34 43 71 44
REMARK SMILES IDX 65 45 64 46 35 48 57 49 42 50 56 51 43 52 46 53 55 54 69 55
REMARK SMILES IDX 44 56 45 57 54 59 70 60 47 61 36 62 37 63 41 64 38 65 40 66
REMARK SMILES IDX 39 67 58 68 59 69 63 70 60 71 62 72 61 73 48 74 49 75 53 76
REMARK SMILES IDX 50 77 52 78 51 79
REMARK H PARENT 20 5 24 28 68 47 46 58
REMARK Flexibility Score: inf
ROOT
ATOM      1  C   UNL A   1      33.745  27.239  25.386  1.00  0.00     0.117 C 
ENDROOT
BRANCH   1   2
ATOM      2  N   UNL A   1      33.526  27.641  24.011  1.00  0.00    -0.354 N 
ATOM      3  C   UNL A   1      32.431  28.129  23.357  1.00  0.00     0.245 C 
ATOM      4  O   UNL A   1      32.618  28.383  22.163  1.00  0.00    -0.273 OA
ATOM      5  H   UNL A   1      34.320  27.545  23.437  1.00  0.00     0.163 HD
BRANCH   3   6
ATOM      6  C   UNL A   1      31.051  28.258  24.045  1.00  0.00     0.203 C 
ATOM      7  C   UNL A   1      28.903  28.652  23.267  1.00  0.00     0.148 C 
ATOM      8  N   UNL A   1      28.940  27.363  23.378  1.00  0.00    -0.169 NA
ATOM      9  C   UNL A   1      30.180  29.378  23.488  1.00  0.00     0.103 C 
ATOM     10  N   UNL A   1      30.215  27.072  23.782  1.00  0.00    -0.249 N 
BRANCH   7  11
ATOM     11  C   UNL A   1      27.672  29.446  22.941  1.00  0.00     0.354 C 
ATOM     12  O   UNL A   1      26.549  29.077  23.233  1.00  0.00    -0.245 OA
BRANCH  11  13
ATOM     13  O   UNL A   1      28.054  30.629  22.417  1.00  0.00    -0.461 OA
BRANCH  13  14
ATOM     14  C   UNL A   1      27.994  30.714  20.987  1.00  0.00     0.230 C 
ATOM     15  C   UNL A   1      27.971  32.161  20.538  1.00  0.00     0.049 C 
ENDBRANCH  13  14
ENDBRANCH  11  13
ENDBRANCH   7  11
BRANCH  10  16
ATOM     16  C   UNL A   1      30.509  25.780  24.204  1.00  0.00     0.096 A 
ATOM     17  C   UNL A   1      30.775  24.787  23.248  1.00  0.00     0.032 A 
ATOM     18  C   UNL A   1      30.570  25.406  25.556  1.00  0.00     0.149 A 
ATOM     19  C   UNL A   1      31.119  23.486  23.627  1.00  0.00     0.023 A 
ATOM     20  C   UNL A   1      30.876  24.104  25.948  1.00  0.00     0.062 A 
ATOM     21  F   UNL A   1      30.291  26.301  26.518  1.00  0.00    -0.205 F 
ATOM     22  C   UNL A   1      31.161  23.150  24.978  1.00  0.00     0.044 A 
ATOM     23  Cl  UNL A   1      31.567  21.547  25.449  1.00  0.00    -0.084 Cl
ENDBRANCH  10  16
ENDBRANCH   3   6
ENDBRANCH   1   2
BRANCH   1  24
ATOM     24  C   UNL A   1      34.320  28.351  26.250  1.00  0.00     0.042 C 
BRANCH  24  25
ATOM     25  C   UNL A   1      33.459  28.761  27.436  1.00  0.00     0.118 C 
BRANCH  25  26
ATOM     26  N   UNL A   1      33.577  30.171  27.779  1.00  0.00    -0.352 N 
ATOM     27  C   UNL A   1      34.631  30.875  28.312  1.00  0.00     0.251 C 
ATOM     28  H   UNL A   1      32.771  30.707  27.600  1.00  0.00     0.163 HD
ATOM     29  O   UNL A   1      34.467  32.043  28.654  1.00  0.00    -0.269 OA
BRANCH  27  30
ATOM     30  C   UNL A   1      35.949  30.231  28.513  1.00  0.00     0.039 A 
ATOM     31  C   UNL A   1      36.888  30.284  27.478  1.00  0.00     0.014 A 
ATOM     32  C   UNL A   1      36.265  29.572  29.703  1.00  0.00     0.014 A 
ATOM     33  C   UNL A   1      38.168  29.754  27.670  1.00  0.00     0.010 A 
ATOM     34  C   UNL A   1      37.566  29.129  29.928  1.00  0.00     0.010 A 
ATOM     35  C   UNL A   1      38.531  29.215  28.914  1.00  0.00    -0.014 A 
BRANCH  35  36
ATOM     36  C   UNL A   1      39.913  28.739  29.181  1.00  0.00     0.031 A 
ATOM     37  C   UNL A   1      40.928  29.661  29.799  1.00  0.00     0.074 A 
ATOM     38  C   UNL A   1      40.283  27.505  28.783  1.00  0.00     0.049 A 
ATOM     39  N   UNL A   1      42.202  29.458  30.020  1.00  0.00    -0.248 NA
ATOM     40  C   UNL A   1      40.457  31.000  30.187  1.00  0.00     0.031 C 
ATOM     41  C   UNL A   1      39.416  26.530  28.118  1.00  0.00     0.029 A 
ATOM     42  N   UNL A   1      41.496  26.867  28.866  1.00  0.00    -0.354 N 
ATOM     43  C   UNL A   1      42.689  30.650  30.540  1.00  0.00     0.074 A 
ATOM     44  C   UNL A   1      41.585  31.585  30.563  1.00  0.00     0.031 C 
ATOM     45  C   UNL A   1      40.119  25.413  27.872  1.00  0.00     0.029 A 
ATOM     46  C   UNL A   1      41.492  25.605  28.325  1.00  0.00     0.049 A 
ATOM     47  H   UNL A   1      42.293  27.277  29.274  1.00  0.00     0.167 HD
ATOM     48  C   UNL A   1      43.939  30.939  30.975  1.00  0.00     0.031 A 
ATOM     49  C   UNL A   1      42.483  24.703  28.200  1.00  0.00     0.031 A 
ATOM     50  C   UNL A   1      45.031  30.006  30.983  1.00  0.00     0.049 A 
ATOM     51  C   UNL A   1      43.854  25.035  28.717  1.00  0.00     0.074 A 
ATOM     52  C   UNL A   1      46.310  30.178  31.484  1.00  0.00     0.029 A 
ATOM     53  N   UNL A   1      44.974  28.722  30.464  1.00  0.00    -0.354 N 
ATOM     54  N   UNL A   1      44.276  26.140  29.281  1.00  0.00    -0.248 NA
ATOM     55  C   UNL A   1      44.880  23.989  28.592  1.00  0.00     0.031 C 
ATOM     56  C   UNL A   1      47.040  29.012  31.229  1.00  0.00     0.029 A 
ATOM     57  C   UNL A   1      46.201  28.098  30.611  1.00  0.00     0.049 A 
ATOM     58  H   UNL A   1      44.178  28.314  30.052  1.00  0.00     0.167 HD
ATOM     59  C   UNL A   1      45.610  25.916  29.596  1.00  0.00     0.074 A 
ATOM     60  C   UNL A   1      45.921  24.566  29.175  1.00  0.00     0.031 C 
ATOM     61  C   UNL A   1      46.497  26.756  30.183  1.00  0.00     0.031 A 
BRANCH  48  62
ATOM     62  C   UNL A   1      44.187  32.336  31.475  1.00  0.00    -0.014 A 
ATOM     63  C   UNL A   1      44.620  33.354  30.610  1.00  0.00     0.009 A 
ATOM     64  C   UNL A   1      43.966  32.641  32.826  1.00  0.00     0.009 A 
ATOM     65  C   UNL A   1      44.868  34.638  31.097  1.00  0.00     0.001 A 
ATOM     66  C   UNL A   1      44.188  33.934  33.305  1.00  0.00     0.001 A 
ATOM     67  C   UNL A   1      44.650  34.928  32.444  1.00  0.00     0.000 A 
ENDBRANCH  48  62
BRANCH  49  68
ATOM     68  C   UNL A   1      42.208  23.388  27.566  1.00  0.00    -0.014 A 
ATOM     69  C   UNL A   1      42.507  23.175  26.212  1.00  0.00     0.009 A 
ATOM     70  C   UNL A   1      41.659  22.337  28.316  1.00  0.00     0.009 A 
ATOM     71  C   UNL A   1      42.241  21.940  25.616  1.00  0.00     0.001 A 
ATOM     72  C   UNL A   1      41.418  21.096  27.723  1.00  0.00     0.001 A 
ATOM     73  C   UNL A   1      41.702  20.901  26.372  1.00  0.00     0.000 A 
ENDBRANCH  49  68
BRANCH  61  74
ATOM     74  C   UNL A   1      47.882  26.230  30.425  1.00  0.00    -0.014 A 
ATOM     75  C   UNL A   1      48.856  26.257  29.416  1.00  0.00     0.009 A 
ATOM     76  C   UNL A   1      48.226  25.739  31.694  1.00  0.00     0.009 A 
ATOM     77  C   UNL A   1      50.142  25.773  29.665  1.00  0.00     0.001 A 
ATOM     78  C   UNL A   1      49.521  25.280  31.947  1.00  0.00     0.001 A 
ATOM     79  C   UNL A   1      50.475  25.290  30.931  1.00  0.00     0.000 A 
ENDBRANCH  61  74
ENDBRANCH  35  36
ENDBRANCH  27  30
ENDBRANCH  25  26
ENDBRANCH  24  25
ENDBRANCH   1  24
TORSDOF 14
ENDMDL
MODEL 3
REMARK VINA RESULT:     -10.9      2.648      7.806
REMARK SMILES CCOC(=O)C1=NN(c2ccc(Cl)cc2F)[C@@H](C(=O)NCCCNC(=O)c2ccc(-c3c4nc(c(-c5ccccc5)c5ccc([nH]5)c(-c5ccccc5)c5nc(c(-c6ccccc6)c6ccc3[nH]6)C=C5)C=C4)cc2)C1
REMARK SMILES IDX 21 1 20 2 18 3 19 4 17 6 6 7 7 8 75 9 8 10 4 11 5 12 3 13
REMARK SMILES IDX 2 14 1 15 9 16 10 17 15 18 11 19 14 20 16 21 12 22 13 23
REMARK SMILES IDX 22 24 23 25 24 26 25 27 26 29 27 30 28 31 74 32 29 33 73 34
REMARK SMILES IDX 30 35 31 36 32 37 67 38 33 39 72 40 66 41 68 42 34 43 71 44
REMARK SMILES IDX 65 45 64 46 35 48 57 49 42 50 56 51 43 52 46 53 55 54 69 55
REMARK SMILES IDX 44 56 45 57 54 59 70 60 47 61 36 62 37 63 41 64 38 65 40 66
REMARK SMILES IDX 39 67 58 68 59 69 63 70 60 71 62 72 61 73 48 74 49 75 53 76
REMARK SMILES IDX 50 77 52 78 51 79
REMARK H PARENT 20 5 24 28 68 47 46 58
REMARK Flexibility Score: inf
ROOT
ATOM      1  C   UNL A   1      37.787  21.951  24.986  1.00  0.00     0.117 C 
ENDROOT
BRANCH   1   2
ATOM      2  N   UNL A   1      37.037  22.555  23.903  1.00  0.00    -0.354 N 
ATOM      3  C   UNL A   1      35.786  23.100  23.841  1.00  0.00     0.245 C 
ATOM      4  O   UNL A   1      35.475  23.543  22.731  1.00  0.00    -0.273 OA
ATOM      5  H   UNL A   1      37.521  22.576  23.046  1.00  0.00     0.163 HD
BRANCH   3   6
ATOM      6  C   UNL A   1      34.815  23.073  25.045  1.00  0.00     0.203 C 
ATOM      7  C   UNL A   1      32.815  24.147  25.516  1.00  0.00     0.148 C 
ATOM      8  N   UNL A   1      32.429  22.999  25.061  1.00  0.00    -0.169 NA
ATOM      9  C   UNL A   1      34.269  24.441  25.436  1.00  0.00     0.103 C 
ATOM     10  N   UNL A   1      33.578  22.343  24.712  1.00  0.00    -0.249 N 
BRANCH   7  11
ATOM     11  C   UNL A   1      31.904  25.179  26.115  1.00  0.00     0.354 C 
ATOM     12  O   UNL A   1      31.086  24.920  26.978  1.00  0.00    -0.245 OA
BRANCH  11  13
ATOM     13  O   UNL A   1      32.253  26.388  25.628  1.00  0.00    -0.461 OA
BRANCH  13  14
ATOM     14  C   UNL A   1      32.351  27.436  26.603  1.00  0.00     0.230 C 
ATOM     15  C   UNL A   1      33.736  28.048  26.593  1.00  0.00     0.049 C 
ENDBRANCH  13  14
ENDBRANCH  11  13
ENDBRANCH   7  11
BRANCH  10  16
ATOM     16  C   UNL A   1      33.512  20.991  24.394  1.00  0.00     0.096 A 
ATOM     17  C   UNL A   1      34.403  20.095  25.005  1.00  0.00     0.032 A 
ATOM     18  C   UNL A   1      32.579  20.457  23.491  1.00  0.00     0.149 A 
ATOM     19  C   UNL A   1      34.344  18.722  24.749  1.00  0.00     0.023 A 
ATOM     20  C   UNL A   1      32.532  19.095  23.199  1.00  0.00     0.062 A 
ATOM     21  F   UNL A   1      31.723  21.266  22.846  1.00  0.00    -0.205 F 
ATOM     22  C   UNL A   1      33.411  18.230  23.841  1.00  0.00     0.044 A 
ATOM     23  Cl  UNL A   1      33.345  16.543  23.511  1.00  0.00    -0.084 Cl
ENDBRANCH  10  16
ENDBRANCH   3   6
ENDBRANCH   1   2
BRANCH   1  24
ATOM     24  C   UNL A   1      38.173  20.506  24.713  1.00  0.00     0.042 C 
BRANCH  24  25
ATOM     25  C   UNL A   1      38.566  19.697  25.940  1.00  0.00     0.118 C 
BRANCH  25  26
ATOM     26  N   UNL A   1      39.842  19.009  25.798  1.00  0.00    -0.352 N 
ATOM     27  C   UNL A   1      41.126  19.461  25.988  1.00  0.00     0.251 C 
ATOM     28  H   UNL A   1      39.773  18.067  25.520  1.00  0.00     0.163 HD
ATOM     29  O   UNL A   1      42.072  18.745  25.675  1.00  0.00    -0.269 OA
BRANCH  27  30
ATOM     30  C   UNL A   1      41.381  20.816  26.530  1.00  0.00     0.039 A 
ATOM     31  C   UNL A   1      41.422  20.988  27.917  1.00  0.00     0.014 A 
ATOM     32  C   UNL A   1      41.571  21.913  25.688  1.00  0.00     0.014 A 
ATOM     33  C   UNL A   1      41.739  22.239  28.454  1.00  0.00     0.010 A 
ATOM     34  C   UNL A   1      41.978  23.134  26.220  1.00  0.00     0.010 A 
ATOM     35  C   UNL A   1      42.066  23.311  27.608  1.00  0.00    -0.014 A 
BRANCH  35  36
ATOM     36  C   UNL A   1      42.507  24.622  28.151  1.00  0.00     0.031 A 
ATOM     37  C   UNL A   1      41.505  25.716  28.402  1.00  0.00     0.074 A 
ATOM     38  C   UNL A   1      43.821  24.863  28.332  1.00  0.00     0.049 A 
ATOM     39  N   UNL A   1      41.709  26.952  28.781  1.00  0.00    -0.248 NA
ATOM     40  C   UNL A   1      40.091  25.387  28.160  1.00  0.00     0.031 C 
ATOM     41  C   UNL A   1      44.903  23.911  28.072  1.00  0.00     0.029 A 
ATOM     42  N   UNL A   1      44.470  25.993  28.763  1.00  0.00    -0.354 N 
ATOM     43  C   UNL A   1      40.458  27.555  28.791  1.00  0.00     0.074 A 
ATOM     44  C   UNL A   1      39.506  26.563  28.340  1.00  0.00     0.031 C 
ATOM     45  C   UNL A   1      46.078  24.490  28.367  1.00  0.00     0.029 A 
ATOM     46  C   UNL A   1      45.836  25.862  28.800  1.00  0.00     0.049 A 
ATOM     47  H   UNL A   1      44.000  26.819  29.022  1.00  0.00     0.167 HD
ATOM     48  C   UNL A   1      40.125  28.816  29.158  1.00  0.00     0.031 A 
ATOM     49  C   UNL A   1      46.791  26.749  29.135  1.00  0.00     0.031 A 
ATOM     50  C   UNL A   1      41.062  29.795  29.635  1.00  0.00     0.049 A 
ATOM     51  C   UNL A   1      46.397  28.132  29.567  1.00  0.00     0.074 A 
ATOM     52  C   UNL A   1      40.810  31.070  30.112  1.00  0.00     0.029 A 
ATOM     53  N   UNL A   1      42.434  29.609  29.696  1.00  0.00    -0.354 N 
ATOM     54  N   UNL A   1      45.200  28.660  29.649  1.00  0.00    -0.248 NA
ATOM     55  C   UNL A   1      47.485  29.037  29.966  1.00  0.00     0.031 C 
ATOM     56  C   UNL A   1      42.035  31.671  30.421  1.00  0.00     0.029 A 
ATOM     57  C   UNL A   1      43.045  30.753  30.180  1.00  0.00     0.049 A 
ATOM     58  H   UNL A   1      42.905  28.785  29.434  1.00  0.00     0.167 HD
ATOM     59  C   UNL A   1      45.388  29.950  30.126  1.00  0.00     0.074 A 
ATOM     60  C   UNL A   1      46.812  30.120  30.331  1.00  0.00     0.031 C 
ATOM     61  C   UNL A   1      44.463  30.908  30.374  1.00  0.00     0.031 A 
BRANCH  48  62
ATOM     62  C   UNL A   1      38.677  29.205  29.046  1.00  0.00    -0.014 A 
ATOM     63  C   UNL A   1      37.797  29.061  30.131  1.00  0.00     0.009 A 
ATOM     64  C   UNL A   1      38.191  29.742  27.845  1.00  0.00     0.009 A 
ATOM     65  C   UNL A   1      36.451  29.406  30.000  1.00  0.00     0.001 A 
ATOM     66  C   UNL A   1      36.850  30.113  27.725  1.00  0.00     0.001 A 
ATOM     67  C   UNL A   1      35.979  29.934  28.799  1.00  0.00     0.000 A 
ENDBRANCH  48  62
BRANCH  49  68
ATOM     68  C   UNL A   1      48.221  26.347  29.089  1.00  0.00    -0.014 A 
ATOM     69  C   UNL A   1      48.826  25.746  30.204  1.00  0.00     0.009 A 
ATOM     70  C   UNL A   1      48.981  26.549  27.928  1.00  0.00     0.009 A 
ATOM     71  C   UNL A   1      50.172  25.375  30.162  1.00  0.00     0.001 A 
ATOM     72  C   UNL A   1      50.320  26.153  27.881  1.00  0.00     0.001 A 
ATOM     73  C   UNL A   1      50.916  25.574  29.000  1.00  0.00     0.000 A 
ENDBRANCH  49  68
BRANCH  61  74
ATOM     74  C   UNL A   1      44.959  32.217  30.916  1.00  0.00    -0.014 A 
ATOM     75  C   UNL A   1      45.115  32.420  32.296  1.00  0.00     0.009 A 
ATOM     76  C   UNL A   1      45.315  33.247  30.030  1.00  0.00     0.009 A 
ATOM     77  C   UNL A   1      45.590  33.640  32.780  1.00  0.00     0.001 A 
ATOM     78  C   UNL A   1      45.813  34.457  30.516  1.00  0.00     0.001 A 
ATOM     79  C   UNL A   1      45.943  34.655  31.890  1.00  0.00     0.000 A 
ENDBRANCH  61  74
ENDBRANCH  35  36
ENDBRANCH  27  30
ENDBRANCH  25  26
ENDBRANCH  24  25
ENDBRANCH   1  24
TORSDOF 14
ENDMDL
