MODEL 1
REMARK VINA RESULT:     -11.3      0.000      0.000
REMARK SMILES CC1(C)CN(C(=O)NC[C@H]2CC[C@@H](C(=O)NCCCNC(=O)c3ccc(-c4c5nc(c(-c6ccccc6)c6ccc([nH]6)c(-c6ccccc6)c6nc(c(-c7ccccc7)c7ccc4[nH]7)C=C6)C=C5)cc3)CC2)CCO1
REMARK SMILES IDX 17 1 16 2 14 3 15 4 13 6 10 7 11 8 72 9 12 10 71 11 9 12
REMARK SMILES IDX 8 13 6 14 7 15 5 17 1 18 2 19 3 20 4 21 75 22 74 23 73 24
REMARK SMILES IDX 18 25 19 26 20 27 21 28 22 30 23 31 24 32 70 33 25 34 69 35
REMARK SMILES IDX 26 36 27 37 28 38 63 39 29 40 68 41 62 42 64 43 30 44 67 45
REMARK SMILES IDX 61 46 60 47 31 49 53 50 38 51 52 52 39 53 42 54 51 55 65 56
REMARK SMILES IDX 40 57 41 58 50 60 66 61 43 62 32 63 33 64 37 65 34 66 36 67
REMARK SMILES IDX 35 68 54 69 55 70 59 71 56 72 58 73 57 74 44 75 45 76 49 77
REMARK SMILES IDX 46 78 48 79 47 80
REMARK H PARENT 16 5 8 16 20 29 64 48 42 59
REMARK Flexibility Score: inf
ROOT
ATOM      1  C   UNL A   1      38.868  22.436  26.142  1.00  0.00     0.117 C 
ENDROOT
BRANCH   1   2
ATOM      2  N   UNL A   1      37.967  23.338  25.455  1.00  0.00    -0.356 N 
ATOM      3  C   UNL A   1      36.619  23.276  25.264  1.00  0.00     0.223 C 
ATOM      4  O   UNL A   1      36.091  24.219  24.669  1.00  0.00    -0.275 OA
ATOM      5  H   UNL A   1      38.400  24.128  25.060  1.00  0.00     0.163 HD
BRANCH   3   6
ATOM      6  C   UNL A   1      35.774  22.095  25.749  1.00  0.00     0.078 C 
ATOM      7  C   UNL A   1      33.089  20.819  26.070  1.00  0.00     0.008 C 
ATOM      8  C   UNL A   1      34.111  20.273  25.057  1.00  0.00     0.006 C 
ATOM      9  C   UNL A   1      33.847  21.399  27.271  1.00  0.00     0.006 C 
ATOM     10  C   UNL A   1      35.131  21.315  24.591  1.00  0.00     0.014 C 
ATOM     11  C   UNL A   1      34.821  22.505  26.878  1.00  0.00     0.014 C 
BRANCH   7  12
ATOM     12  C   UNL A   1      32.124  21.840  25.441  1.00  0.00     0.121 C 
BRANCH  12  13
ATOM     13  N   UNL A   1      31.104  22.262  26.378  1.00  0.00    -0.338 N 
ATOM     14  C   UNL A   1      30.536  23.418  26.750  1.00  0.00     0.317 C 
ATOM     15  O   UNL A   1      29.508  23.294  27.422  1.00  0.00    -0.249 OA
ATOM     16  H   UNL A   1      30.728  21.498  26.872  1.00  0.00     0.165 HD
BRANCH  14  17
ATOM     17  N   UNL A   1      31.012  24.637  26.390  1.00  0.00    -0.320 N 
ATOM     18  C   UNL A   1      30.329  24.362  23.388  1.00  0.00     0.044 C 
ATOM     19  C   UNL A   1      30.604  25.651  24.178  1.00  0.00     0.080 C 
ATOM     20  C   UNL A   1      29.860  26.811  23.506  1.00  0.00     0.044 C 
ATOM     21  C   UNL A   1      30.118  25.528  25.649  1.00  0.00     0.156 C 
ATOM     22  O   UNL A   1      32.014  25.992  24.112  1.00  0.00    -0.372 OA
ATOM     23  C   UNL A   1      32.866  25.175  24.936  1.00  0.00     0.182 C 
ATOM     24  C   UNL A   1      32.373  25.157  26.386  1.00  0.00     0.150 C 
ENDBRANCH  14  17
ENDBRANCH  12  13
ENDBRANCH   7  12
ENDBRANCH   3   6
ENDBRANCH   1   2
BRANCH   1  25
ATOM     25  C   UNL A   1      39.058  21.111  25.421  1.00  0.00     0.042 C 
BRANCH  25  26
ATOM     26  C   UNL A   1      39.429  19.970  26.352  1.00  0.00     0.118 C 
BRANCH  26  27
ATOM     27  N   UNL A   1      40.641  19.280  25.929  1.00  0.00    -0.352 N 
ATOM     28  C   UNL A   1      41.934  19.731  25.838  1.00  0.00     0.251 C 
ATOM     29  H   UNL A   1      40.511  18.341  25.665  1.00  0.00     0.163 HD
ATOM     30  O   UNL A   1      42.776  19.048  25.267  1.00  0.00    -0.269 OA
BRANCH  28  31
ATOM     31  C   UNL A   1      42.309  21.043  26.407  1.00  0.00     0.039 A 
ATOM     32  C   UNL A   1      42.707  22.064  25.541  1.00  0.00     0.014 A 
ATOM     33  C   UNL A   1      42.282  21.266  27.786  1.00  0.00     0.014 A 
ATOM     34  C   UNL A   1      43.009  23.326  26.054  1.00  0.00     0.010 A 
ATOM     35  C   UNL A   1      42.487  22.547  28.284  1.00  0.00     0.010 A 
ATOM     36  C   UNL A   1      42.859  23.590  27.425  1.00  0.00    -0.014 A 
BRANCH  36  37
ATOM     37  C   UNL A   1      43.080  24.949  27.978  1.00  0.00     0.031 A 
ATOM     38  C   UNL A   1      44.450  25.366  28.439  1.00  0.00     0.074 A 
ATOM     39  C   UNL A   1      42.032  25.783  28.127  1.00  0.00     0.049 A 
ATOM     40  N   UNL A   1      44.824  26.486  29.005  1.00  0.00    -0.248 NA
ATOM     41  C   UNL A   1      45.539  24.389  28.271  1.00  0.00     0.031 C 
ATOM     42  C   UNL A   1      40.644  25.479  27.762  1.00  0.00     0.029 A 
ATOM     43  N   UNL A   1      41.966  27.057  28.633  1.00  0.00    -0.354 N 
ATOM     44  C   UNL A   1      46.179  26.341  29.273  1.00  0.00     0.074 A 
ATOM     45  C   UNL A   1      46.553  25.007  28.857  1.00  0.00     0.031 C 
ATOM     46  C   UNL A   1      39.875  26.545  28.030  1.00  0.00     0.029 A 
ATOM     47  C   UNL A   1      40.699  27.589  28.628  1.00  0.00     0.049 A 
ATOM     48  H   UNL A   1      42.755  27.545  28.967  1.00  0.00     0.167 HD
ATOM     49  C   UNL A   1      47.038  27.242  29.804  1.00  0.00     0.031 A 
ATOM     50  C   UNL A   1      40.248  28.779  29.069  1.00  0.00     0.031 A 
ATOM     51  C   UNL A   1      46.667  28.573  30.201  1.00  0.00     0.049 A 
ATOM     52  C   UNL A   1      41.226  29.755  29.662  1.00  0.00     0.074 A 
ATOM     53  C   UNL A   1      47.480  29.585  30.683  1.00  0.00     0.029 A 
ATOM     54  N   UNL A   1      45.376  29.076  30.167  1.00  0.00    -0.354 N 
ATOM     55  N   UNL A   1      42.520  29.631  29.831  1.00  0.00    -0.248 NA
ATOM     56  C   UNL A   1      40.680  31.044  30.115  1.00  0.00     0.031 C 
ATOM     57  C   UNL A   1      46.671  30.679  31.002  1.00  0.00     0.029 A 
ATOM     58  C   UNL A   1      45.366  30.374  30.652  1.00  0.00     0.049 A 
ATOM     59  H   UNL A   1      44.585  28.587  29.847  1.00  0.00     0.167 HD
ATOM     60  C   UNL A   1      42.947  30.834  30.381  1.00  0.00     0.074 A 
ATOM     61  C   UNL A   1      41.778  31.681  30.496  1.00  0.00     0.031 C 
ATOM     62  C   UNL A   1      44.195  31.204  30.758  1.00  0.00     0.031 A 
BRANCH  49  63
ATOM     63  C   UNL A   1      48.469  26.821  29.993  1.00  0.00    -0.014 A 
ATOM     64  C   UNL A   1      48.887  26.151  31.153  1.00  0.00     0.009 A 
ATOM     65  C   UNL A   1      49.399  27.038  28.964  1.00  0.00     0.009 A 
ATOM     66  C   UNL A   1      50.212  25.731  31.290  1.00  0.00     0.001 A 
ATOM     67  C   UNL A   1      50.716  26.591  29.091  1.00  0.00     0.001 A 
ATOM     68  C   UNL A   1      51.123  25.944  30.256  1.00  0.00     0.000 A 
ENDBRANCH  49  63
BRANCH  50  69
ATOM     69  C   UNL A   1      38.803  29.116  28.976  1.00  0.00    -0.014 A 
ATOM     70  C   UNL A   1      38.262  29.634  27.789  1.00  0.00     0.009 A 
ATOM     71  C   UNL A   1      37.960  28.950  30.087  1.00  0.00     0.009 A 
ATOM     72  C   UNL A   1      36.920  30.017  27.729  1.00  0.00     0.001 A 
ATOM     73  C   UNL A   1      36.611  29.300  30.013  1.00  0.00     0.001 A 
ATOM     74  C   UNL A   1      36.095  29.846  28.841  1.00  0.00     0.000 A 
ENDBRANCH  50  69
BRANCH  62  75
ATOM     75  C   UNL A   1      44.367  32.598  31.293  1.00  0.00    -0.014 A 
ATOM     76  C   UNL A   1      44.589  33.688  30.438  1.00  0.00     0.009 A 
ATOM     77  C   UNL A   1      44.267  32.825  32.675  1.00  0.00     0.009 A 
ATOM     78  C   UNL A   1      44.743  34.974  30.961  1.00  0.00     0.001 A 
ATOM     79  C   UNL A   1      44.386  34.116  33.191  1.00  0.00     0.001 A 
ATOM     80  C   UNL A   1      44.636  35.187  32.335  1.00  0.00     0.000 A 
ENDBRANCH  62  75
ENDBRANCH  36  37
ENDBRANCH  28  31
ENDBRANCH  26  27
ENDBRANCH  25  26
ENDBRANCH   1  25
TORSDOF 13
ENDMDL
MODEL 2
REMARK VINA RESULT:     -11.2      2.048      7.727
REMARK SMILES CC1(C)CN(C(=O)NC[C@H]2CC[C@@H](C(=O)NCCCNC(=O)c3ccc(-c4c5nc(c(-c6ccccc6)c6ccc([nH]6)c(-c6ccccc6)c6nc(c(-c7ccccc7)c7ccc4[nH]7)C=C6)C=C5)cc3)CC2)CCO1
REMARK SMILES IDX 17 1 16 2 14 3 15 4 13 6 10 7 11 8 72 9 12 10 71 11 9 12
REMARK SMILES IDX 8 13 6 14 7 15 5 17 1 18 2 19 3 20 4 21 75 22 74 23 73 24
REMARK SMILES IDX 18 25 19 26 20 27 21 28 22 30 23 31 24 32 70 33 25 34 69 35
REMARK SMILES IDX 26 36 27 37 28 38 63 39 29 40 68 41 62 42 64 43 30 44 67 45
REMARK SMILES IDX 61 46 60 47 31 49 53 50 38 51 52 52 39 53 42 54 51 55 65 56
REMARK SMILES IDX 40 57 41 58 50 60 66 61 43 62 32 63 33 64 37 65 34 66 36 67
REMARK SMILES IDX 35 68 54 69 55 70 59 71 56 72 58 73 57 74 44 75 45 76 49 77
REMARK SMILES IDX 46 78 48 79 47 80
REMARK H PARENT 16 5 8 16 20 29 64 48 42 59
REMARK Flexibility Score: inf
ROOT
ATOM      1  C   UNL A   1      32.539  29.193  24.944  1.00  0.00     0.117 C 
ENDROOT
BRANCH   1   2
ATOM      2  N   UNL A   1      31.322  29.812  24.463  1.00  0.00    -0.356 N 
ATOM      3  C   UNL A   1      30.301  29.307  23.715  1.00  0.00     0.223 C 
ATOM      4  O   UNL A   1      29.349  30.056  23.482  1.00  0.00    -0.275 OA
ATOM      5  H   UNL A   1      31.213  30.756  24.719  1.00  0.00     0.163 HD
BRANCH   3   6
ATOM      6  C   UNL A   1      30.313  27.877  23.168  1.00  0.00     0.078 C 
ATOM      7  C   UNL A   1      31.584  25.171  23.081  1.00  0.00     0.008 C 
ATOM      8  C   UNL A   1      30.229  25.390  23.777  1.00  0.00     0.006 C 
ATOM      9  C   UNL A   1      31.694  26.144  21.900  1.00  0.00     0.006 C 
ATOM     10  C   UNL A   1      30.005  26.829  24.248  1.00  0.00     0.014 C 
ATOM     11  C   UNL A   1      31.563  27.603  22.321  1.00  0.00     0.014 C 
BRANCH   7  12
ATOM     12  C   UNL A   1      32.772  25.297  24.052  1.00  0.00     0.121 C 
BRANCH  12  13
ATOM     13  N   UNL A   1      33.932  24.572  23.576  1.00  0.00    -0.338 N 
ATOM     14  C   UNL A   1      34.440  23.340  23.717  1.00  0.00     0.317 C 
ATOM     15  O   UNL A   1      35.341  23.060  22.920  1.00  0.00    -0.249 OA
ATOM     16  H   UNL A   1      34.496  25.134  22.997  1.00  0.00     0.165 HD
BRANCH  14  17
ATOM     17  N   UNL A   1      33.986  22.440  24.626  1.00  0.00    -0.320 N 
ATOM     18  C   UNL A   1      32.027  21.020  22.701  1.00  0.00     0.044 C 
ATOM     19  C   UNL A   1      32.603  20.488  24.022  1.00  0.00     0.080 C 
ATOM     20  C   UNL A   1      32.647  18.957  23.961  1.00  0.00     0.044 C 
ATOM     21  C   UNL A   1      34.041  21.022  24.269  1.00  0.00     0.156 C 
ATOM     22  O   UNL A   1      31.719  20.815  25.126  1.00  0.00    -0.372 OA
ATOM     23  C   UNL A   1      31.761  22.195  25.537  1.00  0.00     0.182 C 
ATOM     24  C   UNL A   1      33.197  22.635  25.835  1.00  0.00     0.150 C 
ENDBRANCH  14  17
ENDBRANCH  12  13
ENDBRANCH   7  12
ENDBRANCH   3   6
ENDBRANCH   1   2
BRANCH   1  25
ATOM     25  C   UNL A   1      32.371  28.500  26.287  1.00  0.00     0.042 C 
BRANCH  25  26
ATOM     26  C   UNL A   1      33.517  28.767  27.246  1.00  0.00     0.118 C 
BRANCH  26  27
ATOM     27  N   UNL A   1      33.576  30.161  27.666  1.00  0.00    -0.352 N 
ATOM     28  C   UNL A   1      34.566  30.852  28.317  1.00  0.00     0.251 C 
ATOM     29  H   UNL A   1      32.775  30.692  27.449  1.00  0.00     0.163 HD
ATOM     30  O   UNL A   1      34.336  31.973  28.758  1.00  0.00    -0.269 OA
BRANCH  28  31
ATOM     31  C   UNL A   1      35.900  30.244  28.507  1.00  0.00     0.039 A 
ATOM     32  C   UNL A   1      36.823  30.300  27.460  1.00  0.00     0.014 A 
ATOM     33  C   UNL A   1      36.240  29.609  29.705  1.00  0.00     0.014 A 
ATOM     34  C   UNL A   1      38.106  29.782  27.641  1.00  0.00     0.010 A 
ATOM     35  C   UNL A   1      37.545  29.184  29.918  1.00  0.00     0.010 A 
ATOM     36  C   UNL A   1      38.491  29.260  28.886  1.00  0.00    -0.014 A 
BRANCH  36  37
ATOM     37  C   UNL A   1      39.879  28.794  29.131  1.00  0.00     0.031 A 
ATOM     38  C   UNL A   1      40.898  29.729  29.725  1.00  0.00     0.074 A 
ATOM     39  C   UNL A   1      40.238  27.551  28.755  1.00  0.00     0.049 A 
ATOM     40  N   UNL A   1      42.170  29.523  29.953  1.00  0.00    -0.248 NA
ATOM     41  C   UNL A   1      40.437  31.081  30.082  1.00  0.00     0.031 C 
ATOM     42  C   UNL A   1      39.354  26.565  28.126  1.00  0.00     0.029 A 
ATOM     43  N   UNL A   1      41.445  26.903  28.841  1.00  0.00    -0.354 N 
ATOM     44  C   UNL A   1      42.662  30.719  30.462  1.00  0.00     0.074 A 
ATOM     45  C   UNL A   1      41.566  31.662  30.461  1.00  0.00     0.031 C 
ATOM     46  C   UNL A   1      40.041  25.433  27.909  1.00  0.00     0.029 A 
ATOM     47  C   UNL A   1      41.422  25.624  28.339  1.00  0.00     0.049 A 
ATOM     48  H   UNL A   1      42.251  27.316  29.228  1.00  0.00     0.167 HD
ATOM     49  C   UNL A   1      43.909  31.001  30.905  1.00  0.00     0.031 A 
ATOM     50  C   UNL A   1      42.406  24.712  28.223  1.00  0.00     0.031 A 
ATOM     51  C   UNL A   1      44.992  30.056  30.920  1.00  0.00     0.049 A 
ATOM     52  C   UNL A   1      43.784  25.059  28.715  1.00  0.00     0.074 A 
ATOM     53  C   UNL A   1      46.274  30.225  31.415  1.00  0.00     0.029 A 
ATOM     54  N   UNL A   1      44.924  28.767  30.415  1.00  0.00    -0.354 N 
ATOM     55  N   UNL A   1      44.209  26.168  29.270  1.00  0.00    -0.248 NA
ATOM     56  C   UNL A   1      44.816  24.021  28.575  1.00  0.00     0.031 C 
ATOM     57  C   UNL A   1      47.001  29.061  31.151  1.00  0.00     0.029 A 
ATOM     58  C   UNL A   1      46.152  28.142  30.555  1.00  0.00     0.049 A 
ATOM     59  H   UNL A   1      44.124  28.357  30.016  1.00  0.00     0.167 HD
ATOM     60  C   UNL A   1      45.548  25.950  29.573  1.00  0.00     0.074 A 
ATOM     61  C   UNL A   1      45.857  24.597  29.160  1.00  0.00     0.031 C 
ATOM     62  C   UNL A   1      46.442  26.795  30.141  1.00  0.00     0.031 A 
BRANCH  49  63
ATOM     63  C   UNL A   1      44.178  32.393  31.407  1.00  0.00    -0.014 A 
ATOM     64  C   UNL A   1      44.593  33.416  30.541  1.00  0.00     0.009 A 
ATOM     65  C   UNL A   1      43.945  32.701  32.758  1.00  0.00     0.009 A 
ATOM     66  C   UNL A   1      44.796  34.711  31.021  1.00  0.00     0.001 A 
ATOM     67  C   UNL A   1      44.120  34.003  33.229  1.00  0.00     0.001 A 
ATOM     68  C   UNL A   1      44.552  35.006  32.362  1.00  0.00     0.000 A 
ENDBRANCH  49  63
BRANCH  50  69
ATOM     69  C   UNL A   1      42.133  23.386  27.609  1.00  0.00    -0.014 A 
ATOM     70  C   UNL A   1      42.340  23.174  26.237  1.00  0.00     0.009 A 
ATOM     71  C   UNL A   1      41.632  22.330  28.387  1.00  0.00     0.009 A 
ATOM     72  C   UNL A   1      42.013  21.949  25.650  1.00  0.00     0.001 A 
ATOM     73  C   UNL A   1      41.339  21.095  27.805  1.00  0.00     0.001 A 
ATOM     74  C   UNL A   1      41.517  20.909  26.437  1.00  0.00     0.000 A 
ENDBRANCH  50  69
BRANCH  62  75
ATOM     75  C   UNL A   1      47.828  26.267  30.386  1.00  0.00    -0.014 A 
ATOM     76  C   UNL A   1      48.807  26.288  29.381  1.00  0.00     0.009 A 
ATOM     77  C   UNL A   1      48.168  25.779  31.657  1.00  0.00     0.009 A 
ATOM     78  C   UNL A   1      50.089  25.795  29.635  1.00  0.00     0.001 A 
ATOM     79  C   UNL A   1      49.459  25.319  31.918  1.00  0.00     0.001 A 
ATOM     80  C   UNL A   1      50.415  25.316  30.904  1.00  0.00     0.000 A 
ENDBRANCH  62  75
ENDBRANCH  36  37
ENDBRANCH  28  31
ENDBRANCH  26  27
ENDBRANCH  25  26
ENDBRANCH   1  25
TORSDOF 13
ENDMDL
MODEL 3
REMARK VINA RESULT:     -11.2      1.542      2.212
REMARK SMILES CC1(C)CN(C(=O)NC[C@H]2CC[C@@H](C(=O)NCCCNC(=O)c3ccc(-c4c5nc(c(-c6ccccc6)c6ccc([nH]6)c(-c6ccccc6)c6nc(c(-c7ccccc7)c7ccc4[nH]7)C=C6)C=C5)cc3)CC2)CCO1
REMARK SMILES IDX 17 1 16 2 14 3 15 4 13 6 10 7 11 8 72 9 12 10 71 11 9 12
REMARK SMILES IDX 8 13 6 14 7 15 5 17 1 18 2 19 3 20 4 21 75 22 74 23 73 24
REMARK SMILES IDX 18 25 19 26 20 27 21 28 22 30 23 31 24 32 70 33 25 34 69 35
REMARK SMILES IDX 26 36 27 37 28 38 63 39 29 40 68 41 62 42 64 43 30 44 67 45
REMARK SMILES IDX 61 46 60 47 31 49 53 50 38 51 52 52 39 53 42 54 51 55 65 56
REMARK SMILES IDX 40 57 41 58 50 60 66 61 43 62 32 63 33 64 37 65 34 66 36 67
REMARK SMILES IDX 35 68 54 69 55 70 59 71 56 72 58 73 57 74 44 75 45 76 49 77
REMARK SMILES IDX 46 78 48 79 47 80
REMARK H PARENT 16 5 8 16 20 29 64 48 42 59
REMARK Flexibility Score: inf
ROOT
ATOM      1  C   UNL A   1      36.548  20.102  25.072  1.00  0.00     0.117 C 
ENDROOT
BRANCH   1   2
ATOM      2  N   UNL A   1      36.289  21.403  25.652  1.00  0.00    -0.356 N 
ATOM      3  C   UNL A   1      35.411  22.380  25.291  1.00  0.00     0.223 C 
ATOM      4  O   UNL A   1      35.368  23.389  26.000  1.00  0.00    -0.275 OA
ATOM      5  H   UNL A   1      36.840  21.618  26.439  1.00  0.00     0.163 HD
BRANCH   3   6
ATOM      6  C   UNL A   1      34.511  22.261  24.059  1.00  0.00     0.078 C 
ATOM      7  C   UNL A   1      31.990  23.013  22.637  1.00  0.00     0.008 C 
ATOM      8  C   UNL A   1      33.356  23.542  22.165  1.00  0.00     0.006 C 
ATOM      9  C   UNL A   1      32.184  21.613  23.234  1.00  0.00     0.006 C 
ATOM     10  C   UNL A   1      34.417  23.575  23.268  1.00  0.00     0.014 C 
ATOM     11  C   UNL A   1      33.170  21.597  24.396  1.00  0.00     0.014 C 
BRANCH   7  12
ATOM     12  C   UNL A   1      31.293  23.973  23.618  1.00  0.00     0.121 C 
BRANCH  12  13
ATOM     13  N   UNL A   1      30.844  25.182  22.958  1.00  0.00    -0.338 N 
ATOM     14  C   UNL A   1      31.262  26.451  22.854  1.00  0.00     0.317 C 
ATOM     15  O   UNL A   1      30.703  27.107  21.970  1.00  0.00    -0.249 OA
ATOM     16  H   UNL A   1      30.014  25.030  22.452  1.00  0.00     0.165 HD
BRANCH  14  17
ATOM     17  N   UNL A   1      32.250  26.981  23.619  1.00  0.00    -0.320 N 
ATOM     18  C   UNL A   1      30.739  29.587  24.314  1.00  0.00     0.044 C 
ATOM     19  C   UNL A   1      31.937  28.967  25.050  1.00  0.00     0.080 C 
ATOM     20  C   UNL A   1      31.887  29.391  26.522  1.00  0.00     0.044 C 
ATOM     21  C   UNL A   1      31.907  27.415  24.974  1.00  0.00     0.156 C 
ATOM     22  O   UNL A   1      33.182  29.499  24.525  1.00  0.00    -0.372 OA
ATOM     23  C   UNL A   1      33.561  28.976  23.238  1.00  0.00     0.182 C 
ATOM     24  C   UNL A   1      33.582  27.445  23.254  1.00  0.00     0.150 C 
ENDBRANCH  14  17
ENDBRANCH  12  13
ENDBRANCH   7  12
ENDBRANCH   3   6
ENDBRANCH   1   2
BRANCH   1  25
ATOM     25  C   UNL A   1      38.006  19.891  24.695  1.00  0.00     0.042 C 
BRANCH  25  26
ATOM     26  C   UNL A   1      38.970  20.224  25.820  1.00  0.00     0.118 C 
BRANCH  26  27
ATOM     27  N   UNL A   1      40.109  19.316  25.861  1.00  0.00    -0.352 N 
ATOM     28  C   UNL A   1      41.435  19.564  26.116  1.00  0.00     0.251 C 
ATOM     29  H   UNL A   1      39.893  18.374  25.675  1.00  0.00     0.163 HD
ATOM     30  O   UNL A   1      42.268  18.690  25.905  1.00  0.00    -0.269 OA
BRANCH  28  31
ATOM     31  C   UNL A   1      41.863  20.886  26.623  1.00  0.00     0.039 A 
ATOM     32  C   UNL A   1      42.299  21.849  25.710  1.00  0.00     0.014 A 
ATOM     33  C   UNL A   1      41.849  21.173  27.990  1.00  0.00     0.014 A 
ATOM     34  C   UNL A   1      42.652  23.120  26.164  1.00  0.00     0.010 A 
ATOM     35  C   UNL A   1      42.105  22.466  28.429  1.00  0.00     0.010 A 
ATOM     36  C   UNL A   1      42.516  23.453  27.522  1.00  0.00    -0.014 A 
BRANCH  36  37
ATOM     37  C   UNL A   1      42.792  24.826  28.011  1.00  0.00     0.031 A 
ATOM     38  C   UNL A   1      44.187  25.221  28.414  1.00  0.00     0.074 A 
ATOM     39  C   UNL A   1      41.773  25.697  28.155  1.00  0.00     0.049 A 
ATOM     40  N   UNL A   1      44.609  26.352  28.922  1.00  0.00    -0.248 NA
ATOM     41  C   UNL A   1      45.242  24.206  28.256  1.00  0.00     0.031 C 
ATOM     42  C   UNL A   1      40.367  25.419  27.843  1.00  0.00     0.029 A 
ATOM     43  N   UNL A   1      41.759  26.992  28.609  1.00  0.00    -0.354 N 
ATOM     44  C   UNL A   1      45.966  26.177  29.158  1.00  0.00     0.074 A 
ATOM     45  C   UNL A   1      46.290  24.817  28.787  1.00  0.00     0.031 C 
ATOM     46  C   UNL A   1      39.637  26.518  28.088  1.00  0.00     0.029 A 
ATOM     47  C   UNL A   1      40.508  27.561  28.618  1.00  0.00     0.049 A 
ATOM     48  H   UNL A   1      42.571  27.469  28.900  1.00  0.00     0.167 HD
ATOM     49  C   UNL A   1      46.867  27.073  29.626  1.00  0.00     0.031 A 
ATOM     50  C   UNL A   1      40.105  28.780  29.022  1.00  0.00     0.031 A 
ATOM     51  C   UNL A   1      46.546  28.430  29.977  1.00  0.00     0.049 A 
ATOM     52  C   UNL A   1      41.127  29.750  29.546  1.00  0.00     0.074 A 
ATOM     53  C   UNL A   1      47.401  29.435  30.393  1.00  0.00     0.029 A 
ATOM     54  N   UNL A   1      45.270  28.970  29.959  1.00  0.00    -0.354 N 
ATOM     55  N   UNL A   1      42.421  29.595  29.683  1.00  0.00    -0.248 NA
ATOM     56  C   UNL A   1      40.632  31.072  29.960  1.00  0.00     0.031 C 
ATOM     57  C   UNL A   1      46.634  30.565  30.689  1.00  0.00     0.029 A 
ATOM     58  C   UNL A   1      45.310  30.285  30.390  1.00  0.00     0.049 A 
ATOM     59  H   UNL A   1      44.456  28.491  29.682  1.00  0.00     0.167 HD
ATOM     60  C   UNL A   1      42.899  30.805  30.169  1.00  0.00     0.074 A 
ATOM     61  C   UNL A   1      41.759  31.691  30.282  1.00  0.00     0.031 C 
ATOM     62  C   UNL A   1      44.167  31.153  30.494  1.00  0.00     0.031 A 
BRANCH  49  63
ATOM     63  C   UNL A   1      48.291  26.617  29.791  1.00  0.00    -0.014 A 
ATOM     64  C   UNL A   1      48.724  25.988  30.968  1.00  0.00     0.009 A 
ATOM     65  C   UNL A   1      49.194  26.760  28.726  1.00  0.00     0.009 A 
ATOM     66  C   UNL A   1      50.040  25.535  31.085  1.00  0.00     0.001 A 
ATOM     67  C   UNL A   1      50.500  26.279  28.834  1.00  0.00     0.001 A 
ATOM     68  C   UNL A   1      50.924  25.674  30.015  1.00  0.00     0.000 A 
ENDBRANCH  49  63
BRANCH  50  69
ATOM     69  C   UNL A   1      38.668  29.156  28.957  1.00  0.00    -0.014 A 
ATOM     70  C   UNL A   1      38.111  29.659  27.771  1.00  0.00     0.009 A 
ATOM     71  C   UNL A   1      37.849  29.042  30.092  1.00  0.00     0.009 A 
ATOM     72  C   UNL A   1      36.779  30.079  27.734  1.00  0.00     0.001 A 
ATOM     73  C   UNL A   1      36.508  29.429  30.043  1.00  0.00     0.001 A 
ATOM     74  C   UNL A   1      35.978  29.959  28.870  1.00  0.00     0.000 A 
ENDBRANCH  50  69
BRANCH  62  75
ATOM     75  C   UNL A   1      44.396  32.562  30.966  1.00  0.00    -0.014 A 
ATOM     76  C   UNL A   1      44.352  32.895  32.328  1.00  0.00     0.009 A 
ATOM     77  C   UNL A   1      44.698  33.564  30.030  1.00  0.00     0.009 A 
ATOM     78  C   UNL A   1      44.571  34.211  32.740  1.00  0.00     0.001 A 
ATOM     79  C   UNL A   1      44.951  34.871  30.447  1.00  0.00     0.001 A 
ATOM     80  C   UNL A   1      44.875  35.196  31.801  1.00  0.00     0.000 A 
ENDBRANCH  62  75
ENDBRANCH  36  37
ENDBRANCH  28  31
ENDBRANCH  26  27
ENDBRANCH  25  26
ENDBRANCH   1  25
TORSDOF 13
ENDMDL
