MODEL 1
REMARK VINA RESULT:     -11.1      0.000      0.000
REMARK SMILES Cc1nn(C)c(C)c1CN(C)C(=O)[C@@H]1CC=CC[C@@H]1C(=O)NCCCNC(=O)c1ccc(-c2c3nc(c(-c4ccccc4)c4ccc([nH]4)c(-c4ccccc4)c4nc(c(-c5ccccc5)c5ccc2[nH]5)C=C4)C=C3)cc1
REMARK SMILES IDX 23 1 22 2 20 3 21 4 19 6 14 7 15 8 16 9 18 10 17 11 12 12
REMARK SMILES IDX 13 13 10 14 11 15 9 16 8 17 1 18 2 19 3 20 4 21 6 22 5 23
REMARK SMILES IDX 7 24 24 25 25 26 26 27 27 28 28 30 29 31 30 32 76 33 31 34
REMARK SMILES IDX 75 35 32 36 33 37 34 38 69 39 35 40 74 41 68 42 70 43 36 44
REMARK SMILES IDX 73 45 67 46 66 47 37 49 59 50 44 51 58 52 45 53 48 54 57 55
REMARK SMILES IDX 71 56 46 57 47 58 56 60 72 61 49 62 38 63 39 64 43 65 40 66
REMARK SMILES IDX 42 67 41 68 60 69 61 70 65 71 62 72 64 73 63 74 50 75 51 76
REMARK SMILES IDX 55 77 52 78 54 79 53 80
REMARK H PARENT 22 5 26 29 70 48 48 59
REMARK Flexibility Score: inf
ROOT
ATOM      1  C   UNL A   1      32.101  30.553  27.156  1.00  0.00     0.117 C 
ENDROOT
BRANCH   1   2
ATOM      2  N   UNL A   1      32.838  30.081  26.001  1.00  0.00    -0.356 N 
ATOM      3  C   UNL A   1      32.431  29.358  24.922  1.00  0.00     0.224 C 
ATOM      4  O   UNL A   1      33.268  29.174  24.042  1.00  0.00    -0.275 OA
ATOM      5  H   UNL A   1      33.792  30.325  25.996  1.00  0.00     0.163 HD
BRANCH   3   6
ATOM      6  C   UNL A   1      30.997  28.829  24.870  1.00  0.00     0.095 C 
ATOM      7  C   UNL A   1      30.907  27.282  24.900  1.00  0.00     0.095 C 
ATOM      8  C   UNL A   1      31.503  26.648  23.628  1.00  0.00     0.041 C 
ATOM      9  C   UNL A   1      31.126  27.390  22.374  1.00  0.00    -0.030 C 
ATOM     10  C   UNL A   1      30.269  29.374  23.626  1.00  0.00     0.041 C 
ATOM     11  C   UNL A   1      30.552  28.601  22.373  1.00  0.00    -0.030 C 
BRANCH   7  12
ATOM     12  C   UNL A   1      31.544  26.738  26.183  1.00  0.00     0.226 C 
ATOM     13  O   UNL A   1      31.351  27.278  27.271  1.00  0.00    -0.275 OA
BRANCH  12  14
ATOM     14  N   UNL A   1      32.287  25.561  26.079  1.00  0.00    -0.341 N 
ATOM     15  C   UNL A   1      33.681  25.511  25.664  1.00  0.00     0.147 C 
BRANCH  14  16
ATOM     16  C   UNL A   1      31.646  24.307  26.477  1.00  0.00     0.158 C 
BRANCH  16  17
ATOM     17  C   UNL A   1      32.143  23.115  25.725  1.00  0.00     0.015 A 
ATOM     18  C   UNL A   1      30.840  23.417  23.451  1.00  0.00     0.069 C 
ATOM     19  C   UNL A   1      31.780  22.752  24.391  1.00  0.00     0.065 A 
ATOM     20  N   UNL A   1      32.427  21.657  23.980  1.00  0.00    -0.178 NA
ATOM     21  N   UNL A   1      33.142  21.275  25.045  1.00  0.00    -0.272 N 
ATOM     22  C   UNL A   1      33.074  22.153  26.097  1.00  0.00     0.040 A 
ATOM     23  C   UNL A   1      33.873  20.033  24.950  1.00  0.00     0.174 C 
ATOM     24  C   UNL A   1      33.868  21.979  27.338  1.00  0.00     0.067 C 
ENDBRANCH  16  17
ENDBRANCH  14  16
ENDBRANCH  12  14
ENDBRANCH   7  12
ENDBRANCH   3   6
ENDBRANCH   1   2
BRANCH   1  25
ATOM     25  C   UNL A   1      31.453  31.908  26.919  1.00  0.00     0.042 C 
BRANCH  25  26
ATOM     26  C   UNL A   1      32.432  33.034  26.602  1.00  0.00     0.118 C 
BRANCH  26  27
ATOM     27  N   UNL A   1      32.309  34.177  27.497  1.00  0.00    -0.352 N 
ATOM     28  C   UNL A   1      33.044  34.528  28.604  1.00  0.00     0.251 C 
ATOM     29  H   UNL A   1      31.579  34.798  27.274  1.00  0.00     0.163 HD
ATOM     30  O   UNL A   1      32.674  35.459  29.313  1.00  0.00    -0.269 OA
BRANCH  28  31
ATOM     31  C   UNL A   1      34.253  33.762  28.972  1.00  0.00     0.039 A 
ATOM     32  C   UNL A   1      35.507  34.342  28.760  1.00  0.00     0.014 A 
ATOM     33  C   UNL A   1      34.158  32.490  29.539  1.00  0.00     0.014 A 
ATOM     34  C   UNL A   1      36.656  33.692  29.215  1.00  0.00     0.010 A 
ATOM     35  C   UNL A   1      35.292  31.886  30.072  1.00  0.00     0.010 A 
ATOM     36  C   UNL A   1      36.551  32.488  29.931  1.00  0.00    -0.014 A 
BRANCH  36  37
ATOM     37  C   UNL A   1      37.735  31.870  30.579  1.00  0.00     0.031 A 
ATOM     38  C   UNL A   1      38.519  30.798  29.875  1.00  0.00     0.074 A 
ATOM     39  C   UNL A   1      38.051  32.217  31.843  1.00  0.00     0.049 A 
ATOM     40  N   UNL A   1      39.527  30.090  30.319  1.00  0.00    -0.248 NA
ATOM     41  C   UNL A   1      38.102  30.459  28.506  1.00  0.00     0.031 C 
ATOM     42  C   UNL A   1      37.341  33.209  32.656  1.00  0.00     0.029 A 
ATOM     43  N   UNL A   1      39.047  31.763  32.672  1.00  0.00    -0.354 N 
ATOM     44  C   UNL A   1      39.852  29.212  29.294  1.00  0.00     0.074 A 
ATOM     45  C   UNL A   1      38.907  29.444  28.223  1.00  0.00     0.031 C 
ATOM     46  C   UNL A   1      37.940  33.309  33.852  1.00  0.00     0.029 A 
ATOM     47  C   UNL A   1      39.044  32.358  33.911  1.00  0.00     0.049 A 
ATOM     48  H   UNL A   1      39.700  31.078  32.404  1.00  0.00     0.167 HD
ATOM     49  C   UNL A   1      40.857  28.307  29.239  1.00  0.00     0.031 A 
ATOM     50  C   UNL A   1      39.833  32.152  34.983  1.00  0.00     0.031 A 
ATOM     51  C   UNL A   1      41.806  28.083  30.297  1.00  0.00     0.049 A 
ATOM     52  C   UNL A   1      40.929  31.127  34.903  1.00  0.00     0.074 A 
ATOM     53  C   UNL A   1      42.900  27.235  30.308  1.00  0.00     0.029 A 
ATOM     54  N   UNL A   1      41.769  28.706  31.535  1.00  0.00    -0.354 N 
ATOM     55  N   UNL A   1      41.267  30.358  33.897  1.00  0.00    -0.248 NA
ATOM     56  C   UNL A   1      41.753  30.945  36.106  1.00  0.00     0.031 C 
ATOM     57  C   UNL A   1      43.496  27.307  31.572  1.00  0.00     0.029 A 
ATOM     58  C   UNL A   1      42.803  28.238  32.328  1.00  0.00     0.049 A 
ATOM     59  H   UNL A   1      41.106  29.380  31.809  1.00  0.00     0.167 HD
ATOM     60  C   UNL A   1      42.354  29.615  34.338  1.00  0.00     0.074 A 
ATOM     61  C   UNL A   1      42.631  30.041  35.695  1.00  0.00     0.031 C 
ATOM     62  C   UNL A   1      43.059  28.664  33.679  1.00  0.00     0.031 A 
BRANCH  49  63
ATOM     63  C   UNL A   1      40.980  27.482  27.988  1.00  0.00    -0.014 A 
ATOM     64  C   UNL A   1      41.760  27.918  26.905  1.00  0.00     0.009 A 
ATOM     65  C   UNL A   1      40.343  26.235  27.908  1.00  0.00     0.009 A 
ATOM     66  C   UNL A   1      41.872  27.134  25.754  1.00  0.00     0.001 A 
ATOM     67  C   UNL A   1      40.479  25.441  26.768  1.00  0.00     0.001 A 
ATOM     68  C   UNL A   1      41.235  25.895  25.689  1.00  0.00     0.000 A 
ENDBRANCH  49  63
BRANCH  50  69
ATOM     69  C   UNL A   1      39.619  32.934  36.228  1.00  0.00    -0.014 A 
ATOM     70  C   UNL A   1      38.751  32.461  37.223  1.00  0.00     0.009 A 
ATOM     71  C   UNL A   1      40.276  34.158  36.425  1.00  0.00     0.009 A 
ATOM     72  C   UNL A   1      38.523  33.212  38.379  1.00  0.00     0.001 A 
ATOM     73  C   UNL A   1      40.069  34.893  37.594  1.00  0.00     0.001 A 
ATOM     74  C   UNL A   1      39.186  34.425  38.566  1.00  0.00     0.000 A 
ENDBRANCH  50  69
BRANCH  62  75
ATOM     75  C   UNL A   1      44.208  28.033  34.412  1.00  0.00    -0.014 A 
ATOM     76  C   UNL A   1      45.490  28.601  34.378  1.00  0.00     0.009 A 
ATOM     77  C   UNL A   1      43.995  26.876  35.178  1.00  0.00     0.009 A 
ATOM     78  C   UNL A   1      46.545  28.005  35.072  1.00  0.00     0.001 A 
ATOM     79  C   UNL A   1      45.045  26.298  35.893  1.00  0.00     0.001 A 
ATOM     80  C   UNL A   1      46.320  26.858  35.833  1.00  0.00     0.000 A 
ENDBRANCH  62  75
ENDBRANCH  36  37
ENDBRANCH  28  31
ENDBRANCH  26  27
ENDBRANCH  25  26
ENDBRANCH   1  25
TORSDOF 14
ENDMDL
MODEL 2
REMARK VINA RESULT:     -11.0      0.881      5.949
REMARK SMILES Cc1nn(C)c(C)c1CN(C)C(=O)[C@@H]1CC=CC[C@@H]1C(=O)NCCCNC(=O)c1ccc(-c2c3nc(c(-c4ccccc4)c4ccc([nH]4)c(-c4ccccc4)c4nc(c(-c5ccccc5)c5ccc2[nH]5)C=C4)C=C3)cc1
REMARK SMILES IDX 23 1 22 2 20 3 21 4 19 6 14 7 15 8 16 9 18 10 17 11 12 12
REMARK SMILES IDX 13 13 10 14 11 15 9 16 8 17 1 18 2 19 3 20 4 21 6 22 5 23
REMARK SMILES IDX 7 24 24 25 25 26 26 27 27 28 28 30 29 31 30 32 76 33 31 34
REMARK SMILES IDX 75 35 32 36 33 37 34 38 69 39 35 40 74 41 68 42 70 43 36 44
REMARK SMILES IDX 73 45 67 46 66 47 37 49 59 50 44 51 58 52 45 53 48 54 57 55
REMARK SMILES IDX 71 56 46 57 47 58 56 60 72 61 49 62 38 63 39 64 43 65 40 66
REMARK SMILES IDX 42 67 41 68 60 69 61 70 65 71 62 72 64 73 63 74 50 75 51 76
REMARK SMILES IDX 55 77 52 78 54 79 53 80
REMARK H PARENT 22 5 26 29 70 48 48 59
REMARK Flexibility Score: inf
ROOT
ATOM      1  C   UNL A   1      31.783  30.513  26.907  1.00  0.00     0.117 C 
ENDROOT
BRANCH   1   2
ATOM      2  N   UNL A   1      32.577  30.018  25.801  1.00  0.00    -0.356 N 
ATOM      3  C   UNL A   1      32.248  29.186  24.775  1.00  0.00     0.224 C 
ATOM      4  O   UNL A   1      33.113  29.005  23.921  1.00  0.00    -0.275 OA
ATOM      5  H   UNL A   1      33.509  30.336  25.789  1.00  0.00     0.163 HD
BRANCH   3   6
ATOM      6  C   UNL A   1      30.861  28.541  24.744  1.00  0.00     0.095 C 
ATOM      7  C   UNL A   1      30.897  26.995  24.839  1.00  0.00     0.095 C 
ATOM      8  C   UNL A   1      31.547  26.358  23.596  1.00  0.00     0.041 C 
ATOM      9  C   UNL A   1      31.115  27.014  22.311  1.00  0.00    -0.030 C 
ATOM     10  C   UNL A   1      30.097  28.972  23.479  1.00  0.00     0.041 C 
ATOM     11  C   UNL A   1      30.445  28.173  22.260  1.00  0.00    -0.030 C 
BRANCH   7  12
ATOM     12  C   UNL A   1      31.571  26.559  26.145  1.00  0.00     0.226 C 
ATOM     13  O   UNL A   1      31.362  27.153  27.202  1.00  0.00    -0.275 OA
BRANCH  12  14
ATOM     14  N   UNL A   1      32.369  25.414  26.101  1.00  0.00    -0.341 N 
ATOM     15  C   UNL A   1      33.782  25.418  25.756  1.00  0.00     0.147 C 
BRANCH  14  16
ATOM     16  C   UNL A   1      31.763  24.141  26.493  1.00  0.00     0.158 C 
BRANCH  16  17
ATOM     17  C   UNL A   1      32.307  22.965  25.748  1.00  0.00     0.015 A 
ATOM     18  C   UNL A   1      31.036  23.235  23.452  1.00  0.00     0.069 C 
ATOM     19  C   UNL A   1      31.978  22.594  24.407  1.00  0.00     0.065 A 
ATOM     20  N   UNL A   1      32.663  21.519  24.006  1.00  0.00    -0.178 NA
ATOM     21  N   UNL A   1      33.369  21.155  25.083  1.00  0.00    -0.272 N 
ATOM     22  C   UNL A   1      33.258  22.028  26.135  1.00  0.00     0.040 A 
ATOM     23  C   UNL A   1      34.136  19.934  24.999  1.00  0.00     0.174 C 
ATOM     24  C   UNL A   1      34.034  21.874  27.389  1.00  0.00     0.067 C 
ENDBRANCH  16  17
ENDBRANCH  14  16
ENDBRANCH  12  14
ENDBRANCH   7  12
ENDBRANCH   3   6
ENDBRANCH   1   2
BRANCH   1  25
ATOM     25  C   UNL A   1      31.593  32.021  26.858  1.00  0.00     0.042 C 
BRANCH  25  26
ATOM     26  C   UNL A   1      32.824  32.831  27.251  1.00  0.00     0.118 C 
BRANCH  26  27
ATOM     27  N   UNL A   1      32.517  34.203  27.633  1.00  0.00    -0.352 N 
ATOM     28  C   UNL A   1      33.041  34.992  28.627  1.00  0.00     0.251 C 
ATOM     29  H   UNL A   1      31.819  34.634  27.089  1.00  0.00     0.163 HD
ATOM     30  O   UNL A   1      32.528  36.079  28.879  1.00  0.00    -0.269 OA
BRANCH  28  31
ATOM     31  C   UNL A   1      34.191  34.521  29.428  1.00  0.00     0.039 A 
ATOM     32  C   UNL A   1      33.954  33.994  30.699  1.00  0.00     0.014 A 
ATOM     33  C   UNL A   1      35.493  34.579  28.926  1.00  0.00     0.014 A 
ATOM     34  C   UNL A   1      35.007  33.427  31.421  1.00  0.00     0.010 A 
ATOM     35  C   UNL A   1      36.523  33.936  29.605  1.00  0.00     0.010 A 
ATOM     36  C   UNL A   1      36.287  33.338  30.852  1.00  0.00    -0.014 A 
BRANCH  36  37
ATOM     37  C   UNL A   1      37.378  32.584  31.519  1.00  0.00     0.031 A 
ATOM     38  C   UNL A   1      37.919  33.036  32.847  1.00  0.00     0.074 A 
ATOM     39  C   UNL A   1      37.942  31.537  30.883  1.00  0.00     0.049 A 
ATOM     40  N   UNL A   1      38.921  32.551  33.536  1.00  0.00    -0.248 NA
ATOM     41  C   UNL A   1      37.266  34.199  33.470  1.00  0.00     0.031 C 
ATOM     42  C   UNL A   1      37.543  31.026  29.569  1.00  0.00     0.029 A 
ATOM     43  N   UNL A   1      38.981  30.720  31.253  1.00  0.00    -0.354 N 
ATOM     44  C   UNL A   1      39.030  33.358  34.660  1.00  0.00     0.074 A 
ATOM     45  C   UNL A   1      38.023  34.390  34.541  1.00  0.00     0.031 C 
ATOM     46  C   UNL A   1      38.308  29.968  29.257  1.00  0.00     0.029 A 
ATOM     47  C   UNL A   1      39.280  29.755  30.322  1.00  0.00     0.049 A 
ATOM     48  H   UNL A   1      39.466  30.818  32.104  1.00  0.00     0.167 HD
ATOM     49  C   UNL A   1      39.879  33.241  35.709  1.00  0.00     0.031 A 
ATOM     50  C   UNL A   1      40.239  28.809  30.318  1.00  0.00     0.031 A 
ATOM     51  C   UNL A   1      40.874  32.208  35.836  1.00  0.00     0.049 A 
ATOM     52  C   UNL A   1      41.182  28.713  31.484  1.00  0.00     0.074 A 
ATOM     53  C   UNL A   1      41.735  31.968  36.892  1.00  0.00     0.029 A 
ATOM     54  N   UNL A   1      41.143  31.250  34.872  1.00  0.00    -0.354 N 
ATOM     55  N   UNL A   1      41.222  29.441  32.574  1.00  0.00    -0.248 NA
ATOM     56  C   UNL A   1      42.210  27.665  31.419  1.00  0.00     0.031 C 
ATOM     57  C   UNL A   1      42.562  30.894  36.545  1.00  0.00     0.029 A 
ATOM     58  C   UNL A   1      42.179  30.435  35.296  1.00  0.00     0.049 A 
ATOM     59  H   UNL A   1      40.669  31.162  34.014  1.00  0.00     0.167 HD
ATOM     60  C   UNL A   1      42.264  28.925  33.333  1.00  0.00     0.074 A 
ATOM     61  C   UNL A   1      42.816  27.812  32.588  1.00  0.00     0.031 C 
ATOM     62  C   UNL A   1      42.724  29.338  34.539  1.00  0.00     0.031 A 
BRANCH  49  63
ATOM     63  C   UNL A   1      39.773  34.265  36.805  1.00  0.00    -0.014 A 
ATOM     64  C   UNL A   1      38.981  34.032  37.941  1.00  0.00     0.009 A 
ATOM     65  C   UNL A   1      40.507  35.457  36.721  1.00  0.00     0.009 A 
ATOM     66  C   UNL A   1      38.902  34.988  38.955  1.00  0.00     0.001 A 
ATOM     67  C   UNL A   1      40.447  36.399  37.749  1.00  0.00     0.001 A 
ATOM     68  C   UNL A   1      39.638  36.169  38.860  1.00  0.00     0.000 A 
ENDBRANCH  49  63
BRANCH  50  69
ATOM     69  C   UNL A   1      40.358  27.873  29.171  1.00  0.00    -0.014 A 
ATOM     70  C   UNL A   1      39.651  26.660  29.168  1.00  0.00     0.009 A 
ATOM     71  C   UNL A   1      41.181  28.181  28.078  1.00  0.00     0.009 A 
ATOM     72  C   UNL A   1      39.789  25.764  28.106  1.00  0.00     0.001 A 
ATOM     73  C   UNL A   1      41.295  27.296  27.004  1.00  0.00     0.001 A 
ATOM     74  C   UNL A   1      40.607  26.085  27.022  1.00  0.00     0.000 A 
ENDBRANCH  50  69
BRANCH  62  75
ATOM     75  C   UNL A   1      43.870  28.571  35.134  1.00  0.00    -0.014 A 
ATOM     76  C   UNL A   1      45.199  28.965  34.915  1.00  0.00     0.009 A 
ATOM     77  C   UNL A   1      43.615  27.462  35.955  1.00  0.00     0.009 A 
ATOM     78  C   UNL A   1      46.251  28.245  35.483  1.00  0.00     0.001 A 
ATOM     79  C   UNL A   1      44.668  26.760  36.544  1.00  0.00     0.001 A 
ATOM     80  C   UNL A   1      45.985  27.147  36.300  1.00  0.00     0.000 A 
ENDBRANCH  62  75
ENDBRANCH  36  37
ENDBRANCH  28  31
ENDBRANCH  26  27
ENDBRANCH  25  26
ENDBRANCH   1  25
TORSDOF 14
ENDMDL
MODEL 3
REMARK VINA RESULT:     -10.9      1.744      2.344
REMARK SMILES Cc1nn(C)c(C)c1CN(C)C(=O)[C@@H]1CC=CC[C@@H]1C(=O)NCCCNC(=O)c1ccc(-c2c3nc(c(-c4ccccc4)c4ccc([nH]4)c(-c4ccccc4)c4nc(c(-c5ccccc5)c5ccc2[nH]5)C=C4)C=C3)cc1
REMARK SMILES IDX 23 1 22 2 20 3 21 4 19 6 14 7 15 8 16 9 18 10 17 11 12 12
REMARK SMILES IDX 13 13 10 14 11 15 9 16 8 17 1 18 2 19 3 20 4 21 6 22 5 23
REMARK SMILES IDX 7 24 24 25 25 26 26 27 27 28 28 30 29 31 30 32 76 33 31 34
REMARK SMILES IDX 75 35 32 36 33 37 34 38 69 39 35 40 74 41 68 42 70 43 36 44
REMARK SMILES IDX 73 45 67 46 66 47 37 49 59 50 44 51 58 52 45 53 48 54 57 55
REMARK SMILES IDX 71 56 46 57 47 58 56 60 72 61 49 62 38 63 39 64 43 65 40 66
REMARK SMILES IDX 42 67 41 68 60 69 61 70 65 71 62 72 64 73 63 74 50 75 51 76
REMARK SMILES IDX 55 77 52 78 54 79 53 80
REMARK H PARENT 22 5 26 29 70 48 48 59
REMARK Flexibility Score: inf
ROOT
ATOM      1  C   UNL A   1      31.841  29.148  26.896  1.00  0.00     0.117 C 
ENDROOT
BRANCH   1   2
ATOM      2  N   UNL A   1      32.798  28.467  26.048  1.00  0.00    -0.356 N 
ATOM      3  C   UNL A   1      32.616  27.528  25.080  1.00  0.00     0.224 C 
ATOM      4  O   UNL A   1      33.617  27.187  24.456  1.00  0.00    -0.275 OA
ATOM      5  H   UNL A   1      33.737  28.727  26.196  1.00  0.00     0.163 HD
BRANCH   3   6
ATOM      6  C   UNL A   1      31.215  26.965  24.831  1.00  0.00     0.095 C 
ATOM      7  C   UNL A   1      31.158  25.418  24.853  1.00  0.00     0.095 C 
ATOM      8  C   UNL A   1      31.938  24.798  23.678  1.00  0.00     0.041 C 
ATOM      9  C   UNL A   1      31.720  25.531  22.381  1.00  0.00    -0.030 C 
ATOM     10  C   UNL A   1      30.653  27.494  23.498  1.00  0.00     0.041 C 
ATOM     11  C   UNL A   1      31.124  26.728  22.298  1.00  0.00    -0.030 C 
BRANCH   7  12
ATOM     12  C   UNL A   1      31.624  24.888  26.214  1.00  0.00     0.226 C 
ATOM     13  O   UNL A   1      31.941  25.653  27.123  1.00  0.00    -0.275 OA
BRANCH  12  14
ATOM     14  N   UNL A   1      31.600  23.504  26.404  1.00  0.00    -0.341 N 
ATOM     15  C   UNL A   1      30.503  22.645  25.988  1.00  0.00     0.147 C 
BRANCH  14  16
ATOM     16  C   UNL A   1      32.780  22.873  26.995  1.00  0.00     0.158 C 
BRANCH  16  17
ATOM     17  C   UNL A   1      33.787  22.424  25.986  1.00  0.00     0.015 A 
ATOM     18  C   UNL A   1      32.970  19.950  25.576  1.00  0.00     0.069 C 
ATOM     19  C   UNL A   1      33.842  21.136  25.371  1.00  0.00     0.065 A 
ATOM     20  N   UNL A   1      34.832  21.054  24.476  1.00  0.00    -0.178 NA
ATOM     21  N   UNL A   1      35.452  22.238  24.558  1.00  0.00    -0.272 N 
ATOM     22  C   UNL A   1      34.825  23.131  25.390  1.00  0.00     0.040 A 
ATOM     23  C   UNL A   1      36.656  22.418  23.782  1.00  0.00     0.174 C 
ATOM     24  C   UNL A   1      35.281  24.533  25.549  1.00  0.00     0.067 C 
ENDBRANCH  16  17
ENDBRANCH  14  16
ENDBRANCH  12  14
ENDBRANCH   7  12
ENDBRANCH   3   6
ENDBRANCH   1   2
BRANCH   1  25
ATOM     25  C   UNL A   1      31.710  30.625  26.556  1.00  0.00     0.042 C 
BRANCH  25  26
ATOM     26  C   UNL A   1      32.879  31.490  27.017  1.00  0.00     0.118 C 
BRANCH  26  27
ATOM     27  N   UNL A   1      32.492  32.851  27.361  1.00  0.00    -0.352 N 
ATOM     28  C   UNL A   1      33.102  33.776  28.173  1.00  0.00     0.251 C 
ATOM     29  H   UNL A   1      31.654  33.158  26.944  1.00  0.00     0.163 HD
ATOM     30  O   UNL A   1      32.522  34.822  28.452  1.00  0.00    -0.269 OA
BRANCH  28  31
ATOM     31  C   UNL A   1      34.433  33.499  28.752  1.00  0.00     0.039 A 
ATOM     32  C   UNL A   1      34.509  32.795  29.956  1.00  0.00     0.014 A 
ATOM     33  C   UNL A   1      35.601  33.911  28.108  1.00  0.00     0.014 A 
ATOM     34  C   UNL A   1      35.756  32.411  30.456  1.00  0.00     0.010 A 
ATOM     35  C   UNL A   1      36.835  33.454  28.558  1.00  0.00     0.010 A 
ATOM     36  C   UNL A   1      36.925  32.684  29.727  1.00  0.00    -0.014 A 
BRANCH  36  37
ATOM     37  C   UNL A   1      38.239  32.135  30.143  1.00  0.00     0.031 A 
ATOM     38  C   UNL A   1      38.723  30.817  29.604  1.00  0.00     0.074 A 
ATOM     39  C   UNL A   1      38.961  32.787  31.077  1.00  0.00     0.049 A 
ATOM     40  N   UNL A   1      39.803  30.147  29.917  1.00  0.00    -0.248 NA
ATOM     41  C   UNL A   1      37.871  30.155  28.604  1.00  0.00     0.031 C 
ATOM     42  C   UNL A   1      38.582  34.050  31.716  1.00  0.00     0.029 A 
ATOM     43  N   UNL A   1      40.162  32.470  31.661  1.00  0.00    -0.354 N 
ATOM     44  C   UNL A   1      39.751  28.979  29.168  1.00  0.00     0.074 A 
ATOM     45  C   UNL A   1      38.513  29.010  28.419  1.00  0.00     0.031 C 
ATOM     46  C   UNL A   1      39.543  34.413  32.580  1.00  0.00     0.029 A 
ATOM     47  C   UNL A   1      40.581  33.389  32.593  1.00  0.00     0.049 A 
ATOM     48  H   UNL A   1      40.675  31.661  31.434  1.00  0.00     0.167 HD
ATOM     49  C   UNL A   1      40.660  27.978  29.094  1.00  0.00     0.031 A 
ATOM     50  C   UNL A   1      41.672  33.403  33.381  1.00  0.00     0.031 A 
ATOM     51  C   UNL A   1      41.898  27.951  29.828  1.00  0.00     0.049 A 
ATOM     52  C   UNL A   1      42.656  32.270  33.295  1.00  0.00     0.074 A 
ATOM     53  C   UNL A   1      42.914  27.012  29.768  1.00  0.00     0.029 A 
ATOM     54  N   UNL A   1      42.284  28.902  30.759  1.00  0.00    -0.354 N 
ATOM     55  N   UNL A   1      42.626  31.209  32.525  1.00  0.00    -0.248 NA
ATOM     56  C   UNL A   1      43.824  32.339  34.183  1.00  0.00     0.031 C 
ATOM     57  C   UNL A   1      43.893  27.368  30.703  1.00  0.00     0.029 A 
ATOM     58  C   UNL A   1      43.509  28.555  31.305  1.00  0.00     0.049 A 
ATOM     59  H   UNL A   1      41.765  29.703  30.998  1.00  0.00     0.167 HD
ATOM     60  C   UNL A   1      43.779  30.495  32.822  1.00  0.00     0.074 A 
ATOM     61  C   UNL A   1      44.495  31.253  33.827  1.00  0.00     0.031 C 
ATOM     62  C   UNL A   1      44.205  29.315  32.310  1.00  0.00     0.031 A 
BRANCH  49  63
ATOM     63  C   UNL A   1      40.346  26.821  28.187  1.00  0.00    -0.014 A 
ATOM     64  C   UNL A   1      40.832  26.778  26.871  1.00  0.00     0.009 A 
ATOM     65  C   UNL A   1      39.591  25.742  28.669  1.00  0.00     0.009 A 
ATOM     66  C   UNL A   1      40.539  25.690  26.045  1.00  0.00     0.001 A 
ATOM     67  C   UNL A   1      39.322  24.643  27.849  1.00  0.00     0.001 A 
ATOM     68  C   UNL A   1      39.788  24.623  26.536  1.00  0.00     0.000 A 
ENDBRANCH  49  63
BRANCH  50  69
ATOM     69  C   UNL A   1      41.898  34.529  34.324  1.00  0.00    -0.014 A 
ATOM     70  C   UNL A   1      41.424  34.457  35.643  1.00  0.00     0.009 A 
ATOM     71  C   UNL A   1      42.581  35.682  33.910  1.00  0.00     0.009 A 
ATOM     72  C   UNL A   1      41.607  35.529  36.519  1.00  0.00     0.001 A 
ATOM     73  C   UNL A   1      42.787  36.741  34.797  1.00  0.00     0.001 A 
ATOM     74  C   UNL A   1      42.292  36.667  36.098  1.00  0.00     0.000 A 
ENDBRANCH  50  69
BRANCH  62  75
ATOM     75  C   UNL A   1      45.515  28.782  32.817  1.00  0.00    -0.014 A 
ATOM     76  C   UNL A   1      45.567  27.904  33.909  1.00  0.00     0.009 A 
ATOM     77  C   UNL A   1      46.708  29.134  32.167  1.00  0.00     0.009 A 
ATOM     78  C   UNL A   1      46.793  27.412  34.361  1.00  0.00     0.001 A 
ATOM     79  C   UNL A   1      47.930  28.619  32.604  1.00  0.00     0.001 A 
ATOM     80  C   UNL A   1      47.972  27.766  33.705  1.00  0.00     0.000 A 
ENDBRANCH  62  75
ENDBRANCH  36  37
ENDBRANCH  28  31
ENDBRANCH  26  27
ENDBRANCH  25  26
ENDBRANCH   1  25
TORSDOF 14
ENDMDL
