MODEL 1
REMARK VINA RESULT:     -10.5      0.000      0.000
REMARK SMILES Cc1cc(OCCc2nc(CC(=O)NCCCNC(=O)c3ccc(-c4c5nc(c(-c6ccccc6)c6ccc([nH]6)c(-c6ccccc6)c6nc(c(-c7ccccc7)c7ccc4[nH]7)C=C6)C=C5)cc3)cs2)ccc1Cl
REMARK SMILES IDX 12 1 13 2 14 3 11 5 10 6 8 7 9 8 70 9 69 10 7 11 6 12 5 13
REMARK SMILES IDX 4 14 1 15 2 16 3 17 73 18 72 19 74 20 71 21 15 22 16 23
REMARK SMILES IDX 17 24 18 25 19 26 20 28 21 29 22 30 68 31 23 32 67 33 24 34
REMARK SMILES IDX 25 35 26 36 61 37 27 38 66 39 60 40 62 41 28 42 65 43 59 44
REMARK SMILES IDX 58 45 29 47 51 48 36 49 50 50 37 51 40 52 49 53 63 54 38 55
REMARK SMILES IDX 39 56 48 58 64 59 41 60 30 61 31 62 35 63 32 64 34 65 33 66
REMARK SMILES IDX 52 67 53 68 57 69 54 70 56 71 55 72 42 73 43 74 47 75 44 76
REMARK SMILES IDX 46 77 45 78
REMARK H PARENT 14 4 18 27 62 46 40 57
REMARK Flexibility Score: inf
ROOT
ATOM      1  C   UNL A   1      30.312  29.099  23.199  1.00  0.00     0.226 C 
ATOM      2  O   UNL A   1      30.330  29.579  22.051  1.00  0.00    -0.275 OA
ATOM      3  N   UNL A   1      31.248  29.673  24.034  1.00  0.00    -0.356 N 
ATOM      4  H   UNL A   1      32.016  30.010  23.517  1.00  0.00     0.163 HD
ENDROOT
BRANCH   1   5
ATOM      5  C   UNL A   1      29.318  27.929  23.461  1.00  0.00     0.157 C 
BRANCH   5   6
ATOM      6  C   UNL A   1      29.991  26.626  23.945  1.00  0.00     0.061 A 
ATOM      7  C   UNL A   1      31.070  24.644  23.636  1.00  0.00     0.096 A 
ATOM      8  N   UNL A   1      30.687  25.775  23.053  1.00  0.00    -0.246 NA
ATOM      9  S   UNL A   1      30.735  24.600  25.330  1.00  0.00    -0.127 S 
ATOM     10  C   UNL A   1      30.020  26.159  25.247  1.00  0.00     0.091 A 
BRANCH   7  11
ATOM     11  C   UNL A   1      31.857  23.489  22.997  1.00  0.00     0.109 C 
BRANCH  11  12
ATOM     12  C   UNL A   1      33.394  23.471  23.206  1.00  0.00     0.237 C 
BRANCH  12  13
ATOM     13  O   UNL A   1      33.969  22.153  23.452  1.00  0.00    -0.493 OA
BRANCH  13  14
ATOM     14  C   UNL A   1      34.832  22.194  24.512  1.00  0.00     0.119 A 
ATOM     15  C   UNL A   1      37.635  19.967  24.851  1.00  0.00     0.046 C 
ATOM     16  C   UNL A   1      36.835  21.179  25.237  1.00  0.00    -0.029 A 
ATOM     17  C   UNL A   1      35.514  21.046  24.859  1.00  0.00     0.051 A 
ATOM     18  C   UNL A   1      37.270  22.446  25.689  1.00  0.00     0.044 A 
ATOM     19  C   UNL A   1      36.413  23.548  25.652  1.00  0.00     0.024 A 
ATOM     20  Cl  UNL A   1      38.835  22.858  26.248  1.00  0.00    -0.084 Cl
ATOM     21  C   UNL A   1      35.194  23.435  25.011  1.00  0.00     0.048 A 
ENDBRANCH  13  14
ENDBRANCH  12  13
ENDBRANCH  11  12
ENDBRANCH   7  11
ENDBRANCH   5   6
ENDBRANCH   1   5
BRANCH   3  22
ATOM     22  C   UNL A   1      31.435  29.932  25.479  1.00  0.00     0.117 C 
BRANCH  22  23
ATOM     23  C   UNL A   1      31.856  28.794  26.469  1.00  0.00     0.042 C 
BRANCH  23  24
ATOM     24  C   UNL A   1      33.268  28.795  27.102  1.00  0.00     0.118 C 
BRANCH  24  25
ATOM     25  N   UNL A   1      33.587  30.147  27.605  1.00  0.00    -0.352 N 
ATOM     26  C   UNL A   1      34.628  30.717  28.277  1.00  0.00     0.251 C 
ATOM     27  H   UNL A   1      32.873  30.795  27.407  1.00  0.00     0.163 HD
ATOM     28  O   UNL A   1      34.423  31.848  28.778  1.00  0.00    -0.269 OA
BRANCH  26  29
ATOM     29  C   UNL A   1      35.984  30.141  28.430  1.00  0.00     0.039 A 
ATOM     30  C   UNL A   1      36.337  29.571  29.668  1.00  0.00     0.014 A 
ATOM     31  C   UNL A   1      36.976  30.292  27.460  1.00  0.00     0.014 A 
ATOM     32  C   UNL A   1      37.648  29.145  29.926  1.00  0.00     0.010 A 
ATOM     33  C   UNL A   1      38.280  29.824  27.703  1.00  0.00     0.010 A 
ATOM     34  C   UNL A   1      38.636  29.255  28.939  1.00  0.00    -0.014 A 
BRANCH  34  35
ATOM     35  C   UNL A   1      40.034  28.794  29.187  1.00  0.00     0.031 A 
ATOM     36  C   UNL A   1      41.051  29.712  29.817  1.00  0.00     0.074 A 
ATOM     37  C   UNL A   1      40.418  27.558  28.801  1.00  0.00     0.049 A 
ATOM     38  N   UNL A   1      42.333  29.518  30.022  1.00  0.00    -0.248 NA
ATOM     39  C   UNL A   1      40.569  31.030  30.257  1.00  0.00     0.031 C 
ATOM     40  C   UNL A   1      39.551  26.563  28.169  1.00  0.00     0.029 A 
ATOM     41  N   UNL A   1      41.641  26.934  28.874  1.00  0.00    -0.354 N 
ATOM     42  C   UNL A   1      42.813  30.696  30.584  1.00  0.00     0.074 A 
ATOM     43  C   UNL A   1      41.694  31.611  30.661  1.00  0.00     0.031 C 
ATOM     44  C   UNL A   1      40.264  25.451  27.924  1.00  0.00     0.029 A 
ATOM     45  C   UNL A   1      41.645  25.666  28.344  1.00  0.00     0.049 A 
ATOM     46  H   UNL A   1      42.438  27.356  29.269  1.00  0.00     0.167 HD
ATOM     47  C   UNL A   1      44.067  30.992  31.008  1.00  0.00     0.031 A 
ATOM     48  C   UNL A   1      42.647  24.777  28.195  1.00  0.00     0.031 A 
ATOM     49  C   UNL A   1      45.182  30.081  30.959  1.00  0.00     0.049 A 
ATOM     50  C   UNL A   1      44.031  25.131  28.664  1.00  0.00     0.074 A 
ATOM     51  C   UNL A   1      46.474  30.274  31.422  1.00  0.00     0.029 A 
ATOM     52  N   UNL A   1      45.138  28.807  30.418  1.00  0.00    -0.354 N 
ATOM     53  N   UNL A   1      44.454  26.234  29.232  1.00  0.00    -0.248 NA
ATOM     54  C   UNL A   1      45.075  24.112  28.475  1.00  0.00     0.031 C 
ATOM     55  C   UNL A   1      47.223  29.131  31.120  1.00  0.00     0.029 A 
ATOM     56  C   UNL A   1      46.385  28.210  30.513  1.00  0.00     0.049 A 
ATOM     57  H   UNL A   1      44.339  28.387  30.024  1.00  0.00     0.167 HD
ATOM     58  C   UNL A   1      45.804  26.035  29.486  1.00  0.00     0.074 A 
ATOM     59  C   UNL A   1      46.128  24.700  29.028  1.00  0.00     0.031 C 
ATOM     60  C   UNL A   1      46.697  26.885  30.048  1.00  0.00     0.031 A 
BRANCH  47  61
ATOM     61  C   UNL A   1      44.309  32.371  31.558  1.00  0.00    -0.014 A 
ATOM     62  C   UNL A   1      44.168  32.645  32.927  1.00  0.00     0.009 A 
ATOM     63  C   UNL A   1      44.726  33.402  30.699  1.00  0.00     0.009 A 
ATOM     64  C   UNL A   1      44.405  33.932  33.420  1.00  0.00     0.001 A 
ATOM     65  C   UNL A   1      44.988  34.679  31.199  1.00  0.00     0.001 A 
ATOM     66  C   UNL A   1      44.818  34.946  32.557  1.00  0.00     0.000 A 
ENDBRANCH  47  61
BRANCH  48  67
ATOM     67  C   UNL A   1      42.380  23.454  27.573  1.00  0.00    -0.014 A 
ATOM     68  C   UNL A   1      41.903  22.386  28.349  1.00  0.00     0.009 A 
ATOM     69  C   UNL A   1      42.605  23.249  26.203  1.00  0.00     0.009 A 
ATOM     70  C   UNL A   1      41.676  21.136  27.770  1.00  0.00     0.001 A 
ATOM     71  C   UNL A   1      42.352  22.005  25.621  1.00  0.00     0.001 A 
ATOM     72  C   UNL A   1      41.896  20.947  26.407  1.00  0.00     0.000 A 
ENDBRANCH  48  67
BRANCH  60  73
ATOM     73  C   UNL A   1      48.105  26.388  30.216  1.00  0.00    -0.014 A 
ATOM     74  C   UNL A   1      48.513  25.749  31.397  1.00  0.00     0.009 A 
ATOM     75  C   UNL A   1      49.026  26.532  29.166  1.00  0.00     0.009 A 
ATOM     76  C   UNL A   1      49.824  25.290  31.534  1.00  0.00     0.001 A 
ATOM     77  C   UNL A   1      50.330  26.050  29.297  1.00  0.00     0.001 A 
ATOM     78  C   UNL A   1      50.730  25.438  30.484  1.00  0.00     0.000 A 
ENDBRANCH  60  73
ENDBRANCH  34  35
ENDBRANCH  26  29
ENDBRANCH  24  25
ENDBRANCH  23  24
ENDBRANCH  22  23
ENDBRANCH   3  22
TORSDOF 15
ENDMDL
MODEL 2
REMARK VINA RESULT:     -10.4      4.943     10.617
REMARK SMILES Cc1cc(OCCc2nc(CC(=O)NCCCNC(=O)c3ccc(-c4c5nc(c(-c6ccccc6)c6ccc([nH]6)c(-c6ccccc6)c6nc(c(-c7ccccc7)c7ccc4[nH]7)C=C6)C=C5)cc3)cs2)ccc1Cl
REMARK SMILES IDX 12 1 13 2 14 3 11 5 10 6 8 7 9 8 70 9 69 10 7 11 6 12 5 13
REMARK SMILES IDX 4 14 1 15 2 16 3 17 73 18 72 19 74 20 71 21 15 22 16 23
REMARK SMILES IDX 17 24 18 25 19 26 20 28 21 29 22 30 68 31 23 32 67 33 24 34
REMARK SMILES IDX 25 35 26 36 61 37 27 38 66 39 60 40 62 41 28 42 65 43 59 44
REMARK SMILES IDX 58 45 29 47 51 48 36 49 50 50 37 51 40 52 49 53 63 54 38 55
REMARK SMILES IDX 39 56 48 58 64 59 41 60 30 61 31 62 35 63 32 64 34 65 33 66
REMARK SMILES IDX 52 67 53 68 57 69 54 70 56 71 55 72 42 73 43 74 47 75 44 76
REMARK SMILES IDX 46 77 45 78
REMARK H PARENT 14 4 18 27 62 46 40 57
REMARK Flexibility Score: inf
ROOT
ATOM      1  C   UNL A   1      44.011  22.964  24.375  1.00  0.00     0.226 C 
ATOM      2  O   UNL A   1      44.830  22.924  23.437  1.00  0.00    -0.275 OA
ATOM      3  N   UNL A   1      43.697  21.714  24.864  1.00  0.00    -0.356 N 
ATOM      4  H   UNL A   1      43.800  21.029  24.163  1.00  0.00     0.163 HD
ENDROOT
BRANCH   1   5
ATOM      5  C   UNL A   1      43.457  24.364  24.770  1.00  0.00     0.157 C 
BRANCH   5   6
ATOM      6  C   UNL A   1      44.449  25.230  25.577  1.00  0.00     0.061 A 
ATOM      7  C   UNL A   1      45.554  27.162  26.061  1.00  0.00     0.096 A 
ATOM      8  N   UNL A   1      44.551  26.627  25.372  1.00  0.00    -0.246 NA
ATOM      9  S   UNL A   1      46.346  26.035  27.103  1.00  0.00    -0.127 S 
ATOM     10  C   UNL A   1      45.303  24.780  26.567  1.00  0.00     0.091 A 
BRANCH   7  11
ATOM     11  C   UNL A   1      45.965  28.641  26.106  1.00  0.00     0.109 C 
BRANCH  11  12
ATOM     12  C   UNL A   1      45.189  29.570  27.076  1.00  0.00     0.237 C 
BRANCH  12  13
ATOM     13  O   UNL A   1      44.269  30.504  26.436  1.00  0.00    -0.493 OA
BRANCH  13  14
ATOM     14  C   UNL A   1      44.569  31.791  26.785  1.00  0.00     0.119 A 
ATOM     15  C   UNL A   1      43.129  34.655  25.155  1.00  0.00     0.046 C 
ATOM     16  C   UNL A   1      43.913  33.995  26.254  1.00  0.00    -0.029 A 
ATOM     17  C   UNL A   1      44.433  32.786  25.838  1.00  0.00     0.051 A 
ATOM     18  C   UNL A   1      43.985  34.309  27.631  1.00  0.00     0.044 A 
ATOM     19  C   UNL A   1      44.473  33.376  28.550  1.00  0.00     0.024 A 
ATOM     20  Cl  UNL A   1      43.454  35.749  28.387  1.00  0.00    -0.084 Cl
ATOM     21  C   UNL A   1      44.723  32.083  28.131  1.00  0.00     0.048 A 
ENDBRANCH  13  14
ENDBRANCH  12  13
ENDBRANCH  11  12
ENDBRANCH   7  11
ENDBRANCH   5   6
ENDBRANCH   1   5
BRANCH   3  22
ATOM     22  C   UNL A   1      43.250  21.099  26.135  1.00  0.00     0.117 C 
BRANCH  22  23
ATOM     23  C   UNL A   1      42.214  21.808  27.069  1.00  0.00     0.042 C 
BRANCH  23  24
ATOM     24  C   UNL A   1      40.851  21.140  27.369  1.00  0.00     0.118 C 
BRANCH  24  25
ATOM     25  N   UNL A   1      39.849  21.583  26.379  1.00  0.00    -0.352 N 
ATOM     26  C   UNL A   1      39.099  22.707  26.185  1.00  0.00     0.251 C 
ATOM     27  H   UNL A   1      39.681  20.901  25.689  1.00  0.00     0.163 HD
ATOM     28  O   UNL A   1      38.145  22.613  25.377  1.00  0.00    -0.269 OA
BRANCH  26  29
ATOM     29  C   UNL A   1      39.338  24.030  26.807  1.00  0.00     0.039 A 
ATOM     30  C   UNL A   1      40.082  24.986  26.090  1.00  0.00     0.014 A 
ATOM     31  C   UNL A   1      39.003  24.306  28.133  1.00  0.00     0.014 A 
ATOM     32  C   UNL A   1      40.470  26.198  26.679  1.00  0.00     0.010 A 
ATOM     33  C   UNL A   1      39.353  25.540  28.710  1.00  0.00     0.010 A 
ATOM     34  C   UNL A   1      40.097  26.496  27.996  1.00  0.00    -0.014 A 
BRANCH  34  35
ATOM     35  C   UNL A   1      40.486  27.787  28.638  1.00  0.00     0.031 A 
ATOM     36  C   UNL A   1      41.866  27.979  29.216  1.00  0.00     0.074 A 
ATOM     37  C   UNL A   1      39.583  28.784  28.753  1.00  0.00     0.049 A 
ATOM     38  N   UNL A   1      42.350  28.994  29.893  1.00  0.00    -0.248 NA
ATOM     39  C   UNL A   1      42.822  26.877  29.025  1.00  0.00     0.031 C 
ATOM     40  C   UNL A   1      38.208  28.742  28.254  1.00  0.00     0.029 A 
ATOM     41  N   UNL A   1      39.685  30.025  29.337  1.00  0.00    -0.354 N 
ATOM     42  C   UNL A   1      43.651  28.640  30.233  1.00  0.00     0.074 A 
ATOM     43  C   UNL A   1      43.873  27.306  29.715  1.00  0.00     0.031 C 
ATOM     44  C   UNL A   1      37.600  29.904  28.541  1.00  0.00     0.029 A 
ATOM     45  C   UNL A   1      38.526  30.760  29.277  1.00  0.00     0.049 A 
ATOM     46  H   UNL A   1      40.512  30.355  29.758  1.00  0.00     0.167 HD
ATOM     47  C   UNL A   1      44.585  29.359  30.906  1.00  0.00     0.031 A 
ATOM     48  C   UNL A   1      38.229  31.978  29.770  1.00  0.00     0.031 A 
ATOM     49  C   UNL A   1      44.384  30.695  31.404  1.00  0.00     0.049 A 
ATOM     50  C   UNL A   1      39.276  32.753  30.521  1.00  0.00     0.074 A 
ATOM     51  C   UNL A   1      45.292  31.523  32.044  1.00  0.00     0.029 A 
ATOM     52  N   UNL A   1      43.195  31.400  31.316  1.00  0.00    -0.354 N 
ATOM     53  N   UNL A   1      40.513  32.417  30.794  1.00  0.00    -0.248 NA
ATOM     54  C   UNL A   1      38.885  34.076  31.027  1.00  0.00     0.031 C 
ATOM     55  C   UNL A   1      44.638  32.713  32.383  1.00  0.00     0.029 A 
ATOM     56  C   UNL A   1      43.338  32.644  31.911  1.00  0.00     0.049 A 
ATOM     57  H   UNL A   1      42.370  31.068  30.894  1.00  0.00     0.167 HD
ATOM     58  C   UNL A   1      41.053  33.494  31.484  1.00  0.00     0.074 A 
ATOM     59  C   UNL A   1      40.017  34.501  31.573  1.00  0.00     0.031 C 
ATOM     60  C   UNL A   1      42.298  33.634  32.000  1.00  0.00     0.031 A 
BRANCH  47  61
ATOM     61  C   UNL A   1      45.917  28.707  31.157  1.00  0.00    -0.014 A 
ATOM     62  C   UNL A   1      46.968  28.817  30.233  1.00  0.00     0.009 A 
ATOM     63  C   UNL A   1      46.139  28.010  32.357  1.00  0.00     0.009 A 
ATOM     64  C   UNL A   1      48.202  28.211  30.488  1.00  0.00     0.001 A 
ATOM     65  C   UNL A   1      47.381  27.429  32.620  1.00  0.00     0.001 A 
ATOM     66  C   UNL A   1      48.408  27.521  31.683  1.00  0.00     0.000 A 
ENDBRANCH  47  61
BRANCH  48  67
ATOM     67  C   UNL A   1      36.872  32.552  29.567  1.00  0.00    -0.014 A 
ATOM     68  C   UNL A   1      35.884  32.405  30.552  1.00  0.00     0.009 A 
ATOM     69  C   UNL A   1      36.558  33.243  28.387  1.00  0.00     0.009 A 
ATOM     70  C   UNL A   1      34.602  32.920  30.350  1.00  0.00     0.001 A 
ATOM     71  C   UNL A   1      35.283  33.782  28.200  1.00  0.00     0.001 A 
ATOM     72  C   UNL A   1      34.303  33.613  29.177  1.00  0.00     0.000 A 
ENDBRANCH  48  67
BRANCH  60  73
ATOM     73  C   UNL A   1      42.613  34.932  32.689  1.00  0.00    -0.014 A 
ATOM     74  C   UNL A   1      42.229  35.159  34.020  1.00  0.00     0.009 A 
ATOM     75  C   UNL A   1      43.332  35.927  32.008  1.00  0.00     0.009 A 
ATOM     76  C   UNL A   1      42.533  36.369  34.645  1.00  0.00     0.001 A 
ATOM     77  C   UNL A   1      43.657  37.127  32.645  1.00  0.00     0.001 A 
ATOM     78  C   UNL A   1      43.250  37.350  33.959  1.00  0.00     0.000 A 
ENDBRANCH  60  73
ENDBRANCH  34  35
ENDBRANCH  26  29
ENDBRANCH  24  25
ENDBRANCH  23  24
ENDBRANCH  22  23
ENDBRANCH   3  22
TORSDOF 15
ENDMDL
MODEL 3
REMARK VINA RESULT:     -10.3      4.896     10.921
REMARK SMILES Cc1cc(OCCc2nc(CC(=O)NCCCNC(=O)c3ccc(-c4c5nc(c(-c6ccccc6)c6ccc([nH]6)c(-c6ccccc6)c6nc(c(-c7ccccc7)c7ccc4[nH]7)C=C6)C=C5)cc3)cs2)ccc1Cl
REMARK SMILES IDX 12 1 13 2 14 3 11 5 10 6 8 7 9 8 70 9 69 10 7 11 6 12 5 13
REMARK SMILES IDX 4 14 1 15 2 16 3 17 73 18 72 19 74 20 71 21 15 22 16 23
REMARK SMILES IDX 17 24 18 25 19 26 20 28 21 29 22 30 68 31 23 32 67 33 24 34
REMARK SMILES IDX 25 35 26 36 61 37 27 38 66 39 60 40 62 41 28 42 65 43 59 44
REMARK SMILES IDX 58 45 29 47 51 48 36 49 50 50 37 51 40 52 49 53 63 54 38 55
REMARK SMILES IDX 39 56 48 58 64 59 41 60 30 61 31 62 35 63 32 64 34 65 33 66
REMARK SMILES IDX 52 67 53 68 57 69 54 70 56 71 55 72 42 73 43 74 47 75 44 76
REMARK SMILES IDX 46 77 45 78
REMARK H PARENT 14 4 18 27 62 46 40 57
REMARK Flexibility Score: inf
ROOT
ATOM      1  C   UNL A   1      44.903  19.396  24.200  1.00  0.00     0.226 C 
ATOM      2  O   UNL A   1      45.095  18.592  23.270  1.00  0.00    -0.275 OA
ATOM      3  N   UNL A   1      43.602  19.384  24.658  1.00  0.00    -0.356 N 
ATOM      4  H   UNL A   1      42.984  19.108  23.943  1.00  0.00     0.163 HD
ENDROOT
BRANCH   1   5
ATOM      5  C   UNL A   1      46.106  20.290  24.623  1.00  0.00     0.157 C 
BRANCH   5   6
ATOM      6  C   UNL A   1      45.720  21.743  24.973  1.00  0.00     0.061 A 
ATOM      7  C   UNL A   1      45.436  23.499  26.397  1.00  0.00     0.096 A 
ATOM      8  N   UNL A   1      45.966  22.288  26.256  1.00  0.00    -0.246 NA
ATOM      9  S   UNL A   1      44.728  24.109  24.943  1.00  0.00    -0.127 S 
ATOM     10  C   UNL A   1      45.135  22.660  24.116  1.00  0.00     0.091 A 
BRANCH   7  11
ATOM     11  C   UNL A   1      45.507  24.406  27.634  1.00  0.00     0.109 C 
BRANCH  11  12
ATOM     12  C   UNL A   1      46.599  25.508  27.650  1.00  0.00     0.237 C 
BRANCH  12  13
ATOM     13  O   UNL A   1      47.833  25.146  28.339  1.00  0.00    -0.493 OA
BRANCH  13  14
ATOM     14  C   UNL A   1      48.878  25.095  27.460  1.00  0.00     0.119 A 
ATOM     15  C   UNL A   1      49.059  27.131  24.501  1.00  0.00     0.046 C 
ATOM     16  C   UNL A   1      49.646  26.193  25.517  1.00  0.00    -0.029 A 
ATOM     17  C   UNL A   1      48.660  25.459  26.147  1.00  0.00     0.051 A 
ATOM     18  C   UNL A   1      50.956  26.134  26.046  1.00  0.00     0.044 A 
ATOM     19  C   UNL A   1      51.216  25.438  27.229  1.00  0.00     0.024 A 
ATOM     20  Cl  UNL A   1      52.350  26.912  25.431  1.00  0.00    -0.084 Cl
ATOM     21  C   UNL A   1      50.157  24.952  27.973  1.00  0.00     0.048 A 
ENDBRANCH  13  14
ENDBRANCH  12  13
ENDBRANCH  11  12
ENDBRANCH   7  11
ENDBRANCH   5   6
ENDBRANCH   1   5
BRANCH   3  22
ATOM     22  C   UNL A   1      42.863  19.663  25.910  1.00  0.00     0.117 C 
BRANCH  22  23
ATOM     23  C   UNL A   1      42.291  21.086  26.225  1.00  0.00     0.042 C 
BRANCH  23  24
ATOM     24  C   UNL A   1      41.067  21.243  27.159  1.00  0.00     0.118 C 
BRANCH  24  25
ATOM     25  N   UNL A   1      39.877  21.605  26.363  1.00  0.00    -0.352 N 
ATOM     26  C   UNL A   1      39.046  22.685  26.284  1.00  0.00     0.251 C 
ATOM     27  H   UNL A   1      39.619  20.892  25.735  1.00  0.00     0.163 HD
ATOM     28  O   UNL A   1      37.964  22.520  25.673  1.00  0.00    -0.269 OA
BRANCH  26  29
ATOM     29  C   UNL A   1      39.327  24.039  26.817  1.00  0.00     0.039 A 
ATOM     30  C   UNL A   1      40.015  24.955  25.997  1.00  0.00     0.014 A 
ATOM     31  C   UNL A   1      39.090  24.385  28.148  1.00  0.00     0.014 A 
ATOM     32  C   UNL A   1      40.442  26.195  26.491  1.00  0.00     0.010 A 
ATOM     33  C   UNL A   1      39.479  25.647  28.631  1.00  0.00     0.010 A 
ATOM     34  C   UNL A   1      40.167  26.563  27.815  1.00  0.00    -0.014 A 
BRANCH  34  35
ATOM     35  C   UNL A   1      40.599  27.886  28.357  1.00  0.00     0.031 A 
ATOM     36  C   UNL A   1      42.041  28.139  28.720  1.00  0.00     0.074 A 
ATOM     37  C   UNL A   1      39.688  28.857  28.577  1.00  0.00     0.049 A 
ATOM     38  N   UNL A   1      42.583  29.189  29.290  1.00  0.00    -0.248 NA
ATOM     39  C   UNL A   1      42.997  27.062  28.420  1.00  0.00     0.031 C 
ATOM     40  C   UNL A   1      38.257  28.756  28.287  1.00  0.00     0.029 A 
ATOM     41  N   UNL A   1      39.830  30.119  29.106  1.00  0.00    -0.354 N 
ATOM     42  C   UNL A   1      43.932  28.888  29.445  1.00  0.00     0.074 A 
ATOM     43  C   UNL A   1      44.122  27.546  28.936  1.00  0.00     0.031 C 
ATOM     44  C   UNL A   1      37.656  29.907  28.629  1.00  0.00     0.029 A 
ATOM     45  C   UNL A   1      38.649  30.814  29.197  1.00  0.00     0.049 A 
ATOM     46  H   UNL A   1      40.697  30.488  29.391  1.00  0.00     0.167 HD
ATOM     47  C   UNL A   1      44.927  29.656  29.953  1.00  0.00     0.031 A 
ATOM     48  C   UNL A   1      38.384  32.038  29.695  1.00  0.00     0.031 A 
ATOM     49  C   UNL A   1      44.754  31.001  30.438  1.00  0.00     0.049 A 
ATOM     50  C   UNL A   1      39.502  32.869  30.263  1.00  0.00     0.074 A 
ATOM     51  C   UNL A   1      45.716  31.877  30.915  1.00  0.00     0.029 A 
ATOM     52  N   UNL A   1      43.540  31.666  30.508  1.00  0.00    -0.354 N 
ATOM     53  N   UNL A   1      40.777  32.581  30.359  1.00  0.00    -0.248 NA
ATOM     54  C   UNL A   1      39.142  34.195  30.785  1.00  0.00     0.031 C 
ATOM     55  C   UNL A   1      45.077  33.057  31.315  1.00  0.00     0.029 A 
ATOM     56  C   UNL A   1      43.725  32.932  31.042  1.00  0.00     0.049 A 
ATOM     57  H   UNL A   1      42.675  31.294  30.221  1.00  0.00     0.167 HD
ATOM     58  C   UNL A   1      41.373  33.696  30.933  1.00  0.00     0.074 A 
ATOM     59  C   UNL A   1      40.326  34.672  31.147  1.00  0.00     0.031 C 
ATOM     60  C   UNL A   1      42.675  33.891  31.256  1.00  0.00     0.031 A 
BRANCH  47  61
ATOM     61  C   UNL A   1      46.304  29.055  30.023  1.00  0.00    -0.014 A 
ATOM     62  C   UNL A   1      47.203  29.164  28.949  1.00  0.00     0.009 A 
ATOM     63  C   UNL A   1      46.726  28.409  31.197  1.00  0.00     0.009 A 
ATOM     64  C   UNL A   1      48.481  28.606  29.036  1.00  0.00     0.001 A 
ATOM     65  C   UNL A   1      48.013  27.876  31.290  1.00  0.00     0.001 A 
ATOM     66  C   UNL A   1      48.886  27.965  30.207  1.00  0.00     0.000 A 
ENDBRANCH  47  61
BRANCH  48  67
ATOM     67  C   UNL A   1      36.993  32.562  29.679  1.00  0.00    -0.014 A 
ATOM     68  C   UNL A   1      36.493  33.218  28.544  1.00  0.00     0.009 A 
ATOM     69  C   UNL A   1      36.160  32.413  30.799  1.00  0.00     0.009 A 
ATOM     70  C   UNL A   1      35.195  33.733  28.538  1.00  0.00     0.001 A 
ATOM     71  C   UNL A   1      34.853  32.905  30.781  1.00  0.00     0.001 A 
ATOM     72  C   UNL A   1      34.374  33.572  29.654  1.00  0.00     0.000 A 
ENDBRANCH  48  67
BRANCH  60  73
ATOM     73  C   UNL A   1      43.041  35.220  31.856  1.00  0.00    -0.014 A 
ATOM     74  C   UNL A   1      42.867  35.470  33.226  1.00  0.00     0.009 A 
ATOM     75  C   UNL A   1      43.597  36.221  31.045  1.00  0.00     0.009 A 
ATOM     76  C   UNL A   1      43.216  36.709  33.766  1.00  0.00     0.001 A 
ATOM     77  C   UNL A   1      43.968  37.451  31.593  1.00  0.00     0.001 A 
ATOM     78  C   UNL A   1      43.769  37.696  32.951  1.00  0.00     0.000 A 
ENDBRANCH  60  73
ENDBRANCH  34  35
ENDBRANCH  26  29
ENDBRANCH  24  25
ENDBRANCH  23  24
ENDBRANCH  22  23
ENDBRANCH   3  22
TORSDOF 15
ENDMDL
