MODEL 1
REMARK VINA RESULT:     -11.0      0.000      0.000
REMARK SMILES C[C@H]1CC[C@@](NC(=O)C(F)(F)F)(C(=O)NCCCNC(=O)c2ccc(-c3c4nc(c(-c5ccccc5)c5ccc([nH]5)c(-c5ccccc5)c5nc(c(-c6ccccc6)c6ccc3[nH]6)C=C5)C=C4)cc2)CC1
REMARK SMILES IDX 17 1 16 2 15 3 13 4 14 5 5 7 1 8 2 9 71 10 3 11 70 12 4 13
REMARK SMILES IDX 6 14 7 15 8 17 9 18 10 19 11 20 12 21 18 22 19 23 20 24
REMARK SMILES IDX 21 26 22 27 23 28 69 29 24 30 68 31 25 32 26 33 27 34 62 35
REMARK SMILES IDX 28 36 67 37 61 38 63 39 29 40 66 41 60 42 59 43 30 45 52 46
REMARK SMILES IDX 37 47 51 48 38 49 41 50 50 51 64 52 39 53 40 54 49 56 65 57
REMARK SMILES IDX 42 58 31 59 32 60 36 61 33 62 35 63 34 64 53 65 54 66 58 67
REMARK SMILES IDX 55 68 57 69 56 70 43 71 44 72 48 73 45 74 47 75 46 76
REMARK H PARENT 15 6 6 16 19 25 63 44 41 55
REMARK Flexibility Score: inf
ROOT
ATOM      1  C   UNL A   1      33.922  28.576  25.741  1.00  0.00     0.042 C 
ENDROOT
BRANCH   1   2
ATOM      2  C   UNL A   1      32.753  27.999  24.962  1.00  0.00     0.117 C 
BRANCH   2   3
ATOM      3  N   UNL A   1      33.213  27.366  23.739  1.00  0.00    -0.354 N 
ATOM      4  C   UNL A   1      33.290  26.061  23.371  1.00  0.00     0.245 C 
ATOM      5  O   UNL A   1      33.806  25.838  22.274  1.00  0.00    -0.272 OA
ATOM      6  H   UNL A   1      33.526  27.998  23.052  1.00  0.00     0.163 HD
BRANCH   4   7
ATOM      7  C   UNL A   1      32.834  24.925  24.331  1.00  0.00     0.119 C 
ATOM      8  C   UNL A   1      36.534  22.667  23.599  1.00  0.00     0.007 C 
ATOM      9  C   UNL A   1      35.175  23.003  24.215  1.00  0.00    -0.014 C 
ATOM     10  C   UNL A   1      34.072  22.981  23.146  1.00  0.00     0.006 C 
ATOM     11  C   UNL A   1      35.257  24.349  24.933  1.00  0.00     0.006 C 
ATOM     12  C   UNL A   1      32.727  23.561  23.615  1.00  0.00     0.039 C 
ATOM     13  C   UNL A   1      33.893  24.778  25.457  1.00  0.00     0.039 C 
BRANCH   7  14
ATOM     14  N   UNL A   1      31.537  25.266  24.979  1.00  0.00    -0.334 N 
ATOM     15  C   UNL A   1      30.802  24.647  25.964  1.00  0.00     0.326 C 
ATOM     16  H   UNL A   1      31.126  26.092  24.635  1.00  0.00     0.164 HD
ATOM     17  O   UNL A   1      29.843  25.304  26.390  1.00  0.00    -0.265 OA
BRANCH  15  18
ATOM     18  C   UNL A   1      31.061  23.189  26.427  1.00  0.00     0.471 C 
ATOM     19  F   UNL A   1      30.994  22.302  25.392  1.00  0.00    -0.162 F 
ATOM     20  F   UNL A   1      32.276  23.021  27.010  1.00  0.00    -0.162 F 
ATOM     21  F   UNL A   1      30.141  22.759  27.335  1.00  0.00    -0.162 F 
ENDBRANCH  15  18
ENDBRANCH   7  14
ENDBRANCH   4   7
ENDBRANCH   2   3
ENDBRANCH   1   2
BRANCH   1  22
ATOM     22  C   UNL A   1      33.632  28.719  27.227  1.00  0.00     0.118 C 
BRANCH  22  23
ATOM     23  N   UNL A   1      33.642  30.107  27.669  1.00  0.00    -0.352 N 
ATOM     24  C   UNL A   1      34.634  30.794  28.329  1.00  0.00     0.251 C 
ATOM     25  H   UNL A   1      32.828  30.624  27.469  1.00  0.00     0.163 HD
ATOM     26  O   UNL A   1      34.425  31.899  28.802  1.00  0.00    -0.269 OA
BRANCH  24  27
ATOM     27  C   UNL A   1      35.954  30.153  28.473  1.00  0.00     0.039 A 
ATOM     28  C   UNL A   1      36.869  30.234  27.422  1.00  0.00     0.014 A 
ATOM     29  C   UNL A   1      36.296  29.526  29.674  1.00  0.00     0.014 A 
ATOM     30  C   UNL A   1      38.161  29.742  27.606  1.00  0.00     0.010 A 
ATOM     31  C   UNL A   1      37.607  29.129  29.887  1.00  0.00     0.010 A 
ATOM     32  C   UNL A   1      38.549  29.223  28.851  1.00  0.00    -0.014 A 
BRANCH  32  33
ATOM     33  C   UNL A   1      39.932  28.749  29.097  1.00  0.00     0.031 A 
ATOM     34  C   UNL A   1      40.938  29.683  29.711  1.00  0.00     0.074 A 
ATOM     35  C   UNL A   1      40.300  27.516  28.700  1.00  0.00     0.049 A 
ATOM     36  N   UNL A   1      42.216  29.496  29.922  1.00  0.00    -0.248 NA
ATOM     37  C   UNL A   1      40.451  31.014  30.108  1.00  0.00     0.031 C 
ATOM     38  C   UNL A   1      39.429  26.535  28.049  1.00  0.00     0.029 A 
ATOM     39  N   UNL A   1      41.514  26.880  28.779  1.00  0.00    -0.354 N 
ATOM     40  C   UNL A   1      42.685  30.691  30.452  1.00  0.00     0.074 A 
ATOM     41  C   UNL A   1      41.573  31.614  30.476  1.00  0.00     0.031 C 
ATOM     42  C   UNL A   1      40.128  25.412  27.814  1.00  0.00     0.029 A 
ATOM     43  C   UNL A   1      41.504  25.610  28.257  1.00  0.00     0.049 A 
ATOM     44  H   UNL A   1      42.314  27.296  29.172  1.00  0.00     0.167 HD
ATOM     45  C   UNL A   1      43.926  30.987  30.903  1.00  0.00     0.031 A 
ATOM     46  C   UNL A   1      42.496  24.707  28.145  1.00  0.00     0.031 A 
ATOM     47  C   UNL A   1      45.025  30.062  30.899  1.00  0.00     0.049 A 
ATOM     48  C   UNL A   1      43.866  25.059  28.656  1.00  0.00     0.074 A 
ATOM     49  C   UNL A   1      46.307  30.244  31.385  1.00  0.00     0.029 A 
ATOM     50  N   UNL A   1      44.968  28.775  30.387  1.00  0.00    -0.354 N 
ATOM     51  N   UNL A   1      44.279  26.171  29.213  1.00  0.00    -0.248 NA
ATOM     52  C   UNL A   1      44.902  24.025  28.534  1.00  0.00     0.031 C 
ATOM     53  C   UNL A   1      47.040  29.081  31.127  1.00  0.00     0.029 A 
ATOM     54  C   UNL A   1      46.197  28.157  30.530  1.00  0.00     0.049 A 
ATOM     55  H   UNL A   1      44.170  28.364  29.982  1.00  0.00     0.167 HD
ATOM     56  C   UNL A   1      45.614  25.961  29.535  1.00  0.00     0.074 A 
ATOM     57  C   UNL A   1      45.935  24.610  29.125  1.00  0.00     0.031 C 
ATOM     58  C   UNL A   1      46.494  26.810  30.120  1.00  0.00     0.031 A 
BRANCH  45  59
ATOM     59  C   UNL A   1      44.152  32.373  31.441  1.00  0.00    -0.014 A 
ATOM     60  C   UNL A   1      43.955  32.665  32.801  1.00  0.00     0.009 A 
ATOM     61  C   UNL A   1      44.588  33.394  30.584  1.00  0.00     0.009 A 
ATOM     62  C   UNL A   1      44.153  33.960  33.282  1.00  0.00     0.001 A 
ATOM     63  C   UNL A   1      44.816  34.681  31.074  1.00  0.00     0.001 A 
ATOM     64  C   UNL A   1      44.588  34.966  32.420  1.00  0.00     0.000 A 
ENDBRANCH  45  59
BRANCH  46  65
ATOM     65  C   UNL A   1      42.232  23.376  27.538  1.00  0.00    -0.014 A 
ATOM     66  C   UNL A   1      41.698  22.335  28.313  1.00  0.00     0.009 A 
ATOM     67  C   UNL A   1      42.519  23.137  26.186  1.00  0.00     0.009 A 
ATOM     68  C   UNL A   1      41.488  21.072  27.753  1.00  0.00     0.001 A 
ATOM     69  C   UNL A   1      42.281  21.882  25.621  1.00  0.00     0.001 A 
ATOM     70  C   UNL A   1      41.775  20.848  26.407  1.00  0.00     0.000 A 
ENDBRANCH  46  65
BRANCH  58  71
ATOM     71  C   UNL A   1      47.876  26.287  30.388  1.00  0.00    -0.014 A 
ATOM     72  C   UNL A   1      48.878  26.333  29.406  1.00  0.00     0.009 A 
ATOM     73  C   UNL A   1      48.190  25.785  31.661  1.00  0.00     0.009 A 
ATOM     74  C   UNL A   1      50.160  25.857  29.686  1.00  0.00     0.001 A 
ATOM     75  C   UNL A   1      49.480  25.338  31.946  1.00  0.00     0.001 A 
ATOM     76  C   UNL A   1      50.462  25.365  30.955  1.00  0.00     0.000 A 
ENDBRANCH  58  71
ENDBRANCH  32  33
ENDBRANCH  24  27
ENDBRANCH  22  23
ENDBRANCH   1  22
TORSDOF 12
ENDMDL
MODEL 2
REMARK VINA RESULT:     -11.0      2.968      7.427
REMARK SMILES C[C@H]1CC[C@@](NC(=O)C(F)(F)F)(C(=O)NCCCNC(=O)c2ccc(-c3c4nc(c(-c5ccccc5)c5ccc([nH]5)c(-c5ccccc5)c5nc(c(-c6ccccc6)c6ccc3[nH]6)C=C5)C=C4)cc2)CC1
REMARK SMILES IDX 17 1 16 2 15 3 13 4 14 5 5 7 1 8 2 9 71 10 3 11 70 12 4 13
REMARK SMILES IDX 6 14 7 15 8 17 9 18 10 19 11 20 12 21 18 22 19 23 20 24
REMARK SMILES IDX 21 26 22 27 23 28 69 29 24 30 68 31 25 32 26 33 27 34 62 35
REMARK SMILES IDX 28 36 67 37 61 38 63 39 29 40 66 41 60 42 59 43 30 45 52 46
REMARK SMILES IDX 37 47 51 48 38 49 41 50 50 51 64 52 39 53 40 54 49 56 65 57
REMARK SMILES IDX 42 58 31 59 32 60 36 61 33 62 35 63 34 64 53 65 54 66 58 67
REMARK SMILES IDX 55 68 57 69 56 70 43 71 44 72 48 73 45 74 47 75 46 76
REMARK H PARENT 15 6 6 16 19 25 63 44 41 55
REMARK Flexibility Score: inf
ROOT
ATOM      1  C   UNL A   1      37.786  20.561  25.000  1.00  0.00     0.042 C 
ENDROOT
BRANCH   1   2
ATOM      2  C   UNL A   1      36.894  21.783  24.865  1.00  0.00     0.117 C 
BRANCH   2   3
ATOM      3  N   UNL A   1      36.039  21.926  26.030  1.00  0.00    -0.354 N 
ATOM      4  C   UNL A   1      34.780  21.486  26.287  1.00  0.00     0.245 C 
ATOM      5  O   UNL A   1      34.291  21.842  27.360  1.00  0.00    -0.272 OA
ATOM      6  H   UNL A   1      36.446  22.435  26.767  1.00  0.00     0.163 HD
BRANCH   4   7
ATOM      7  C   UNL A   1      33.985  20.660  25.235  1.00  0.00     0.119 C 
ATOM      8  C   UNL A   1      31.275  24.034  24.466  1.00  0.00     0.007 C 
ATOM      9  C   UNL A   1      31.888  22.642  24.307  1.00  0.00    -0.014 C 
ATOM     10  C   UNL A   1      31.690  21.811  25.584  1.00  0.00     0.006 C 
ATOM     11  C   UNL A   1      33.362  22.772  23.925  1.00  0.00     0.006 C 
ATOM     12  C   UNL A   1      32.497  20.502  25.617  1.00  0.00     0.039 C 
ATOM     13  C   UNL A   1      34.041  21.409  23.876  1.00  0.00     0.039 C 
BRANCH   7  14
ATOM     14  N   UNL A   1      34.606  19.321  25.032  1.00  0.00    -0.334 N 
ATOM     15  C   UNL A   1      34.253  18.245  24.251  1.00  0.00     0.326 C 
ATOM     16  H   UNL A   1      35.426  19.179  25.558  1.00  0.00     0.164 HD
ATOM     17  O   UNL A   1      35.101  17.343  24.190  1.00  0.00    -0.265 OA
BRANCH  15  18
ATOM     18  C   UNL A   1      32.855  18.093  23.595  1.00  0.00     0.471 C 
ATOM     19  F   UNL A   1      32.787  17.002  22.778  1.00  0.00    -0.162 F 
ATOM     20  F   UNL A   1      31.851  17.966  24.501  1.00  0.00    -0.162 F 
ATOM     21  F   UNL A   1      32.528  19.158  22.811  1.00  0.00    -0.162 F 
ENDBRANCH  15  18
ENDBRANCH   7  14
ENDBRANCH   4   7
ENDBRANCH   2   3
ENDBRANCH   1   2
BRANCH   1  22
ATOM     22  C   UNL A   1      38.931  20.770  25.980  1.00  0.00     0.118 C 
BRANCH  22  23
ATOM     23  N   UNL A   1      39.897  19.679  25.953  1.00  0.00    -0.352 N 
ATOM     24  C   UNL A   1      41.260  19.731  26.126  1.00  0.00     0.251 C 
ATOM     25  H   UNL A   1      39.523  18.783  25.788  1.00  0.00     0.163 HD
ATOM     26  O   UNL A   1      41.961  18.761  25.889  1.00  0.00    -0.269 OA
BRANCH  24  27
ATOM     27  C   UNL A   1      41.860  20.998  26.584  1.00  0.00     0.039 A 
ATOM     28  C   UNL A   1      42.251  21.947  25.639  1.00  0.00     0.014 A 
ATOM     29  C   UNL A   1      41.977  21.259  27.951  1.00  0.00     0.014 A 
ATOM     30  C   UNL A   1      42.698  23.195  26.072  1.00  0.00     0.010 A 
ATOM     31  C   UNL A   1      42.327  22.532  28.376  1.00  0.00     0.010 A 
ATOM     32  C   UNL A   1      42.701  23.509  27.441  1.00  0.00    -0.014 A 
BRANCH  32  33
ATOM     33  C   UNL A   1      43.111  24.846  27.929  1.00  0.00     0.031 A 
ATOM     34  C   UNL A   1      42.063  25.886  28.212  1.00  0.00     0.074 A 
ATOM     35  C   UNL A   1      44.419  25.148  28.043  1.00  0.00     0.049 A 
ATOM     36  N   UNL A   1      42.216  27.140  28.555  1.00  0.00    -0.248 NA
ATOM     37  C   UNL A   1      40.659  25.473  28.055  1.00  0.00     0.031 C 
ATOM     38  C   UNL A   1      45.531  24.240  27.752  1.00  0.00     0.029 A 
ATOM     39  N   UNL A   1      45.034  26.313  28.427  1.00  0.00    -0.354 N 
ATOM     40  C   UNL A   1      40.932  27.665  28.630  1.00  0.00     0.074 A 
ATOM     41  C   UNL A   1      40.018  26.617  28.241  1.00  0.00     0.031 C 
ATOM     42  C   UNL A   1      46.691  24.873  27.994  1.00  0.00     0.029 A 
ATOM     43  C   UNL A   1      46.406  26.240  28.416  1.00  0.00     0.049 A 
ATOM     44  H   UNL A   1      44.539  27.123  28.685  1.00  0.00     0.167 HD
ATOM     45  C   UNL A   1      40.546  28.905  29.014  1.00  0.00     0.031 A 
ATOM     46  C   UNL A   1      47.329  27.174  28.708  1.00  0.00     0.031 A 
ATOM     47  C   UNL A   1      41.455  29.939  29.422  1.00  0.00     0.049 A 
ATOM     48  C   UNL A   1      46.875  28.543  29.135  1.00  0.00     0.074 A 
ATOM     49  C   UNL A   1      41.164  31.211  29.882  1.00  0.00     0.029 A 
ATOM     50  N   UNL A   1      42.836  29.818  29.423  1.00  0.00    -0.354 N 
ATOM     51  N   UNL A   1      45.655  29.006  29.262  1.00  0.00    -0.248 NA
ATOM     52  C   UNL A   1      47.926  29.514  29.470  1.00  0.00     0.031 C 
ATOM     53  C   UNL A   1      42.371  31.875  30.121  1.00  0.00     0.029 A 
ATOM     54  C   UNL A   1      43.412  30.997  29.860  1.00  0.00     0.049 A 
ATOM     55  H   UNL A   1      43.332  29.012  29.152  1.00  0.00     0.167 HD
ATOM     56  C   UNL A   1      45.791  30.310  29.721  1.00  0.00     0.074 A 
ATOM     57  C   UNL A   1      47.211  30.559  29.863  1.00  0.00     0.031 C 
ATOM     58  C   UNL A   1      44.827  31.221  30.000  1.00  0.00     0.031 A 
BRANCH  45  59
ATOM     59  C   UNL A   1      39.072  29.200  29.010  1.00  0.00    -0.014 A 
ATOM     60  C   UNL A   1      38.301  29.065  30.177  1.00  0.00     0.009 A 
ATOM     61  C   UNL A   1      38.449  29.639  27.832  1.00  0.00     0.009 A 
ATOM     62  C   UNL A   1      36.931  29.327  30.154  1.00  0.00     0.001 A 
ATOM     63  C   UNL A   1      37.084  29.930  27.819  1.00  0.00     0.001 A 
ATOM     64  C   UNL A   1      36.324  29.764  28.977  1.00  0.00     0.000 A 
ENDBRANCH  45  59
BRANCH  46  65
ATOM     65  C   UNL A   1      48.777  26.847  28.625  1.00  0.00    -0.014 A 
ATOM     66  C   UNL A   1      49.487  27.061  27.434  1.00  0.00     0.009 A 
ATOM     67  C   UNL A   1      49.453  26.311  29.731  1.00  0.00     0.009 A 
ATOM     68  C   UNL A   1      50.837  26.715  27.343  1.00  0.00     0.001 A 
ATOM     69  C   UNL A   1      50.811  25.993  29.646  1.00  0.00     0.001 A 
ATOM     70  C   UNL A   1      51.499  26.186  28.450  1.00  0.00     0.000 A 
ENDBRANCH  46  65
BRANCH  58  71
ATOM     71  C   UNL A   1      45.274  32.554  30.527  1.00  0.00    -0.014 A 
ATOM     72  C   UNL A   1      45.527  33.633  29.666  1.00  0.00     0.009 A 
ATOM     73  C   UNL A   1      45.396  32.743  31.913  1.00  0.00     0.009 A 
ATOM     74  C   UNL A   1      45.925  34.867  30.182  1.00  0.00     0.001 A 
ATOM     75  C   UNL A   1      45.764  33.986  32.427  1.00  0.00     0.001 A 
ATOM     76  C   UNL A   1      46.038  35.045  31.561  1.00  0.00     0.000 A 
ENDBRANCH  58  71
ENDBRANCH  32  33
ENDBRANCH  24  27
ENDBRANCH  22  23
ENDBRANCH   1  22
TORSDOF 12
ENDMDL
MODEL 3
REMARK VINA RESULT:     -11.0      2.854      7.555
REMARK SMILES C[C@H]1CC[C@@](NC(=O)C(F)(F)F)(C(=O)NCCCNC(=O)c2ccc(-c3c4nc(c(-c5ccccc5)c5ccc([nH]5)c(-c5ccccc5)c5nc(c(-c6ccccc6)c6ccc3[nH]6)C=C5)C=C4)cc2)CC1
REMARK SMILES IDX 17 1 16 2 15 3 13 4 14 5 5 7 1 8 2 9 71 10 3 11 70 12 4 13
REMARK SMILES IDX 6 14 7 15 8 17 9 18 10 19 11 20 12 21 18 22 19 23 20 24
REMARK SMILES IDX 21 26 22 27 23 28 69 29 24 30 68 31 25 32 26 33 27 34 62 35
REMARK SMILES IDX 28 36 67 37 61 38 63 39 29 40 66 41 60 42 59 43 30 45 52 46
REMARK SMILES IDX 37 47 51 48 38 49 41 50 50 51 64 52 39 53 40 54 49 56 65 57
REMARK SMILES IDX 42 58 31 59 32 60 36 61 33 62 35 63 34 64 53 65 54 66 58 67
REMARK SMILES IDX 55 68 57 69 56 70 43 71 44 72 48 73 45 74 47 75 46 76
REMARK H PARENT 15 6 6 16 19 25 63 44 41 55
REMARK Flexibility Score: inf
ROOT
ATOM      1  C   UNL A   1      37.847  20.213  24.997  1.00  0.00     0.042 C 
ENDROOT
BRANCH   1   2
ATOM      2  C   UNL A   1      37.027  21.458  24.706  1.00  0.00     0.117 C 
BRANCH   2   3
ATOM      3  N   UNL A   1      36.218  21.821  25.856  1.00  0.00    -0.354 N 
ATOM      4  C   UNL A   1      34.929  21.538  26.179  1.00  0.00     0.245 C 
ATOM      5  O   UNL A   1      34.502  22.064  27.208  1.00  0.00    -0.272 OA
ATOM      6  H   UNL A   1      36.689  22.371  26.521  1.00  0.00     0.163 HD
BRANCH   4   7
ATOM      7  C   UNL A   1      34.035  20.674  25.244  1.00  0.00     0.119 C 
ATOM      8  C   UNL A   1      31.326  24.060  24.520  1.00  0.00     0.007 C 
ATOM      9  C   UNL A   1      31.901  22.649  24.387  1.00  0.00    -0.014 C 
ATOM     10  C   UNL A   1      31.797  21.891  25.719  1.00  0.00     0.006 C 
ATOM     11  C   UNL A   1      33.339  22.727  23.877  1.00  0.00     0.006 C 
ATOM     12  C   UNL A   1      32.582  20.569  25.756  1.00  0.00     0.039 C 
ATOM     13  C   UNL A   1      33.989  21.350  23.846  1.00  0.00     0.039 C 
BRANCH   7  14
ATOM     14  N   UNL A   1      34.613  19.314  25.063  1.00  0.00    -0.334 N 
ATOM     15  C   UNL A   1      34.218  18.231  24.311  1.00  0.00     0.326 C 
ATOM     16  H   UNL A   1      35.435  19.159  25.583  1.00  0.00     0.164 HD
ATOM     17  O   UNL A   1      35.039  17.304  24.260  1.00  0.00    -0.265 OA
BRANCH  15  18
ATOM     18  C   UNL A   1      32.809  18.107  23.675  1.00  0.00     0.471 C 
ATOM     19  F   UNL A   1      32.708  17.018  22.859  1.00  0.00    -0.162 F 
ATOM     20  F   UNL A   1      31.815  18.000  24.595  1.00  0.00    -0.162 F 
ATOM     21  F   UNL A   1      32.492  19.178  22.895  1.00  0.00    -0.162 F 
ENDBRANCH  15  18
ENDBRANCH   7  14
ENDBRANCH   4   7
ENDBRANCH   2   3
ENDBRANCH   1   2
BRANCH   1  22
ATOM     22  C   UNL A   1      38.953  20.457  26.012  1.00  0.00     0.118 C 
BRANCH  22  23
ATOM     23  N   UNL A   1      40.027  19.477  25.917  1.00  0.00    -0.352 N 
ATOM     24  C   UNL A   1      41.380  19.665  26.072  1.00  0.00     0.251 C 
ATOM     25  H   UNL A   1      39.747  18.556  25.713  1.00  0.00     0.163 HD
ATOM     26  O   UNL A   1      42.175  18.787  25.777  1.00  0.00    -0.269 OA
BRANCH  24  27
ATOM     27  C   UNL A   1      41.854  20.964  26.584  1.00  0.00     0.039 A 
ATOM     28  C   UNL A   1      42.256  21.947  25.677  1.00  0.00     0.014 A 
ATOM     29  C   UNL A   1      41.841  21.219  27.957  1.00  0.00     0.014 A 
ATOM     30  C   UNL A   1      42.580  23.218  26.151  1.00  0.00     0.010 A 
ATOM     31  C   UNL A   1      42.067  22.509  28.414  1.00  0.00     0.010 A 
ATOM     32  C   UNL A   1      42.449  23.517  27.517  1.00  0.00    -0.014 A 
BRANCH  32  33
ATOM     33  C   UNL A   1      42.727  24.875  28.043  1.00  0.00     0.031 A 
ATOM     34  C   UNL A   1      44.122  25.232  28.475  1.00  0.00     0.074 A 
ATOM     35  C   UNL A   1      41.718  25.752  28.204  1.00  0.00     0.049 A 
ATOM     36  N   UNL A   1      44.554  26.327  29.046  1.00  0.00    -0.248 NA
ATOM     37  C   UNL A   1      45.162  24.210  28.270  1.00  0.00     0.031 C 
ATOM     38  C   UNL A   1      40.313  25.507  27.868  1.00  0.00     0.029 A 
ATOM     39  N   UNL A   1      41.721  27.031  28.703  1.00  0.00    -0.354 N 
ATOM     40  C   UNL A   1      45.905  26.114  29.287  1.00  0.00     0.074 A 
ATOM     41  C   UNL A   1      46.209  24.769  28.858  1.00  0.00     0.031 C 
ATOM     42  C   UNL A   1      39.596  26.609  28.144  1.00  0.00     0.029 A 
ATOM     43  C   UNL A   1      40.479  27.619  28.715  1.00  0.00     0.049 A 
ATOM     44  H   UNL A   1      42.534  27.482  29.023  1.00  0.00     0.167 HD
ATOM     45  C   UNL A   1      46.820  26.972  29.798  1.00  0.00     0.031 A 
ATOM     46  C   UNL A   1      40.097  28.837  29.142  1.00  0.00     0.031 A 
ATOM     47  C   UNL A   1      46.521  28.317  30.204  1.00  0.00     0.049 A 
ATOM     48  C   UNL A   1      41.132  29.773  29.703  1.00  0.00     0.074 A 
ATOM     49  C   UNL A   1      47.385  29.285  30.682  1.00  0.00     0.029 A 
ATOM     50  N   UNL A   1      45.257  28.885  30.175  1.00  0.00    -0.354 N 
ATOM     51  N   UNL A   1      42.418  29.580  29.866  1.00  0.00    -0.248 NA
ATOM     52  C   UNL A   1      40.663  31.099  30.127  1.00  0.00     0.031 C 
ATOM     53  C   UNL A   1      46.636  30.427  30.983  1.00  0.00     0.029 A 
ATOM     54  C   UNL A   1      45.315  30.186  30.641  1.00  0.00     0.049 A 
ATOM     55  H   UNL A   1      44.440  28.429  29.867  1.00  0.00     0.167 HD
ATOM     56  C   UNL A   1      42.917  30.769  30.383  1.00  0.00     0.074 A 
ATOM     57  C   UNL A   1      41.798  31.680  30.492  1.00  0.00     0.031 C 
ATOM     58  C   UNL A   1      44.189  31.078  30.736  1.00  0.00     0.031 A 
BRANCH  45  59
ATOM     59  C   UNL A   1      48.230  26.472  29.940  1.00  0.00    -0.014 A 
ATOM     60  C   UNL A   1      49.168  26.641  28.908  1.00  0.00     0.009 A 
ATOM     61  C   UNL A   1      48.633  25.844  31.128  1.00  0.00     0.009 A 
ATOM     62  C   UNL A   1      50.470  26.157  29.049  1.00  0.00     0.001 A 
ATOM     63  C   UNL A   1      49.945  25.388  31.278  1.00  0.00     0.001 A 
ATOM     64  C   UNL A   1      50.859  25.535  30.235  1.00  0.00     0.000 A 
ENDBRANCH  45  59
BRANCH  46  65
ATOM     65  C   UNL A   1      38.674  29.252  29.043  1.00  0.00    -0.014 A 
ATOM     66  C   UNL A   1      37.804  29.076  30.131  1.00  0.00     0.009 A 
ATOM     67  C   UNL A   1      38.174  29.816  27.860  1.00  0.00     0.009 A 
ATOM     68  C   UNL A   1      36.457  29.427  30.024  1.00  0.00     0.001 A 
ATOM     69  C   UNL A   1      36.832  30.194  27.766  1.00  0.00     0.001 A 
ATOM     70  C   UNL A   1      35.973  29.990  28.843  1.00  0.00     0.000 A 
ENDBRANCH  46  65
BRANCH  58  71
ATOM     71  C   UNL A   1      44.443  32.472  31.231  1.00  0.00    -0.014 A 
ATOM     72  C   UNL A   1      44.720  33.524  30.343  1.00  0.00     0.009 A 
ATOM     73  C   UNL A   1      44.356  32.745  32.605  1.00  0.00     0.009 A 
ATOM     74  C   UNL A   1      44.936  34.815  30.826  1.00  0.00     0.001 A 
ATOM     75  C   UNL A   1      44.542  34.043  33.082  1.00  0.00     0.001 A 
ATOM     76  C   UNL A   1      44.841  35.075  32.193  1.00  0.00     0.000 A 
ENDBRANCH  58  71
ENDBRANCH  32  33
ENDBRANCH  24  27
ENDBRANCH  22  23
ENDBRANCH   1  22
TORSDOF 12
ENDMDL
