MODEL 1
REMARK VINA RESULT:     -10.9      0.000      0.000
REMARK SMILES C[C@]([NH2+]Cc1nc(-c2ccsc2)no1)(C(=O)NCCCNC(=O)c1ccc(-c2c3nc(c(-c4ccccc4)c4ccc([nH]4)c(-c4ccccc4)c4nc(c(-c5ccccc5)c5ccc2[nH]5)C=C4)C=C3)cc1)C(F)(F)F
REMARK SMILES IDX 18 1 17 2 15 3 16 4 2 6 1 7 72 8 73 9 74 10 75 11 3 12 4 15
REMARK SMILES IDX 5 16 6 17 14 18 7 19 13 20 8 21 9 22 12 23 10 24 11 25 19 26
REMARK SMILES IDX 20 27 21 28 22 29 23 31 24 32 25 33 71 34 26 35 70 36 27 37
REMARK SMILES IDX 28 38 29 39 64 40 30 41 69 42 63 43 65 44 31 45 68 46 62 47
REMARK SMILES IDX 61 48 32 50 54 51 39 52 53 53 40 54 43 55 52 56 66 57 41 58
REMARK SMILES IDX 42 59 51 61 67 62 44 63 33 64 34 65 38 66 35 67 37 68 36 69
REMARK SMILES IDX 55 70 56 71 60 72 57 73 59 74 58 75 45 76 46 77 50 78 47 79
REMARK SMILES IDX 49 80 48 81
REMARK H PARENT 17 5 3 13 3 14 21 30 65 49 43 60
REMARK Flexibility Score: inf
ROOT
ATOM      1  C   UNL A   1      31.437  29.841  25.504  1.00  0.00     0.118 C 
ENDROOT
BRANCH   1   2
ATOM      2  N   UNL A   1      32.407  29.688  24.431  1.00  0.00    -0.350 N 
ATOM      3  C   UNL A   1      33.090  28.614  23.923  1.00  0.00     0.290 C 
ATOM      4  O   UNL A   1      33.827  28.871  22.969  1.00  0.00    -0.267 OA
ATOM      5  H   UNL A   1      32.616  30.534  23.972  1.00  0.00     0.163 HD
BRANCH   3   6
ATOM      6  C   UNL A   1      32.935  27.187  24.511  1.00  0.00     0.268 C 
ATOM      7  C   UNL A   1      33.676  26.179  23.610  1.00  0.00     0.101 C 
BRANCH   6   8
ATOM      8  C   UNL A   1      33.691  27.209  25.877  1.00  0.00     0.453 C 
ATOM      9  F   UNL A   1      32.865  27.209  26.946  1.00  0.00    -0.164 F 
ATOM     10  F   UNL A   1      34.465  26.092  25.993  1.00  0.00    -0.164 F 
ATOM     11  F   UNL A   1      34.538  28.257  25.986  1.00  0.00    -0.164 F 
ENDBRANCH   6   8
BRANCH   6  12
ATOM     12  N   UNL A   1      31.467  26.920  24.647  1.00  0.00    -0.318 N 
ATOM     13  H   UNL A   1      31.025  27.785  24.957  1.00  0.00     0.347 HD
ATOM     14  H   UNL A   1      31.399  26.143  25.304  1.00  0.00     0.347 HD
BRANCH  12  15
ATOM     15  C   UNL A   1      30.761  26.469  23.446  1.00  0.00     0.363 C 
BRANCH  15  16
ATOM     16  C   UNL A   1      29.760  27.504  23.044  1.00  0.00     0.282 A 
ATOM     17  N   UNL A   1      29.952  28.646  22.414  1.00  0.00    -0.186 NA
ATOM     18  O   UNL A   1      28.473  27.315  23.453  1.00  0.00    -0.333 OA
ATOM     19  C   UNL A   1      28.709  29.222  22.503  1.00  0.00     0.203 A 
ATOM     20  N   UNL A   1      27.774  28.468  23.096  1.00  0.00    -0.057 NA
BRANCH  19  21
ATOM     21  C   UNL A   1      28.483  30.592  22.042  1.00  0.00     0.033 A 
ATOM     22  C   UNL A   1      28.721  31.742  22.854  1.00  0.00     0.024 A 
ATOM     23  C   UNL A   1      28.006  30.935  20.793  1.00  0.00     0.077 A 
ATOM     24  C   UNL A   1      28.423  32.914  22.191  1.00  0.00     0.065 A 
ATOM     25  S   UNL A   1      27.841  32.629  20.607  1.00  0.00    -0.152 S 
ENDBRANCH  19  21
ENDBRANCH  15  16
ENDBRANCH  12  15
ENDBRANCH   6  12
ENDBRANCH   3   6
ENDBRANCH   1   2
BRANCH   1  26
ATOM     26  C   UNL A   1      31.313  31.283  25.986  1.00  0.00     0.042 C 
BRANCH  26  27
ATOM     27  C   UNL A   1      32.359  31.701  27.013  1.00  0.00     0.118 C 
BRANCH  27  28
ATOM     28  N   UNL A   1      32.248  33.102  27.388  1.00  0.00    -0.352 N 
ATOM     29  C   UNL A   1      33.036  33.880  28.195  1.00  0.00     0.251 C 
ATOM     30  H   UNL A   1      31.477  33.570  26.994  1.00  0.00     0.163 HD
ATOM     31  O   UNL A   1      32.630  34.997  28.518  1.00  0.00    -0.269 OA
BRANCH  29  32
ATOM     32  C   UNL A   1      34.349  33.411  28.693  1.00  0.00     0.039 A 
ATOM     33  C   UNL A   1      35.492  33.715  27.944  1.00  0.00     0.014 A 
ATOM     34  C   UNL A   1      34.466  32.615  29.835  1.00  0.00     0.014 A 
ATOM     35  C   UNL A   1      36.744  33.253  28.357  1.00  0.00     0.010 A 
ATOM     36  C   UNL A   1      35.724  32.222  30.291  1.00  0.00     0.010 A 
ATOM     37  C   UNL A   1      36.873  32.516  29.544  1.00  0.00    -0.014 A 
BRANCH  37  38
ATOM     38  C   UNL A   1      38.197  32.009  29.984  1.00  0.00     0.031 A 
ATOM     39  C   UNL A   1      38.719  30.696  29.462  1.00  0.00     0.074 A 
ATOM     40  C   UNL A   1      38.921  32.710  30.878  1.00  0.00     0.049 A 
ATOM     41  N   UNL A   1      39.848  30.090  29.733  1.00  0.00    -0.248 NA
ATOM     42  C   UNL A   1      37.850  29.957  28.532  1.00  0.00     0.031 C 
ATOM     43  C   UNL A   1      38.511  33.972  31.499  1.00  0.00     0.029 A 
ATOM     44  N   UNL A   1      40.157  32.458  31.417  1.00  0.00    -0.354 N 
ATOM     45  C   UNL A   1      39.812  28.892  29.030  1.00  0.00     0.074 A 
ATOM     46  C   UNL A   1      38.533  28.837  28.356  1.00  0.00     0.031 C 
ATOM     47  C   UNL A   1      39.495  34.401  32.307  1.00  0.00     0.029 A 
ATOM     48  C   UNL A   1      40.588  33.435  32.282  1.00  0.00     0.049 A 
ATOM     49  H   UNL A   1      40.683  31.655  31.205  1.00  0.00     0.167 HD
ATOM     50  C   UNL A   1      40.761  27.931  28.935  1.00  0.00     0.031 A 
ATOM     51  C   UNL A   1      41.742  33.546  32.965  1.00  0.00     0.031 A 
ATOM     52  C   UNL A   1      42.044  27.991  29.582  1.00  0.00     0.049 A 
ATOM     53  C   UNL A   1      42.799  32.491  32.808  1.00  0.00     0.074 A 
ATOM     54  C   UNL A   1      43.093  27.091  29.507  1.00  0.00     0.029 A 
ATOM     55  N   UNL A   1      42.456  29.017  30.417  1.00  0.00    -0.354 N 
ATOM     56  N   UNL A   1      42.772  31.395  32.090  1.00  0.00    -0.248 NA
ATOM     57  C   UNL A   1      44.056  32.703  33.541  1.00  0.00     0.031 C 
ATOM     58  C   UNL A   1      44.131  27.560  30.320  1.00  0.00     0.029 A 
ATOM     59  C   UNL A   1      43.742  28.771  30.868  1.00  0.00     0.049 A 
ATOM     60  H   UNL A   1      41.914  29.804  30.656  1.00  0.00     0.167 HD
ATOM     61  C   UNL A   1      44.017  30.802  32.260  1.00  0.00     0.074 A 
ATOM     62  C   UNL A   1      44.778  31.668  33.137  1.00  0.00     0.031 C 
ATOM     63  C   UNL A   1      44.487  29.646  31.734  1.00  0.00     0.031 A 
BRANCH  50  64
ATOM     64  C   UNL A   1      40.438  26.728  28.095  1.00  0.00    -0.014 A 
ATOM     65  C   UNL A   1      40.932  26.605  26.786  1.00  0.00     0.009 A 
ATOM     66  C   UNL A   1      39.648  25.697  28.624  1.00  0.00     0.009 A 
ATOM     67  C   UNL A   1      40.606  25.491  26.009  1.00  0.00     0.001 A 
ATOM     68  C   UNL A   1      39.345  24.571  27.854  1.00  0.00     0.001 A 
ATOM     69  C   UNL A   1      39.815  24.475  26.544  1.00  0.00     0.000 A 
ENDBRANCH  50  64
BRANCH  51  70
ATOM     70  C   UNL A   1      41.981  34.732  33.826  1.00  0.00    -0.014 A 
ATOM     71  C   UNL A   1      42.621  35.867  33.305  1.00  0.00     0.009 A 
ATOM     72  C   UNL A   1      41.574  34.735  35.169  1.00  0.00     0.009 A 
ATOM     73  C   UNL A   1      42.875  36.972  34.120  1.00  0.00     0.001 A 
ATOM     74  C   UNL A   1      41.808  35.852  35.974  1.00  0.00     0.001 A 
ATOM     75  C   UNL A   1      42.465  36.965  35.452  1.00  0.00     0.000 A 
ENDBRANCH  51  70
BRANCH  63  76
ATOM     76  C   UNL A   1      45.905  29.275  32.060  1.00  0.00    -0.014 A 
ATOM     77  C   UNL A   1      46.214  28.488  33.180  1.00  0.00     0.009 A 
ATOM     78  C   UNL A   1      46.943  29.705  31.219  1.00  0.00     0.009 A 
ATOM     79  C   UNL A   1      47.542  28.170  33.472  1.00  0.00     0.001 A 
ATOM     80  C   UNL A   1      48.267  29.364  31.500  1.00  0.00     0.001 A 
ATOM     81  C   UNL A   1      48.566  28.607  32.632  1.00  0.00     0.000 A 
ENDBRANCH  63  76
ENDBRANCH  37  38
ENDBRANCH  29  32
ENDBRANCH  27  28
ENDBRANCH  26  27
ENDBRANCH   1  26
TORSDOF 15
ENDMDL
MODEL 2
REMARK VINA RESULT:     -10.7      1.028      6.000
REMARK SMILES C[C@]([NH2+]Cc1nc(-c2ccsc2)no1)(C(=O)NCCCNC(=O)c1ccc(-c2c3nc(c(-c4ccccc4)c4ccc([nH]4)c(-c4ccccc4)c4nc(c(-c5ccccc5)c5ccc2[nH]5)C=C4)C=C3)cc1)C(F)(F)F
REMARK SMILES IDX 18 1 17 2 15 3 16 4 2 6 1 7 72 8 73 9 74 10 75 11 3 12 4 15
REMARK SMILES IDX 5 16 6 17 14 18 7 19 13 20 8 21 9 22 12 23 10 24 11 25 19 26
REMARK SMILES IDX 20 27 21 28 22 29 23 31 24 32 25 33 71 34 26 35 70 36 27 37
REMARK SMILES IDX 28 38 29 39 64 40 30 41 69 42 63 43 65 44 31 45 68 46 62 47
REMARK SMILES IDX 61 48 32 50 54 51 39 52 53 53 40 54 43 55 52 56 66 57 41 58
REMARK SMILES IDX 42 59 51 61 67 62 44 63 33 64 34 65 38 66 35 67 37 68 36 69
REMARK SMILES IDX 55 70 56 71 60 72 57 73 59 74 58 75 45 76 46 77 50 78 47 79
REMARK SMILES IDX 49 80 48 81
REMARK H PARENT 17 5 3 13 3 14 21 30 65 49 43 60
REMARK Flexibility Score: inf
ROOT
ATOM      1  C   UNL A   1      31.308  29.767  25.387  1.00  0.00     0.118 C 
ENDROOT
BRANCH   1   2
ATOM      2  N   UNL A   1      32.351  29.634  24.382  1.00  0.00    -0.350 N 
ATOM      3  C   UNL A   1      33.076  28.570  23.911  1.00  0.00     0.290 C 
ATOM      4  O   UNL A   1      33.876  28.844  23.014  1.00  0.00    -0.267 OA
ATOM      5  H   UNL A   1      32.584  30.486  23.948  1.00  0.00     0.163 HD
BRANCH   3   6
ATOM      6  C   UNL A   1      32.893  27.136  24.472  1.00  0.00     0.268 C 
ATOM      7  C   UNL A   1      33.619  26.131  23.555  1.00  0.00     0.101 C 
BRANCH   6   8
ATOM      8  C   UNL A   1      33.643  27.118  25.842  1.00  0.00     0.453 C 
ATOM      9  F   UNL A   1      34.417  28.207  26.042  1.00  0.00    -0.164 F 
ATOM     10  F   UNL A   1      32.738  27.100  26.862  1.00  0.00    -0.164 F 
ATOM     11  F   UNL A   1      34.403  26.011  26.003  1.00  0.00    -0.164 F 
ENDBRANCH   6   8
BRANCH   6  12
ATOM     12  N   UNL A   1      31.419  26.894  24.598  1.00  0.00    -0.318 N 
ATOM     13  H   UNL A   1      30.992  27.759  24.928  1.00  0.00     0.347 HD
ATOM     14  H   UNL A   1      31.335  26.102  25.236  1.00  0.00     0.347 HD
BRANCH  12  15
ATOM     15  C   UNL A   1      30.708  26.485  23.385  1.00  0.00     0.363 C 
BRANCH  15  16
ATOM     16  C   UNL A   1      29.716  27.540  23.015  1.00  0.00     0.282 A 
ATOM     17  N   UNL A   1      29.910  28.675  22.372  1.00  0.00    -0.186 NA
ATOM     18  O   UNL A   1      28.442  27.381  23.473  1.00  0.00    -0.333 OA
ATOM     19  C   UNL A   1      28.683  29.278  22.504  1.00  0.00     0.203 A 
ATOM     20  N   UNL A   1      27.755  28.548  23.136  1.00  0.00    -0.057 NA
BRANCH  19  21
ATOM     21  C   UNL A   1      28.470  30.651  22.045  1.00  0.00     0.033 A 
ATOM     22  C   UNL A   1      28.675  31.795  22.874  1.00  0.00     0.024 A 
ATOM     23  C   UNL A   1      28.039  31.001  20.782  1.00  0.00     0.077 A 
ATOM     24  C   UNL A   1      28.397  32.972  22.209  1.00  0.00     0.065 A 
ATOM     25  S   UNL A   1      27.875  32.696  20.602  1.00  0.00    -0.152 S 
ENDBRANCH  19  21
ENDBRANCH  15  16
ENDBRANCH  12  15
ENDBRANCH   6  12
ENDBRANCH   3   6
ENDBRANCH   1   2
BRANCH   1  26
ATOM     26  C   UNL A   1      31.166  31.196  25.903  1.00  0.00     0.042 C 
BRANCH  26  27
ATOM     27  C   UNL A   1      32.153  31.576  27.000  1.00  0.00     0.118 C 
BRANCH  27  28
ATOM     28  N   UNL A   1      32.180  33.007  27.258  1.00  0.00    -0.352 N 
ATOM     29  C   UNL A   1      33.053  33.770  27.988  1.00  0.00     0.251 C 
ATOM     30  H   UNL A   1      31.448  33.512  26.837  1.00  0.00     0.163 HD
ATOM     31  O   UNL A   1      32.759  34.944  28.222  1.00  0.00    -0.269 OA
BRANCH  29  32
ATOM     32  C   UNL A   1      34.326  33.223  28.507  1.00  0.00     0.039 A 
ATOM     33  C   UNL A   1      34.278  32.333  29.586  1.00  0.00     0.014 A 
ATOM     34  C   UNL A   1      35.566  33.628  28.005  1.00  0.00     0.014 A 
ATOM     35  C   UNL A   1      35.460  31.829  30.134  1.00  0.00     0.010 A 
ATOM     36  C   UNL A   1      36.742  33.063  28.498  1.00  0.00     0.010 A 
ATOM     37  C   UNL A   1      36.702  32.177  29.583  1.00  0.00    -0.014 A 
BRANCH  37  38
ATOM     38  C   UNL A   1      37.965  31.658  30.166  1.00  0.00     0.031 A 
ATOM     39  C   UNL A   1      38.566  32.312  31.382  1.00  0.00     0.074 A 
ATOM     40  C   UNL A   1      38.593  30.616  29.587  1.00  0.00     0.049 A 
ATOM     41  N   UNL A   1      39.661  32.004  32.030  1.00  0.00    -0.248 NA
ATOM     42  C   UNL A   1      37.856  33.481  31.928  1.00  0.00     0.031 C 
ATOM     43  C   UNL A   1      38.145  29.920  28.378  1.00  0.00     0.029 A 
ATOM     44  N   UNL A   1      39.744  29.960  29.942  1.00  0.00    -0.354 N 
ATOM     45  C   UNL A   1      39.784  32.952  33.039  1.00  0.00     0.074 A 
ATOM     46  C   UNL A   1      38.676  33.871  32.891  1.00  0.00     0.031 C 
ATOM     47  C   UNL A   1      38.993  28.913  28.113  1.00  0.00     0.029 A 
ATOM     48  C   UNL A   1      40.055  28.909  29.115  1.00  0.00     0.049 A 
ATOM     49  H   UNL A   1      40.295  30.219  30.715  1.00  0.00     0.167 HD
ATOM     50  C   UNL A   1      40.720  33.042  34.013  1.00  0.00     0.031 A 
ATOM     51  C   UNL A   1      41.073  28.031  29.166  1.00  0.00     0.031 A 
ATOM     52  C   UNL A   1      41.808  32.118  34.182  1.00  0.00     0.049 A 
ATOM     53  C   UNL A   1      42.073  28.123  30.283  1.00  0.00     0.074 A 
ATOM     54  C   UNL A   1      42.779  32.097  35.167  1.00  0.00     0.029 A 
ATOM     55  N   UNL A   1      42.063  31.044  33.345  1.00  0.00    -0.354 N 
ATOM     56  N   UNL A   1      42.138  28.989  31.265  1.00  0.00    -0.248 NA
ATOM     57  C   UNL A   1      43.128  27.099  30.310  1.00  0.00     0.031 C 
ATOM     58  C   UNL A   1      43.639  31.023  34.912  1.00  0.00     0.029 A 
ATOM     59  C   UNL A   1      43.179  30.354  33.789  1.00  0.00     0.049 A 
ATOM     60  H   UNL A   1      41.531  30.807  32.551  1.00  0.00     0.167 HD
ATOM     61  C   UNL A   1      43.221  28.598  32.043  1.00  0.00     0.074 A 
ATOM     62  C   UNL A   1      43.773  27.409  31.425  1.00  0.00     0.031 C 
ATOM     63  C   UNL A   1      43.711  29.170  33.168  1.00  0.00     0.031 A 
BRANCH  50  64
ATOM     64  C   UNL A   1      40.599  34.189  34.976  1.00  0.00    -0.014 A 
ATOM     65  C   UNL A   1      39.842  34.072  36.153  1.00  0.00     0.009 A 
ATOM     66  C   UNL A   1      41.264  35.396  34.713  1.00  0.00     0.009 A 
ATOM     67  C   UNL A   1      39.722  35.154  37.028  1.00  0.00     0.001 A 
ATOM     68  C   UNL A   1      41.163  36.468  35.603  1.00  0.00     0.001 A 
ATOM     69  C   UNL A   1      40.384  36.349  36.753  1.00  0.00     0.000 A 
ENDBRANCH  50  64
BRANCH  51  70
ATOM     70  C   UNL A   1      41.172  26.951  28.152  1.00  0.00    -0.014 A 
ATOM     71  C   UNL A   1      41.881  27.163  26.960  1.00  0.00     0.009 A 
ATOM     72  C   UNL A   1      40.558  25.708  28.368  1.00  0.00     0.009 A 
ATOM     73  C   UNL A   1      41.951  26.160  25.991  1.00  0.00     0.001 A 
ATOM     74  C   UNL A   1      40.650  24.700  27.407  1.00  0.00     0.001 A 
ATOM     75  C   UNL A   1      41.338  24.929  26.217  1.00  0.00     0.000 A 
ENDBRANCH  51  70
BRANCH  63  76
ATOM     76  C   UNL A   1      44.877  28.492  33.827  1.00  0.00    -0.014 A 
ATOM     77  C   UNL A   1      46.198  28.843  33.512  1.00  0.00     0.009 A 
ATOM     78  C   UNL A   1      44.645  27.499  34.792  1.00  0.00     0.009 A 
ATOM     79  C   UNL A   1      47.267  28.186  34.126  1.00  0.00     0.001 A 
ATOM     80  C   UNL A   1      45.715  26.862  35.422  1.00  0.00     0.001 A 
ATOM     81  C   UNL A   1      47.024  27.198  35.080  1.00  0.00     0.000 A 
ENDBRANCH  63  76
ENDBRANCH  37  38
ENDBRANCH  29  32
ENDBRANCH  27  28
ENDBRANCH  26  27
ENDBRANCH   1  26
TORSDOF 15
ENDMDL
MODEL 3
REMARK VINA RESULT:     -10.7      5.214      9.496
REMARK SMILES C[C@]([NH2+]Cc1nc(-c2ccsc2)no1)(C(=O)NCCCNC(=O)c1ccc(-c2c3nc(c(-c4ccccc4)c4ccc([nH]4)c(-c4ccccc4)c4nc(c(-c5ccccc5)c5ccc2[nH]5)C=C4)C=C3)cc1)C(F)(F)F
REMARK SMILES IDX 18 1 17 2 15 3 16 4 2 6 1 7 72 8 73 9 74 10 75 11 3 12 4 15
REMARK SMILES IDX 5 16 6 17 14 18 7 19 13 20 8 21 9 22 12 23 10 24 11 25 19 26
REMARK SMILES IDX 20 27 21 28 22 29 23 31 24 32 25 33 71 34 26 35 70 36 27 37
REMARK SMILES IDX 28 38 29 39 64 40 30 41 69 42 63 43 65 44 31 45 68 46 62 47
REMARK SMILES IDX 61 48 32 50 54 51 39 52 53 53 40 54 43 55 52 56 66 57 41 58
REMARK SMILES IDX 42 59 51 61 67 62 44 63 33 64 34 65 38 66 35 67 37 68 36 69
REMARK SMILES IDX 55 70 56 71 60 72 57 73 59 74 58 75 45 76 46 77 50 78 47 79
REMARK SMILES IDX 49 80 48 81
REMARK H PARENT 17 5 3 13 3 14 21 30 65 49 43 60
REMARK Flexibility Score: inf
ROOT
ATOM      1  C   UNL A   1      36.073  20.495  24.755  1.00  0.00     0.118 C 
ENDROOT
BRANCH   1   2
ATOM      2  N   UNL A   1      35.450  20.816  26.029  1.00  0.00    -0.350 N 
ATOM      3  C   UNL A   1      34.682  21.864  26.466  1.00  0.00     0.290 C 
ATOM      4  O   UNL A   1      34.303  21.778  27.636  1.00  0.00    -0.267 OA
ATOM      5  H   UNL A   1      35.614  20.139  26.724  1.00  0.00     0.163 HD
BRANCH   3   6
ATOM      6  C   UNL A   1      34.321  23.060  25.546  1.00  0.00     0.268 C 
ATOM      7  C   UNL A   1      33.204  23.894  26.205  1.00  0.00     0.101 C 
BRANCH   6   8
ATOM      8  C   UNL A   1      35.594  23.963  25.508  1.00  0.00     0.453 C 
ATOM      9  F   UNL A   1      36.459  23.712  26.514  1.00  0.00    -0.164 F 
ATOM     10  F   UNL A   1      36.281  23.742  24.350  1.00  0.00    -0.164 F 
ATOM     11  F   UNL A   1      35.296  25.282  25.513  1.00  0.00    -0.164 F 
ENDBRANCH   6   8
BRANCH   6  12
ATOM     12  N   UNL A   1      33.953  22.495  24.208  1.00  0.00    -0.318 N 
ATOM     13  H   UNL A   1      34.515  21.656  24.063  1.00  0.00     0.347 HD
ATOM     14  H   UNL A   1      34.128  23.249  23.544  1.00  0.00     0.347 HD
BRANCH  12  15
ATOM     15  C   UNL A   1      32.550  22.127  24.006  1.00  0.00     0.363 C 
BRANCH  15  16
ATOM     16  C   UNL A   1      32.443  20.642  23.872  1.00  0.00     0.282 A 
ATOM     17  N   UNL A   1      32.703  19.705  24.762  1.00  0.00    -0.186 NA
ATOM     18  O   UNL A   1      32.124  20.153  22.640  1.00  0.00    -0.333 OA
ATOM     19  C   UNL A   1      32.599  18.567  24.002  1.00  0.00     0.203 A 
ATOM     20  N   UNL A   1      32.235  18.764  22.728  1.00  0.00    -0.057 NA
BRANCH  19  21
ATOM     21  C   UNL A   1      32.944  17.259  24.560  1.00  0.00     0.033 A 
ATOM     22  C   UNL A   1      34.251  16.691  24.474  1.00  0.00     0.024 A 
ATOM     23  C   UNL A   1      32.062  16.423  25.213  1.00  0.00     0.077 A 
ATOM     24  C   UNL A   1      34.315  15.448  25.069  1.00  0.00     0.065 A 
ATOM     25  S   UNL A   1      32.804  14.962  25.710  1.00  0.00    -0.152 S 
ENDBRANCH  19  21
ENDBRANCH  15  16
ENDBRANCH  12  15
ENDBRANCH   6  12
ENDBRANCH   3   6
ENDBRANCH   1   2
BRANCH   1  26
ATOM     26  C   UNL A   1      37.303  19.606  24.907  1.00  0.00     0.042 C 
BRANCH  26  27
ATOM     27  C   UNL A   1      38.557  20.333  25.378  1.00  0.00     0.118 C 
BRANCH  27  28
ATOM     28  N   UNL A   1      39.673  19.431  25.615  1.00  0.00    -0.352 N 
ATOM     29  C   UNL A   1      40.948  19.676  26.052  1.00  0.00     0.251 C 
ATOM     30  H   UNL A   1      39.478  18.483  25.431  1.00  0.00     0.163 HD
ATOM     31  O   UNL A   1      41.779  18.768  25.991  1.00  0.00    -0.269 OA
BRANCH  29  32
ATOM     32  C   UNL A   1      41.353  20.998  26.582  1.00  0.00     0.039 A 
ATOM     33  C   UNL A   1      41.161  21.256  27.944  1.00  0.00     0.014 A 
ATOM     34  C   UNL A   1      41.841  22.010  25.752  1.00  0.00     0.014 A 
ATOM     35  C   UNL A   1      41.489  22.506  28.473  1.00  0.00     0.010 A 
ATOM     36  C   UNL A   1      42.243  23.230  26.294  1.00  0.00     0.010 A 
ATOM     37  C   UNL A   1      42.049  23.499  27.656  1.00  0.00    -0.014 A 
BRANCH  37  38
ATOM     38  C   UNL A   1      42.387  24.836  28.207  1.00  0.00     0.031 A 
ATOM     39  C   UNL A   1      43.807  25.163  28.587  1.00  0.00     0.074 A 
ATOM     40  C   UNL A   1      41.415  25.749  28.396  1.00  0.00     0.049 A 
ATOM     41  N   UNL A   1      44.294  26.272  29.086  1.00  0.00    -0.248 NA
ATOM     42  C   UNL A   1      44.807  24.098  28.407  1.00  0.00     0.031 C 
ATOM     43  C   UNL A   1      39.993  25.545  28.113  1.00  0.00     0.029 A 
ATOM     44  N   UNL A   1      41.481  27.035  28.869  1.00  0.00    -0.354 N 
ATOM     45  C   UNL A   1      45.645  26.029  29.301  1.00  0.00     0.074 A 
ATOM     46  C   UNL A   1      45.893  24.655  28.920  1.00  0.00     0.031 C 
ATOM     47  C   UNL A   1      39.325  26.679  28.386  1.00  0.00     0.029 A 
ATOM     48  C   UNL A   1      40.267  27.677  28.885  1.00  0.00     0.049 A 
ATOM     49  H   UNL A   1      42.318  27.457  29.168  1.00  0.00     0.167 HD
ATOM     50  C   UNL A   1      46.601  26.874  29.755  1.00  0.00     0.031 A 
ATOM     51  C   UNL A   1      39.950  28.933  29.248  1.00  0.00     0.031 A 
ATOM     52  C   UNL A   1      46.368  28.247  30.111  1.00  0.00     0.049 A 
ATOM     53  C   UNL A   1      41.034  29.867  29.705  1.00  0.00     0.074 A 
ATOM     54  C   UNL A   1      47.280  29.198  30.534  1.00  0.00     0.029 A 
ATOM     55  N   UNL A   1      45.129  28.869  30.075  1.00  0.00    -0.354 N 
ATOM     56  N   UNL A   1      42.317  29.638  29.843  1.00  0.00    -0.248 NA
ATOM     57  C   UNL A   1      40.626  31.241  30.033  1.00  0.00     0.031 C 
ATOM     58  C   UNL A   1      46.589  30.389  30.780  1.00  0.00     0.029 A 
ATOM     59  C   UNL A   1      45.253  30.190  30.472  1.00  0.00     0.049 A 
ATOM     60  H   UNL A   1      44.287  28.435  29.809  1.00  0.00     0.167 HD
ATOM     61  C   UNL A   1      42.875  30.845  30.246  1.00  0.00     0.074 A 
ATOM     62  C   UNL A   1      41.792  31.805  30.315  1.00  0.00     0.031 C 
ATOM     63  C   UNL A   1      44.168  31.133  30.529  1.00  0.00     0.031 A 
BRANCH  50  64
ATOM     64  C   UNL A   1      47.993  26.326  29.890  1.00  0.00    -0.014 A 
ATOM     65  C   UNL A   1      48.437  25.763  31.098  1.00  0.00     0.009 A 
ATOM     66  C   UNL A   1      48.865  26.354  28.792  1.00  0.00     0.009 A 
ATOM     67  C   UNL A   1      49.740  25.276  31.215  1.00  0.00     0.001 A 
ATOM     68  C   UNL A   1      50.160  25.841  28.904  1.00  0.00     0.001 A 
ATOM     69  C   UNL A   1      50.599  25.314  30.118  1.00  0.00     0.000 A 
ENDBRANCH  50  64
BRANCH  51  70
ATOM     70  C   UNL A   1      38.544  29.401  29.146  1.00  0.00    -0.014 A 
ATOM     71  C   UNL A   1      38.040  29.863  27.921  1.00  0.00     0.009 A 
ATOM     72  C   UNL A   1      37.704  29.392  30.269  1.00  0.00     0.009 A 
ATOM     73  C   UNL A   1      36.728  30.333  27.828  1.00  0.00     0.001 A 
ATOM     74  C   UNL A   1      36.385  29.839  30.167  1.00  0.00     0.001 A 
ATOM     75  C   UNL A   1      35.901  30.317  28.950  1.00  0.00     0.000 A 
ENDBRANCH  51  70
BRANCH  63  76
ATOM     76  C   UNL A   1      44.486  32.553  30.897  1.00  0.00    -0.014 A 
ATOM     77  C   UNL A   1      44.558  32.960  32.238  1.00  0.00     0.009 A 
ATOM     78  C   UNL A   1      44.737  33.491  29.884  1.00  0.00     0.009 A 
ATOM     79  C   UNL A   1      44.839  34.290  32.557  1.00  0.00     0.001 A 
ATOM     80  C   UNL A   1      45.043  34.814  30.206  1.00  0.00     0.001 A 
ATOM     81  C   UNL A   1      45.082  35.214  31.541  1.00  0.00     0.000 A 
ENDBRANCH  63  76
ENDBRANCH  37  38
ENDBRANCH  29  32
ENDBRANCH  27  28
ENDBRANCH  26  27
ENDBRANCH   1  26
TORSDOF 15
ENDMDL
