MODEL 1
REMARK VINA RESULT:     -11.7      0.000      0.000
REMARK SMILES C[C@H](c1ccc(C(=O)NCCCNC(=O)c2ccc(-c3c4nc(c(-c5ccccc5)c5ccc([nH]5)c(-c5ccccc5)c5nc(c(-c6ccccc6)c6ccc3[nH]6)C=C5)C=C4)cc2)o1)[NH+]1Cc2ccccc2C1
REMARK SMILES IDX 11 1 10 2 9 3 7 4 8 5 6 7 3 8 4 9 64 10 5 11 2 12 1 13 65 14
REMARK SMILES IDX 66 15 73 16 67 18 72 19 68 20 71 21 69 22 70 23 12 24 13 25
REMARK SMILES IDX 14 26 15 28 16 29 17 30 63 31 18 32 62 33 19 34 20 35 21 36
REMARK SMILES IDX 56 37 22 38 61 39 55 40 57 41 23 42 60 43 54 44 53 45 24 47
REMARK SMILES IDX 46 48 31 49 45 50 32 51 35 52 44 53 58 54 33 55 34 56 43 58
REMARK SMILES IDX 59 59 36 60 25 61 26 62 30 63 27 64 29 65 28 66 47 67 48 68
REMARK SMILES IDX 52 69 49 70 51 71 50 72 37 73 38 74 42 75 39 76 41 77 40 78
REMARK H PARENT 9 6 65 17 13 27 57 46 35 57
REMARK Flexibility Score: inf
ROOT
ATOM      1  C   UNL A   1      37.497  19.378  24.888  1.00  0.00     0.042 C 
ENDROOT
BRANCH   1   2
ATOM      2  C   UNL A   1      36.186  20.161  24.879  1.00  0.00     0.118 C 
BRANCH   2   3
ATOM      3  N   UNL A   1      35.020  19.329  25.117  1.00  0.00    -0.349 N 
ATOM      4  C   UNL A   1      33.721  19.521  24.687  1.00  0.00     0.287 C 
ATOM      5  O   UNL A   1      32.969  18.548  24.747  1.00  0.00    -0.266 OA
ATOM      6  H   UNL A   1      35.176  18.521  25.658  1.00  0.00     0.163 HD
BRANCH   4   7
ATOM      7  C   UNL A   1      33.304  20.829  24.224  1.00  0.00     0.191 A 
ATOM      8  C   UNL A   1      33.255  23.040  24.255  1.00  0.00     0.162 A 
ATOM      9  C   UNL A   1      32.567  22.640  23.126  1.00  0.00     0.053 A 
ATOM     10  O   UNL A   1      33.739  21.941  24.907  1.00  0.00    -0.450 OA
ATOM     11  C   UNL A   1      32.560  21.234  23.132  1.00  0.00     0.057 A 
BRANCH   8  12
ATOM     12  C   UNL A   1      33.605  24.412  24.796  1.00  0.00     0.248 C 
ATOM     13  C   UNL A   1      35.132  24.421  25.051  1.00  0.00     0.084 C 
BRANCH  12  14
ATOM     14  N   UNL A   1      32.984  25.548  24.027  1.00  0.00    -0.319 N 
ATOM     15  C   UNL A   1      33.732  26.827  24.125  1.00  0.00     0.300 C 
ATOM     16  C   UNL A   1      31.633  25.945  24.553  1.00  0.00     0.300 C 
ATOM     17  H   UNL A   1      32.966  25.170  23.080  1.00  0.00     0.349 HD
ATOM     18  C   UNL A   1      33.238  27.443  25.389  1.00  0.00     0.015 A 
ATOM     19  C   UNL A   1      31.927  26.998  25.587  1.00  0.00     0.015 A 
ATOM     20  C   UNL A   1      33.880  28.246  26.310  1.00  0.00     0.010 A 
ATOM     21  C   UNL A   1      31.172  27.463  26.647  1.00  0.00     0.010 A 
ATOM     22  C   UNL A   1      33.155  28.655  27.428  1.00  0.00     0.001 A 
ATOM     23  C   UNL A   1      31.802  28.300  27.574  1.00  0.00     0.001 A 
ENDBRANCH  12  14
ENDBRANCH   8  12
ENDBRANCH   4   7
ENDBRANCH   2   3
ENDBRANCH   1   2
BRANCH   1  24
ATOM     24  C   UNL A   1      38.678  20.121  25.504  1.00  0.00     0.118 C 
BRANCH  24  25
ATOM     25  N   UNL A   1      39.846  19.270  25.671  1.00  0.00    -0.352 N 
ATOM     26  C   UNL A   1      41.131  19.569  26.041  1.00  0.00     0.251 C 
ATOM     27  H   UNL A   1      39.685  18.316  25.488  1.00  0.00     0.163 HD
ATOM     28  O   UNL A   1      41.992  18.699  25.936  1.00  0.00    -0.269 OA
BRANCH  26  29
ATOM     29  C   UNL A   1      41.511  20.908  26.555  1.00  0.00     0.039 A 
ATOM     30  C   UNL A   1      41.323  21.166  27.917  1.00  0.00     0.014 A 
ATOM     31  C   UNL A   1      41.967  21.930  25.718  1.00  0.00     0.014 A 
ATOM     32  C   UNL A   1      41.616  22.428  28.441  1.00  0.00     0.010 A 
ATOM     33  C   UNL A   1      42.332  23.166  26.254  1.00  0.00     0.010 A 
ATOM     34  C   UNL A   1      42.142  23.434  27.617  1.00  0.00    -0.014 A 
BRANCH  34  35
ATOM     35  C   UNL A   1      42.476  24.770  28.174  1.00  0.00     0.031 A 
ATOM     36  C   UNL A   1      43.893  25.111  28.553  1.00  0.00     0.074 A 
ATOM     37  C   UNL A   1      41.496  25.677  28.359  1.00  0.00     0.049 A 
ATOM     38  N   UNL A   1      44.373  26.231  29.035  1.00  0.00    -0.248 NA
ATOM     39  C   UNL A   1      44.899  24.050  28.390  1.00  0.00     0.031 C 
ATOM     40  C   UNL A   1      40.077  25.458  28.073  1.00  0.00     0.029 A 
ATOM     41  N   UNL A   1      41.547  26.965  28.826  1.00  0.00    -0.354 N 
ATOM     42  C   UNL A   1      45.727  26.004  29.245  1.00  0.00     0.074 A 
ATOM     43  C   UNL A   1      45.985  24.626  28.887  1.00  0.00     0.031 C 
ATOM     44  C   UNL A   1      39.398  26.587  28.334  1.00  0.00     0.029 A 
ATOM     45  C   UNL A   1      40.326  27.594  28.836  1.00  0.00     0.049 A 
ATOM     46  H   UNL A   1      42.378  27.398  29.127  1.00  0.00     0.167 HD
ATOM     47  C   UNL A   1      46.679  26.867  29.677  1.00  0.00     0.031 A 
ATOM     48  C   UNL A   1      39.990  28.847  29.199  1.00  0.00     0.031 A 
ATOM     49  C   UNL A   1      46.427  28.241  30.026  1.00  0.00     0.049 A 
ATOM     50  C   UNL A   1      41.065  29.788  29.664  1.00  0.00     0.074 A 
ATOM     51  C   UNL A   1      47.331  29.209  30.429  1.00  0.00     0.029 A 
ATOM     52  N   UNL A   1      45.178  28.841  30.012  1.00  0.00    -0.354 N 
ATOM     53  N   UNL A   1      42.352  29.577  29.794  1.00  0.00    -0.248 NA
ATOM     54  C   UNL A   1      40.638  31.151  30.013  1.00  0.00     0.031 C 
ATOM     55  C   UNL A   1      46.621  30.384  30.701  1.00  0.00     0.029 A 
ATOM     56  C   UNL A   1      45.283  30.162  30.413  1.00  0.00     0.049 A 
ATOM     57  H   UNL A   1      44.339  28.395  29.753  1.00  0.00     0.167 HD
ATOM     58  C   UNL A   1      42.894  30.786  30.209  1.00  0.00     0.074 A 
ATOM     59  C   UNL A   1      41.798  31.730  30.291  1.00  0.00     0.031 C 
ATOM     60  C   UNL A   1      44.184  31.089  30.494  1.00  0.00     0.031 A 
BRANCH  47  61
ATOM     61  C   UNL A   1      48.083  26.343  29.803  1.00  0.00    -0.014 A 
ATOM     62  C   UNL A   1      48.999  26.453  28.743  1.00  0.00     0.009 A 
ATOM     63  C   UNL A   1      48.508  25.759  31.006  1.00  0.00     0.009 A 
ATOM     64  C   UNL A   1      50.296  25.953  28.873  1.00  0.00     0.001 A 
ATOM     65  C   UNL A   1      49.815  25.286  31.143  1.00  0.00     0.001 A 
ATOM     66  C   UNL A   1      50.705  25.374  30.074  1.00  0.00     0.000 A 
ENDBRANCH  47  61
BRANCH  48  67
ATOM     67  C   UNL A   1      38.578  29.295  29.103  1.00  0.00    -0.014 A 
ATOM     68  C   UNL A   1      38.067  29.784  27.890  1.00  0.00     0.009 A 
ATOM     69  C   UNL A   1      37.732  29.240  30.221  1.00  0.00     0.009 A 
ATOM     70  C   UNL A   1      36.748  30.235  27.807  1.00  0.00     0.001 A 
ATOM     71  C   UNL A   1      36.404  29.664  30.127  1.00  0.00     0.001 A 
ATOM     72  C   UNL A   1      35.917  30.170  28.924  1.00  0.00     0.000 A 
ENDBRANCH  48  67
BRANCH  60  73
ATOM     73  C   UNL A   1      44.481  32.510  30.881  1.00  0.00    -0.014 A 
ATOM     74  C   UNL A   1      44.459  32.923  32.223  1.00  0.00     0.009 A 
ATOM     75  C   UNL A   1      44.800  33.447  29.886  1.00  0.00     0.009 A 
ATOM     76  C   UNL A   1      44.705  34.258  32.554  1.00  0.00     0.001 A 
ATOM     77  C   UNL A   1      45.077  34.772  30.224  1.00  0.00     0.001 A 
ATOM     78  C   UNL A   1      45.017  35.179  31.555  1.00  0.00     0.000 A 
ENDBRANCH  60  73
ENDBRANCH  34  35
ENDBRANCH  26  29
ENDBRANCH  24  25
ENDBRANCH   1  24
TORSDOF 12
ENDMDL
MODEL 2
REMARK VINA RESULT:     -11.7      2.479      7.796
REMARK SMILES C[C@H](c1ccc(C(=O)NCCCNC(=O)c2ccc(-c3c4nc(c(-c5ccccc5)c5ccc([nH]5)c(-c5ccccc5)c5nc(c(-c6ccccc6)c6ccc3[nH]6)C=C5)C=C4)cc2)o1)[NH+]1Cc2ccccc2C1
REMARK SMILES IDX 11 1 10 2 9 3 7 4 8 5 6 7 3 8 4 9 64 10 5 11 2 12 1 13 65 14
REMARK SMILES IDX 66 15 73 16 67 18 72 19 68 20 71 21 69 22 70 23 12 24 13 25
REMARK SMILES IDX 14 26 15 28 16 29 17 30 63 31 18 32 62 33 19 34 20 35 21 36
REMARK SMILES IDX 56 37 22 38 61 39 55 40 57 41 23 42 60 43 54 44 53 45 24 47
REMARK SMILES IDX 46 48 31 49 45 50 32 51 35 52 44 53 58 54 33 55 34 56 43 58
REMARK SMILES IDX 59 59 36 60 25 61 26 62 30 63 27 64 29 65 28 66 47 67 48 68
REMARK SMILES IDX 52 69 49 70 51 71 50 72 37 73 38 74 42 75 39 76 41 77 40 78
REMARK H PARENT 9 6 65 17 13 27 57 46 35 57
REMARK Flexibility Score: inf
ROOT
ATOM      1  C   UNL A   1      33.337  27.654  26.557  1.00  0.00     0.042 C 
ENDROOT
BRANCH   1   2
ATOM      2  C   UNL A   1      31.839  27.748  26.837  1.00  0.00     0.118 C 
BRANCH   2   3
ATOM      3  N   UNL A   1      31.025  27.623  25.642  1.00  0.00    -0.349 N 
ATOM      4  C   UNL A   1      30.446  26.488  25.107  1.00  0.00     0.287 C 
ATOM      5  O   UNL A   1      29.559  26.660  24.271  1.00  0.00    -0.266 OA
ATOM      6  H   UNL A   1      30.864  28.459  25.146  1.00  0.00     0.163 HD
BRANCH   4   7
ATOM      7  C   UNL A   1      30.915  25.181  25.520  1.00  0.00     0.191 A 
ATOM      8  C   UNL A   1      32.329  23.480  25.551  1.00  0.00     0.162 A 
ATOM      9  C   UNL A   1      31.368  23.219  26.509  1.00  0.00     0.053 A 
ATOM     10  O   UNL A   1      32.079  24.692  24.972  1.00  0.00    -0.450 OA
ATOM     11  C   UNL A   1      30.446  24.279  26.456  1.00  0.00     0.057 A 
BRANCH   8  12
ATOM     12  C   UNL A   1      33.576  22.726  25.134  1.00  0.00     0.248 C 
ATOM     13  C   UNL A   1      33.128  21.298  24.737  1.00  0.00     0.084 C 
BRANCH  12  14
ATOM     14  N   UNL A   1      34.474  23.498  24.202  1.00  0.00    -0.319 N 
ATOM     15  C   UNL A   1      35.428  22.652  23.441  1.00  0.00     0.300 C 
ATOM     16  C   UNL A   1      35.404  24.432  24.923  1.00  0.00     0.300 C 
ATOM     17  H   UNL A   1      33.794  23.968  23.605  1.00  0.00     0.349 HD
ATOM     18  C   UNL A   1      36.580  22.475  24.369  1.00  0.00     0.015 A 
ATOM     19  C   UNL A   1      36.634  23.606  25.190  1.00  0.00     0.015 A 
ATOM     20  C   UNL A   1      37.447  21.414  24.534  1.00  0.00     0.010 A 
ATOM     21  C   UNL A   1      37.652  23.767  26.109  1.00  0.00     0.010 A 
ATOM     22  C   UNL A   1      38.429  21.529  25.517  1.00  0.00     0.001 A 
ATOM     23  C   UNL A   1      38.555  22.711  26.269  1.00  0.00     0.001 A 
ENDBRANCH  12  14
ENDBRANCH   8  12
ENDBRANCH   4   7
ENDBRANCH   2   3
ENDBRANCH   1   2
BRANCH   1  24
ATOM     24  C   UNL A   1      33.931  28.868  25.852  1.00  0.00     0.118 C 
BRANCH  24  25
ATOM     25  N   UNL A   1      33.714  30.104  26.588  1.00  0.00    -0.352 N 
ATOM     26  C   UNL A   1      34.432  30.686  27.600  1.00  0.00     0.251 C 
ATOM     27  H   UNL A   1      32.914  30.607  26.313  1.00  0.00     0.163 HD
ATOM     28  O   UNL A   1      33.944  31.648  28.190  1.00  0.00    -0.269 OA
BRANCH  26  29
ATOM     29  C   UNL A   1      35.768  30.188  28.005  1.00  0.00     0.039 A 
ATOM     30  C   UNL A   1      35.901  29.624  29.278  1.00  0.00     0.014 A 
ATOM     31  C   UNL A   1      36.900  30.337  27.198  1.00  0.00     0.014 A 
ATOM     32  C   UNL A   1      37.150  29.187  29.728  1.00  0.00     0.010 A 
ATOM     33  C   UNL A   1      38.132  29.832  27.617  1.00  0.00     0.010 A 
ATOM     34  C   UNL A   1      38.274  29.270  28.893  1.00  0.00    -0.014 A 
BRANCH  34  35
ATOM     35  C   UNL A   1      39.599  28.786  29.359  1.00  0.00     0.031 A 
ATOM     36  C   UNL A   1      40.412  29.596  30.333  1.00  0.00     0.074 A 
ATOM     37  C   UNL A   1      40.084  27.620  28.887  1.00  0.00     0.049 A 
ATOM     38  N   UNL A   1      41.578  29.323  30.864  1.00  0.00    -0.248 NA
ATOM     39  C   UNL A   1      39.853  30.892  30.752  1.00  0.00     0.031 C 
ATOM     40  C   UNL A   1      39.416  26.761  27.908  1.00  0.00     0.029 A 
ATOM     41  N   UNL A   1      41.249  26.956  29.174  1.00  0.00    -0.354 N 
ATOM     42  C   UNL A   1      41.897  30.415  31.662  1.00  0.00     0.074 A 
ATOM     43  C   UNL A   1      40.827  31.376  31.509  1.00  0.00     0.031 C 
ATOM     44  C   UNL A   1      40.164  25.664  27.705  1.00  0.00     0.029 A 
ATOM     45  C   UNL A   1      41.376  25.759  28.512  1.00  0.00     0.049 A 
ATOM     46  H   UNL A   1      41.930  27.303  29.794  1.00  0.00     0.167 HD
ATOM     47  C   UNL A   1      42.972  30.596  32.468  1.00  0.00     0.031 A 
ATOM     48  C   UNL A   1      42.353  24.834  28.555  1.00  0.00     0.031 A 
ATOM     49  C   UNL A   1      44.034  29.637  32.629  1.00  0.00     0.049 A 
ATOM     50  C   UNL A   1      43.529  25.053  29.464  1.00  0.00     0.074 A 
ATOM     51  C   UNL A   1      45.141  29.706  33.456  1.00  0.00     0.029 A 
ATOM     52  N   UNL A   1      44.118  28.433  31.947  1.00  0.00    -0.354 N 
ATOM     53  N   UNL A   1      43.782  26.061  30.263  1.00  0.00    -0.248 NA
ATOM     54  C   UNL A   1      44.545  23.991  29.492  1.00  0.00     0.031 C 
ATOM     55  C   UNL A   1      45.919  28.563  33.242  1.00  0.00     0.029 A 
ATOM     56  C   UNL A   1      45.266  27.756  32.323  1.00  0.00     0.049 A 
ATOM     57  H   UNL A   1      43.459  28.106  31.293  1.00  0.00     0.167 HD
ATOM     58  C   UNL A   1      44.968  25.743  30.911  1.00  0.00     0.074 A 
ATOM     59  C   UNL A   1      45.373  24.439  30.425  1.00  0.00     0.031 C 
ATOM     60  C   UNL A   1      45.659  26.463  31.829  1.00  0.00     0.031 A 
BRANCH  47  61
ATOM     61  C   UNL A   1      43.053  31.888  33.233  1.00  0.00    -0.014 A 
ATOM     62  C   UNL A   1      43.687  33.018  32.690  1.00  0.00     0.009 A 
ATOM     63  C   UNL A   1      42.461  31.990  34.501  1.00  0.00     0.009 A 
ATOM     64  C   UNL A   1      43.760  34.208  33.417  1.00  0.00     0.001 A 
ATOM     65  C   UNL A   1      42.510  33.190  35.214  1.00  0.00     0.001 A 
ATOM     66  C   UNL A   1      43.168  34.295  34.676  1.00  0.00     0.000 A 
ENDBRANCH  47  61
BRANCH  48  67
ATOM     67  C   UNL A   1      42.245  23.599  27.738  1.00  0.00    -0.014 A 
ATOM     68  C   UNL A   1      41.778  22.405  28.311  1.00  0.00     0.009 A 
ATOM     69  C   UNL A   1      42.610  23.603  26.383  1.00  0.00     0.009 A 
ATOM     70  C   UNL A   1      41.706  21.236  27.551  1.00  0.00     0.001 A 
ATOM     71  C   UNL A   1      42.508  22.439  25.618  1.00  0.00     0.001 A 
ATOM     72  C   UNL A   1      42.066  21.255  26.205  1.00  0.00     0.000 A 
ENDBRANCH  48  67
BRANCH  60  73
ATOM     73  C   UNL A   1      46.902  25.834  32.393  1.00  0.00    -0.014 A 
ATOM     74  C   UNL A   1      48.155  26.014  31.785  1.00  0.00     0.009 A 
ATOM     75  C   UNL A   1      46.818  25.060  33.560  1.00  0.00     0.009 A 
ATOM     76  C   UNL A   1      49.289  25.392  32.310  1.00  0.00     0.001 A 
ATOM     77  C   UNL A   1      47.959  24.466  34.101  1.00  0.00     0.001 A 
ATOM     78  C   UNL A   1      49.191  24.621  33.468  1.00  0.00     0.000 A 
ENDBRANCH  60  73
ENDBRANCH  34  35
ENDBRANCH  26  29
ENDBRANCH  24  25
ENDBRANCH   1  24
TORSDOF 12
ENDMDL
MODEL 3
REMARK VINA RESULT:     -11.5      3.554      8.944
REMARK SMILES C[C@H](c1ccc(C(=O)NCCCNC(=O)c2ccc(-c3c4nc(c(-c5ccccc5)c5ccc([nH]5)c(-c5ccccc5)c5nc(c(-c6ccccc6)c6ccc3[nH]6)C=C5)C=C4)cc2)o1)[NH+]1Cc2ccccc2C1
REMARK SMILES IDX 11 1 10 2 9 3 7 4 8 5 6 7 3 8 4 9 64 10 5 11 2 12 1 13 65 14
REMARK SMILES IDX 66 15 73 16 67 18 72 19 68 20 71 21 69 22 70 23 12 24 13 25
REMARK SMILES IDX 14 26 15 28 16 29 17 30 63 31 18 32 62 33 19 34 20 35 21 36
REMARK SMILES IDX 56 37 22 38 61 39 55 40 57 41 23 42 60 43 54 44 53 45 24 47
REMARK SMILES IDX 46 48 31 49 45 50 32 51 35 52 44 53 58 54 33 55 34 56 43 58
REMARK SMILES IDX 59 59 36 60 25 61 26 62 30 63 27 64 29 65 28 66 47 67 48 68
REMARK SMILES IDX 52 69 49 70 51 71 50 72 37 73 38 74 42 75 39 76 41 77 40 78
REMARK H PARENT 9 6 65 17 13 27 57 46 35 57
REMARK Flexibility Score: inf
ROOT
ATOM      1  C   UNL A   1      31.030  31.755  26.156  1.00  0.00     0.042 C 
ENDROOT
BRANCH   1   2
ATOM      2  C   UNL A   1      31.125  30.425  25.412  1.00  0.00     0.118 C 
BRANCH   2   3
ATOM      3  N   UNL A   1      30.508  30.459  24.098  1.00  0.00    -0.349 N 
ATOM      4  C   UNL A   1      29.923  29.424  23.392  1.00  0.00     0.287 C 
ATOM      5  O   UNL A   1      29.203  29.738  22.444  1.00  0.00    -0.266 OA
ATOM      6  H   UNL A   1      30.508  31.336  23.649  1.00  0.00     0.163 HD
BRANCH   4   7
ATOM      7  C   UNL A   1      30.196  28.053  23.772  1.00  0.00     0.191 A 
ATOM      8  C   UNL A   1      31.463  26.395  24.505  1.00  0.00     0.162 A 
ATOM      9  C   UNL A   1      30.176  25.902  24.406  1.00  0.00     0.053 A 
ATOM     10  O   UNL A   1      31.474  27.716  24.156  1.00  0.00    -0.450 OA
ATOM     11  C   UNL A   1      29.381  26.944  23.896  1.00  0.00     0.057 A 
BRANCH   8  12
ATOM     12  C   UNL A   1      32.755  25.767  24.989  1.00  0.00     0.248 C 
ATOM     13  C   UNL A   1      33.321  26.692  26.092  1.00  0.00     0.084 C 
BRANCH  12  14
ATOM     14  N   UNL A   1      32.652  24.287  25.255  1.00  0.00    -0.319 N 
ATOM     15  C   UNL A   1      33.626  23.782  26.255  1.00  0.00     0.300 C 
ATOM     16  C   UNL A   1      32.988  23.449  24.053  1.00  0.00     0.300 C 
ATOM     17  H   UNL A   1      31.684  24.201  25.564  1.00  0.00     0.349 HD
ATOM     18  C   UNL A   1      34.864  23.531  25.463  1.00  0.00     0.015 A 
ATOM     19  C   UNL A   1      34.471  23.217  24.159  1.00  0.00     0.015 A 
ATOM     20  C   UNL A   1      36.194  23.634  25.818  1.00  0.00     0.010 A 
ATOM     21  C   UNL A   1      35.402  22.858  23.204  1.00  0.00     0.010 A 
ATOM     22  C   UNL A   1      37.147  23.354  24.839  1.00  0.00     0.001 A 
ATOM     23  C   UNL A   1      36.754  22.931  23.556  1.00  0.00     0.001 A 
ENDBRANCH  12  14
ENDBRANCH   8  12
ENDBRANCH   4   7
ENDBRANCH   2   3
ENDBRANCH   1   2
BRANCH   1  24
ATOM     24  C   UNL A   1      32.287  32.145  26.926  1.00  0.00     0.118 C 
BRANCH  24  25
ATOM     25  N   UNL A   1      32.234  33.510  27.426  1.00  0.00    -0.352 N 
ATOM     26  C   UNL A   1      33.051  34.180  28.299  1.00  0.00     0.251 C 
ATOM     27  H   UNL A   1      31.484  34.043  27.077  1.00  0.00     0.163 HD
ATOM     28  O   UNL A   1      32.694  35.282  28.711  1.00  0.00    -0.269 OA
BRANCH  26  29
ATOM     29  C   UNL A   1      34.340  33.614  28.764  1.00  0.00     0.039 A 
ATOM     30  C   UNL A   1      35.480  33.852  27.988  1.00  0.00     0.014 A 
ATOM     31  C   UNL A   1      34.435  32.795  29.893  1.00  0.00     0.014 A 
ATOM     32  C   UNL A   1      36.708  33.296  28.354  1.00  0.00     0.010 A 
ATOM     33  C   UNL A   1      35.676  32.304  30.301  1.00  0.00     0.010 A 
ATOM     34  C   UNL A   1      36.822  32.533  29.526  1.00  0.00    -0.014 A 
BRANCH  34  35
ATOM     35  C   UNL A   1      38.131  31.960  29.932  1.00  0.00     0.031 A 
ATOM     36  C   UNL A   1      39.020  32.689  30.903  1.00  0.00     0.074 A 
ATOM     37  C   UNL A   1      38.532  30.784  29.408  1.00  0.00     0.049 A 
ATOM     38  N   UNL A   1      40.185  32.333  31.385  1.00  0.00    -0.248 NA
ATOM     39  C   UNL A   1      38.551  34.000  31.380  1.00  0.00     0.031 C 
ATOM     40  C   UNL A   1      37.784  29.997  28.426  1.00  0.00     0.029 A 
ATOM     41  N   UNL A   1      39.665  30.045  29.635  1.00  0.00    -0.354 N 
ATOM     42  C   UNL A   1      40.592  33.378  32.205  1.00  0.00     0.074 A 
ATOM     43  C   UNL A   1      39.575  34.404  32.118  1.00  0.00     0.031 C 
ATOM     44  C   UNL A   1      38.461  28.866  28.164  1.00  0.00     0.029 A 
ATOM     45  C   UNL A   1      39.701  28.866  28.932  1.00  0.00     0.049 A 
ATOM     46  H   UNL A   1      40.385  30.333  30.242  1.00  0.00     0.167 HD
ATOM     47  C   UNL A   1      41.701  33.471  32.980  1.00  0.00     0.031 A 
ATOM     48  C   UNL A   1      40.624  27.886  28.914  1.00  0.00     0.031 A 
ATOM     49  C   UNL A   1      42.710  32.449  33.075  1.00  0.00     0.049 A 
ATOM     50  C   UNL A   1      41.840  28.007  29.789  1.00  0.00     0.074 A 
ATOM     51  C   UNL A   1      43.845  32.428  33.866  1.00  0.00     0.029 A 
ATOM     52  N   UNL A   1      42.702  31.265  32.354  1.00  0.00    -0.354 N 
ATOM     53  N   UNL A   1      42.176  28.973  30.609  1.00  0.00    -0.248 NA
ATOM     54  C   UNL A   1      42.793  26.889  29.749  1.00  0.00     0.031 C 
ATOM     55  C   UNL A   1      44.548  31.249  33.591  1.00  0.00     0.029 A 
ATOM     56  C   UNL A   1      43.821  30.512  32.670  1.00  0.00     0.049 A 
ATOM     57  H   UNL A   1      42.005  30.997  31.713  1.00  0.00     0.167 HD
ATOM     58  C   UNL A   1      43.362  28.566  31.207  1.00  0.00     0.074 A 
ATOM     59  C   UNL A   1      43.675  27.258  30.667  1.00  0.00     0.031 C 
ATOM     60  C   UNL A   1      44.122  29.215  32.122  1.00  0.00     0.031 A 
BRANCH  47  61
ATOM     61  C   UNL A   1      41.881  34.731  33.781  1.00  0.00    -0.014 A 
ATOM     62  C   UNL A   1      41.354  34.851  35.078  1.00  0.00     0.009 A 
ATOM     63  C   UNL A   1      42.613  35.802  33.247  1.00  0.00     0.009 A 
ATOM     64  C   UNL A   1      41.523  36.030  35.806  1.00  0.00     0.001 A 
ATOM     65  C   UNL A   1      42.806  36.970  33.989  1.00  0.00     0.001 A 
ATOM     66  C   UNL A   1      42.251  37.088  35.262  1.00  0.00     0.000 A 
ENDBRANCH  47  61
BRANCH  48  67
ATOM     67  C   UNL A   1      40.419  26.686  28.063  1.00  0.00    -0.014 A 
ATOM     68  C   UNL A   1      39.668  25.598  28.536  1.00  0.00     0.009 A 
ATOM     69  C   UNL A   1      40.972  26.619  26.775  1.00  0.00     0.009 A 
ATOM     70  C   UNL A   1      39.501  24.457  27.748  1.00  0.00     0.001 A 
ATOM     71  C   UNL A   1      40.778  25.488  25.979  1.00  0.00     0.001 A 
ATOM     72  C   UNL A   1      40.052  24.405  26.469  1.00  0.00     0.000 A 
ENDBRANCH  48  67
BRANCH  60  73
ATOM     73  C   UNL A   1      45.344  28.499  32.624  1.00  0.00    -0.014 A 
ATOM     74  C   UNL A   1      46.593  28.657  32.003  1.00  0.00     0.009 A 
ATOM     75  C   UNL A   1      45.244  27.662  33.746  1.00  0.00     0.009 A 
ATOM     76  C   UNL A   1      47.706  27.954  32.468  1.00  0.00     0.001 A 
ATOM     77  C   UNL A   1      46.365  26.986  34.228  1.00  0.00     0.001 A 
ATOM     78  C   UNL A   1      47.592  27.122  33.582  1.00  0.00     0.000 A 
ENDBRANCH  60  73
ENDBRANCH  34  35
ENDBRANCH  26  29
ENDBRANCH  24  25
ENDBRANCH   1  24
TORSDOF 12
ENDMDL
