MODEL 1
REMARK VINA RESULT:     -11.6      0.000      0.000
REMARK SMILES C[C@H](Sc1ccccn1)C(=O)N[C@H](C(=O)NCCCNC(=O)c1ccc(-c2c3nc(c(-c4ccccc4)c4ccc([nH]4)c(-c4ccccc4)c4nc(c(-c5ccccc5)c5ccc2[nH]5)C=C4)C=C3)cc1)c1ccc(F)cc1
REMARK SMILES IDX 17 1 16 2 14 3 15 4 13 6 12 7 10 8 11 9 2 11 1 12 3 13 4 14
REMARK SMILES IDX 5 15 9 16 6 17 8 18 7 19 71 20 72 21 77 22 73 23 76 24 74 25
REMARK SMILES IDX 75 26 18 27 19 28 20 29 21 30 22 32 23 33 24 34 70 35 25 36
REMARK SMILES IDX 69 37 26 38 27 39 28 40 63 41 29 42 68 43 62 44 64 45 30 46
REMARK SMILES IDX 67 47 61 48 60 49 31 51 53 52 38 53 52 54 39 55 42 56 51 57
REMARK SMILES IDX 65 58 40 59 41 60 50 62 66 63 43 64 32 65 33 66 37 67 34 68
REMARK SMILES IDX 36 69 35 70 54 71 55 72 59 73 56 74 58 75 57 76 44 77 45 78
REMARK SMILES IDX 49 79 46 80 48 81 47 82
REMARK H PARENT 16 5 12 10 20 31 64 50 42 61
REMARK Flexibility Score: inf
ROOT
ATOM      1  C   UNL A   1      33.463  27.085  25.359  1.00  0.00     0.117 C 
ENDROOT
BRANCH   1   2
ATOM      2  N   UNL A   1      33.566  26.915  23.920  1.00  0.00    -0.354 N 
ATOM      3  C   UNL A   1      33.680  25.772  23.174  1.00  0.00     0.247 C 
ATOM      4  O   UNL A   1      33.927  25.940  21.976  1.00  0.00    -0.272 OA
ATOM      5  H   UNL A   1      33.551  27.751  23.401  1.00  0.00     0.163 HD
BRANCH   3   6
ATOM      6  C   UNL A   1      33.742  24.387  23.875  1.00  0.00     0.202 C 
BRANCH   6   7
ATOM      7  N   UNL A   1      32.969  23.323  23.219  1.00  0.00    -0.340 N 
ATOM      8  C   UNL A   1      32.203  22.288  23.635  1.00  0.00     0.234 C 
ATOM      9  O   UNL A   1      31.742  21.593  22.718  1.00  0.00    -0.274 OA
ATOM     10  H   UNL A   1      33.022  23.376  22.238  1.00  0.00     0.164 HD
BRANCH   8  11
ATOM     11  C   UNL A   1      31.905  21.910  25.089  1.00  0.00     0.139 C 
ATOM     12  C   UNL A   1      31.127  22.942  25.873  1.00  0.00     0.030 C 
BRANCH  11  13
ATOM     13  S   UNL A   1      33.329  21.013  25.842  1.00  0.00    -0.093 SA
BRANCH  13  14
ATOM     14  C   UNL A   1      33.389  19.409  25.086  1.00  0.00     0.097 A 
ATOM     15  C   UNL A   1      34.559  18.853  24.580  1.00  0.00     0.035 A 
ATOM     16  N   UNL A   1      32.234  18.705  25.153  1.00  0.00    -0.250 NA
ATOM     17  C   UNL A   1      34.530  17.563  24.052  1.00  0.00     0.004 A 
ATOM     18  C   UNL A   1      32.238  17.446  24.659  1.00  0.00     0.112 A 
ATOM     19  C   UNL A   1      33.346  16.840  24.093  1.00  0.00     0.020 A 
ENDBRANCH  13  14
ENDBRANCH  11  13
ENDBRANCH   8  11
ENDBRANCH   6   7
BRANCH   6  20
ATOM     20  C   UNL A   1      35.068  23.867  24.432  1.00  0.00    -0.016 A 
ATOM     21  C   UNL A   1      35.579  24.193  25.700  1.00  0.00     0.009 A 
ATOM     22  C   UNL A   1      35.831  22.988  23.629  1.00  0.00     0.009 A 
ATOM     23  C   UNL A   1      36.815  23.701  26.130  1.00  0.00     0.039 A 
ATOM     24  C   UNL A   1      37.067  22.500  24.056  1.00  0.00     0.039 A 
ATOM     25  C   UNL A   1      37.551  22.867  25.303  1.00  0.00     0.123 A 
ATOM     26  F   UNL A   1      38.743  22.414  25.710  1.00  0.00    -0.207 F 
ENDBRANCH   6  20
ENDBRANCH   3   6
ENDBRANCH   1   2
BRANCH   1  27
ATOM     27  C   UNL A   1      33.697  28.517  25.802  1.00  0.00     0.042 C 
BRANCH  27  28
ATOM     28  C   UNL A   1      33.230  28.796  27.225  1.00  0.00     0.118 C 
BRANCH  28  29
ATOM     29  N   UNL A   1      33.384  30.184  27.641  1.00  0.00    -0.352 N 
ATOM     30  C   UNL A   1      34.473  30.836  28.175  1.00  0.00     0.251 C 
ATOM     31  H   UNL A   1      32.583  30.744  27.522  1.00  0.00     0.163 HD
ATOM     32  O   UNL A   1      34.383  32.001  28.549  1.00  0.00    -0.269 OA
BRANCH  30  33
ATOM     33  C   UNL A   1      35.753  30.114  28.348  1.00  0.00     0.039 A 
ATOM     34  C   UNL A   1      36.669  30.096  27.293  1.00  0.00     0.014 A 
ATOM     35  C   UNL A   1      36.072  29.495  29.556  1.00  0.00     0.014 A 
ATOM     36  C   UNL A   1      37.943  29.558  27.492  1.00  0.00     0.010 A 
ATOM     37  C   UNL A   1      37.374  29.068  29.789  1.00  0.00     0.010 A 
ATOM     38  C   UNL A   1      38.329  29.098  28.761  1.00  0.00    -0.014 A 
BRANCH  38  39
ATOM     39  C   UNL A   1      39.723  28.664  29.042  1.00  0.00     0.031 A 
ATOM     40  C   UNL A   1      40.705  29.615  29.672  1.00  0.00     0.074 A 
ATOM     41  C   UNL A   1      40.135  27.443  28.646  1.00  0.00     0.049 A 
ATOM     42  N   UNL A   1      41.978  29.441  29.925  1.00  0.00    -0.248 NA
ATOM     43  C   UNL A   1      40.202  30.952  30.030  1.00  0.00     0.031 C 
ATOM     44  C   UNL A   1      39.310  26.448  27.956  1.00  0.00     0.029 A 
ATOM     45  N   UNL A   1      41.360  26.832  28.763  1.00  0.00    -0.354 N 
ATOM     46  C   UNL A   1      42.430  30.651  30.436  1.00  0.00     0.074 A 
ATOM     47  C   UNL A   1      41.312  31.567  30.407  1.00  0.00     0.031 C 
ATOM     48  C   UNL A   1      40.041  25.342  27.741  1.00  0.00     0.029 A 
ATOM     49  C   UNL A   1      41.393  25.561  28.244  1.00  0.00     0.049 A 
ATOM     50  H   UNL A   1      42.139  27.265  29.178  1.00  0.00     0.167 HD
ATOM     51  C   UNL A   1      43.658  30.968  30.910  1.00  0.00     0.031 A 
ATOM     52  C   UNL A   1      42.399  24.668  28.176  1.00  0.00     0.031 A 
ATOM     53  C   UNL A   1      44.764  30.051  30.973  1.00  0.00     0.049 A 
ATOM     54  C   UNL A   1      43.741  25.026  28.747  1.00  0.00     0.074 A 
ATOM     55  C   UNL A   1      46.021  30.251  31.517  1.00  0.00     0.029 A 
ATOM     56  N   UNL A   1      44.743  28.758  30.476  1.00  0.00    -0.354 N 
ATOM     57  N   UNL A   1      44.126  26.147  29.309  1.00  0.00    -0.248 NA
ATOM     58  C   UNL A   1      44.781  23.991  28.689  1.00  0.00     0.031 C 
ATOM     59  C   UNL A   1      46.776  29.091  31.309  1.00  0.00     0.029 A 
ATOM     60  C   UNL A   1      45.972  28.153  30.681  1.00  0.00     0.049 A 
ATOM     61  H   UNL A   1      43.968  28.331  30.042  1.00  0.00     0.167 HD
ATOM     62  C   UNL A   1      45.446  25.945  29.688  1.00  0.00     0.074 A 
ATOM     63  C   UNL A   1      45.788  24.588  29.312  1.00  0.00     0.031 C 
ATOM     64  C   UNL A   1      46.299  26.806  30.294  1.00  0.00     0.031 A 
BRANCH  51  65
ATOM     65  C   UNL A   1      43.864  32.375  31.401  1.00  0.00    -0.014 A 
ATOM     66  C   UNL A   1      44.412  33.365  30.569  1.00  0.00     0.009 A 
ATOM     67  C   UNL A   1      43.493  32.718  32.710  1.00  0.00     0.009 A 
ATOM     68  C   UNL A   1      44.628  34.657  31.054  1.00  0.00     0.001 A 
ATOM     69  C   UNL A   1      43.682  34.019  33.182  1.00  0.00     0.001 A 
ATOM     70  C   UNL A   1      44.260  34.983  32.359  1.00  0.00     0.000 A 
ENDBRANCH  51  65
BRANCH  52  71
ATOM     71  C   UNL A   1      42.166  23.333  27.566  1.00  0.00    -0.014 A 
ATOM     72  C   UNL A   1      42.579  23.071  26.250  1.00  0.00     0.009 A 
ATOM     73  C   UNL A   1      41.534  22.314  28.295  1.00  0.00     0.009 A 
ATOM     74  C   UNL A   1      42.342  21.824  25.670  1.00  0.00     0.001 A 
ATOM     75  C   UNL A   1      41.323  21.059  27.722  1.00  0.00     0.001 A 
ATOM     76  C   UNL A   1      41.719  20.817  26.407  1.00  0.00     0.000 A 
ENDBRANCH  52  71
BRANCH  64  77
ATOM     77  C   UNL A   1      47.677  26.297  30.607  1.00  0.00    -0.014 A 
ATOM     78  C   UNL A   1      48.695  26.314  29.642  1.00  0.00     0.009 A 
ATOM     79  C   UNL A   1      47.967  25.825  31.896  1.00  0.00     0.009 A 
ATOM     80  C   UNL A   1      49.969  25.834  29.952  1.00  0.00     0.001 A 
ATOM     81  C   UNL A   1      49.249  25.371  32.212  1.00  0.00     0.001 A 
ATOM     82  C   UNL A   1      50.246  25.368  31.238  1.00  0.00     0.000 A 
ENDBRANCH  64  77
ENDBRANCH  38  39
ENDBRANCH  30  33
ENDBRANCH  28  29
ENDBRANCH  27  28
ENDBRANCH   1  27
TORSDOF 15
ENDMDL
MODEL 2
REMARK VINA RESULT:     -11.2      2.309      7.438
REMARK SMILES C[C@H](Sc1ccccn1)C(=O)N[C@H](C(=O)NCCCNC(=O)c1ccc(-c2c3nc(c(-c4ccccc4)c4ccc([nH]4)c(-c4ccccc4)c4nc(c(-c5ccccc5)c5ccc2[nH]5)C=C4)C=C3)cc1)c1ccc(F)cc1
REMARK SMILES IDX 17 1 16 2 14 3 15 4 13 6 12 7 10 8 11 9 2 11 1 12 3 13 4 14
REMARK SMILES IDX 5 15 9 16 6 17 8 18 7 19 71 20 72 21 77 22 73 23 76 24 74 25
REMARK SMILES IDX 75 26 18 27 19 28 20 29 21 30 22 32 23 33 24 34 70 35 25 36
REMARK SMILES IDX 69 37 26 38 27 39 28 40 63 41 29 42 68 43 62 44 64 45 30 46
REMARK SMILES IDX 67 47 61 48 60 49 31 51 53 52 38 53 52 54 39 55 42 56 51 57
REMARK SMILES IDX 65 58 40 59 41 60 50 62 66 63 43 64 32 65 33 66 37 67 34 68
REMARK SMILES IDX 36 69 35 70 54 71 55 72 59 73 56 74 58 75 57 76 44 77 45 78
REMARK SMILES IDX 49 79 46 80 48 81 47 82
REMARK H PARENT 16 5 12 10 20 31 64 50 42 61
REMARK Flexibility Score: inf
ROOT
ATOM      1  C   UNL A   1      36.367  22.088  24.927  1.00  0.00     0.117 C 
ENDROOT
BRANCH   1   2
ATOM      2  N   UNL A   1      35.720  21.943  26.220  1.00  0.00    -0.354 N 
ATOM      3  C   UNL A   1      34.466  21.490  26.531  1.00  0.00     0.247 C 
ATOM      4  O   UNL A   1      34.121  21.642  27.706  1.00  0.00    -0.272 OA
ATOM      5  H   UNL A   1      36.269  22.211  26.991  1.00  0.00     0.163 HD
BRANCH   3   6
ATOM      6  C   UNL A   1      33.490  21.060  25.400  1.00  0.00     0.202 C 
BRANCH   6   7
ATOM      7  N   UNL A   1      33.153  22.115  24.436  1.00  0.00    -0.340 N 
ATOM      8  C   UNL A   1      32.320  23.182  24.423  1.00  0.00     0.234 C 
ATOM      9  O   UNL A   1      32.322  23.819  23.359  1.00  0.00    -0.274 OA
ATOM     10  H   UNL A   1      33.654  22.025  23.594  1.00  0.00     0.164 HD
BRANCH   8  11
ATOM     11  C   UNL A   1      31.395  23.621  25.562  1.00  0.00     0.139 C 
ATOM     12  C   UNL A   1      30.562  22.517  26.172  1.00  0.00     0.030 C 
BRANCH  11  13
ATOM     13  S   UNL A   1      30.675  25.284  25.222  1.00  0.00    -0.093 SA
BRANCH  13  14
ATOM     14  C   UNL A   1      31.705  26.473  26.044  1.00  0.00     0.097 A 
ATOM     15  C   UNL A   1      33.008  26.750  25.646  1.00  0.00     0.035 A 
ATOM     16  N   UNL A   1      31.085  27.189  27.012  1.00  0.00    -0.250 NA
ATOM     17  C   UNL A   1      33.730  27.739  26.313  1.00  0.00     0.004 A 
ATOM     18  C   UNL A   1      31.798  28.162  27.625  1.00  0.00     0.112 A 
ATOM     19  C   UNL A   1      33.114  28.464  27.322  1.00  0.00     0.020 A 
ENDBRANCH  13  14
ENDBRANCH  11  13
ENDBRANCH   8  11
ENDBRANCH   6   7
BRANCH   6  20
ATOM     20  C   UNL A   1      33.656  19.699  24.721  1.00  0.00    -0.016 A 
ATOM     21  C   UNL A   1      34.741  18.832  24.934  1.00  0.00     0.009 A 
ATOM     22  C   UNL A   1      32.646  19.270  23.829  1.00  0.00     0.009 A 
ATOM     23  C   UNL A   1      34.839  17.614  24.254  1.00  0.00     0.039 A 
ATOM     24  C   UNL A   1      32.744  18.056  23.147  1.00  0.00     0.039 A 
ATOM     25  C   UNL A   1      33.846  17.241  23.362  1.00  0.00     0.123 A 
ATOM     26  F   UNL A   1      33.951  16.084  22.698  1.00  0.00    -0.207 F 
ENDBRANCH   6  20
ENDBRANCH   3   6
ENDBRANCH   1   2
BRANCH   1  27
ATOM     27  C   UNL A   1      37.455  21.057  24.692  1.00  0.00     0.042 C 
BRANCH  27  28
ATOM     28  C   UNL A   1      38.586  21.125  25.711  1.00  0.00     0.118 C 
BRANCH  28  29
ATOM     29  N   UNL A   1      39.516  20.005  25.644  1.00  0.00    -0.352 N 
ATOM     30  C   UNL A   1      40.845  19.932  25.995  1.00  0.00     0.251 C 
ATOM     31  H   UNL A   1      39.133  19.168  25.294  1.00  0.00     0.163 HD
ATOM     32  O   UNL A   1      41.493  18.911  25.782  1.00  0.00    -0.269 OA
BRANCH  30  33
ATOM     33  C   UNL A   1      41.517  21.108  26.589  1.00  0.00     0.039 A 
ATOM     34  C   UNL A   1      42.058  22.080  25.744  1.00  0.00     0.014 A 
ATOM     35  C   UNL A   1      41.580  21.277  27.973  1.00  0.00     0.014 A 
ATOM     36  C   UNL A   1      42.553  23.269  26.284  1.00  0.00     0.010 A 
ATOM     37  C   UNL A   1      41.962  22.505  28.500  1.00  0.00     0.010 A 
ATOM     38  C   UNL A   1      42.450  23.520  27.662  1.00  0.00    -0.014 A 
BRANCH  38  39
ATOM     39  C   UNL A   1      42.826  24.835  28.245  1.00  0.00     0.031 A 
ATOM     40  C   UNL A   1      41.779  25.890  28.483  1.00  0.00     0.074 A 
ATOM     41  C   UNL A   1      44.124  25.116  28.477  1.00  0.00     0.049 A 
ATOM     42  N   UNL A   1      41.927  27.118  28.913  1.00  0.00    -0.248 NA
ATOM     43  C   UNL A   1      40.389  25.535  28.157  1.00  0.00     0.031 C 
ATOM     44  C   UNL A   1      45.250  24.215  28.221  1.00  0.00     0.029 A 
ATOM     45  N   UNL A   1      44.717  26.251  28.975  1.00  0.00    -0.354 N 
ATOM     46  C   UNL A   1      40.660  27.686  28.877  1.00  0.00     0.074 A 
ATOM     47  C   UNL A   1      39.766  26.690  28.331  1.00  0.00     0.031 C 
ATOM     48  C   UNL A   1      46.391  24.816  28.595  1.00  0.00     0.029 A 
ATOM     49  C   UNL A   1      46.083  26.158  29.081  1.00  0.00     0.049 A 
ATOM     50  H   UNL A   1      44.210  27.055  29.231  1.00  0.00     0.167 HD
ATOM     51  C   UNL A   1      40.268  28.917  29.281  1.00  0.00     0.031 A 
ATOM     52  C   UNL A   1      46.991  27.050  29.519  1.00  0.00     0.031 A 
ATOM     53  C   UNL A   1      41.147  29.900  29.856  1.00  0.00     0.049 A 
ATOM     54  C   UNL A   1      46.528  28.394  30.003  1.00  0.00     0.074 A 
ATOM     55  C   UNL A   1      40.829  31.141  30.377  1.00  0.00     0.029 A 
ATOM     56  N   UNL A   1      42.518  29.748  29.986  1.00  0.00    -0.354 N 
ATOM     57  N   UNL A   1      45.312  28.882  30.044  1.00  0.00    -0.248 NA
ATOM     58  C   UNL A   1      47.561  29.304  30.517  1.00  0.00     0.031 C 
ATOM     59  C   UNL A   1      42.016  31.760  30.784  1.00  0.00     0.029 A 
ATOM     60  C   UNL A   1      43.065  30.884  30.560  1.00  0.00     0.049 A 
ATOM     61  H   UNL A   1      43.027  28.951  29.711  1.00  0.00     0.167 HD
ATOM     62  C   UNL A   1      45.431  30.147  30.605  1.00  0.00     0.074 A 
ATOM     63  C   UNL A   1      46.834  30.342  30.907  1.00  0.00     0.031 C 
ATOM     64  C   UNL A   1      44.464  31.064  30.848  1.00  0.00     0.031 A 
BRANCH  51  65
ATOM     65  C   UNL A   1      38.814  29.265  29.114  1.00  0.00    -0.014 A 
ATOM     66  C   UNL A   1      37.906  29.137  30.180  1.00  0.00     0.009 A 
ATOM     67  C   UNL A   1      38.347  29.738  27.879  1.00  0.00     0.009 A 
ATOM     68  C   UNL A   1      36.554  29.431  29.996  1.00  0.00     0.001 A 
ATOM     69  C   UNL A   1      36.999  30.061  27.708  1.00  0.00     0.001 A 
ATOM     70  C   UNL A   1      36.102  29.896  28.762  1.00  0.00     0.000 A 
ENDBRANCH  51  65
BRANCH  52  71
ATOM     71  C   UNL A   1      48.433  26.690  29.546  1.00  0.00    -0.014 A 
ATOM     72  C   UNL A   1      49.273  27.039  28.476  1.00  0.00     0.009 A 
ATOM     73  C   UNL A   1      48.977  25.999  30.639  1.00  0.00     0.009 A 
ATOM     74  C   UNL A   1      50.622  26.683  28.491  1.00  0.00     0.001 A 
ATOM     75  C   UNL A   1      50.333  25.669  30.664  1.00  0.00     0.001 A 
ATOM     76  C   UNL A   1      51.153  26.002  29.587  1.00  0.00     0.000 A 
ENDBRANCH  52  71
BRANCH  64  77
ATOM     77  C   UNL A   1      44.890  32.353  31.491  1.00  0.00    -0.014 A 
ATOM     78  C   UNL A   1      44.939  32.488  32.886  1.00  0.00     0.009 A 
ATOM     79  C   UNL A   1      45.280  33.436  30.687  1.00  0.00     0.009 A 
ATOM     80  C   UNL A   1      45.336  33.695  33.465  1.00  0.00     0.001 A 
ATOM     81  C   UNL A   1      45.703  34.632  31.267  1.00  0.00     0.001 A 
ATOM     82  C   UNL A   1      45.722  34.764  32.654  1.00  0.00     0.000 A 
ENDBRANCH  64  77
ENDBRANCH  38  39
ENDBRANCH  30  33
ENDBRANCH  28  29
ENDBRANCH  27  28
ENDBRANCH   1  27
TORSDOF 15
ENDMDL
MODEL 3
REMARK VINA RESULT:     -11.1      2.298      7.554
REMARK SMILES C[C@H](Sc1ccccn1)C(=O)N[C@H](C(=O)NCCCNC(=O)c1ccc(-c2c3nc(c(-c4ccccc4)c4ccc([nH]4)c(-c4ccccc4)c4nc(c(-c5ccccc5)c5ccc2[nH]5)C=C4)C=C3)cc1)c1ccc(F)cc1
REMARK SMILES IDX 17 1 16 2 14 3 15 4 13 6 12 7 10 8 11 9 2 11 1 12 3 13 4 14
REMARK SMILES IDX 5 15 9 16 6 17 8 18 7 19 71 20 72 21 77 22 73 23 76 24 74 25
REMARK SMILES IDX 75 26 18 27 19 28 20 29 21 30 22 32 23 33 24 34 70 35 25 36
REMARK SMILES IDX 69 37 26 38 27 39 28 40 63 41 29 42 68 43 62 44 64 45 30 46
REMARK SMILES IDX 67 47 61 48 60 49 31 51 53 52 38 53 52 54 39 55 42 56 51 57
REMARK SMILES IDX 65 58 40 59 41 60 50 62 66 63 43 64 32 65 33 66 37 67 34 68
REMARK SMILES IDX 36 69 35 70 54 71 55 72 59 73 56 74 58 75 57 76 44 77 45 78
REMARK SMILES IDX 49 79 46 80 48 81 47 82
REMARK H PARENT 16 5 12 10 20 31 64 50 42 61
REMARK Flexibility Score: inf
ROOT
ATOM      1  C   UNL A   1      36.769  21.897  24.956  1.00  0.00     0.117 C 
ENDROOT
BRANCH   1   2
ATOM      2  N   UNL A   1      36.012  21.823  26.194  1.00  0.00    -0.354 N 
ATOM      3  C   UNL A   1      34.683  21.560  26.400  1.00  0.00     0.247 C 
ATOM      4  O   UNL A   1      34.278  21.737  27.553  1.00  0.00    -0.272 OA
ATOM      5  H   UNL A   1      36.535  21.987  27.011  1.00  0.00     0.163 HD
BRANCH   3   6
ATOM      6  C   UNL A   1      33.742  21.310  25.189  1.00  0.00     0.202 C 
BRANCH   6   7
ATOM      7  N   UNL A   1      33.742  22.371  24.173  1.00  0.00    -0.340 N 
ATOM      8  C   UNL A   1      32.883  23.345  23.792  1.00  0.00     0.234 C 
ATOM      9  O   UNL A   1      33.278  24.029  22.837  1.00  0.00    -0.274 OA
ATOM     10  H   UNL A   1      34.568  22.373  23.637  1.00  0.00     0.164 HD
BRANCH   8  11
ATOM     11  C   UNL A   1      31.509  23.630  24.407  1.00  0.00     0.139 C 
ATOM     12  C   UNL A   1      30.568  24.426  23.531  1.00  0.00     0.030 C 
BRANCH  11  13
ATOM     13  S   UNL A   1      31.653  23.973  26.212  1.00  0.00    -0.093 SA
BRANCH  13  14
ATOM     14  C   UNL A   1      32.195  25.654  26.380  1.00  0.00     0.097 A 
ATOM     15  C   UNL A   1      33.440  26.096  25.945  1.00  0.00     0.035 A 
ATOM     16  N   UNL A   1      31.256  26.510  26.848  1.00  0.00    -0.250 NA
ATOM     17  C   UNL A   1      33.766  27.446  26.066  1.00  0.00     0.004 A 
ATOM     18  C   UNL A   1      31.587  27.819  26.929  1.00  0.00     0.112 A 
ATOM     19  C   UNL A   1      32.821  28.330  26.565  1.00  0.00     0.020 A 
ENDBRANCH  13  14
ENDBRANCH  11  13
ENDBRANCH   8  11
ENDBRANCH   6   7
BRANCH   6  20
ATOM     20  C   UNL A   1      33.654  19.918  24.561  1.00  0.00    -0.016 A 
ATOM     21  C   UNL A   1      32.604  19.487  23.731  1.00  0.00     0.009 A 
ATOM     22  C   UNL A   1      34.701  19.003  24.814  1.00  0.00     0.009 A 
ATOM     23  C   UNL A   1      32.577  18.188  23.215  1.00  0.00     0.039 A 
ATOM     24  C   UNL A   1      34.673  17.705  24.302  1.00  0.00     0.039 A 
ATOM     25  C   UNL A   1      33.606  17.307  23.512  1.00  0.00     0.123 A 
ATOM     26  F   UNL A   1      33.567  16.058  23.032  1.00  0.00    -0.207 F 
ENDBRANCH   6  20
ENDBRANCH   3   6
ENDBRANCH   1   2
BRANCH   1  27
ATOM     27  C   UNL A   1      37.776  20.771  24.812  1.00  0.00     0.042 C 
BRANCH  27  28
ATOM     28  C   UNL A   1      38.775  20.700  25.960  1.00  0.00     0.118 C 
BRANCH  28  29
ATOM     29  N   UNL A   1      39.827  19.709  25.774  1.00  0.00    -0.352 N 
ATOM     30  C   UNL A   1      41.183  19.802  25.993  1.00  0.00     0.251 C 
ATOM     31  H   UNL A   1      39.520  18.836  25.439  1.00  0.00     0.163 HD
ATOM     32  O   UNL A   1      41.930  18.876  25.691  1.00  0.00    -0.269 OA
BRANCH  30  33
ATOM     33  C   UNL A   1      41.757  21.046  26.552  1.00  0.00     0.039 A 
ATOM     34  C   UNL A   1      42.212  22.036  25.677  1.00  0.00     0.014 A 
ATOM     35  C   UNL A   1      41.810  21.257  27.930  1.00  0.00     0.014 A 
ATOM     36  C   UNL A   1      42.609  23.277  26.183  1.00  0.00     0.010 A 
ATOM     37  C   UNL A   1      42.091  22.526  28.421  1.00  0.00     0.010 A 
ATOM     38  C   UNL A   1      42.490  23.555  27.555  1.00  0.00    -0.014 A 
BRANCH  38  39
ATOM     39  C   UNL A   1      42.757  24.911  28.100  1.00  0.00     0.031 A 
ATOM     40  C   UNL A   1      44.141  25.289  28.559  1.00  0.00     0.074 A 
ATOM     41  C   UNL A   1      41.738  25.777  28.268  1.00  0.00     0.049 A 
ATOM     42  N   UNL A   1      44.549  26.397  29.127  1.00  0.00    -0.248 NA
ATOM     43  C   UNL A   1      45.196  24.277  28.396  1.00  0.00     0.031 C 
ATOM     44  C   UNL A   1      40.334  25.514  27.938  1.00  0.00     0.029 A 
ATOM     45  N   UNL A   1      41.724  27.055  28.770  1.00  0.00    -0.354 N 
ATOM     46  C   UNL A   1      45.893  26.199  29.417  1.00  0.00     0.074 A 
ATOM     47  C   UNL A   1      46.218  24.849  29.013  1.00  0.00     0.031 C 
ATOM     48  C   UNL A   1      39.605  26.608  28.213  1.00  0.00     0.029 A 
ATOM     49  C   UNL A   1      40.478  27.634  28.773  1.00  0.00     0.049 A 
ATOM     50  H   UNL A   1      42.532  27.514  29.097  1.00  0.00     0.167 HD
ATOM     51  C   UNL A   1      46.785  27.067  29.949  1.00  0.00     0.031 A 
ATOM     52  C   UNL A   1      40.079  28.853  29.182  1.00  0.00     0.031 A 
ATOM     53  C   UNL A   1      46.475  28.422  30.320  1.00  0.00     0.049 A 
ATOM     54  C   UNL A   1      41.094  29.815  29.729  1.00  0.00     0.074 A 
ATOM     55  C   UNL A   1      47.329  29.406  30.785  1.00  0.00     0.029 A 
ATOM     56  N   UNL A   1      45.209  28.982  30.267  1.00  0.00    -0.354 N 
ATOM     57  N   UNL A   1      42.380  29.641  29.913  1.00  0.00    -0.248 NA
ATOM     58  C   UNL A   1      40.604  31.147  30.109  1.00  0.00     0.031 C 
ATOM     59  C   UNL A   1      46.571  30.550  31.054  1.00  0.00     0.029 A 
ATOM     60  C   UNL A   1      45.254  30.293  30.710  1.00  0.00     0.049 A 
ATOM     61  H   UNL A   1      44.397  28.516  29.958  1.00  0.00     0.167 HD
ATOM     62  C   UNL A   1      42.857  30.846  30.412  1.00  0.00     0.074 A 
ATOM     63  C   UNL A   1      41.725  31.749  30.481  1.00  0.00     0.031 C 
ATOM     64  C   UNL A   1      44.119  31.175  30.779  1.00  0.00     0.031 A 
BRANCH  51  65
ATOM     65  C   UNL A   1      48.189  26.569  30.157  1.00  0.00    -0.014 A 
ATOM     66  C   UNL A   1      49.176  26.735  29.171  1.00  0.00     0.009 A 
ATOM     67  C   UNL A   1      48.533  25.936  31.361  1.00  0.00     0.009 A 
ATOM     68  C   UNL A   1      50.464  26.235  29.368  1.00  0.00     0.001 A 
ATOM     69  C   UNL A   1      49.831  25.465  31.567  1.00  0.00     0.001 A 
ATOM     70  C   UNL A   1      50.791  25.603  30.567  1.00  0.00     0.000 A 
ENDBRANCH  51  65
BRANCH  52  71
ATOM     71  C   UNL A   1      38.649  29.244  29.062  1.00  0.00    -0.014 A 
ATOM     72  C   UNL A   1      38.140  29.707  27.839  1.00  0.00     0.009 A 
ATOM     73  C   UNL A   1      37.789  29.153  30.166  1.00  0.00     0.009 A 
ATOM     74  C   UNL A   1      36.803  30.094  27.731  1.00  0.00     0.001 A 
ATOM     75  C   UNL A   1      36.446  29.515  30.048  1.00  0.00     0.001 A 
ATOM     76  C   UNL A   1      35.955  29.993  28.834  1.00  0.00     0.000 A 
ENDBRANCH  52  71
BRANCH  64  77
ATOM     77  C   UNL A   1      44.344  32.577  31.269  1.00  0.00    -0.014 A 
ATOM     78  C   UNL A   1      44.684  33.611  30.383  1.00  0.00     0.009 A 
ATOM     79  C   UNL A   1      44.182  32.872  32.631  1.00  0.00     0.009 A 
ATOM     80  C   UNL A   1      44.892  34.907  30.858  1.00  0.00     0.001 A 
ATOM     81  C   UNL A   1      44.363  34.175  33.100  1.00  0.00     0.001 A 
ATOM     82  C   UNL A   1      44.727  35.188  32.215  1.00  0.00     0.000 A 
ENDBRANCH  64  77
ENDBRANCH  38  39
ENDBRANCH  30  33
ENDBRANCH  28  29
ENDBRANCH  27  28
ENDBRANCH   1  27
TORSDOF 15
ENDMDL
