MODEL 1
REMARK VINA RESULT:     -11.0      0.000      0.000
REMARK SMILES CSc1ncc(Cl)c(C(=O)Nc2ccsc2C(=O)NCCCNC(=O)c2ccc(-c3c4nc(c(-c5ccccc5)c5ccc([nH]5)c(-c5ccccc5)c5nc(c(-c6ccccc6)c6ccc3[nH]6)C=C5)C=C4)cc2)n1
REMARK SMILES IDX 20 1 19 2 17 3 18 4 16 6 12 7 13 8 14 9 15 10 11 11 9 12
REMARK SMILES IDX 10 13 8 15 3 16 4 17 74 18 5 19 6 20 7 21 2 22 1 23 21 24
REMARK SMILES IDX 22 25 23 26 24 27 25 29 26 30 27 31 73 32 28 33 72 34 29 35
REMARK SMILES IDX 30 36 31 37 66 38 32 39 71 40 65 41 67 42 33 43 70 44 64 45
REMARK SMILES IDX 63 46 34 48 56 49 41 50 55 51 42 52 45 53 54 54 68 55 43 56
REMARK SMILES IDX 44 57 53 59 69 60 46 61 35 62 36 63 40 64 37 65 39 66 38 67
REMARK SMILES IDX 57 68 58 69 62 70 59 71 61 72 60 73 47 74 48 75 52 76 49 77
REMARK SMILES IDX 51 78 50 79
REMARK H PARENT 19 5 11 14 23 28 67 47 45 58
REMARK Flexibility Score: inf
ROOT
ATOM      1  C   UNL A   1      33.813  26.590  25.811  1.00  0.00     0.118 C 
ENDROOT
BRANCH   1   2
ATOM      2  N   UNL A   1      33.987  26.118  24.457  1.00  0.00    -0.351 N 
ATOM      3  C   UNL A   1      34.338  24.894  23.922  1.00  0.00     0.263 C 
ATOM      4  O   UNL A   1      34.298  24.892  22.684  1.00  0.00    -0.268 OA
ATOM      5  H   UNL A   1      33.821  26.810  23.776  1.00  0.00     0.163 HD
BRANCH   3   6
ATOM      6  C   UNL A   1      34.773  23.719  24.697  1.00  0.00     0.115 A 
ATOM      7  C   UNL A   1      34.197  22.844  25.619  1.00  0.00     0.065 A 
ATOM      8  C   UNL A   1      35.136  21.929  26.191  1.00  0.00     0.038 A 
ATOM      9  C   UNL A   1      36.402  22.092  25.689  1.00  0.00     0.068 A 
ATOM     10  S   UNL A   1      36.466  23.332  24.530  1.00  0.00    -0.137 S 
BRANCH   7  11
ATOM     11  N   UNL A   1      32.860  22.825  25.943  1.00  0.00    -0.319 N 
ATOM     12  C   UNL A   1      31.854  21.977  25.521  1.00  0.00     0.276 C 
ATOM     13  O   UNL A   1      30.741  22.164  26.024  1.00  0.00    -0.267 OA
ATOM     14  H   UNL A   1      32.575  23.528  26.572  1.00  0.00     0.170 HD
BRANCH  12  15
ATOM     15  C   UNL A   1      32.027  20.804  24.594  1.00  0.00     0.151 A 
ATOM     16  C   UNL A   1      32.454  18.533  24.605  1.00  0.00     0.188 A 
ATOM     17  N   UNL A   1      32.471  18.456  23.270  1.00  0.00    -0.230 NA
ATOM     18  N   UNL A   1      32.172  19.642  25.294  1.00  0.00    -0.216 NA
ATOM     19  C   UNL A   1      32.342  19.618  22.610  1.00  0.00     0.137 A 
ATOM     20  C   UNL A   1      32.211  20.847  23.223  1.00  0.00     0.090 A 
ATOM     21  Cl  UNL A   1      32.531  22.215  22.239  1.00  0.00    -0.080 Cl
BRANCH  16  22
ATOM     22  S   UNL A   1      33.155  17.168  25.489  1.00  0.00    -0.090 SA
ATOM     23  C   UNL A   1      34.233  16.572  24.155  1.00  0.00     0.094 C 
ENDBRANCH  16  22
ENDBRANCH  12  15
ENDBRANCH   7  11
ENDBRANCH   3   6
ENDBRANCH   1   2
BRANCH   1  24
ATOM     24  C   UNL A   1      33.707  28.096  26.001  1.00  0.00     0.042 C 
BRANCH  24  25
ATOM     25  C   UNL A   1      33.256  28.553  27.376  1.00  0.00     0.118 C 
BRANCH  25  26
ATOM     26  N   UNL A   1      33.438  29.977  27.620  1.00  0.00    -0.352 N 
ATOM     27  C   UNL A   1      34.526  30.710  28.037  1.00  0.00     0.251 C 
ATOM     28  H   UNL A   1      32.632  30.517  27.455  1.00  0.00     0.163 HD
ATOM     29  O   UNL A   1      34.390  31.914  28.253  1.00  0.00    -0.269 OA
BRANCH  27  30
ATOM     30  C   UNL A   1      35.845  30.079  28.275  1.00  0.00     0.039 A 
ATOM     31  C   UNL A   1      36.809  30.111  27.260  1.00  0.00     0.014 A 
ATOM     32  C   UNL A   1      36.140  29.432  29.472  1.00  0.00     0.014 A 
ATOM     33  C   UNL A   1      38.091  29.595  27.489  1.00  0.00     0.010 A 
ATOM     34  C   UNL A   1      37.442  29.029  29.742  1.00  0.00     0.010 A 
ATOM     35  C   UNL A   1      38.437  29.104  28.756  1.00  0.00    -0.014 A 
BRANCH  35  36
ATOM     36  C   UNL A   1      39.808  28.638  29.100  1.00  0.00     0.031 A 
ATOM     37  C   UNL A   1      40.796  29.611  29.688  1.00  0.00     0.074 A 
ATOM     38  C   UNL A   1      40.212  27.396  28.764  1.00  0.00     0.049 A 
ATOM     39  N   UNL A   1      42.095  29.505  29.811  1.00  0.00    -0.248 NA
ATOM     40  C   UNL A   1      40.252  30.897  30.157  1.00  0.00     0.031 C 
ATOM     41  C   UNL A   1      39.372  26.354  28.169  1.00  0.00     0.029 A 
ATOM     42  N   UNL A   1      41.453  26.810  28.849  1.00  0.00    -0.354 N 
ATOM     43  C   UNL A   1      42.524  30.724  30.322  1.00  0.00     0.074 A 
ATOM     44  C   UNL A   1      41.356  31.568  30.445  1.00  0.00     0.031 C 
ATOM     45  C   UNL A   1      40.117  25.259  27.952  1.00  0.00     0.029 A 
ATOM     46  C   UNL A   1      41.497  25.537  28.333  1.00  0.00     0.049 A 
ATOM     47  H   UNL A   1      42.235  27.259  29.244  1.00  0.00     0.167 HD
ATOM     48  C   UNL A   1      43.776  31.104  30.673  1.00  0.00     0.031 A 
ATOM     49  C   UNL A   1      42.537  24.698  28.156  1.00  0.00     0.031 A 
ATOM     50  C   UNL A   1      44.930  30.252  30.591  1.00  0.00     0.049 A 
ATOM     51  C   UNL A   1      43.917  25.137  28.561  1.00  0.00     0.074 A 
ATOM     52  C   UNL A   1      46.233  30.526  30.967  1.00  0.00     0.029 A 
ATOM     53  N   UNL A   1      44.914  28.951  30.114  1.00  0.00    -0.354 N 
ATOM     54  N   UNL A   1      44.304  26.286  29.059  1.00  0.00    -0.248 NA
ATOM     55  C   UNL A   1      45.004  24.163  28.381  1.00  0.00     0.031 C 
ATOM     56  C   UNL A   1      47.014  29.401  30.688  1.00  0.00     0.029 A 
ATOM     57  C   UNL A   1      46.186  28.410  30.183  1.00  0.00     0.049 A 
ATOM     58  H   UNL A   1      44.117  28.481  29.776  1.00  0.00     0.167 HD
ATOM     59  C   UNL A   1      45.667  26.159  29.287  1.00  0.00     0.074 A 
ATOM     60  C   UNL A   1      46.042  24.822  28.876  1.00  0.00     0.031 C 
ATOM     61  C   UNL A   1      46.533  27.069  29.793  1.00  0.00     0.031 A 
BRANCH  48  62
ATOM     62  C   UNL A   1      43.957  32.507  31.182  1.00  0.00    -0.014 A 
ATOM     63  C   UNL A   1      43.868  32.800  32.552  1.00  0.00     0.009 A 
ATOM     64  C   UNL A   1      44.251  33.545  30.284  1.00  0.00     0.009 A 
ATOM     65  C   UNL A   1      44.027  34.110  33.007  1.00  0.00     0.001 A 
ATOM     66  C   UNL A   1      44.442  34.849  30.745  1.00  0.00     0.001 A 
ATOM     67  C   UNL A   1      44.318  35.132  32.104  1.00  0.00     0.000 A 
ENDBRANCH  48  62
BRANCH  49  68
ATOM     68  C   UNL A   1      42.315  23.353  27.561  1.00  0.00    -0.014 A 
ATOM     69  C   UNL A   1      42.595  23.121  26.205  1.00  0.00     0.009 A 
ATOM     70  C   UNL A   1      41.816  22.297  28.340  1.00  0.00     0.009 A 
ATOM     71  C   UNL A   1      42.352  21.868  25.636  1.00  0.00     0.001 A 
ATOM     72  C   UNL A   1      41.602  21.037  27.775  1.00  0.00     0.001 A 
ATOM     73  C   UNL A   1      41.861  20.828  26.421  1.00  0.00     0.000 A 
ENDBRANCH  49  68
BRANCH  61  74
ATOM     74  C   UNL A   1      47.958  26.641  29.995  1.00  0.00    -0.014 A 
ATOM     75  C   UNL A   1      48.378  26.043  31.192  1.00  0.00     0.009 A 
ATOM     76  C   UNL A   1      48.869  26.764  28.933  1.00  0.00     0.009 A 
ATOM     77  C   UNL A   1      49.693  25.590  31.326  1.00  0.00     0.001 A 
ATOM     78  C   UNL A   1      50.174  26.289  29.064  1.00  0.00     0.001 A 
ATOM     79  C   UNL A   1      50.586  25.706  30.261  1.00  0.00     0.000 A 
ENDBRANCH  61  74
ENDBRANCH  35  36
ENDBRANCH  27  30
ENDBRANCH  25  26
ENDBRANCH  24  25
ENDBRANCH   1  24
TORSDOF 13
ENDMDL
MODEL 2
REMARK VINA RESULT:     -10.9      1.872      2.776
REMARK SMILES CSc1ncc(Cl)c(C(=O)Nc2ccsc2C(=O)NCCCNC(=O)c2ccc(-c3c4nc(c(-c5ccccc5)c5ccc([nH]5)c(-c5ccccc5)c5nc(c(-c6ccccc6)c6ccc3[nH]6)C=C5)C=C4)cc2)n1
REMARK SMILES IDX 20 1 19 2 17 3 18 4 16 6 12 7 13 8 14 9 15 10 11 11 9 12
REMARK SMILES IDX 10 13 8 15 3 16 4 17 74 18 5 19 6 20 7 21 2 22 1 23 21 24
REMARK SMILES IDX 22 25 23 26 24 27 25 29 26 30 27 31 73 32 28 33 72 34 29 35
REMARK SMILES IDX 30 36 31 37 66 38 32 39 71 40 65 41 67 42 33 43 70 44 64 45
REMARK SMILES IDX 63 46 34 48 56 49 41 50 55 51 42 52 45 53 54 54 68 55 43 56
REMARK SMILES IDX 44 57 53 59 69 60 46 61 35 62 36 63 40 64 37 65 39 66 38 67
REMARK SMILES IDX 57 68 58 69 62 70 59 71 61 72 60 73 47 74 48 75 52 76 49 77
REMARK SMILES IDX 51 78 50 79
REMARK H PARENT 19 5 11 14 23 28 67 47 45 58
REMARK Flexibility Score: inf
ROOT
ATOM      1  C   UNL A   1      31.723  26.876  26.735  1.00  0.00     0.118 C 
ENDROOT
BRANCH   1   2
ATOM      2  N   UNL A   1      30.579  26.684  25.874  1.00  0.00    -0.351 N 
ATOM      3  C   UNL A   1      30.442  26.524  24.508  1.00  0.00     0.263 C 
ATOM      4  O   UNL A   1      29.269  26.307  24.176  1.00  0.00    -0.268 OA
ATOM      5  H   UNL A   1      29.722  26.664  26.358  1.00  0.00     0.163 HD
BRANCH   3   6
ATOM      6  C   UNL A   1      31.530  26.646  23.523  1.00  0.00     0.115 A 
ATOM      7  C   UNL A   1      32.223  25.789  22.667  1.00  0.00     0.065 A 
ATOM      8  C   UNL A   1      33.320  26.422  22.003  1.00  0.00     0.038 A 
ATOM      9  C   UNL A   1      33.440  27.748  22.331  1.00  0.00     0.068 A 
ATOM     10  S   UNL A   1      32.238  28.239  23.426  1.00  0.00    -0.137 S 
BRANCH   7  11
ATOM     11  N   UNL A   1      31.890  24.472  22.449  1.00  0.00    -0.319 N 
ATOM     12  C   UNL A   1      32.135  23.353  23.221  1.00  0.00     0.276 C 
ATOM     13  O   UNL A   1      31.666  22.290  22.798  1.00  0.00    -0.267 OA
ATOM     14  H   UNL A   1      31.400  24.301  21.611  1.00  0.00     0.170 HD
BRANCH  12  15
ATOM     15  C   UNL A   1      32.827  23.343  24.557  1.00  0.00     0.151 A 
ATOM     16  C   UNL A   1      34.908  23.051  25.519  1.00  0.00     0.188 A 
ATOM     17  N   UNL A   1      34.430  23.172  26.762  1.00  0.00    -0.230 NA
ATOM     18  N   UNL A   1      34.175  23.197  24.412  1.00  0.00    -0.216 NA
ATOM     19  C   UNL A   1      33.098  23.298  26.874  1.00  0.00     0.137 A 
ATOM     20  C   UNL A   1      32.227  23.294  25.804  1.00  0.00     0.090 A 
ATOM     21  Cl  UNL A   1      30.580  22.993  26.177  1.00  0.00    -0.080 Cl
BRANCH  16  22
ATOM     22  S   UNL A   1      36.524  22.348  25.353  1.00  0.00    -0.090 SA
ATOM     23  C   UNL A   1      36.711  22.644  23.572  1.00  0.00     0.094 C 
ENDBRANCH  16  22
ENDBRANCH  12  15
ENDBRANCH   7  11
ENDBRANCH   3   6
ENDBRANCH   1   2
BRANCH   1  24
ATOM     24  C   UNL A   1      31.942  28.280  27.277  1.00  0.00     0.042 C 
BRANCH  24  25
ATOM     25  C   UNL A   1      33.376  28.778  27.246  1.00  0.00     0.118 C 
BRANCH  25  26
ATOM     26  N   UNL A   1      33.541  30.145  27.720  1.00  0.00    -0.352 N 
ATOM     27  C   UNL A   1      34.608  30.799  28.294  1.00  0.00     0.251 C 
ATOM     28  H   UNL A   1      32.742  30.707  27.608  1.00  0.00     0.163 HD
ATOM     29  O   UNL A   1      34.458  31.954  28.693  1.00  0.00    -0.269 OA
BRANCH  27  30
ATOM     30  C   UNL A   1      35.918  30.134  28.487  1.00  0.00     0.039 A 
ATOM     31  C   UNL A   1      36.832  30.110  27.426  1.00  0.00     0.014 A 
ATOM     32  C   UNL A   1      36.251  29.509  29.684  1.00  0.00     0.014 A 
ATOM     33  C   UNL A   1      38.107  29.560  27.608  1.00  0.00     0.010 A 
ATOM     34  C   UNL A   1      37.553  29.072  29.903  1.00  0.00     0.010 A 
ATOM     35  C   UNL A   1      38.500  29.092  28.869  1.00  0.00    -0.014 A 
BRANCH  35  36
ATOM     36  C   UNL A   1      39.872  28.592  29.160  1.00  0.00     0.031 A 
ATOM     37  C   UNL A   1      40.907  29.543  29.704  1.00  0.00     0.074 A 
ATOM     38  C   UNL A   1      40.230  27.339  28.814  1.00  0.00     0.049 A 
ATOM     39  N   UNL A   1      42.206  29.404  29.774  1.00  0.00    -0.248 NA
ATOM     40  C   UNL A   1      40.414  30.843  30.188  1.00  0.00     0.031 C 
ATOM     41  C   UNL A   1      39.341  26.317  28.258  1.00  0.00     0.029 A 
ATOM     42  N   UNL A   1      41.459  26.723  28.852  1.00  0.00    -0.354 N 
ATOM     43  C   UNL A   1      42.687  30.614  30.262  1.00  0.00     0.074 A 
ATOM     44  C   UNL A   1      41.546  31.487  30.428  1.00  0.00     0.031 C 
ATOM     45  C   UNL A   1      40.049  25.202  28.016  1.00  0.00     0.029 A 
ATOM     46  C   UNL A   1      41.450  25.447  28.340  1.00  0.00     0.049 A 
ATOM     47  H   UNL A   1      42.268  27.153  29.212  1.00  0.00     0.167 HD
ATOM     48  C   UNL A   1      43.961  30.963  30.561  1.00  0.00     0.031 A 
ATOM     49  C   UNL A   1      42.460  24.581  28.125  1.00  0.00     0.031 A 
ATOM     50  C   UNL A   1      45.089  30.082  30.436  1.00  0.00     0.049 A 
ATOM     51  C   UNL A   1      43.866  24.987  28.472  1.00  0.00     0.074 A 
ATOM     52  C   UNL A   1      46.412  30.325  30.758  1.00  0.00     0.029 A 
ATOM     53  N   UNL A   1      45.020  28.780  29.966  1.00  0.00    -0.354 N 
ATOM     54  N   UNL A   1      44.301  26.127  28.949  1.00  0.00    -0.248 NA
ATOM     55  C   UNL A   1      44.920  23.985  28.253  1.00  0.00     0.031 C 
ATOM     56  C   UNL A   1      47.152  29.179  30.453  1.00  0.00     0.029 A 
ATOM     57  C   UNL A   1      46.280  28.207  29.987  1.00  0.00     0.049 A 
ATOM     58  H   UNL A   1      44.199  28.330  29.663  1.00  0.00     0.167 HD
ATOM     59  C   UNL A   1      45.670  25.967  29.122  1.00  0.00     0.074 A 
ATOM     60  C   UNL A   1      45.994  24.620  28.702  1.00  0.00     0.031 C 
ATOM     61  C   UNL A   1      46.578  26.857  29.589  1.00  0.00     0.031 A 
BRANCH  48  62
ATOM     62  C   UNL A   1      44.197  32.363  31.055  1.00  0.00    -0.014 A 
ATOM     63  C   UNL A   1      44.487  33.409  30.164  1.00  0.00     0.009 A 
ATOM     64  C   UNL A   1      44.098  32.648  32.426  1.00  0.00     0.009 A 
ATOM     65  C   UNL A   1      44.715  34.701  30.640  1.00  0.00     0.001 A 
ATOM     66  C   UNL A   1      44.295  33.947  32.896  1.00  0.00     0.001 A 
ATOM     67  C   UNL A   1      44.615  34.970  32.004  1.00  0.00     0.000 A 
ENDBRANCH  48  62
BRANCH  49  68
ATOM     68  C   UNL A   1      42.181  23.240  27.546  1.00  0.00    -0.014 A 
ATOM     69  C   UNL A   1      42.405  22.995  26.182  1.00  0.00     0.009 A 
ATOM     70  C   UNL A   1      41.682  22.202  28.347  1.00  0.00     0.009 A 
ATOM     71  C   UNL A   1      42.109  21.747  25.629  1.00  0.00     0.001 A 
ATOM     72  C   UNL A   1      41.414  20.946  27.797  1.00  0.00     0.001 A 
ATOM     73  C   UNL A   1      41.618  20.723  26.437  1.00  0.00     0.000 A 
ENDBRANCH  49  68
BRANCH  61  74
ATOM     74  C   UNL A   1      47.998  26.393  29.735  1.00  0.00    -0.014 A 
ATOM     75  C   UNL A   1      48.920  26.522  28.687  1.00  0.00     0.009 A 
ATOM     76  C   UNL A   1      48.435  25.898  30.975  1.00  0.00     0.009 A 
ATOM     77  C   UNL A   1      50.253  26.147  28.873  1.00  0.00     0.001 A 
ATOM     78  C   UNL A   1      49.772  25.548  31.165  1.00  0.00     0.001 A 
ATOM     79  C   UNL A   1      50.679  25.669  30.113  1.00  0.00     0.000 A 
ENDBRANCH  61  74
ENDBRANCH  35  36
ENDBRANCH  27  30
ENDBRANCH  25  26
ENDBRANCH  24  25
ENDBRANCH   1  24
TORSDOF 13
ENDMDL
MODEL 3
REMARK VINA RESULT:     -10.8      1.733      2.357
REMARK SMILES CSc1ncc(Cl)c(C(=O)Nc2ccsc2C(=O)NCCCNC(=O)c2ccc(-c3c4nc(c(-c5ccccc5)c5ccc([nH]5)c(-c5ccccc5)c5nc(c(-c6ccccc6)c6ccc3[nH]6)C=C5)C=C4)cc2)n1
REMARK SMILES IDX 20 1 19 2 17 3 18 4 16 6 12 7 13 8 14 9 15 10 11 11 9 12
REMARK SMILES IDX 10 13 8 15 3 16 4 17 74 18 5 19 6 20 7 21 2 22 1 23 21 24
REMARK SMILES IDX 22 25 23 26 24 27 25 29 26 30 27 31 73 32 28 33 72 34 29 35
REMARK SMILES IDX 30 36 31 37 66 38 32 39 71 40 65 41 67 42 33 43 70 44 64 45
REMARK SMILES IDX 63 46 34 48 56 49 41 50 55 51 42 52 45 53 54 54 68 55 43 56
REMARK SMILES IDX 44 57 53 59 69 60 46 61 35 62 36 63 40 64 37 65 39 66 38 67
REMARK SMILES IDX 57 68 58 69 62 70 59 71 61 72 60 73 47 74 48 75 52 76 49 77
REMARK SMILES IDX 51 78 50 79
REMARK H PARENT 19 5 11 14 23 28 67 47 45 58
REMARK Flexibility Score: inf
ROOT
ATOM      1  C   UNL A   1      32.034  27.423  26.834  1.00  0.00     0.118 C 
ENDROOT
BRANCH   1   2
ATOM      2  N   UNL A   1      33.198  26.867  26.182  1.00  0.00    -0.351 N 
ATOM      3  C   UNL A   1      33.375  25.821  25.298  1.00  0.00     0.263 C 
ATOM      4  O   UNL A   1      34.549  25.722  24.916  1.00  0.00    -0.268 OA
ATOM      5  H   UNL A   1      34.036  27.328  26.417  1.00  0.00     0.163 HD
BRANCH   3   6
ATOM      6  C   UNL A   1      32.329  24.873  24.879  1.00  0.00     0.115 A 
ATOM      7  C   UNL A   1      31.697  23.755  25.426  1.00  0.00     0.065 A 
ATOM      8  C   UNL A   1      30.819  23.098  24.508  1.00  0.00     0.038 A 
ATOM      9  C   UNL A   1      30.766  23.726  23.290  1.00  0.00     0.068 A 
ATOM     10  S   UNL A   1      31.759  25.104  23.246  1.00  0.00    -0.137 S 
BRANCH   7  11
ATOM     11  N   UNL A   1      31.865  23.323  26.722  1.00  0.00    -0.319 N 
ATOM     12  C   UNL A   1      32.781  22.434  27.250  1.00  0.00     0.276 C 
ATOM     13  O   UNL A   1      32.734  22.273  28.475  1.00  0.00    -0.267 OA
ATOM     14  H   UNL A   1      31.233  23.707  27.373  1.00  0.00     0.170 HD
BRANCH  12  15
ATOM     15  C   UNL A   1      33.873  21.739  26.483  1.00  0.00     0.151 A 
ATOM     16  C   UNL A   1      36.053  22.024  25.772  1.00  0.00     0.188 A 
ATOM     17  N   UNL A   1      36.067  20.861  25.113  1.00  0.00    -0.230 NA
ATOM     18  N   UNL A   1      35.030  22.461  26.512  1.00  0.00    -0.216 NA
ATOM     19  C   UNL A   1      34.909  20.181  25.090  1.00  0.00     0.137 A 
ATOM     20  C   UNL A   1      33.742  20.618  25.680  1.00  0.00     0.090 A 
ATOM     21  Cl  UNL A   1      32.299  19.861  25.145  1.00  0.00    -0.080 Cl
BRANCH  16  22
ATOM     22  S   UNL A   1      37.336  23.178  25.375  1.00  0.00    -0.090 SA
ATOM     23  C   UNL A   1      36.949  23.339  23.609  1.00  0.00     0.094 C 
ENDBRANCH  16  22
ENDBRANCH  12  15
ENDBRANCH   7  11
ENDBRANCH   3   6
ENDBRANCH   1   2
BRANCH   1  24
ATOM     24  C   UNL A   1      32.129  28.873  27.282  1.00  0.00     0.042 C 
BRANCH  24  25
ATOM     25  C   UNL A   1      33.510  29.497  27.193  1.00  0.00     0.118 C 
BRANCH  25  26
ATOM     26  N   UNL A   1      33.663  30.719  27.971  1.00  0.00    -0.352 N 
ATOM     27  C   UNL A   1      34.707  31.207  28.725  1.00  0.00     0.251 C 
ATOM     28  H   UNL A   1      32.874  31.305  27.955  1.00  0.00     0.163 HD
ATOM     29  O   UNL A   1      34.547  32.244  29.368  1.00  0.00    -0.269 OA
BRANCH  27  30
ATOM     30  C   UNL A   1      36.001  30.493  28.818  1.00  0.00     0.039 A 
ATOM     31  C   UNL A   1      36.843  30.461  27.700  1.00  0.00     0.014 A 
ATOM     32  C   UNL A   1      36.389  29.831  29.979  1.00  0.00     0.014 A 
ATOM     33  C   UNL A   1      38.108  29.864  27.786  1.00  0.00     0.010 A 
ATOM     34  C   UNL A   1      37.686  29.345  30.103  1.00  0.00     0.010 A 
ATOM     35  C   UNL A   1      38.564  29.355  29.010  1.00  0.00    -0.014 A 
BRANCH  35  36
ATOM     36  C   UNL A   1      39.933  28.802  29.200  1.00  0.00     0.031 A 
ATOM     37  C   UNL A   1      41.050  29.718  29.628  1.00  0.00     0.074 A 
ATOM     38  C   UNL A   1      40.208  27.525  28.863  1.00  0.00     0.049 A 
ATOM     39  N   UNL A   1      42.343  29.524  29.595  1.00  0.00    -0.248 NA
ATOM     40  C   UNL A   1      40.655  31.052  30.114  1.00  0.00     0.031 C 
ATOM     41  C   UNL A   1      39.232  26.530  28.413  1.00  0.00     0.029 A 
ATOM     42  N   UNL A   1      41.408  26.856  28.816  1.00  0.00    -0.354 N 
ATOM     43  C   UNL A   1      42.914  30.723  30.005  1.00  0.00     0.074 A 
ATOM     44  C   UNL A   1      41.830  31.651  30.240  1.00  0.00     0.031 C 
ATOM     45  C   UNL A   1      39.870  25.379  28.145  1.00  0.00     0.029 A 
ATOM     46  C   UNL A   1      41.302  25.569  28.345  1.00  0.00     0.049 A 
ATOM     47  H   UNL A   1      42.262  27.259  29.095  1.00  0.00     0.167 HD
ATOM     48  C   UNL A   1      44.222  31.022  30.187  1.00  0.00     0.031 A 
ATOM     49  C   UNL A   1      42.253  24.654  28.072  1.00  0.00     0.031 A 
ATOM     50  C   UNL A   1      45.297  30.089  29.995  1.00  0.00     0.049 A 
ATOM     51  C   UNL A   1      43.699  25.005  28.289  1.00  0.00     0.074 A 
ATOM     52  C   UNL A   1      46.652  30.280  30.199  1.00  0.00     0.029 A 
ATOM     53  N   UNL A   1      45.135  28.780  29.570  1.00  0.00    -0.354 N 
ATOM     54  N   UNL A   1      44.221  26.136  28.694  1.00  0.00    -0.248 NA
ATOM     55  C   UNL A   1      44.687  23.951  28.013  1.00  0.00     0.031 C 
ATOM     56  C   UNL A   1      47.315  29.095  29.866  1.00  0.00     0.029 A 
ATOM     57  C   UNL A   1      46.366  28.152  29.503  1.00  0.00     0.049 A 
ATOM     58  H   UNL A   1      44.272  28.359  29.350  1.00  0.00     0.167 HD
ATOM     59  C   UNL A   1      45.591  25.920  28.758  1.00  0.00     0.074 A 
ATOM     60  C   UNL A   1      45.821  24.549  28.353  1.00  0.00     0.031 C 
ATOM     61  C   UNL A   1      46.572  26.780  29.122  1.00  0.00     0.031 A 
BRANCH  48  62
ATOM     62  C   UNL A   1      44.559  32.423  30.619  1.00  0.00    -0.014 A 
ATOM     63  C   UNL A   1      44.709  32.748  31.976  1.00  0.00     0.009 A 
ATOM     64  C   UNL A   1      44.759  33.424  29.655  1.00  0.00     0.009 A 
ATOM     65  C   UNL A   1      45.011  34.056  32.361  1.00  0.00     0.001 A 
ATOM     66  C   UNL A   1      45.092  34.723  30.041  1.00  0.00     0.001 A 
ATOM     67  C   UNL A   1      45.206  35.040  31.394  1.00  0.00     0.000 A 
ENDBRANCH  48  62
BRANCH  49  68
ATOM     68  C   UNL A   1      41.869  23.312  27.558  1.00  0.00    -0.014 A 
ATOM     69  C   UNL A   1      41.538  22.278  28.446  1.00  0.00     0.009 A 
ATOM     70  C   UNL A   1      41.840  23.055  26.178  1.00  0.00     0.009 A 
ATOM     71  C   UNL A   1      41.214  21.007  27.965  1.00  0.00     0.001 A 
ATOM     72  C   UNL A   1      41.488  21.791  25.699  1.00  0.00     0.001 A 
ATOM     73  C   UNL A   1      41.185  20.766  26.593  1.00  0.00     0.000 A 
ENDBRANCH  49  68
BRANCH  61  74
ATOM     74  C   UNL A   1      47.978  26.257  29.163  1.00  0.00    -0.014 A 
ATOM     75  C   UNL A   1      48.551  25.795  30.357  1.00  0.00     0.009 A 
ATOM     76  C   UNL A   1      48.707  26.150  27.967  1.00  0.00     0.009 A 
ATOM     77  C   UNL A   1      49.837  25.249  30.353  1.00  0.00     0.001 A 
ATOM     78  C   UNL A   1      49.981  25.582  27.964  1.00  0.00     0.001 A 
ATOM     79  C   UNL A   1      50.547  25.136  29.158  1.00  0.00     0.000 A 
ENDBRANCH  61  74
ENDBRANCH  35  36
ENDBRANCH  27  30
ENDBRANCH  25  26
ENDBRANCH  24  25
ENDBRANCH   1  24
TORSDOF 13
ENDMDL
