MODEL 1
REMARK VINA RESULT:     -10.0      0.000      0.000
REMARK SMILES [NH3+][C@H](Cc1ccc(O)c(F)c1)C(=O)NCCCNC(=O)c1ccc(-c2c3nc(c(-c4ccccc4)c4ccc([nH]4)c(-c4ccccc4)c4nc(c(-c5ccccc5)c5ccc2[nH]5)C=C4)C=C3)cc1
REMARK SMILES IDX 15 1 14 2 12 3 13 4 2 6 1 7 3 11 4 12 5 13 11 14 6 15 9 16
REMARK SMILES IDX 7 17 10 18 8 19 16 21 17 22 18 23 19 24 20 26 21 27 22 28
REMARK SMILES IDX 68 29 23 30 67 31 24 32 25 33 26 34 61 35 27 36 66 37 60 38
REMARK SMILES IDX 62 39 28 40 65 41 59 42 58 43 29 45 51 46 36 47 50 48 37 49
REMARK SMILES IDX 40 50 49 51 63 52 38 53 39 54 48 56 64 57 41 58 30 59 31 60
REMARK SMILES IDX 35 61 32 62 34 63 33 64 52 65 53 66 57 67 54 68 56 69 55 70
REMARK SMILES IDX 42 71 43 72 47 73 44 74 46 75 45 76
REMARK H PARENT 14 5 1 8 1 9 1 10 8 20 18 25 62 44 40 55
REMARK Flexibility Score: inf
ROOT
ATOM      1  C   UNL A   1      32.737  36.213  31.102  1.00  0.00     0.118 C 
ENDROOT
BRANCH   1   2
ATOM      2  N   UNL A   1      32.942  36.851  32.381  1.00  0.00    -0.351 N 
ATOM      3  C   UNL A   1      33.915  36.651  33.318  1.00  0.00     0.278 C 
ATOM      4  O   UNL A   1      33.833  37.315  34.356  1.00  0.00    -0.268 OA
ATOM      5  H   UNL A   1      32.275  37.537  32.615  1.00  0.00     0.163 HD
BRANCH   3   6
ATOM      6  C   UNL A   1      35.084  35.651  33.095  1.00  0.00     0.275 C 
BRANCH   6   7
ATOM      7  N   UNL A   1      35.176  35.282  31.675  1.00  0.00    -0.347 N 
ATOM      8  H   UNL A   1      35.226  36.127  31.106  1.00  0.00     0.345 HD
ATOM      9  H   UNL A   1      34.351  34.742  31.410  1.00  0.00     0.345 HD
ATOM     10  H   UNL A   1      36.013  34.719  31.523  1.00  0.00     0.345 HD
ENDBRANCH   6   7
BRANCH   6  11
ATOM     11  C   UNL A   1      35.161  34.543  34.182  1.00  0.00     0.111 C 
BRANCH  11  12
ATOM     12  C   UNL A   1      36.184  33.414  34.181  1.00  0.00    -0.038 A 
ATOM     13  C   UNL A   1      37.146  33.402  35.213  1.00  0.00     0.008 A 
ATOM     14  C   UNL A   1      36.159  32.308  33.323  1.00  0.00     0.047 A 
ATOM     15  C   UNL A   1      38.030  32.328  35.386  1.00  0.00     0.049 A 
ATOM     16  C   UNL A   1      37.020  31.227  33.510  1.00  0.00     0.165 A 
ATOM     17  C   UNL A   1      37.951  31.231  34.538  1.00  0.00     0.151 A 
ATOM     18  F   UNL A   1      36.912  30.171  32.691  1.00  0.00    -0.203 F 
BRANCH  17  19
ATOM     19  O   UNL A   1      38.766  30.149  34.700  1.00  0.00    -0.505 OA
ATOM     20  H   UNL A   1      39.695  30.246  34.622  1.00  0.00     0.293 HD
ENDBRANCH  17  19
ENDBRANCH  11  12
ENDBRANCH   6  11
ENDBRANCH   3   6
ENDBRANCH   1   2
BRANCH   1  21
ATOM     21  C   UNL A   1      33.007  37.149  29.933  1.00  0.00     0.042 C 
BRANCH  21  22
ATOM     22  C   UNL A   1      33.602  36.434  28.730  1.00  0.00     0.118 C 
BRANCH  22  23
ATOM     23  N   UNL A   1      32.755  35.342  28.259  1.00  0.00    -0.352 N 
ATOM     24  C   UNL A   1      33.047  34.019  28.027  1.00  0.00     0.251 C 
ATOM     25  H   UNL A   1      31.820  35.595  28.078  1.00  0.00     0.163 HD
ATOM     26  O   UNL A   1      32.230  33.306  27.461  1.00  0.00    -0.269 OA
BRANCH  24  27
ATOM     27  C   UNL A   1      34.351  33.458  28.443  1.00  0.00     0.039 A 
ATOM     28  C   UNL A   1      35.513  33.892  27.796  1.00  0.00     0.014 A 
ATOM     29  C   UNL A   1      34.431  32.497  29.451  1.00  0.00     0.014 A 
ATOM     30  C   UNL A   1      36.758  33.411  28.210  1.00  0.00     0.010 A 
ATOM     31  C   UNL A   1      35.673  32.096  29.927  1.00  0.00     0.010 A 
ATOM     32  C   UNL A   1      36.850  32.538  29.305  1.00  0.00    -0.014 A 
BRANCH  32  33
ATOM     33  C   UNL A   1      38.155  32.045  29.810  1.00  0.00     0.031 A 
ATOM     34  C   UNL A   1      38.691  30.724  29.326  1.00  0.00     0.074 A 
ATOM     35  C   UNL A   1      38.810  32.729  30.769  1.00  0.00     0.049 A 
ATOM     36  N   UNL A   1      39.731  30.050  29.743  1.00  0.00    -0.248 NA
ATOM     37  C   UNL A   1      37.933  30.056  28.254  1.00  0.00     0.031 C 
ATOM     38  C   UNL A   1      38.379  34.001  31.354  1.00  0.00     0.029 A 
ATOM     39  N   UNL A   1      39.976  32.438  31.430  1.00  0.00    -0.354 N 
ATOM     40  C   UNL A   1      39.728  28.866  29.016  1.00  0.00     0.074 A 
ATOM     41  C   UNL A   1      38.558  28.892  28.166  1.00  0.00     0.031 C 
ATOM     42  C   UNL A   1      39.283  34.393  32.267  1.00  0.00     0.029 A 
ATOM     43  C   UNL A   1      40.329  33.380  32.365  1.00  0.00     0.049 A 
ATOM     44  H   UNL A   1      40.510  31.630  31.251  1.00  0.00     0.167 HD
ATOM     45  C   UNL A   1      40.627  27.855  29.036  1.00  0.00     0.031 A 
ATOM     46  C   UNL A   1      41.373  33.420  33.213  1.00  0.00     0.031 A 
ATOM     47  C   UNL A   1      41.810  27.845  29.853  1.00  0.00     0.049 A 
ATOM     48  C   UNL A   1      42.367  32.293  33.207  1.00  0.00     0.074 A 
ATOM     49  C   UNL A   1      42.819  26.899  29.897  1.00  0.00     0.029 A 
ATOM     50  N   UNL A   1      42.145  28.835  30.762  1.00  0.00    -0.354 N 
ATOM     51  N   UNL A   1      42.378  31.204  32.476  1.00  0.00    -0.248 NA
ATOM     52  C   UNL A   1      43.500  32.406  34.138  1.00  0.00     0.031 C 
ATOM     53  C   UNL A   1      43.748  27.299  30.864  1.00  0.00     0.029 A 
ATOM     54  C   UNL A   1      43.340  28.517  31.384  1.00  0.00     0.049 A 
ATOM     55  H   UNL A   1      41.613  29.644  30.939  1.00  0.00     0.167 HD
ATOM     56  C   UNL A   1      43.528  30.517  32.837  1.00  0.00     0.074 A 
ATOM     57  C   UNL A   1      44.197  31.318  33.843  1.00  0.00     0.031 C 
ATOM     58  C   UNL A   1      43.991  29.330  32.378  1.00  0.00     0.031 A 
BRANCH  45  59
ATOM     59  C   UNL A   1      40.359  26.674  28.144  1.00  0.00    -0.014 A 
ATOM     60  C   UNL A   1      40.930  26.583  26.865  1.00  0.00     0.009 A 
ATOM     61  C   UNL A   1      39.539  25.629  28.597  1.00  0.00     0.009 A 
ATOM     62  C   UNL A   1      40.651  25.491  26.040  1.00  0.00     0.001 A 
ATOM     63  C   UNL A   1      39.285  24.524  27.782  1.00  0.00     0.001 A 
ATOM     64  C   UNL A   1      39.832  24.461  26.501  1.00  0.00     0.000 A 
ENDBRANCH  45  59
BRANCH  46  65
ATOM     65  C   UNL A   1      41.546  34.577  34.129  1.00  0.00    -0.014 A 
ATOM     66  C   UNL A   1      42.314  35.684  33.733  1.00  0.00     0.009 A 
ATOM     67  C   UNL A   1      40.951  34.583  35.400  1.00  0.00     0.009 A 
ATOM     68  C   UNL A   1      42.503  36.759  34.602  1.00  0.00     0.001 A 
ATOM     69  C   UNL A   1      41.121  35.672  36.257  1.00  0.00     0.001 A 
ATOM     70  C   UNL A   1      41.905  36.755  35.861  1.00  0.00     0.000 A 
ENDBRANCH  46  65
BRANCH  58  71
ATOM     71  C   UNL A   1      45.302  28.845  32.928  1.00  0.00    -0.014 A 
ATOM     72  C   UNL A   1      46.519  29.202  32.331  1.00  0.00     0.009 A 
ATOM     73  C   UNL A   1      45.315  28.056  34.090  1.00  0.00     0.009 A 
ATOM     74  C   UNL A   1      47.727  28.751  32.869  1.00  0.00     0.001 A 
ATOM     75  C   UNL A   1      46.523  27.630  34.640  1.00  0.00     0.001 A 
ATOM     76  C   UNL A   1      47.728  27.971  34.025  1.00  0.00     0.000 A 
ENDBRANCH  58  71
ENDBRANCH  32  33
ENDBRANCH  24  27
ENDBRANCH  22  23
ENDBRANCH  21  22
ENDBRANCH   1  21
TORSDOF 14
ENDMDL
MODEL 2
REMARK VINA RESULT:      -9.6      2.012      6.832
REMARK SMILES [NH3+][C@H](Cc1ccc(O)c(F)c1)C(=O)NCCCNC(=O)c1ccc(-c2c3nc(c(-c4ccccc4)c4ccc([nH]4)c(-c4ccccc4)c4nc(c(-c5ccccc5)c5ccc2[nH]5)C=C4)C=C3)cc1
REMARK SMILES IDX 15 1 14 2 12 3 13 4 2 6 1 7 3 11 4 12 5 13 11 14 6 15 9 16
REMARK SMILES IDX 7 17 10 18 8 19 16 21 17 22 18 23 19 24 20 26 21 27 22 28
REMARK SMILES IDX 68 29 23 30 67 31 24 32 25 33 26 34 61 35 27 36 66 37 60 38
REMARK SMILES IDX 62 39 28 40 65 41 59 42 58 43 29 45 51 46 36 47 50 48 37 49
REMARK SMILES IDX 40 50 49 51 63 52 38 53 39 54 48 56 64 57 41 58 30 59 31 60
REMARK SMILES IDX 35 61 32 62 34 63 33 64 52 65 53 66 57 67 54 68 56 69 55 70
REMARK SMILES IDX 42 71 43 72 47 73 44 74 46 75 45 76
REMARK H PARENT 14 5 1 8 1 9 1 10 8 20 18 25 62 44 40 55
REMARK Flexibility Score: inf
ROOT
ATOM      1  C   UNL A   1      33.122  35.321  28.927  1.00  0.00     0.118 C 
ENDROOT
BRANCH   1   2
ATOM      2  N   UNL A   1      33.031  36.536  29.703  1.00  0.00    -0.351 N 
ATOM      3  C   UNL A   1      33.035  36.717  31.057  1.00  0.00     0.278 C 
ATOM      4  O   UNL A   1      32.906  37.876  31.463  1.00  0.00    -0.268 OA
ATOM      5  H   UNL A   1      32.955  37.363  29.174  1.00  0.00     0.163 HD
BRANCH   3   6
ATOM      6  C   UNL A   1      33.208  35.533  32.049  1.00  0.00     0.275 C 
BRANCH   6   7
ATOM      7  N   UNL A   1      31.937  35.248  32.730  1.00  0.00    -0.347 N 
ATOM      8  H   UNL A   1      31.176  35.715  32.238  1.00  0.00     0.345 HD
ATOM      9  H   UNL A   1      31.982  35.589  33.691  1.00  0.00     0.345 HD
ATOM     10  H   UNL A   1      31.772  34.241  32.735  1.00  0.00     0.345 HD
ENDBRANCH   6   7
BRANCH   6  11
ATOM     11  C   UNL A   1      34.521  35.612  32.876  1.00  0.00     0.111 C 
BRANCH  11  12
ATOM     12  C   UNL A   1      35.414  34.415  33.179  1.00  0.00    -0.038 A 
ATOM     13  C   UNL A   1      36.217  34.474  34.338  1.00  0.00     0.008 A 
ATOM     14  C   UNL A   1      35.395  33.201  32.481  1.00  0.00     0.047 A 
ATOM     15  C   UNL A   1      36.954  33.367  34.783  1.00  0.00     0.049 A 
ATOM     16  C   UNL A   1      36.106  32.092  32.937  1.00  0.00     0.165 A 
ATOM     17  C   UNL A   1      36.882  32.169  34.085  1.00  0.00     0.151 A 
ATOM     18  F   UNL A   1      36.005  30.940  32.257  1.00  0.00    -0.203 F 
BRANCH  17  19
ATOM     19  O   UNL A   1      37.551  31.059  34.510  1.00  0.00    -0.505 OA
ATOM     20  H   UNL A   1      37.110  30.417  35.032  1.00  0.00     0.293 HD
ENDBRANCH  17  19
ENDBRANCH  11  12
ENDBRANCH   6  11
ENDBRANCH   3   6
ENDBRANCH   1   2
BRANCH   1  21
ATOM     21  C   UNL A   1      34.553  34.988  28.529  1.00  0.00     0.042 C 
BRANCH  21  22
ATOM     22  C   UNL A   1      34.947  33.564  28.887  1.00  0.00     0.118 C 
BRANCH  22  23
ATOM     23  N   UNL A   1      34.137  32.571  28.188  1.00  0.00    -0.352 N 
ATOM     24  C   UNL A   1      34.434  31.285  27.804  1.00  0.00     0.251 C 
ATOM     25  H   UNL A   1      33.230  32.872  27.953  1.00  0.00     0.163 HD
ATOM     26  O   UNL A   1      33.668  30.679  27.067  1.00  0.00    -0.269 OA
BRANCH  24  27
ATOM     27  C   UNL A   1      35.682  30.637  28.264  1.00  0.00     0.039 A 
ATOM     28  C   UNL A   1      36.880  30.928  27.605  1.00  0.00     0.014 A 
ATOM     29  C   UNL A   1      35.671  29.731  29.326  1.00  0.00     0.014 A 
ATOM     30  C   UNL A   1      38.076  30.365  28.058  1.00  0.00     0.010 A 
ATOM     31  C   UNL A   1      36.871  29.251  29.836  1.00  0.00     0.010 A 
ATOM     32  C   UNL A   1      38.085  29.552  29.201  1.00  0.00    -0.014 A 
BRANCH  32  33
ATOM     33  C   UNL A   1      39.339  28.976  29.747  1.00  0.00     0.031 A 
ATOM     34  C   UNL A   1      40.057  29.681  30.867  1.00  0.00     0.074 A 
ATOM     35  C   UNL A   1      39.882  27.882  29.179  1.00  0.00     0.049 A 
ATOM     36  N   UNL A   1      41.230  29.427  31.388  1.00  0.00    -0.248 NA
ATOM     37  C   UNL A   1      39.381  30.850  31.454  1.00  0.00     0.031 C 
ATOM     38  C   UNL A   1      39.309  27.127  28.062  1.00  0.00     0.029 A 
ATOM     39  N   UNL A   1      41.051  27.221  29.460  1.00  0.00    -0.354 N 
ATOM     40  C   UNL A   1      41.447  30.424  32.330  1.00  0.00     0.074 A 
ATOM     41  C   UNL A   1      40.308  31.314  32.277  1.00  0.00     0.031 C 
ATOM     42  C   UNL A   1      40.115  26.093  27.771  1.00  0.00     0.029 A 
ATOM     43  C   UNL A   1      41.281  26.138  28.647  1.00  0.00     0.049 A 
ATOM     44  H   UNL A   1      41.668  27.498  30.177  1.00  0.00     0.167 HD
ATOM     45  C   UNL A   1      42.490  30.578  33.178  1.00  0.00     0.031 A 
ATOM     46  C   UNL A   1      42.319  25.282  28.606  1.00  0.00     0.031 A 
ATOM     47  C   UNL A   1      43.605  29.673  33.258  1.00  0.00     0.049 A 
ATOM     48  C   UNL A   1      43.459  25.464  29.569  1.00  0.00     0.074 A 
ATOM     49  C   UNL A   1      44.679  29.703  34.130  1.00  0.00     0.029 A 
ATOM     50  N   UNL A   1      43.781  28.570  32.437  1.00  0.00    -0.354 N 
ATOM     51  N   UNL A   1      43.625  26.383  30.489  1.00  0.00    -0.248 NA
ATOM     52  C   UNL A   1      44.551  24.482  29.492  1.00  0.00     0.031 C 
ATOM     53  C   UNL A   1      45.527  28.636  33.810  1.00  0.00     0.029 A 
ATOM     54  C   UNL A   1      44.955  27.918  32.773  1.00  0.00     0.049 A 
ATOM     55  H   UNL A   1      43.163  28.293  31.723  1.00  0.00     0.167 HD
ATOM     56  C   UNL A   1      44.823  26.076  31.119  1.00  0.00     0.074 A 
ATOM     57  C   UNL A   1      45.335  24.878  30.484  1.00  0.00     0.031 C 
ATOM     58  C   UNL A   1      45.444  26.725  32.133  1.00  0.00     0.031 A 
BRANCH  45  59
ATOM     59  C   UNL A   1      42.468  31.774  34.090  1.00  0.00    -0.014 A 
ATOM     60  C   UNL A   1      41.884  31.709  35.364  1.00  0.00     0.009 A 
ATOM     61  C   UNL A   1      43.059  32.978  33.675  1.00  0.00     0.009 A 
ATOM     62  C   UNL A   1      41.851  32.836  36.187  1.00  0.00     0.001 A 
ATOM     63  C   UNL A   1      43.052  34.096  34.512  1.00  0.00     0.001 A 
ATOM     64  C   UNL A   1      42.439  34.027  35.762  1.00  0.00     0.000 A 
ENDBRANCH  45  59
BRANCH  46  65
ATOM     65  C   UNL A   1      42.323  24.162  27.630  1.00  0.00    -0.014 A 
ATOM     66  C   UNL A   1      42.901  24.331  26.362  1.00  0.00     0.009 A 
ATOM     67  C   UNL A   1      41.748  22.924  27.955  1.00  0.00     0.009 A 
ATOM     68  C   UNL A   1      42.880  23.291  25.432  1.00  0.00     0.001 A 
ATOM     69  C   UNL A   1      41.753  21.877  27.032  1.00  0.00     0.001 A 
ATOM     70  C   UNL A   1      42.309  22.064  25.767  1.00  0.00     0.000 A 
ENDBRANCH  46  65
BRANCH  58  71
ATOM     71  C   UNL A   1      46.725  26.132  32.645  1.00  0.00    -0.014 A 
ATOM     72  C   UNL A   1      47.966  26.509  32.112  1.00  0.00     0.009 A 
ATOM     73  C   UNL A   1      46.687  25.216  33.708  1.00  0.00     0.009 A 
ATOM     74  C   UNL A   1      49.146  25.956  32.615  1.00  0.00     0.001 A 
ATOM     75  C   UNL A   1      47.868  24.685  34.225  1.00  0.00     0.001 A 
ATOM     76  C   UNL A   1      49.096  25.049  33.673  1.00  0.00     0.000 A 
ENDBRANCH  58  71
ENDBRANCH  32  33
ENDBRANCH  24  27
ENDBRANCH  22  23
ENDBRANCH  21  22
ENDBRANCH   1  21
TORSDOF 14
ENDMDL
MODEL 3
REMARK VINA RESULT:      -9.6      2.687      7.269
REMARK SMILES [NH3+][C@H](Cc1ccc(O)c(F)c1)C(=O)NCCCNC(=O)c1ccc(-c2c3nc(c(-c4ccccc4)c4ccc([nH]4)c(-c4ccccc4)c4nc(c(-c5ccccc5)c5ccc2[nH]5)C=C4)C=C3)cc1
REMARK SMILES IDX 15 1 14 2 12 3 13 4 2 6 1 7 3 11 4 12 5 13 11 14 6 15 9 16
REMARK SMILES IDX 7 17 10 18 8 19 16 21 17 22 18 23 19 24 20 26 21 27 22 28
REMARK SMILES IDX 68 29 23 30 67 31 24 32 25 33 26 34 61 35 27 36 66 37 60 38
REMARK SMILES IDX 62 39 28 40 65 41 59 42 58 43 29 45 51 46 36 47 50 48 37 49
REMARK SMILES IDX 40 50 49 51 63 52 38 53 39 54 48 56 64 57 41 58 30 59 31 60
REMARK SMILES IDX 35 61 32 62 34 63 33 64 52 65 53 66 57 67 54 68 56 69 55 70
REMARK SMILES IDX 42 71 43 72 47 73 44 74 46 75 45 76
REMARK H PARENT 14 5 1 8 1 9 1 10 8 20 18 25 62 44 40 55
REMARK Flexibility Score: inf
ROOT
ATOM      1  C   UNL A   1      33.025  34.636  28.940  1.00  0.00     0.118 C 
ENDROOT
BRANCH   1   2
ATOM      2  N   UNL A   1      32.974  35.974  29.482  1.00  0.00    -0.351 N 
ATOM      3  C   UNL A   1      32.977  36.398  30.780  1.00  0.00     0.278 C 
ATOM      4  O   UNL A   1      32.889  37.614  30.968  1.00  0.00    -0.268 OA
ATOM      5  H   UNL A   1      32.932  36.692  28.810  1.00  0.00     0.163 HD
BRANCH   3   6
ATOM      6  C   UNL A   1      33.100  35.407  31.973  1.00  0.00     0.275 C 
BRANCH   6   7
ATOM      7  N   UNL A   1      31.827  35.329  32.704  1.00  0.00    -0.347 N 
ATOM      8  H   UNL A   1      31.663  34.367  33.000  1.00  0.00     0.345 HD
ATOM      9  H   UNL A   1      31.066  35.632  32.095  1.00  0.00     0.345 HD
ATOM     10  H   UNL A   1      31.868  35.935  33.523  1.00  0.00     0.345 HD
ENDBRANCH   6   7
BRANCH   6  11
ATOM     11  C   UNL A   1      34.430  35.559  32.761  1.00  0.00     0.111 C 
BRANCH  11  12
ATOM     12  C   UNL A   1      35.495  34.474  32.856  1.00  0.00    -0.038 A 
ATOM     13  C   UNL A   1      35.060  33.138  32.981  1.00  0.00     0.008 A 
ATOM     14  C   UNL A   1      36.870  34.680  32.686  1.00  0.00     0.047 A 
ATOM     15  C   UNL A   1      35.955  32.060  32.923  1.00  0.00     0.049 A 
ATOM     16  C   UNL A   1      37.758  33.609  32.602  1.00  0.00     0.165 A 
ATOM     17  C   UNL A   1      37.307  32.302  32.716  1.00  0.00     0.151 A 
ATOM     18  F   UNL A   1      39.056  33.866  32.382  1.00  0.00    -0.203 F 
BRANCH  17  19
ATOM     19  O   UNL A   1      38.203  31.279  32.612  1.00  0.00    -0.505 OA
ATOM     20  H   UNL A   1      39.094  31.407  32.873  1.00  0.00     0.293 HD
ENDBRANCH  17  19
ENDBRANCH  11  12
ENDBRANCH   6  11
ENDBRANCH   3   6
ENDBRANCH   1   2
BRANCH   1  21
ATOM     21  C   UNL A   1      34.445  34.179  28.643  1.00  0.00     0.042 C 
BRANCH  21  22
ATOM     22  C   UNL A   1      34.775  32.833  29.270  1.00  0.00     0.118 C 
BRANCH  22  23
ATOM     23  N   UNL A   1      34.102  31.727  28.597  1.00  0.00    -0.352 N 
ATOM     24  C   UNL A   1      34.599  30.543  28.106  1.00  0.00     0.251 C 
ATOM     25  H   UNL A   1      33.132  31.849  28.474  1.00  0.00     0.163 HD
ATOM     26  O   UNL A   1      33.889  29.826  27.414  1.00  0.00    -0.269 OA
BRANCH  24  27
ATOM     27  C   UNL A   1      35.993  30.141  28.396  1.00  0.00     0.039 A 
ATOM     28  C   UNL A   1      36.301  29.623  29.659  1.00  0.00     0.014 A 
ATOM     29  C   UNL A   1      36.997  30.290  27.439  1.00  0.00     0.014 A 
ATOM     30  C   UNL A   1      37.601  29.191  29.933  1.00  0.00     0.010 A 
ATOM     31  C   UNL A   1      38.263  29.770  27.679  1.00  0.00     0.010 A 
ATOM     32  C   UNL A   1      38.583  29.226  28.932  1.00  0.00    -0.014 A 
BRANCH  32  33
ATOM     33  C   UNL A   1      39.961  28.729  29.165  1.00  0.00     0.031 A 
ATOM     34  C   UNL A   1      40.997  29.652  29.750  1.00  0.00     0.074 A 
ATOM     35  C   UNL A   1      40.309  27.491  28.766  1.00  0.00     0.049 A 
ATOM     36  N   UNL A   1      42.283  29.464  29.902  1.00  0.00    -0.248 NA
ATOM     37  C   UNL A   1      40.529  30.977  30.191  1.00  0.00     0.031 C 
ATOM     38  C   UNL A   1      39.412  26.511  28.147  1.00  0.00     0.029 A 
ATOM     39  N   UNL A   1      41.521  26.848  28.810  1.00  0.00    -0.354 N 
ATOM     40  C   UNL A   1      42.780  30.655  30.414  1.00  0.00     0.074 A 
ATOM     41  C   UNL A   1      41.668  31.575  30.504  1.00  0.00     0.031 C 
ATOM     42  C   UNL A   1      40.099  25.384  27.895  1.00  0.00     0.029 A 
ATOM     43  C   UNL A   1      41.490  25.578  28.290  1.00  0.00     0.049 A 
ATOM     44  H   UNL A   1      42.336  27.260  29.180  1.00  0.00     0.167 HD
ATOM     45  C   UNL A   1      44.043  30.954  30.795  1.00  0.00     0.031 A 
ATOM     46  C   UNL A   1      42.475  24.672  28.139  1.00  0.00     0.031 A 
ATOM     47  C   UNL A   1      45.142  30.028  30.741  1.00  0.00     0.049 A 
ATOM     48  C   UNL A   1      43.867  25.021  28.584  1.00  0.00     0.074 A 
ATOM     49  C   UNL A   1      46.446  30.212  31.166  1.00  0.00     0.029 A 
ATOM     50  N   UNL A   1      45.059  28.740  30.237  1.00  0.00    -0.354 N 
ATOM     51  N   UNL A   1      44.310  26.135  29.114  1.00  0.00    -0.248 NA
ATOM     52  C   UNL A   1      44.894  23.982  28.417  1.00  0.00     0.031 C 
ATOM     53  C   UNL A   1      47.163  29.044  30.883  1.00  0.00     0.029 A 
ATOM     54  C   UNL A   1      46.293  28.120  30.327  1.00  0.00     0.049 A 
ATOM     55  H   UNL A   1      44.244  28.328  29.870  1.00  0.00     0.167 HD
ATOM     56  C   UNL A   1      45.658  25.923  29.370  1.00  0.00     0.074 A 
ATOM     57  C   UNL A   1      45.957  24.569  28.948  1.00  0.00     0.031 C 
ATOM     58  C   UNL A   1      46.568  26.771  29.907  1.00  0.00     0.031 A 
BRANCH  45  59
ATOM     59  C   UNL A   1      44.300  32.346  31.305  1.00  0.00    -0.014 A 
ATOM     60  C   UNL A   1      44.188  32.654  32.670  1.00  0.00     0.009 A 
ATOM     61  C   UNL A   1      44.679  33.358  30.409  1.00  0.00     0.009 A 
ATOM     62  C   UNL A   1      44.406  33.957  33.122  1.00  0.00     0.001 A 
ATOM     63  C   UNL A   1      44.926  34.653  30.868  1.00  0.00     0.001 A 
ATOM     64  C   UNL A   1      44.779  34.954  32.222  1.00  0.00     0.000 A 
ENDBRANCH  45  59
BRANCH  46  65
ATOM     65  C   UNL A   1      42.178  23.338  27.556  1.00  0.00    -0.014 A 
ATOM     66  C   UNL A   1      42.453  23.080  26.204  1.00  0.00     0.009 A 
ATOM     67  C   UNL A   1      41.615  22.320  28.341  1.00  0.00     0.009 A 
ATOM     68  C   UNL A   1      42.147  21.838  25.645  1.00  0.00     0.001 A 
ATOM     69  C   UNL A   1      41.335  21.070  27.786  1.00  0.00     0.001 A 
ATOM     70  C   UNL A   1      41.592  20.833  26.436  1.00  0.00     0.000 A 
ENDBRANCH  46  65
BRANCH  58  71
ATOM     71  C   UNL A   1      47.961  26.247  30.105  1.00  0.00    -0.014 A 
ATOM     72  C   UNL A   1      48.899  26.259  29.063  1.00  0.00     0.009 A 
ATOM     73  C   UNL A   1      48.350  25.776  31.370  1.00  0.00     0.009 A 
ATOM     74  C   UNL A   1      50.194  25.781  29.275  1.00  0.00     0.001 A 
ATOM     75  C   UNL A   1      49.651  25.324  31.585  1.00  0.00     0.001 A 
ATOM     76  C   UNL A   1      50.570  25.319  30.536  1.00  0.00     0.000 A 
ENDBRANCH  58  71
ENDBRANCH  32  33
ENDBRANCH  24  27
ENDBRANCH  22  23
ENDBRANCH  21  22
ENDBRANCH   1  21
TORSDOF 14
ENDMDL
