MODEL 1
REMARK VINA RESULT:      -9.4      0.000      0.000
REMARK SMILES O=C(CCCC(=O)NCc1ccco1)NCCCNC(=O)c1ccc(-c2c3nc(c(-c4ccccc4)c4ccc([nH]4)c(-c4ccccc4)c4nc(c(-c5ccccc5)c5ccc2[nH]5)C=C4)C=C3)cc1
REMARK SMILES IDX 1 1 2 2 15 3 3 5 4 6 5 7 6 8 7 9 8 10 9 12 10 13 11 14 14 15
REMARK SMILES IDX 12 16 13 17 16 18 17 19 18 20 19 21 20 22 21 24 22 25 23 26
REMARK SMILES IDX 69 27 24 28 68 29 25 30 26 31 27 32 62 33 28 34 67 35 61 36
REMARK SMILES IDX 63 37 29 38 66 39 60 40 59 41 30 43 52 44 37 45 51 46 38 47
REMARK SMILES IDX 41 48 50 49 64 50 39 51 40 52 49 54 65 55 42 56 31 57 32 58
REMARK SMILES IDX 36 59 33 60 35 61 34 62 53 63 54 64 58 65 55 66 57 67 56 68
REMARK SMILES IDX 43 69 44 70 48 71 45 72 47 73 46 74
REMARK H PARENT 15 4 8 11 19 23 63 42 41 53
REMARK Flexibility Score: inf
ROOT
ATOM      1  O   UNL A   1      45.843  21.955  26.164  1.00  0.00    -0.275 OA
ATOM      2  C   UNL A   1      46.141  22.020  24.973  1.00  0.00     0.220 C 
ATOM      3  N   UNL A   1      46.377  20.900  24.219  1.00  0.00    -0.356 N 
ATOM      4  H   UNL A   1      46.639  21.028  23.278  1.00  0.00     0.163 HD
ENDROOT
BRANCH   2   5
ATOM      5  C   UNL A   1      46.112  23.356  24.230  1.00  0.00     0.100 C 
BRANCH   5   6
ATOM      6  C   UNL A   1      45.974  24.684  24.975  1.00  0.00     0.020 C 
BRANCH   6   7
ATOM      7  C   UNL A   1      47.152  25.654  25.133  1.00  0.00     0.100 C 
BRANCH   7   8
ATOM      8  C   UNL A   1      47.066  27.056  24.558  1.00  0.00     0.220 C 
ATOM      9  O   UNL A   1      47.603  27.302  23.473  1.00  0.00    -0.275 OA
ATOM     10  N   UNL A   1      46.325  28.045  25.106  1.00  0.00    -0.349 N 
ATOM     11  H   UNL A   1      46.308  28.867  24.565  1.00  0.00     0.163 HD
BRANCH  10  12
ATOM     12  C   UNL A   1      45.553  28.145  26.324  1.00  0.00     0.191 C 
BRANCH  12  13
ATOM     13  C   UNL A   1      44.105  28.192  25.991  1.00  0.00     0.122 A 
ATOM     14  C   UNL A   1      43.243  27.312  25.368  1.00  0.00     0.047 A 
ATOM     15  O   UNL A   1      43.418  29.310  26.371  1.00  0.00    -0.467 OA
ATOM     16  C   UNL A   1      41.963  27.918  25.389  1.00  0.00     0.042 A 
ATOM     17  C   UNL A   1      42.122  29.130  26.016  1.00  0.00     0.195 A 
ENDBRANCH  12  13
ENDBRANCH  10  12
ENDBRANCH   7   8
ENDBRANCH   6   7
ENDBRANCH   5   6
ENDBRANCH   2   5
BRANCH   3  18
ATOM     18  C   UNL A   1      46.271  19.541  24.710  1.00  0.00     0.117 C 
BRANCH  18  19
ATOM     19  C   UNL A   1      44.848  18.994  24.575  1.00  0.00     0.042 C 
BRANCH  19  20
ATOM     20  C   UNL A   1      44.065  18.834  25.880  1.00  0.00     0.118 C 
BRANCH  20  21
ATOM     21  N   UNL A   1      42.637  18.636  25.692  1.00  0.00    -0.352 N 
ATOM     22  C   UNL A   1      41.572  19.460  25.959  1.00  0.00     0.251 C 
ATOM     23  H   UNL A   1      42.392  17.763  25.309  1.00  0.00     0.163 HD
ATOM     24  O   UNL A   1      40.430  19.023  25.815  1.00  0.00    -0.269 OA
BRANCH  22  25
ATOM     25  C   UNL A   1      41.760  20.845  26.447  1.00  0.00     0.039 A 
ATOM     26  C   UNL A   1      41.450  21.124  27.784  1.00  0.00     0.014 A 
ATOM     27  C   UNL A   1      42.191  21.878  25.612  1.00  0.00     0.014 A 
ATOM     28  C   UNL A   1      41.647  22.409  28.298  1.00  0.00     0.010 A 
ATOM     29  C   UNL A   1      42.452  23.144  26.144  1.00  0.00     0.010 A 
ATOM     30  C   UNL A   1      42.193  23.422  27.495  1.00  0.00    -0.014 A 
BRANCH  30  31
ATOM     31  C   UNL A   1      42.526  24.758  28.063  1.00  0.00     0.031 A 
ATOM     32  C   UNL A   1      43.922  25.074  28.528  1.00  0.00     0.074 A 
ATOM     33  C   UNL A   1      41.551  25.677  28.215  1.00  0.00     0.049 A 
ATOM     34  N   UNL A   1      44.373  26.162  29.102  1.00  0.00    -0.248 NA
ATOM     35  C   UNL A   1      44.937  24.027  28.344  1.00  0.00     0.031 C 
ATOM     36  C   UNL A   1      40.149  25.497  27.831  1.00  0.00     0.029 A 
ATOM     37  N   UNL A   1      41.589  26.946  28.741  1.00  0.00    -0.354 N 
ATOM     38  C   UNL A   1      45.719  25.926  29.358  1.00  0.00     0.074 A 
ATOM     39  C   UNL A   1      45.998  24.575  28.921  1.00  0.00     0.031 C 
ATOM     40  C   UNL A   1      39.468  26.620  28.111  1.00  0.00     0.029 A 
ATOM     41  C   UNL A   1      40.370  27.582  28.736  1.00  0.00     0.049 A 
ATOM     42  H   UNL A   1      42.411  27.361  29.087  1.00  0.00     0.167 HD
ATOM     43  C   UNL A   1      46.643  26.761  29.895  1.00  0.00     0.031 A 
ATOM     44  C   UNL A   1      40.009  28.797  29.195  1.00  0.00     0.031 A 
ATOM     45  C   UNL A   1      46.370  28.106  30.331  1.00  0.00     0.049 A 
ATOM     46  C   UNL A   1      41.046  29.688  29.822  1.00  0.00     0.074 A 
ATOM     47  C   UNL A   1      47.255  29.040  30.843  1.00  0.00     0.029 A 
ATOM     48  N   UNL A   1      45.122  28.706  30.315  1.00  0.00    -0.354 N 
ATOM     49  N   UNL A   1      42.325  29.469  30.000  1.00  0.00    -0.248 NA
ATOM     50  C   UNL A   1      40.587  31.000  30.302  1.00  0.00     0.031 C 
ATOM     51  C   UNL A   1      46.531  30.184  31.194  1.00  0.00     0.029 A 
ATOM     52  C   UNL A   1      45.208  29.988  30.835  1.00  0.00     0.049 A 
ATOM     53  H   UNL A   1      44.296  28.285  29.983  1.00  0.00     0.167 HD
ATOM     54  C   UNL A   1      42.830  30.628  30.578  1.00  0.00     0.074 A 
ATOM     55  C   UNL A   1      41.722  31.549  30.711  1.00  0.00     0.031 C 
ATOM     56  C   UNL A   1      44.101  30.902  30.961  1.00  0.00     0.031 A 
BRANCH  43  57
ATOM     57  C   UNL A   1      48.043  26.235  30.056  1.00  0.00    -0.014 A 
ATOM     58  C   UNL A   1      48.958  26.250  28.990  1.00  0.00     0.009 A 
ATOM     59  C   UNL A   1      48.471  25.761  31.307  1.00  0.00     0.009 A 
ATOM     60  C   UNL A   1      50.257  25.766  29.164  1.00  0.00     0.001 A 
ATOM     61  C   UNL A   1      49.780  25.308  31.486  1.00  0.00     0.001 A 
ATOM     62  C   UNL A   1      50.667  25.301  30.411  1.00  0.00     0.000 A 
ENDBRANCH  43  57
BRANCH  44  63
ATOM     63  C   UNL A   1      38.598  29.249  29.075  1.00  0.00    -0.014 A 
ATOM     64  C   UNL A   1      37.715  29.130  30.160  1.00  0.00     0.009 A 
ATOM     65  C   UNL A   1      38.120  29.788  27.871  1.00  0.00     0.009 A 
ATOM     66  C   UNL A   1      36.379  29.514  30.033  1.00  0.00     0.001 A 
ATOM     67  C   UNL A   1      36.792  30.201  27.755  1.00  0.00     0.001 A 
ATOM     68  C   UNL A   1      35.919  30.054  28.832  1.00  0.00     0.000 A 
ENDBRANCH  44  63
BRANCH  56  69
ATOM     69  C   UNL A   1      44.379  32.272  31.515  1.00  0.00    -0.014 A 
ATOM     70  C   UNL A   1      44.757  33.339  30.684  1.00  0.00     0.009 A 
ATOM     71  C   UNL A   1      44.214  32.509  32.890  1.00  0.00     0.009 A 
ATOM     72  C   UNL A   1      44.994  34.606  31.224  1.00  0.00     0.001 A 
ATOM     73  C   UNL A   1      44.421  33.782  33.422  1.00  0.00     0.001 A 
ATOM     74  C   UNL A   1      44.819  34.827  32.590  1.00  0.00     0.000 A 
ENDBRANCH  56  69
ENDBRANCH  30  31
ENDBRANCH  22  25
ENDBRANCH  20  21
ENDBRANCH  19  20
ENDBRANCH  18  19
ENDBRANCH   3  18
TORSDOF 15
ENDMDL
MODEL 2
REMARK VINA RESULT:      -9.3      0.535      6.183
REMARK SMILES O=C(CCCC(=O)NCc1ccco1)NCCCNC(=O)c1ccc(-c2c3nc(c(-c4ccccc4)c4ccc([nH]4)c(-c4ccccc4)c4nc(c(-c5ccccc5)c5ccc2[nH]5)C=C4)C=C3)cc1
REMARK SMILES IDX 1 1 2 2 15 3 3 5 4 6 5 7 6 8 7 9 8 10 9 12 10 13 11 14 14 15
REMARK SMILES IDX 12 16 13 17 16 18 17 19 18 20 19 21 20 22 21 24 22 25 23 26
REMARK SMILES IDX 69 27 24 28 68 29 25 30 26 31 27 32 62 33 28 34 67 35 61 36
REMARK SMILES IDX 63 37 29 38 66 39 60 40 59 41 30 43 52 44 37 45 51 46 38 47
REMARK SMILES IDX 41 48 50 49 64 50 39 51 40 52 49 54 65 55 42 56 31 57 32 58
REMARK SMILES IDX 36 59 33 60 35 61 34 62 53 63 54 64 58 65 55 66 57 67 56 68
REMARK SMILES IDX 43 69 44 70 48 71 45 72 47 73 46 74
REMARK H PARENT 15 4 8 11 19 23 63 42 41 53
REMARK Flexibility Score: inf
ROOT
ATOM      1  O   UNL A   1      45.741  21.922  26.141  1.00  0.00    -0.275 OA
ATOM      2  C   UNL A   1      46.070  21.960  24.957  1.00  0.00     0.220 C 
ATOM      3  N   UNL A   1      46.216  20.824  24.205  1.00  0.00    -0.356 N 
ATOM      4  H   UNL A   1      46.508  20.927  23.270  1.00  0.00     0.163 HD
ENDROOT
BRANCH   2   5
ATOM      5  C   UNL A   1      46.181  23.293  24.218  1.00  0.00     0.100 C 
BRANCH   5   6
ATOM      6  C   UNL A   1      45.798  24.614  24.885  1.00  0.00     0.020 C 
BRANCH   6   7
ATOM      7  C   UNL A   1      46.843  25.677  25.245  1.00  0.00     0.100 C 
BRANCH   7   8
ATOM      8  C   UNL A   1      46.843  27.018  24.534  1.00  0.00     0.220 C 
ATOM      9  O   UNL A   1      47.389  27.122  23.432  1.00  0.00    -0.275 OA
ATOM     10  N   UNL A   1      46.167  28.101  24.981  1.00  0.00    -0.349 N 
ATOM     11  H   UNL A   1      46.199  28.865  24.361  1.00  0.00     0.163 HD
BRANCH  10  12
ATOM     12  C   UNL A   1      45.410  28.369  26.182  1.00  0.00     0.191 C 
BRANCH  12  13
ATOM     13  C   UNL A   1      43.957  28.247  25.888  1.00  0.00     0.122 A 
ATOM     14  C   UNL A   1      43.171  27.235  25.377  1.00  0.00     0.047 A 
ATOM     15  O   UNL A   1      43.174  29.328  26.182  1.00  0.00    -0.467 OA
ATOM     16  C   UNL A   1      41.839  27.717  25.378  1.00  0.00     0.042 A 
ATOM     17  C   UNL A   1      41.894  28.994  25.884  1.00  0.00     0.195 A 
ENDBRANCH  12  13
ENDBRANCH  10  12
ENDBRANCH   7   8
ENDBRANCH   6   7
ENDBRANCH   5   6
ENDBRANCH   2   5
BRANCH   3  18
ATOM     18  C   UNL A   1      45.972  19.480  24.690  1.00  0.00     0.117 C 
BRANCH  18  19
ATOM     19  C   UNL A   1      44.511  19.063  24.509  1.00  0.00     0.042 C 
BRANCH  19  20
ATOM     20  C   UNL A   1      43.747  18.725  25.792  1.00  0.00     0.118 C 
BRANCH  20  21
ATOM     21  N   UNL A   1      42.302  18.823  25.661  1.00  0.00    -0.352 N 
ATOM     22  C   UNL A   1      41.428  19.803  26.058  1.00  0.00     0.251 C 
ATOM     23  H   UNL A   1      41.880  18.055  25.213  1.00  0.00     0.163 HD
ATOM     24  O   UNL A   1      40.218  19.608  25.935  1.00  0.00    -0.269 OA
BRANCH  22  25
ATOM     25  C   UNL A   1      41.898  21.071  26.661  1.00  0.00     0.039 A 
ATOM     26  C   UNL A   1      42.173  22.148  25.809  1.00  0.00     0.014 A 
ATOM     27  C   UNL A   1      42.112  21.210  28.034  1.00  0.00     0.014 A 
ATOM     28  C   UNL A   1      42.583  23.375  26.337  1.00  0.00     0.010 A 
ATOM     29  C   UNL A   1      42.455  22.455  28.566  1.00  0.00     0.010 A 
ATOM     30  C   UNL A   1      42.685  23.556  27.725  1.00  0.00    -0.014 A 
BRANCH  30  31
ATOM     31  C   UNL A   1      42.997  24.891  28.306  1.00  0.00     0.031 A 
ATOM     32  C   UNL A   1      41.915  25.917  28.512  1.00  0.00     0.074 A 
ATOM     33  C   UNL A   1      44.274  25.207  28.599  1.00  0.00     0.049 A 
ATOM     34  N   UNL A   1      42.017  27.148  28.949  1.00  0.00    -0.248 NA
ATOM     35  C   UNL A   1      40.544  25.515  28.163  1.00  0.00     0.031 C 
ATOM     36  C   UNL A   1      45.427  24.319  28.427  1.00  0.00     0.029 A 
ATOM     37  N   UNL A   1      44.821  26.364  29.097  1.00  0.00    -0.354 N 
ATOM     38  C   UNL A   1      40.730  27.671  28.915  1.00  0.00     0.074 A 
ATOM     39  C   UNL A   1      39.872  26.640  28.372  1.00  0.00     0.031 C 
ATOM     40  C   UNL A   1      46.537  24.955  28.836  1.00  0.00     0.029 A 
ATOM     41  C   UNL A   1      46.186  26.309  29.253  1.00  0.00     0.049 A 
ATOM     42  H   UNL A   1      44.286  27.159  29.322  1.00  0.00     0.167 HD
ATOM     43  C   UNL A   1      40.296  28.893  29.314  1.00  0.00     0.031 A 
ATOM     44  C   UNL A   1      47.063  27.242  29.670  1.00  0.00     0.031 A 
ATOM     45  C   UNL A   1      41.146  29.922  29.856  1.00  0.00     0.049 A 
ATOM     46  C   UNL A   1      46.561  28.603  30.070  1.00  0.00     0.074 A 
ATOM     47  C   UNL A   1      40.786  31.172  30.331  1.00  0.00     0.029 A 
ATOM     48  N   UNL A   1      42.521  29.825  29.989  1.00  0.00    -0.354 N 
ATOM     49  N   UNL A   1      45.332  29.058  30.088  1.00  0.00    -0.248 NA
ATOM     50  C   UNL A   1      47.570  29.576  30.516  1.00  0.00     0.031 C 
ATOM     51  C   UNL A   1      41.951  31.855  30.692  1.00  0.00     0.029 A 
ATOM     52  C   UNL A   1      43.029  31.004  30.510  1.00  0.00     0.049 A 
ATOM     53  H   UNL A   1      43.058  29.036  29.749  1.00  0.00     0.167 HD
ATOM     54  C   UNL A   1      45.416  30.354  30.581  1.00  0.00     0.074 A 
ATOM     55  C   UNL A   1      46.814  30.608  30.859  1.00  0.00     0.031 C 
ATOM     56  C   UNL A   1      44.421  31.250  30.788  1.00  0.00     0.031 A 
BRANCH  43  57
ATOM     57  C   UNL A   1      38.829  29.192  29.164  1.00  0.00    -0.014 A 
ATOM     58  C   UNL A   1      37.944  29.072  30.248  1.00  0.00     0.009 A 
ATOM     59  C   UNL A   1      38.333  29.648  27.932  1.00  0.00     0.009 A 
ATOM     60  C   UNL A   1      36.587  29.364  30.090  1.00  0.00     0.001 A 
ATOM     61  C   UNL A   1      36.982  29.970  27.786  1.00  0.00     0.001 A 
ATOM     62  C   UNL A   1      36.109  29.817  28.862  1.00  0.00     0.000 A 
ENDBRANCH  43  57
BRANCH  44  63
ATOM     63  C   UNL A   1      48.514  26.923  29.738  1.00  0.00    -0.014 A 
ATOM     64  C   UNL A   1      49.066  26.352  30.895  1.00  0.00     0.009 A 
ATOM     65  C   UNL A   1      49.358  27.202  28.653  1.00  0.00     0.009 A 
ATOM     66  C   UNL A   1      50.436  26.094  30.974  1.00  0.00     0.001 A 
ATOM     67  C   UNL A   1      50.722  26.913  28.721  1.00  0.00     0.001 A 
ATOM     68  C   UNL A   1      51.263  26.370  29.886  1.00  0.00     0.000 A 
ENDBRANCH  44  63
BRANCH  56  69
ATOM     69  C   UNL A   1      44.795  32.577  31.390  1.00  0.00    -0.014 A 
ATOM     70  C   UNL A   1      45.119  33.683  30.589  1.00  0.00     0.009 A 
ATOM     71  C   UNL A   1      44.778  32.732  32.786  1.00  0.00     0.009 A 
ATOM     72  C   UNL A   1      45.448  34.908  31.175  1.00  0.00     0.001 A 
ATOM     73  C   UNL A   1      45.076  33.965  33.368  1.00  0.00     0.001 A 
ATOM     74  C   UNL A   1      45.420  35.049  32.563  1.00  0.00     0.000 A 
ENDBRANCH  56  69
ENDBRANCH  30  31
ENDBRANCH  22  25
ENDBRANCH  20  21
ENDBRANCH  19  20
ENDBRANCH  18  19
ENDBRANCH   3  18
TORSDOF 15
ENDMDL
MODEL 3
REMARK VINA RESULT:      -8.4      1.257      2.368
REMARK SMILES O=C(CCCC(=O)NCc1ccco1)NCCCNC(=O)c1ccc(-c2c3nc(c(-c4ccccc4)c4ccc([nH]4)c(-c4ccccc4)c4nc(c(-c5ccccc5)c5ccc2[nH]5)C=C4)C=C3)cc1
REMARK SMILES IDX 1 1 2 2 15 3 3 5 4 6 5 7 6 8 7 9 8 10 9 12 10 13 11 14 14 15
REMARK SMILES IDX 12 16 13 17 16 18 17 19 18 20 19 21 20 22 21 24 22 25 23 26
REMARK SMILES IDX 69 27 24 28 68 29 25 30 26 31 27 32 62 33 28 34 67 35 61 36
REMARK SMILES IDX 63 37 29 38 66 39 60 40 59 41 30 43 52 44 37 45 51 46 38 47
REMARK SMILES IDX 41 48 50 49 64 50 39 51 40 52 49 54 65 55 42 56 31 57 32 58
REMARK SMILES IDX 36 59 33 60 35 61 34 62 53 63 54 64 58 65 55 66 57 67 56 68
REMARK SMILES IDX 43 69 44 70 48 71 45 72 47 73 46 74
REMARK H PARENT 15 4 8 11 19 23 63 42 41 53
REMARK Flexibility Score: inf
ROOT
ATOM      1  O   UNL A   1      45.890  21.739  26.104  1.00  0.00    -0.275 OA
ATOM      2  C   UNL A   1      46.027  21.724  24.883  1.00  0.00     0.220 C 
ATOM      3  N   UNL A   1      46.059  20.556  24.168  1.00  0.00    -0.356 N 
ATOM      4  H   UNL A   1      46.199  20.619  23.195  1.00  0.00     0.163 HD
ENDROOT
BRANCH   2   5
ATOM      5  C   UNL A   1      46.012  23.024  24.078  1.00  0.00     0.100 C 
BRANCH   5   6
ATOM      6  C   UNL A   1      46.009  24.391  24.763  1.00  0.00     0.020 C 
BRANCH   6   7
ATOM      7  C   UNL A   1      47.306  25.149  25.072  1.00  0.00     0.100 C 
BRANCH   7   8
ATOM      8  C   UNL A   1      47.295  26.662  25.190  1.00  0.00     0.220 C 
ATOM      9  O   UNL A   1      46.313  27.226  25.684  1.00  0.00    -0.275 OA
ATOM     10  N   UNL A   1      48.358  27.443  24.895  1.00  0.00    -0.349 N 
ATOM     11  H   UNL A   1      48.216  28.394  25.107  1.00  0.00     0.163 HD
BRANCH  10  12
ATOM     12  C   UNL A   1      49.660  27.171  24.331  1.00  0.00     0.191 C 
BRANCH  12  13
ATOM     13  C   UNL A   1      49.623  27.407  22.863  1.00  0.00     0.122 A 
ATOM     14  C   UNL A   1      49.115  26.693  21.797  1.00  0.00     0.047 A 
ATOM     15  O   UNL A   1      50.179  28.569  22.409  1.00  0.00    -0.467 OA
ATOM     16  C   UNL A   1      49.356  27.471  20.638  1.00  0.00     0.042 A 
ATOM     17  C   UNL A   1      50.001  28.607  21.066  1.00  0.00     0.195 A 
ENDBRANCH  12  13
ENDBRANCH  10  12
ENDBRANCH   7   8
ENDBRANCH   6   7
ENDBRANCH   5   6
ENDBRANCH   2   5
BRANCH   3  18
ATOM     18  C   UNL A   1      45.903  19.236  24.742  1.00  0.00     0.117 C 
BRANCH  18  19
ATOM     19  C   UNL A   1      44.471  18.716  24.601  1.00  0.00     0.042 C 
BRANCH  19  20
ATOM     20  C   UNL A   1      43.671  18.593  25.899  1.00  0.00     0.118 C 
BRANCH  20  21
ATOM     21  N   UNL A   1      42.230  18.675  25.715  1.00  0.00    -0.352 N 
ATOM     22  C   UNL A   1      41.340  19.673  26.024  1.00  0.00     0.251 C 
ATOM     23  H   UNL A   1      41.826  17.880  25.300  1.00  0.00     0.163 HD
ATOM     24  O   UNL A   1      40.135  19.464  25.874  1.00  0.00    -0.269 OA
BRANCH  22  25
ATOM     25  C   UNL A   1      41.786  20.978  26.565  1.00  0.00     0.039 A 
ATOM     26  C   UNL A   1      42.219  21.956  25.662  1.00  0.00     0.014 A 
ATOM     27  C   UNL A   1      41.825  21.242  27.936  1.00  0.00     0.014 A 
ATOM     28  C   UNL A   1      42.613  23.214  26.125  1.00  0.00     0.010 A 
ATOM     29  C   UNL A   1      42.154  22.521  28.393  1.00  0.00     0.010 A 
ATOM     30  C   UNL A   1      42.542  23.526  27.492  1.00  0.00    -0.014 A 
BRANCH  30  31
ATOM     31  C   UNL A   1      42.837  24.900  27.984  1.00  0.00     0.031 A 
ATOM     32  C   UNL A   1      44.237  25.304  28.358  1.00  0.00     0.074 A 
ATOM     33  C   UNL A   1      41.826  25.777  28.152  1.00  0.00     0.049 A 
ATOM     34  N   UNL A   1      44.664  26.437  28.859  1.00  0.00    -0.248 NA
ATOM     35  C   UNL A   1      45.293  24.299  28.161  1.00  0.00     0.031 C 
ATOM     36  C   UNL A   1      40.417  25.513  27.854  1.00  0.00     0.029 A 
ATOM     37  N   UNL A   1      41.827  27.068  28.622  1.00  0.00    -0.354 N 
ATOM     38  C   UNL A   1      46.031  26.277  29.051  1.00  0.00     0.074 A 
ATOM     39  C   UNL A   1      46.355  24.923  28.655  1.00  0.00     0.031 C 
ATOM     40  C   UNL A   1      39.696  26.613  28.124  1.00  0.00     0.029 A 
ATOM     41  C   UNL A   1      40.580  27.644  28.658  1.00  0.00     0.049 A 
ATOM     42  H   UNL A   1      42.645  27.537  28.904  1.00  0.00     0.167 HD
ATOM     43  C   UNL A   1      46.939  27.178  29.500  1.00  0.00     0.031 A 
ATOM     44  C   UNL A   1      40.183  28.859  29.086  1.00  0.00     0.031 A 
ATOM     45  C   UNL A   1      46.622  28.527  29.895  1.00  0.00     0.049 A 
ATOM     46  C   UNL A   1      41.205  29.826  29.617  1.00  0.00     0.074 A 
ATOM     47  C   UNL A   1      47.485  29.525  30.317  1.00  0.00     0.029 A 
ATOM     48  N   UNL A   1      45.346  29.065  29.922  1.00  0.00    -0.354 N 
ATOM     49  N   UNL A   1      42.502  29.678  29.732  1.00  0.00    -0.248 NA
ATOM     50  C   UNL A   1      40.707  31.135  30.066  1.00  0.00     0.031 C 
ATOM     51  C   UNL A   1      46.724  30.646  30.660  1.00  0.00     0.029 A 
ATOM     52  C   UNL A   1      45.395  30.371  30.384  1.00  0.00     0.049 A 
ATOM     53  H   UNL A   1      44.526  28.590  29.655  1.00  0.00     0.167 HD
ATOM     54  C   UNL A   1      42.978  30.883  30.233  1.00  0.00     0.074 A 
ATOM     55  C   UNL A   1      41.832  31.755  30.388  1.00  0.00     0.031 C 
ATOM     56  C   UNL A   1      44.252  31.235  30.533  1.00  0.00     0.031 A 
BRANCH  43  57
ATOM     57  C   UNL A   1      48.371  26.728  29.605  1.00  0.00    -0.014 A 
ATOM     58  C   UNL A   1      49.229  26.754  28.494  1.00  0.00     0.009 A 
ATOM     59  C   UNL A   1      48.884  26.318  30.846  1.00  0.00     0.009 A 
ATOM     60  C   UNL A   1      50.558  26.341  28.615  1.00  0.00     0.001 A 
ATOM     61  C   UNL A   1      50.222  25.936  30.971  1.00  0.00     0.001 A 
ATOM     62  C   UNL A   1      51.054  25.938  29.853  1.00  0.00     0.000 A 
ENDBRANCH  43  57
BRANCH  44  63
ATOM     63  C   UNL A   1      38.746  29.237  29.026  1.00  0.00    -0.014 A 
ATOM     64  C   UNL A   1      37.914  29.057  30.141  1.00  0.00     0.009 A 
ATOM     65  C   UNL A   1      38.195  29.765  27.848  1.00  0.00     0.009 A 
ATOM     66  C   UNL A   1      36.555  29.371  30.069  1.00  0.00     0.001 A 
ATOM     67  C   UNL A   1      36.843  30.108  27.789  1.00  0.00     0.001 A 
ATOM     68  C   UNL A   1      36.021  29.901  28.895  1.00  0.00     0.000 A 
ENDBRANCH  44  63
BRANCH  56  69
ATOM     69  C   UNL A   1      44.489  32.640  31.013  1.00  0.00    -0.014 A 
ATOM     70  C   UNL A   1      44.733  33.693  30.117  1.00  0.00     0.009 A 
ATOM     71  C   UNL A   1      44.421  32.922  32.387  1.00  0.00     0.009 A 
ATOM     72  C   UNL A   1      44.935  34.992  30.590  1.00  0.00     0.001 A 
ATOM     73  C   UNL A   1      44.591  34.226  32.855  1.00  0.00     0.001 A 
ATOM     74  C   UNL A   1      44.858  35.258  31.957  1.00  0.00     0.000 A 
ENDBRANCH  56  69
ENDBRANCH  30  31
ENDBRANCH  22  25
ENDBRANCH  20  21
ENDBRANCH  19  20
ENDBRANCH  18  19
ENDBRANCH   3  18
TORSDOF 15
ENDMDL
