MODEL 1
REMARK VINA RESULT:     -11.5      0.000      0.000
REMARK SMILES C[C@@H](C(=O)NCCCNC(=O)c1ccc(-c2c3nc(c(-c4ccccc4)c4ccc([nH]4)c(-c4ccccc4)c4nc(c(-c5ccccc5)c5ccc2[nH]5)C=C4)C=C3)cc1)c1ccc(-c2cccc(OC(=O)NCCCc3ccccc3)c2)c(F)c1
REMARK SMILES IDX 1 1 2 2 3 3 4 4 5 5 6 7 7 8 8 9 9 10 10 11 11 13 12 14 13 15
REMARK SMILES IDX 59 16 14 17 58 18 15 19 16 20 17 21 52 22 18 23 57 24 51 25
REMARK SMILES IDX 53 26 19 27 56 28 50 29 49 30 20 32 42 33 27 34 41 35 28 36
REMARK SMILES IDX 31 37 40 38 54 39 29 40 30 41 39 43 55 44 32 45 21 46 22 47
REMARK SMILES IDX 26 48 23 49 25 50 24 51 43 52 44 53 48 54 45 55 47 56 46 57
REMARK SMILES IDX 33 58 34 59 38 60 35 61 37 62 36 63 60 64 61 65 85 66 62 67
REMARK SMILES IDX 83 68 63 69 84 70 64 71 65 72 82 73 66 74 68 75 67 76 69 77
REMARK SMILES IDX 70 78 71 79 72 80 73 82 74 83 75 84 76 85 77 86 81 87 78 88
REMARK SMILES IDX 80 89 79 90
REMARK H PARENT 5 6 9 12 53 31 31 42 72 81
REMARK Flexibility Score: inf
ROOT
ATOM      1  C   UNL A   1      33.756  28.205  22.126  1.00  0.00     0.023 C 
ATOM      2  C   UNL A   1      33.231  27.766  23.496  1.00  0.00     0.105 C 
ENDROOT
BRANCH   2   3
ATOM      3  C   UNL A   1      31.697  27.870  23.559  1.00  0.00     0.227 C 
ATOM      4  O   UNL A   1      30.925  27.493  22.678  1.00  0.00    -0.274 OA
ATOM      5  N   UNL A   1      31.094  28.416  24.654  1.00  0.00    -0.356 N 
ATOM      6  H   UNL A   1      30.132  28.226  24.730  1.00  0.00     0.163 HD
BRANCH   5   7
ATOM      7  C   UNL A   1      31.635  29.232  25.722  1.00  0.00     0.117 C 
BRANCH   7   8
ATOM      8  C   UNL A   1      32.218  28.364  26.837  1.00  0.00     0.042 C 
BRANCH   8   9
ATOM      9  C   UNL A   1      33.593  28.806  27.330  1.00  0.00     0.118 C 
BRANCH   9  10
ATOM     10  N   UNL A   1      33.613  30.192  27.765  1.00  0.00    -0.352 N 
ATOM     11  C   UNL A   1      34.596  30.889  28.420  1.00  0.00     0.251 C 
ATOM     12  H   UNL A   1      32.801  30.708  27.559  1.00  0.00     0.163 HD
ATOM     13  O   UNL A   1      34.356  32.003  28.874  1.00  0.00    -0.269 OA
BRANCH  11  14
ATOM     14  C   UNL A   1      35.937  30.293  28.602  1.00  0.00     0.039 A 
ATOM     15  C   UNL A   1      36.836  30.327  27.533  1.00  0.00     0.014 A 
ATOM     16  C   UNL A   1      36.305  29.688  29.807  1.00  0.00     0.014 A 
ATOM     17  C   UNL A   1      38.123  29.810  27.692  1.00  0.00     0.010 A 
ATOM     18  C   UNL A   1      37.613  29.244  29.990  1.00  0.00     0.010 A 
ATOM     19  C   UNL A   1      38.534  29.296  28.934  1.00  0.00    -0.014 A 
BRANCH  19  20
ATOM     20  C   UNL A   1      39.922  28.813  29.143  1.00  0.00     0.031 A 
ATOM     21  C   UNL A   1      40.964  29.727  29.727  1.00  0.00     0.074 A 
ATOM     22  C   UNL A   1      40.261  27.569  28.752  1.00  0.00     0.049 A 
ATOM     23  N   UNL A   1      42.237  29.502  29.934  1.00  0.00    -0.248 NA
ATOM     24  C   UNL A   1      40.523  31.079  30.109  1.00  0.00     0.031 C 
ATOM     25  C   UNL A   1      39.355  26.596  28.139  1.00  0.00     0.029 A 
ATOM     26  N   UNL A   1      41.465  26.912  28.807  1.00  0.00    -0.354 N 
ATOM     27  C   UNL A   1      42.750  30.684  30.453  1.00  0.00     0.074 A 
ATOM     28  C   UNL A   1      41.663  31.640  30.483  1.00  0.00     0.031 C 
ATOM     29  C   UNL A   1      40.027  25.458  27.901  1.00  0.00     0.029 A 
ATOM     30  C   UNL A   1      41.419  25.635  28.302  1.00  0.00     0.049 A 
ATOM     31  H   UNL A   1      42.284  27.317  29.173  1.00  0.00     0.167 HD
ATOM     32  C   UNL A   1      44.007  30.949  30.882  1.00  0.00     0.031 A 
ATOM     33  C   UNL A   1      42.389  24.713  28.167  1.00  0.00     0.031 A 
ATOM     34  C   UNL A   1      45.087  29.997  30.858  1.00  0.00     0.049 A 
ATOM     35  C   UNL A   1      43.783  25.038  28.628  1.00  0.00     0.074 A 
ATOM     36  C   UNL A   1      46.383  30.153  31.320  1.00  0.00     0.029 A 
ATOM     37  N   UNL A   1      44.998  28.716  30.337  1.00  0.00    -0.354 N 
ATOM     38  N   UNL A   1      44.235  26.139  29.179  1.00  0.00    -0.248 NA
ATOM     39  C   UNL A   1      44.797  23.988  28.458  1.00  0.00     0.031 C 
ATOM     40  C   UNL A   1      47.093  28.984  31.030  1.00  0.00     0.029 A 
ATOM     41  C   UNL A   1      46.223  28.079  30.442  1.00  0.00     0.049 A 
ATOM     42  H   UNL A   1      44.185  28.318  29.951  1.00  0.00     0.167 HD
ATOM     43  C   UNL A   1      45.577  25.903  29.448  1.00  0.00     0.074 A 
ATOM     44  C   UNL A   1      45.861  24.551  29.015  1.00  0.00     0.031 C 
ATOM     45  C   UNL A   1      46.492  26.733  30.006  1.00  0.00     0.031 A 
BRANCH  32  46
ATOM     46  C   UNL A   1      44.285  32.330  31.407  1.00  0.00    -0.014 A 
ATOM     47  C   UNL A   1      44.130  32.639  32.768  1.00  0.00     0.009 A 
ATOM     48  C   UNL A   1      44.742  33.330  30.534  1.00  0.00     0.009 A 
ATOM     49  C   UNL A   1      44.391  33.928  33.236  1.00  0.00     0.001 A 
ATOM     50  C   UNL A   1      45.031  34.610  31.011  1.00  0.00     0.001 A 
ATOM     51  C   UNL A   1      44.846  34.911  32.359  1.00  0.00     0.000 A 
ENDBRANCH  32  46
BRANCH  33  52
ATOM     52  C   UNL A   1      42.078  23.384  27.577  1.00  0.00    -0.014 A 
ATOM     53  C   UNL A   1      42.433  23.092  26.251  1.00  0.00     0.009 A 
ATOM     54  C   UNL A   1      41.417  22.403  28.333  1.00  0.00     0.009 A 
ATOM     55  C   UNL A   1      42.108  21.856  25.687  1.00  0.00     0.001 A 
ATOM     56  C   UNL A   1      41.120  21.158  27.775  1.00  0.00     0.001 A 
ATOM     57  C   UNL A   1      41.456  20.890  26.450  1.00  0.00     0.000 A 
ENDBRANCH  33  52
BRANCH  45  58
ATOM     58  C   UNL A   1      47.878  26.189  30.214  1.00  0.00    -0.014 A 
ATOM     59  C   UNL A   1      48.816  26.159  29.172  1.00  0.00     0.009 A 
ATOM     60  C   UNL A   1      48.260  25.737  31.487  1.00  0.00     0.009 A 
ATOM     61  C   UNL A   1      50.100  25.655  29.392  1.00  0.00     0.001 A 
ATOM     62  C   UNL A   1      49.553  25.264  31.712  1.00  0.00     0.001 A 
ATOM     63  C   UNL A   1      50.469  25.214  30.663  1.00  0.00     0.000 A 
ENDBRANCH  45  58
ENDBRANCH  19  20
ENDBRANCH  11  14
ENDBRANCH   9  10
ENDBRANCH   8   9
ENDBRANCH   7   8
ENDBRANCH   5   7
ENDBRANCH   2   3
BRANCH   2  64
ATOM     64  C   UNL A   1      33.861  26.413  23.830  1.00  0.00    -0.033 A 
ATOM     65  C   UNL A   1      34.337  26.047  25.095  1.00  0.00     0.005 A 
ATOM     66  C   UNL A   1      33.903  25.437  22.818  1.00  0.00     0.044 A 
ATOM     67  C   UNL A   1      34.843  24.767  25.340  1.00  0.00     0.012 A 
ATOM     68  C   UNL A   1      34.382  24.155  23.076  1.00  0.00     0.131 A 
ATOM     69  C   UNL A   1      34.872  23.793  24.335  1.00  0.00     0.018 A 
ATOM     70  F   UNL A   1      34.362  23.265  22.070  1.00  0.00    -0.206 F 
BRANCH  69  71
ATOM     71  C   UNL A   1      35.478  22.483  24.593  1.00  0.00    -0.012 A 
ATOM     72  C   UNL A   1      36.870  22.286  24.578  1.00  0.00     0.009 A 
ATOM     73  C   UNL A   1      34.650  21.370  24.795  1.00  0.00     0.056 A 
ATOM     74  C   UNL A   1      37.415  21.010  24.743  1.00  0.00     0.004 A 
ATOM     75  C   UNL A   1      35.192  20.100  24.935  1.00  0.00     0.133 A 
ATOM     76  C   UNL A   1      36.573  19.913  24.916  1.00  0.00     0.047 A 
BRANCH  75  77
ATOM     77  O   UNL A   1      34.417  18.936  25.127  1.00  0.00    -0.410 OA
BRANCH  77  78
ATOM     78  C   UNL A   1      34.123  17.993  24.145  1.00  0.00     0.412 C 
ATOM     79  O   UNL A   1      34.731  16.956  23.913  1.00  0.00    -0.224 OA
ATOM     80  N   UNL A   1      33.015  18.317  23.417  1.00  0.00    -0.321 N 
ATOM     81  H   UNL A   1      32.814  17.763  22.629  1.00  0.00     0.167 HD
BRANCH  80  82
ATOM     82  C   UNL A   1      32.115  19.405  23.710  1.00  0.00     0.120 C 
BRANCH  82  83
ATOM     83  C   UNL A   1      32.332  20.647  22.850  1.00  0.00     0.026 C 
BRANCH  83  84
ATOM     84  C   UNL A   1      31.337  21.807  22.983  1.00  0.00     0.037 C 
BRANCH  84  85
ATOM     85  C   UNL A   1      31.325  22.672  24.224  1.00  0.00    -0.048 A 
ATOM     86  C   UNL A   1      31.685  22.239  25.503  1.00  0.00     0.004 A 
ATOM     87  C   UNL A   1      30.857  23.991  24.086  1.00  0.00     0.004 A 
ATOM     88  C   UNL A   1      31.579  23.089  26.609  1.00  0.00     0.000 A 
ATOM     89  C   UNL A   1      30.759  24.846  25.186  1.00  0.00     0.000 A 
ATOM     90  C   UNL A   1      31.117  24.392  26.451  1.00  0.00     0.000 A 
ENDBRANCH  84  85
ENDBRANCH  83  84
ENDBRANCH  82  83
ENDBRANCH  80  82
ENDBRANCH  77  78
ENDBRANCH  75  77
ENDBRANCH  69  71
ENDBRANCH   2  64
TORSDOF 18
ENDMDL
MODEL 2
REMARK VINA RESULT:     -11.4      2.457      3.777
REMARK SMILES C[C@@H](C(=O)NCCCNC(=O)c1ccc(-c2c3nc(c(-c4ccccc4)c4ccc([nH]4)c(-c4ccccc4)c4nc(c(-c5ccccc5)c5ccc2[nH]5)C=C4)C=C3)cc1)c1ccc(-c2cccc(OC(=O)NCCCc3ccccc3)c2)c(F)c1
REMARK SMILES IDX 1 1 2 2 3 3 4 4 5 5 6 7 7 8 8 9 9 10 10 11 11 13 12 14 13 15
REMARK SMILES IDX 59 16 14 17 58 18 15 19 16 20 17 21 52 22 18 23 57 24 51 25
REMARK SMILES IDX 53 26 19 27 56 28 50 29 49 30 20 32 42 33 27 34 41 35 28 36
REMARK SMILES IDX 31 37 40 38 54 39 29 40 30 41 39 43 55 44 32 45 21 46 22 47
REMARK SMILES IDX 26 48 23 49 25 50 24 51 43 52 44 53 48 54 45 55 47 56 46 57
REMARK SMILES IDX 33 58 34 59 38 60 35 61 37 62 36 63 60 64 61 65 85 66 62 67
REMARK SMILES IDX 83 68 63 69 84 70 64 71 65 72 82 73 66 74 68 75 67 76 69 77
REMARK SMILES IDX 70 78 71 79 72 80 73 82 74 83 75 84 76 85 77 86 81 87 78 88
REMARK SMILES IDX 80 89 79 90
REMARK H PARENT 5 6 9 12 53 31 31 42 72 81
REMARK Flexibility Score: inf
ROOT
ATOM      1  C   UNL A   1      31.409  27.490  27.167  1.00  0.00     0.023 C 
ATOM      2  C   UNL A   1      32.400  27.633  26.009  1.00  0.00     0.105 C 
ENDROOT
BRANCH   2   3
ATOM      3  C   UNL A   1      33.312  28.856  26.211  1.00  0.00     0.227 C 
ATOM      4  O   UNL A   1      34.476  28.813  26.610  1.00  0.00    -0.274 OA
ATOM      5  N   UNL A   1      32.845  30.109  25.943  1.00  0.00    -0.356 N 
ATOM      6  H   UNL A   1      33.543  30.798  25.858  1.00  0.00     0.163 HD
BRANCH   5   7
ATOM      7  C   UNL A   1      31.493  30.595  25.765  1.00  0.00     0.117 C 
BRANCH   7   8
ATOM      8  C   UNL A   1      31.302  31.956  26.435  1.00  0.00     0.042 C 
BRANCH   8   9
ATOM      9  C   UNL A   1      32.495  32.429  27.259  1.00  0.00     0.118 C 
BRANCH   9  10
ATOM     10  N   UNL A   1      32.387  33.823  27.653  1.00  0.00    -0.352 N 
ATOM     11  C   UNL A   1      33.182  34.559  28.496  1.00  0.00     0.251 C 
ATOM     12  H   UNL A   1      31.631  34.313  27.257  1.00  0.00     0.163 HD
ATOM     13  O   UNL A   1      32.821  35.674  28.857  1.00  0.00    -0.269 OA
BRANCH  11  14
ATOM     14  C   UNL A   1      34.460  34.002  28.990  1.00  0.00     0.039 A 
ATOM     15  C   UNL A   1      34.459  33.282  30.187  1.00  0.00     0.014 A 
ATOM     16  C   UNL A   1      35.655  34.203  28.293  1.00  0.00     0.014 A 
ATOM     17  C   UNL A   1      35.644  32.710  30.653  1.00  0.00     0.010 A 
ATOM     18  C   UNL A   1      36.819  33.566  28.718  1.00  0.00     0.010 A 
ATOM     19  C   UNL A   1      36.828  32.818  29.904  1.00  0.00    -0.014 A 
BRANCH  19  20
ATOM     20  C   UNL A   1      38.079  32.151  30.345  1.00  0.00     0.031 A 
ATOM     21  C   UNL A   1      38.977  32.814  31.353  1.00  0.00     0.074 A 
ATOM     22  C   UNL A   1      38.437  30.975  29.794  1.00  0.00     0.049 A 
ATOM     23  N   UNL A   1      40.133  32.411  31.818  1.00  0.00    -0.248 NA
ATOM     24  C   UNL A   1      38.530  34.108  31.893  1.00  0.00     0.031 C 
ATOM     25  C   UNL A   1      37.672  30.245  28.781  1.00  0.00     0.029 A 
ATOM     26  N   UNL A   1      39.542  30.189  30.006  1.00  0.00    -0.354 N 
ATOM     27  C   UNL A   1      40.557  33.408  32.689  1.00  0.00     0.074 A 
ATOM     28  C   UNL A   1      39.560  34.456  32.650  1.00  0.00     0.031 C 
ATOM     29  C   UNL A   1      38.316  29.106  28.480  1.00  0.00     0.029 A 
ATOM     30  C   UNL A   1      39.558  29.045  29.244  1.00  0.00     0.049 A 
ATOM     31  H   UNL A   1      40.255  30.421  30.643  1.00  0.00     0.167 HD
ATOM     32  C   UNL A   1      41.667  33.442  33.465  1.00  0.00     0.031 A 
ATOM     33  C   UNL A   1      40.473  28.062  29.162  1.00  0.00     0.031 A 
ATOM     34  C   UNL A   1      42.656  32.397  33.508  1.00  0.00     0.049 A 
ATOM     35  C   UNL A   1      41.710  28.135  30.015  1.00  0.00     0.074 A 
ATOM     36  C   UNL A   1      43.787  32.315  34.302  1.00  0.00     0.029 A 
ATOM     37  N   UNL A   1      42.635  31.257  32.720  1.00  0.00    -0.354 N 
ATOM     38  N   UNL A   1      42.061  29.052  30.884  1.00  0.00    -0.248 NA
ATOM     39  C   UNL A   1      42.669  27.029  29.883  1.00  0.00     0.031 C 
ATOM     40  C   UNL A   1      44.480  31.151  33.955  1.00  0.00     0.029 A 
ATOM     41  C   UNL A   1      43.748  30.478  32.989  1.00  0.00     0.049 A 
ATOM     42  H   UNL A   1      41.933  31.034  32.067  1.00  0.00     0.167 HD
ATOM     43  C   UNL A   1      43.266  28.620  31.423  1.00  0.00     0.074 A 
ATOM     44  C   UNL A   1      43.576  27.352  30.795  1.00  0.00     0.031 C 
ATOM     45  C   UNL A   1      44.044  29.219  32.356  1.00  0.00     0.031 A 
BRANCH  32  46
ATOM     46  C   UNL A   1      41.873  34.657  34.325  1.00  0.00    -0.014 A 
ATOM     47  C   UNL A   1      41.414  34.699  35.652  1.00  0.00     0.009 A 
ATOM     48  C   UNL A   1      42.570  35.764  33.815  1.00  0.00     0.009 A 
ATOM     49  C   UNL A   1      41.614  35.838  36.435  1.00  0.00     0.001 A 
ATOM     50  C   UNL A   1      42.795  36.889  34.610  1.00  0.00     0.001 A 
ATOM     51  C   UNL A   1      42.309  36.930  35.916  1.00  0.00     0.000 A 
ENDBRANCH  32  46
BRANCH  33  52
ATOM     52  C   UNL A   1      40.254  26.914  28.243  1.00  0.00    -0.014 A 
ATOM     53  C   UNL A   1      39.487  25.812  28.649  1.00  0.00     0.009 A 
ATOM     54  C   UNL A   1      40.818  26.910  26.957  1.00  0.00     0.009 A 
ATOM     55  C   UNL A   1      39.312  24.718  27.798  1.00  0.00     0.001 A 
ATOM     56  C   UNL A   1      40.616  25.828  26.098  1.00  0.00     0.001 A 
ATOM     57  C   UNL A   1      39.872  24.729  26.523  1.00  0.00     0.000 A 
ENDBRANCH  33  52
BRANCH  45  58
ATOM     58  C   UNL A   1      45.290  28.493  32.783  1.00  0.00    -0.014 A 
ATOM     59  C   UNL A   1      45.269  27.557  33.827  1.00  0.00     0.009 A 
ATOM     60  C   UNL A   1      46.494  28.723  32.099  1.00  0.00     0.009 A 
ATOM     61  C   UNL A   1      46.438  26.890  34.200  1.00  0.00     0.001 A 
ATOM     62  C   UNL A   1      47.653  28.032  32.453  1.00  0.00     0.001 A 
ATOM     63  C   UNL A   1      47.627  27.123  33.510  1.00  0.00     0.000 A 
ENDBRANCH  45  58
ENDBRANCH  19  20
ENDBRANCH  11  14
ENDBRANCH   9  10
ENDBRANCH   8   9
ENDBRANCH   7   8
ENDBRANCH   5   7
ENDBRANCH   2   3
BRANCH   2  64
ATOM     64  C   UNL A   1      33.074  26.277  25.793  1.00  0.00    -0.033 A 
ATOM     65  C   UNL A   1      34.201  26.067  24.990  1.00  0.00     0.005 A 
ATOM     66  C   UNL A   1      32.575  25.173  26.506  1.00  0.00     0.044 A 
ATOM     67  C   UNL A   1      34.801  24.808  24.892  1.00  0.00     0.012 A 
ATOM     68  C   UNL A   1      33.193  23.927  26.426  1.00  0.00     0.131 A 
ATOM     69  C   UNL A   1      34.311  23.713  25.612  1.00  0.00     0.018 A 
ATOM     70  F   UNL A   1      32.681  22.926  27.159  1.00  0.00    -0.206 F 
BRANCH  69  71
ATOM     71  C   UNL A   1      34.906  22.384  25.433  1.00  0.00    -0.012 A 
ATOM     72  C   UNL A   1      36.292  22.198  25.291  1.00  0.00     0.009 A 
ATOM     73  C   UNL A   1      34.069  21.265  25.332  1.00  0.00     0.056 A 
ATOM     74  C   UNL A   1      36.822  20.930  25.038  1.00  0.00     0.004 A 
ATOM     75  C   UNL A   1      34.595  20.010  25.057  1.00  0.00     0.133 A 
ATOM     76  C   UNL A   1      35.971  19.834  24.914  1.00  0.00     0.047 A 
BRANCH  75  77
ATOM     77  O   UNL A   1      33.810  18.844  24.928  1.00  0.00    -0.410 OA
BRANCH  77  78
ATOM     78  C   UNL A   1      33.603  18.140  23.744  1.00  0.00     0.412 C 
ATOM     79  O   UNL A   1      34.088  17.060  23.434  1.00  0.00    -0.224 OA
ATOM     80  N   UNL A   1      32.739  18.774  22.899  1.00  0.00    -0.321 N 
ATOM     81  H   UNL A   1      32.636  18.399  21.994  1.00  0.00     0.167 HD
BRANCH  80  82
ATOM     82  C   UNL A   1      31.966  19.947  23.222  1.00  0.00     0.120 C 
BRANCH  82  83
ATOM     83  C   UNL A   1      31.990  21.031  22.147  1.00  0.00     0.026 C 
BRANCH  83  84
ATOM     84  C   UNL A   1      32.774  22.318  22.429  1.00  0.00     0.037 C 
BRANCH  84  85
ATOM     85  C   UNL A   1      32.049  23.617  22.700  1.00  0.00    -0.048 A 
ATOM     86  C   UNL A   1      30.927  23.749  23.525  1.00  0.00     0.004 A 
ATOM     87  C   UNL A   1      32.503  24.763  22.022  1.00  0.00     0.004 A 
ATOM     88  C   UNL A   1      30.278  24.980  23.666  1.00  0.00     0.000 A 
ATOM     89  C   UNL A   1      31.861  25.995  22.169  1.00  0.00     0.000 A 
ATOM     90  C   UNL A   1      30.744  26.102  22.990  1.00  0.00     0.000 A 
ENDBRANCH  84  85
ENDBRANCH  83  84
ENDBRANCH  82  83
ENDBRANCH  80  82
ENDBRANCH  77  78
ENDBRANCH  75  77
ENDBRANCH  69  71
ENDBRANCH   2  64
TORSDOF 18
ENDMDL
MODEL 3
REMARK VINA RESULT:     -11.3      5.359      7.654
REMARK SMILES C[C@@H](C(=O)NCCCNC(=O)c1ccc(-c2c3nc(c(-c4ccccc4)c4ccc([nH]4)c(-c4ccccc4)c4nc(c(-c5ccccc5)c5ccc2[nH]5)C=C4)C=C3)cc1)c1ccc(-c2cccc(OC(=O)NCCCc3ccccc3)c2)c(F)c1
REMARK SMILES IDX 1 1 2 2 3 3 4 4 5 5 6 7 7 8 8 9 9 10 10 11 11 13 12 14 13 15
REMARK SMILES IDX 59 16 14 17 58 18 15 19 16 20 17 21 52 22 18 23 57 24 51 25
REMARK SMILES IDX 53 26 19 27 56 28 50 29 49 30 20 32 42 33 27 34 41 35 28 36
REMARK SMILES IDX 31 37 40 38 54 39 29 40 30 41 39 43 55 44 32 45 21 46 22 47
REMARK SMILES IDX 26 48 23 49 25 50 24 51 43 52 44 53 48 54 45 55 47 56 46 57
REMARK SMILES IDX 33 58 34 59 38 60 35 61 37 62 36 63 60 64 61 65 85 66 62 67
REMARK SMILES IDX 83 68 63 69 84 70 64 71 65 72 82 73 66 74 68 75 67 76 69 77
REMARK SMILES IDX 70 78 71 79 72 80 73 82 74 83 75 84 76 85 77 86 81 87 78 88
REMARK SMILES IDX 80 89 79 90
REMARK H PARENT 5 6 9 12 53 31 31 42 72 81
REMARK Flexibility Score: inf
ROOT
ATOM      1  C   UNL A   1      38.743  32.497  29.893  1.00  0.00     0.023 C 
ATOM      2  C   UNL A   1      37.694  31.382  29.844  1.00  0.00     0.105 C 
ENDROOT
BRANCH   2   3
ATOM      3  C   UNL A   1      36.387  31.881  29.202  1.00  0.00     0.227 C 
ATOM      4  O   UNL A   1      36.223  32.089  28.000  1.00  0.00    -0.274 OA
ATOM      5  N   UNL A   1      35.295  32.129  29.980  1.00  0.00    -0.356 N 
ATOM      6  H   UNL A   1      34.447  32.202  29.485  1.00  0.00     0.163 HD
BRANCH   5   7
ATOM      7  C   UNL A   1      35.175  32.305  31.412  1.00  0.00     0.117 C 
BRANCH   7   8
ATOM      8  C   UNL A   1      35.426  33.758  31.814  1.00  0.00     0.042 C 
BRANCH   8   9
ATOM      9  C   UNL A   1      36.740  33.994  32.551  1.00  0.00     0.118 C 
BRANCH   9  10
ATOM     10  N   UNL A   1      36.632  33.753  33.980  1.00  0.00    -0.352 N 
ATOM     11  C   UNL A   1      37.360  32.913  34.784  1.00  0.00     0.251 C 
ATOM     12  H   UNL A   1      35.932  34.271  34.440  1.00  0.00     0.163 HD
ATOM     13  O   UNL A   1      36.996  32.703  35.937  1.00  0.00    -0.269 OA
BRANCH  11  14
ATOM     14  C   UNL A   1      38.567  32.240  34.259  1.00  0.00     0.039 A 
ATOM     15  C   UNL A   1      38.409  31.093  33.477  1.00  0.00     0.014 A 
ATOM     16  C   UNL A   1      39.848  32.719  34.548  1.00  0.00     0.014 A 
ATOM     17  C   UNL A   1      39.530  30.463  32.933  1.00  0.00     0.010 A 
ATOM     18  C   UNL A   1      40.959  32.138  33.941  1.00  0.00     0.010 A 
ATOM     19  C   UNL A   1      40.813  31.001  33.132  1.00  0.00    -0.014 A 
BRANCH  19  20
ATOM     20  C   UNL A   1      42.008  30.390  32.499  1.00  0.00     0.031 A 
ATOM     21  C   UNL A   1      42.647  31.037  31.300  1.00  0.00     0.074 A 
ATOM     22  C   UNL A   1      42.484  29.219  32.965  1.00  0.00     0.049 A 
ATOM     23  N   UNL A   1      43.660  30.624  30.581  1.00  0.00    -0.248 NA
ATOM     24  C   UNL A   1      42.056  32.303  30.834  1.00  0.00     0.031 C 
ATOM     25  C   UNL A   1      41.935  28.471  34.097  1.00  0.00     0.029 A 
ATOM     26  N   UNL A   1      43.538  28.450  32.538  1.00  0.00    -0.354 N 
ATOM     27  C   UNL A   1      43.817  31.567  29.573  1.00  0.00     0.074 A 
ATOM     28  C   UNL A   1      42.765  32.546  29.742  1.00  0.00     0.031 C 
ATOM     29  C   UNL A   1      42.672  27.366  34.293  1.00  0.00     0.029 A 
ATOM     30  C   UNL A   1      43.716  27.304  33.275  1.00  0.00     0.049 A 
ATOM     31  H   UNL A   1      44.111  28.695  31.777  1.00  0.00     0.167 HD
ATOM     32  C   UNL A   1      44.761  31.624  28.603  1.00  0.00     0.031 A 
ATOM     33  C   UNL A   1      44.613  26.310  33.143  1.00  0.00     0.031 A 
ATOM     34  C   UNL A   1      45.810  30.654  28.437  1.00  0.00     0.049 A 
ATOM     35  C   UNL A   1      45.636  26.383  32.043  1.00  0.00     0.074 A 
ATOM     36  C   UNL A   1      46.846  30.654  27.518  1.00  0.00     0.029 A 
ATOM     37  N   UNL A   1      45.954  29.508  29.204  1.00  0.00    -0.354 N 
ATOM     38  N   UNL A   1      45.811  27.317  31.140  1.00  0.00    -0.248 NA
ATOM     39  C   UNL A   1      46.590  25.269  31.952  1.00  0.00     0.031 C 
ATOM     40  C   UNL A   1      47.584  29.479  27.694  1.00  0.00     0.029 A 
ATOM     41  C   UNL A   1      47.046  28.779  28.762  1.00  0.00     0.049 A 
ATOM     42  H   UNL A   1      45.368  29.251  29.952  1.00  0.00     0.167 HD
ATOM     43  C   UNL A   1      46.913  26.919  30.393  1.00  0.00     0.074 A 
ATOM     44  C   UNL A   1      47.374  25.668  30.959  1.00  0.00     0.031 C 
ATOM     45  C   UNL A   1      47.492  27.536  29.334  1.00  0.00     0.031 A 
BRANCH  32  46
ATOM     46  C   UNL A   1      44.692  32.774  27.637  1.00  0.00    -0.014 A 
ATOM     47  C   UNL A   1      44.087  32.634  26.377  1.00  0.00     0.009 A 
ATOM     48  C   UNL A   1      45.208  34.027  28.004  1.00  0.00     0.009 A 
ATOM     49  C   UNL A   1      44.034  33.713  25.492  1.00  0.00     0.001 A 
ATOM     50  C   UNL A   1      45.127  35.112  27.128  1.00  0.00     0.001 A 
ATOM     51  C   UNL A   1      44.549  34.952  25.870  1.00  0.00     0.000 A 
ENDBRANCH  32  46
BRANCH  33  52
ATOM     52  C   UNL A   1      44.595  25.158  34.084  1.00  0.00    -0.014 A 
ATOM     53  C   UNL A   1      43.829  24.018  33.799  1.00  0.00     0.009 A 
ATOM     54  C   UNL A   1      45.336  25.197  35.275  1.00  0.00     0.009 A 
ATOM     55  C   UNL A   1      43.784  22.951  34.700  1.00  0.00     0.001 A 
ATOM     56  C   UNL A   1      45.313  24.116  36.160  1.00  0.00     0.001 A 
ATOM     57  C   UNL A   1      44.528  23.000  35.877  1.00  0.00     0.000 A 
ENDBRANCH  33  52
BRANCH  45  58
ATOM     58  C   UNL A   1      48.712  26.886  28.742  1.00  0.00    -0.014 A 
ATOM     59  C   UNL A   1      49.998  27.163  29.229  1.00  0.00     0.009 A 
ATOM     60  C   UNL A   1      48.563  25.950  27.706  1.00  0.00     0.009 A 
ATOM     61  C   UNL A   1      51.114  26.541  28.666  1.00  0.00     0.001 A 
ATOM     62  C   UNL A   1      49.677  25.306  27.167  1.00  0.00     0.001 A 
ATOM     63  C   UNL A   1      50.953  25.609  27.640  1.00  0.00     0.000 A 
ENDBRANCH  45  58
ENDBRANCH  19  20
ENDBRANCH  11  14
ENDBRANCH   9  10
ENDBRANCH   8   9
ENDBRANCH   7   8
ENDBRANCH   5   7
ENDBRANCH   2   3
BRANCH   2  64
ATOM     64  C   UNL A   1      38.351  30.142  29.236  1.00  0.00    -0.033 A 
ATOM     65  C   UNL A   1      37.653  29.047  28.713  1.00  0.00     0.005 A 
ATOM     66  C   UNL A   1      39.753  30.127  29.125  1.00  0.00     0.044 A 
ATOM     67  C   UNL A   1      38.323  27.975  28.115  1.00  0.00     0.012 A 
ATOM     68  C   UNL A   1      40.413  29.069  28.503  1.00  0.00     0.131 A 
ATOM     69  C   UNL A   1      39.717  27.967  27.993  1.00  0.00     0.018 A 
ATOM     70  F   UNL A   1      41.750  29.137  28.404  1.00  0.00    -0.206 F 
BRANCH  69  71
ATOM     71  C   UNL A   1      40.404  26.798  27.433  1.00  0.00    -0.012 A 
ATOM     72  C   UNL A   1      40.956  26.802  26.141  1.00  0.00     0.009 A 
ATOM     73  C   UNL A   1      40.457  25.612  28.178  1.00  0.00     0.056 A 
ATOM     74  C   UNL A   1      41.528  25.647  25.604  1.00  0.00     0.004 A 
ATOM     75  C   UNL A   1      41.005  24.459  27.634  1.00  0.00     0.133 A 
ATOM     76  C   UNL A   1      41.548  24.470  26.349  1.00  0.00     0.047 A 
BRANCH  75  77
ATOM     77  O   UNL A   1      41.078  23.228  28.321  1.00  0.00    -0.410 OA
BRANCH  77  78
ATOM     78  C   UNL A   1      41.876  22.146  27.953  1.00  0.00     0.412 C 
ATOM     79  O   UNL A   1      41.688  21.374  27.023  1.00  0.00    -0.224 OA
ATOM     80  N   UNL A   1      42.976  22.009  28.749  1.00  0.00    -0.321 N 
ATOM     81  H   UNL A   1      43.523  21.199  28.629  1.00  0.00     0.167 HD
BRANCH  80  82
ATOM     82  C   UNL A   1      43.403  22.952  29.752  1.00  0.00     0.120 C 
BRANCH  82  83
ATOM     83  C   UNL A   1      44.527  23.881  29.302  1.00  0.00     0.026 C 
BRANCH  83  84
ATOM     84  C   UNL A   1      44.172  25.325  28.924  1.00  0.00     0.037 C 
BRANCH  84  85
ATOM     85  C   UNL A   1      44.553  25.883  27.572  1.00  0.00    -0.048 A 
ATOM     86  C   UNL A   1      45.229  25.172  26.576  1.00  0.00     0.004 A 
ATOM     87  C   UNL A   1      44.256  27.235  27.325  1.00  0.00     0.004 A 
ATOM     88  C   UNL A   1      45.602  25.789  25.377  1.00  0.00     0.000 A 
ATOM     89  C   UNL A   1      44.619  27.851  26.125  1.00  0.00     0.000 A 
ATOM     90  C   UNL A   1      45.297  27.127  25.151  1.00  0.00     0.000 A 
ENDBRANCH  84  85
ENDBRANCH  83  84
ENDBRANCH  82  83
ENDBRANCH  80  82
ENDBRANCH  77  78
ENDBRANCH  75  77
ENDBRANCH  69  71
ENDBRANCH   2  64
TORSDOF 18
ENDMDL
