MODEL 1
REMARK VINA RESULT:     -11.2      0.000      0.000
REMARK SMILES O=C(CCn1ccnc1)N[C@H]1C=C[C@@H](C(=O)NCCCNC(=O)c2ccc(-c3c4nc(c(-c5ccccc5)c5ccc([nH]5)c(-c5ccccc5)c5nc(c(-c6ccccc6)c6ccc3[nH]6)C=C5)C=C4)cc2)C1
REMARK SMILES IDX 18 1 17 2 15 3 16 4 14 6 11 7 12 8 72 9 13 10 10 11 1 12
REMARK SMILES IDX 2 13 3 15 4 16 5 17 6 18 9 19 7 20 8 21 19 22 20 23 21 24
REMARK SMILES IDX 22 25 23 27 24 28 25 29 71 30 26 31 70 32 27 33 28 34 29 35
REMARK SMILES IDX 64 36 30 37 69 38 63 39 65 40 31 41 68 42 62 43 61 44 32 46
REMARK SMILES IDX 54 47 39 48 53 49 40 50 43 51 52 52 66 53 41 54 42 55 51 57
REMARK SMILES IDX 67 58 44 59 33 60 34 61 38 62 35 63 37 64 36 65 55 66 56 67
REMARK SMILES IDX 60 68 57 69 59 70 58 71 45 72 46 73 50 74 47 75 49 76 48 77
REMARK H PARENT 17 5 10 14 21 26 65 45 43 56
REMARK Flexibility Score: inf
ROOT
ATOM      1  C   UNL A   1      31.646  30.486  25.710  1.00  0.00     0.117 C 
ENDROOT
BRANCH   1   2
ATOM      2  N   UNL A   1      31.653  29.337  26.607  1.00  0.00    -0.356 N 
ATOM      3  C   UNL A   1      31.414  28.013  26.389  1.00  0.00     0.227 C 
ATOM      4  O   UNL A   1      31.482  27.265  27.371  1.00  0.00    -0.274 OA
ATOM      5  H   UNL A   1      31.872  29.558  27.541  1.00  0.00     0.163 HD
BRANCH   3   6
ATOM      6  C   UNL A   1      31.050  27.438  25.017  1.00  0.00     0.103 C 
ATOM      7  C   UNL A   1      31.645  25.575  23.547  1.00  0.00     0.106 C 
ATOM      8  C   UNL A   1      30.364  25.319  24.271  1.00  0.00    -0.006 C 
ATOM      9  C   UNL A   1      32.226  26.793  24.276  1.00  0.00     0.047 C 
ATOM     10  C   UNL A   1      30.017  26.353  25.047  1.00  0.00    -0.016 C 
BRANCH   7  11
ATOM     11  N   UNL A   1      32.492  24.409  23.638  1.00  0.00    -0.350 N 
ATOM     12  O   UNL A   1      33.675  24.901  21.736  1.00  0.00    -0.275 OA
ATOM     13  C   UNL A   1      33.451  24.155  22.686  1.00  0.00     0.222 C 
ATOM     14  H   UNL A   1      32.381  23.786  24.392  1.00  0.00     0.164 HD
BRANCH  13  15
ATOM     15  C   UNL A   1      34.261  22.898  22.900  1.00  0.00     0.122 C 
BRANCH  15  16
ATOM     16  C   UNL A   1      34.319  22.558  24.385  1.00  0.00     0.133 C 
BRANCH  16  17
ATOM     17  N   UNL A   1      33.700  21.282  24.685  1.00  0.00    -0.337 N 
ATOM     18  C   UNL A   1      34.338  20.083  24.826  1.00  0.00     0.107 A 
ATOM     19  C   UNL A   1      32.367  21.064  24.884  1.00  0.00     0.199 A 
ATOM     20  C   UNL A   1      33.334  19.167  25.040  1.00  0.00     0.130 A 
ATOM     21  N   UNL A   1      32.113  19.789  25.066  1.00  0.00    -0.245 NA
ENDBRANCH  16  17
ENDBRANCH  15  16
ENDBRANCH  13  15
ENDBRANCH   7  11
ENDBRANCH   3   6
ENDBRANCH   1   2
BRANCH   1  22
ATOM     22  C   UNL A   1      31.257  31.786  26.412  1.00  0.00     0.042 C 
BRANCH  22  23
ATOM     23  C   UNL A   1      32.384  32.372  27.236  1.00  0.00     0.118 C 
BRANCH  23  24
ATOM     24  N   UNL A   1      32.240  33.810  27.510  1.00  0.00    -0.352 N 
ATOM     25  C   UNL A   1      32.942  34.592  28.425  1.00  0.00     0.251 C 
ATOM     26  H   UNL A   1      31.558  34.281  26.977  1.00  0.00     0.163 HD
ATOM     27  O   UNL A   1      32.508  35.665  28.797  1.00  0.00    -0.269 OA
BRANCH  25  28
ATOM     28  C   UNL A   1      34.233  34.084  28.933  1.00  0.00     0.039 A 
ATOM     29  C   UNL A   1      34.407  33.550  30.214  1.00  0.00     0.014 A 
ATOM     30  C   UNL A   1      35.294  34.113  28.046  1.00  0.00     0.014 A 
ATOM     31  C   UNL A   1      35.651  33.005  30.540  1.00  0.00     0.010 A 
ATOM     32  C   UNL A   1      36.349  33.280  28.238  1.00  0.00     0.010 A 
ATOM     33  C   UNL A   1      36.616  32.875  29.529  1.00  0.00    -0.014 A 
BRANCH  33  34
ATOM     34  C   UNL A   1      37.927  32.286  29.729  1.00  0.00     0.031 A 
ATOM     35  C   UNL A   1      38.006  30.856  29.376  1.00  0.00     0.074 A 
ATOM     36  C   UNL A   1      39.039  33.032  29.932  1.00  0.00     0.049 A 
ATOM     37  N   UNL A   1      38.065  29.856  30.188  1.00  0.00    -0.248 NA
ATOM     38  C   UNL A   1      37.831  30.482  27.964  1.00  0.00     0.031 C 
ATOM     39  C   UNL A   1      39.175  34.499  29.930  1.00  0.00     0.029 A 
ATOM     40  N   UNL A   1      40.327  32.622  30.056  1.00  0.00    -0.354 N 
ATOM     41  C   UNL A   1      38.183  28.733  29.381  1.00  0.00     0.074 A 
ATOM     42  C   UNL A   1      37.793  29.151  28.059  1.00  0.00     0.031 C 
ATOM     43  C   UNL A   1      40.479  34.837  29.815  1.00  0.00     0.029 A 
ATOM     44  C   UNL A   1      41.275  33.630  29.919  1.00  0.00     0.049 A 
ATOM     45  H   UNL A   1      40.571  31.684  30.230  1.00  0.00     0.167 HD
ATOM     46  C   UNL A   1      38.892  27.648  29.803  1.00  0.00     0.031 A 
ATOM     47  C   UNL A   1      42.621  33.474  29.878  1.00  0.00     0.031 A 
ATOM     48  C   UNL A   1      39.199  27.741  31.213  1.00  0.00     0.049 A 
ATOM     49  C   UNL A   1      42.923  32.149  30.463  1.00  0.00     0.074 A 
ATOM     50  C   UNL A   1      38.459  27.874  32.373  1.00  0.00     0.029 A 
ATOM     51  N   UNL A   1      40.479  28.127  31.539  1.00  0.00    -0.354 N 
ATOM     52  N   UNL A   1      42.736  31.862  31.719  1.00  0.00    -0.248 NA
ATOM     53  C   UNL A   1      43.008  31.006  29.569  1.00  0.00     0.031 C 
ATOM     54  C   UNL A   1      39.214  28.768  33.192  1.00  0.00     0.029 A 
ATOM     55  C   UNL A   1      40.404  29.071  32.527  1.00  0.00     0.049 A 
ATOM     56  H   UNL A   1      41.307  27.784  31.130  1.00  0.00     0.167 HD
ATOM     57  C   UNL A   1      42.222  30.573  31.711  1.00  0.00     0.074 A 
ATOM     58  C   UNL A   1      42.528  30.056  30.377  1.00  0.00     0.031 C 
ATOM     59  C   UNL A   1      41.343  30.162  32.674  1.00  0.00     0.031 A 
BRANCH  46  60
ATOM     60  C   UNL A   1      39.710  26.771  28.879  1.00  0.00    -0.014 A 
ATOM     61  C   UNL A   1      40.817  27.350  28.230  1.00  0.00     0.009 A 
ATOM     62  C   UNL A   1      39.289  25.517  28.400  1.00  0.00     0.009 A 
ATOM     63  C   UNL A   1      41.384  26.765  27.093  1.00  0.00     0.001 A 
ATOM     64  C   UNL A   1      39.880  24.909  27.291  1.00  0.00     0.001 A 
ATOM     65  C   UNL A   1      40.905  25.551  26.615  1.00  0.00     0.000 A 
ENDBRANCH  46  60
BRANCH  47  66
ATOM     66  C   UNL A   1      43.645  34.269  29.167  1.00  0.00    -0.014 A 
ATOM     67  C   UNL A   1      44.559  35.062  29.880  1.00  0.00     0.009 A 
ATOM     68  C   UNL A   1      43.908  34.028  27.807  1.00  0.00     0.009 A 
ATOM     69  C   UNL A   1      45.722  35.550  29.267  1.00  0.00     0.001 A 
ATOM     70  C   UNL A   1      45.069  34.517  27.194  1.00  0.00     0.001 A 
ATOM     71  C   UNL A   1      45.984  35.263  27.930  1.00  0.00     0.000 A 
ENDBRANCH  47  66
BRANCH  59  72
ATOM     72  C   UNL A   1      41.157  31.051  33.882  1.00  0.00    -0.014 A 
ATOM     73  C   UNL A   1      40.237  32.113  33.926  1.00  0.00     0.009 A 
ATOM     74  C   UNL A   1      41.831  30.710  35.063  1.00  0.00     0.009 A 
ATOM     75  C   UNL A   1      40.023  32.831  35.109  1.00  0.00     0.001 A 
ATOM     76  C   UNL A   1      41.603  31.412  36.248  1.00  0.00     0.001 A 
ATOM     77  C   UNL A   1      40.704  32.475  36.270  1.00  0.00     0.000 A 
ENDBRANCH  59  72
ENDBRANCH  33  34
ENDBRANCH  25  28
ENDBRANCH  23  24
ENDBRANCH  22  23
ENDBRANCH   1  22
TORSDOF 14
ENDMDL
MODEL 2
REMARK VINA RESULT:     -11.1      2.638      4.173
REMARK SMILES O=C(CCn1ccnc1)N[C@H]1C=C[C@@H](C(=O)NCCCNC(=O)c2ccc(-c3c4nc(c(-c5ccccc5)c5ccc([nH]5)c(-c5ccccc5)c5nc(c(-c6ccccc6)c6ccc3[nH]6)C=C5)C=C4)cc2)C1
REMARK SMILES IDX 18 1 17 2 15 3 16 4 14 6 11 7 12 8 72 9 13 10 10 11 1 12
REMARK SMILES IDX 2 13 3 15 4 16 5 17 6 18 9 19 7 20 8 21 19 22 20 23 21 24
REMARK SMILES IDX 22 25 23 27 24 28 25 29 71 30 26 31 70 32 27 33 28 34 29 35
REMARK SMILES IDX 64 36 30 37 69 38 63 39 65 40 31 41 68 42 62 43 61 44 32 46
REMARK SMILES IDX 54 47 39 48 53 49 40 50 43 51 52 52 66 53 41 54 42 55 51 57
REMARK SMILES IDX 67 58 44 59 33 60 34 61 38 62 35 63 37 64 36 65 55 66 56 67
REMARK SMILES IDX 60 68 57 69 59 70 58 71 45 72 46 73 50 74 47 75 49 76 48 77
REMARK H PARENT 17 5 10 14 21 26 65 45 43 56
REMARK Flexibility Score: inf
ROOT
ATOM      1  C   UNL A   1      31.790  30.968  26.540  1.00  0.00     0.117 C 
ENDROOT
BRANCH   1   2
ATOM      2  N   UNL A   1      32.958  30.366  27.172  1.00  0.00    -0.356 N 
ATOM      3  C   UNL A   1      33.668  29.240  26.882  1.00  0.00     0.227 C 
ATOM      4  O   UNL A   1      34.622  28.975  27.623  1.00  0.00    -0.274 OA
ATOM      5  H   UNL A   1      33.295  30.865  27.950  1.00  0.00     0.163 HD
BRANCH   3   6
ATOM      6  C   UNL A   1      33.325  28.305  25.718  1.00  0.00     0.103 C 
ATOM      7  C   UNL A   1      31.435  27.717  24.281  1.00  0.00     0.106 C 
ATOM      8  C   UNL A   1      32.390  28.632  23.589  1.00  0.00    -0.006 C 
ATOM      9  C   UNL A   1      31.887  27.774  25.745  1.00  0.00     0.047 C 
ATOM     10  C   UNL A   1      33.444  28.925  24.359  1.00  0.00    -0.016 C 
BRANCH   7  11
ATOM     11  N   UNL A   1      30.085  28.196  24.091  1.00  0.00    -0.350 N 
ATOM     12  O   UNL A   1      30.179  28.086  21.802  1.00  0.00    -0.275 OA
ATOM     13  C   UNL A   1      29.564  28.361  22.828  1.00  0.00     0.222 C 
ATOM     14  H   UNL A   1      29.530  28.408  24.875  1.00  0.00     0.164 HD
BRANCH  13  15
ATOM     15  C   UNL A   1      28.144  28.874  22.775  1.00  0.00     0.122 C 
BRANCH  15  16
ATOM     16  C   UNL A   1      27.985  29.860  21.624  1.00  0.00     0.133 C 
BRANCH  16  17
ATOM     17  N   UNL A   1      28.229  31.230  22.031  1.00  0.00    -0.337 N 
ATOM     18  C   UNL A   1      28.760  31.642  23.221  1.00  0.00     0.107 A 
ATOM     19  C   UNL A   1      27.972  32.345  21.287  1.00  0.00     0.199 A 
ATOM     20  C   UNL A   1      28.735  33.017  23.164  1.00  0.00     0.130 A 
ATOM     21  N   UNL A   1      28.236  33.441  21.961  1.00  0.00    -0.245 NA
ENDBRANCH  16  17
ENDBRANCH  15  16
ENDBRANCH  13  15
ENDBRANCH   7  11
ENDBRANCH   3   6
ENDBRANCH   1   2
BRANCH   1  22
ATOM     22  C   UNL A   1      31.496  32.377  27.053  1.00  0.00     0.042 C 
BRANCH  22  23
ATOM     23  C   UNL A   1      32.751  33.185  27.311  1.00  0.00     0.118 C 
BRANCH  23  24
ATOM     24  N   UNL A   1      32.519  34.420  28.077  1.00  0.00    -0.352 N 
ATOM     25  C   UNL A   1      33.137  34.838  29.254  1.00  0.00     0.251 C 
ATOM     26  H   UNL A   1      31.839  35.031  27.710  1.00  0.00     0.163 HD
ATOM     27  O   UNL A   1      32.632  35.687  29.962  1.00  0.00    -0.269 OA
BRANCH  25  28
ATOM     28  C   UNL A   1      34.429  34.221  29.623  1.00  0.00     0.039 A 
ATOM     29  C   UNL A   1      34.603  33.390  30.733  1.00  0.00     0.014 A 
ATOM     30  C   UNL A   1      35.490  34.467  28.769  1.00  0.00     0.014 A 
ATOM     31  C   UNL A   1      35.847  32.782  30.916  1.00  0.00     0.010 A 
ATOM     32  C   UNL A   1      36.545  33.613  28.752  1.00  0.00     0.010 A 
ATOM     33  C   UNL A   1      36.812  32.904  29.904  1.00  0.00    -0.014 A 
BRANCH  33  34
ATOM     34  C   UNL A   1      38.124  32.284  29.954  1.00  0.00     0.031 A 
ATOM     35  C   UNL A   1      38.144  30.879  29.507  1.00  0.00     0.074 A 
ATOM     36  C   UNL A   1      39.263  33.000  30.107  1.00  0.00     0.049 A 
ATOM     37  N   UNL A   1      38.251  29.828  30.247  1.00  0.00    -0.248 NA
ATOM     38  C   UNL A   1      37.843  30.598  28.094  1.00  0.00     0.031 C 
ATOM     39  C   UNL A   1      39.427  34.461  30.185  1.00  0.00     0.029 A 
ATOM     40  N   UNL A   1      40.549  32.563  30.095  1.00  0.00    -0.354 N 
ATOM     41  C   UNL A   1      38.279  28.758  29.364  1.00  0.00     0.074 A 
ATOM     42  C   UNL A   1      37.786  29.265  28.108  1.00  0.00     0.031 C 
ATOM     43  C   UNL A   1      40.724  34.787  29.980  1.00  0.00     0.029 A 
ATOM     44  C   UNL A   1      41.502  33.565  29.941  1.00  0.00     0.049 A 
ATOM     45  H   UNL A   1      40.787  31.613  30.188  1.00  0.00     0.167 HD
ATOM     46  C   UNL A   1      38.999  27.637  29.655  1.00  0.00     0.031 A 
ATOM     47  C   UNL A   1      42.836  33.392  29.774  1.00  0.00     0.031 A 
ATOM     48  C   UNL A   1      39.425  27.636  31.037  1.00  0.00     0.049 A 
ATOM     49  C   UNL A   1      43.160  32.028  30.248  1.00  0.00     0.074 A 
ATOM     50  C   UNL A   1      38.789  27.705  32.261  1.00  0.00     0.029 A 
ATOM     51  N   UNL A   1      40.736  27.981  31.275  1.00  0.00    -0.354 N 
ATOM     52  N   UNL A   1      43.074  31.664  31.495  1.00  0.00    -0.248 NA
ATOM     53  C   UNL A   1      43.146  30.944  29.280  1.00  0.00     0.031 C 
ATOM     54  C   UNL A   1      39.628  28.533  33.067  1.00  0.00     0.029 A 
ATOM     55  C   UNL A   1      40.763  28.861  32.323  1.00  0.00     0.049 A 
ATOM     56  H   UNL A   1      41.519  27.653  30.777  1.00  0.00     0.167 HD
ATOM     57  C   UNL A   1      42.535  30.386  31.450  1.00  0.00     0.074 A 
ATOM     58  C   UNL A   1      42.718  29.951  30.066  1.00  0.00     0.031 C 
ATOM     59  C   UNL A   1      41.734  29.926  32.458  1.00  0.00     0.031 A 
BRANCH  46  60
ATOM     60  C   UNL A   1      39.718  26.810  28.612  1.00  0.00    -0.014 A 
ATOM     61  C   UNL A   1      40.846  27.374  27.986  1.00  0.00     0.009 A 
ATOM     62  C   UNL A   1      39.187  25.650  28.018  1.00  0.00     0.009 A 
ATOM     63  C   UNL A   1      41.331  26.877  26.771  1.00  0.00     0.001 A 
ATOM     64  C   UNL A   1      39.696  25.125  26.827  1.00  0.00     0.001 A 
ATOM     65  C   UNL A   1      40.746  25.761  26.185  1.00  0.00     0.000 A 
ENDBRANCH  46  60
BRANCH  47  66
ATOM     66  C   UNL A   1      43.812  34.216  29.030  1.00  0.00    -0.014 A 
ATOM     67  C   UNL A   1      43.939  34.093  27.636  1.00  0.00     0.009 A 
ATOM     68  C   UNL A   1      44.414  35.327  29.646  1.00  0.00     0.009 A 
ATOM     69  C   UNL A   1      44.599  35.073  26.882  1.00  0.00     0.001 A 
ATOM     70  C   UNL A   1      45.076  36.305  28.893  1.00  0.00     0.001 A 
ATOM     71  C   UNL A   1      45.152  36.186  27.509  1.00  0.00     0.000 A 
ENDBRANCH  47  66
BRANCH  59  72
ATOM     72  C   UNL A   1      41.667  30.739  33.730  1.00  0.00    -0.014 A 
ATOM     73  C   UNL A   1      40.704  31.736  33.961  1.00  0.00     0.009 A 
ATOM     74  C   UNL A   1      42.518  30.382  34.786  1.00  0.00     0.009 A 
ATOM     75  C   UNL A   1      40.617  32.378  35.203  1.00  0.00     0.001 A 
ATOM     76  C   UNL A   1      42.419  31.007  36.030  1.00  0.00     0.001 A 
ATOM     77  C   UNL A   1      41.472  32.007  36.238  1.00  0.00     0.000 A 
ENDBRANCH  59  72
ENDBRANCH  33  34
ENDBRANCH  25  28
ENDBRANCH  23  24
ENDBRANCH  22  23
ENDBRANCH   1  22
TORSDOF 14
ENDMDL
MODEL 3
REMARK VINA RESULT:     -10.8      2.533      6.007
REMARK SMILES O=C(CCn1ccnc1)N[C@H]1C=C[C@@H](C(=O)NCCCNC(=O)c2ccc(-c3c4nc(c(-c5ccccc5)c5ccc([nH]5)c(-c5ccccc5)c5nc(c(-c6ccccc6)c6ccc3[nH]6)C=C5)C=C4)cc2)C1
REMARK SMILES IDX 18 1 17 2 15 3 16 4 14 6 11 7 12 8 72 9 13 10 10 11 1 12
REMARK SMILES IDX 2 13 3 15 4 16 5 17 6 18 9 19 7 20 8 21 19 22 20 23 21 24
REMARK SMILES IDX 22 25 23 27 24 28 25 29 71 30 26 31 70 32 27 33 28 34 29 35
REMARK SMILES IDX 64 36 30 37 69 38 63 39 65 40 31 41 68 42 62 43 61 44 32 46
REMARK SMILES IDX 54 47 39 48 53 49 40 50 43 51 52 52 66 53 41 54 42 55 51 57
REMARK SMILES IDX 67 58 44 59 33 60 34 61 38 62 35 63 37 64 36 65 55 66 56 67
REMARK SMILES IDX 60 68 57 69 59 70 58 71 45 72 46 73 50 74 47 75 49 76 48 77
REMARK H PARENT 17 5 10 14 21 26 65 45 43 56
REMARK Flexibility Score: inf
ROOT
ATOM      1  C   UNL A   1      31.473  28.318  26.147  1.00  0.00     0.117 C 
ENDROOT
BRANCH   1   2
ATOM      2  N   UNL A   1      31.199  26.962  26.607  1.00  0.00    -0.356 N 
ATOM      3  C   UNL A   1      31.894  25.798  26.470  1.00  0.00     0.227 C 
ATOM      4  O   UNL A   1      31.390  24.785  26.968  1.00  0.00    -0.274 OA
ATOM      5  H   UNL A   1      30.358  26.871  27.110  1.00  0.00     0.163 HD
BRANCH   3   6
ATOM      6  C   UNL A   1      33.227  25.697  25.722  1.00  0.00     0.103 C 
ATOM      7  C   UNL A   1      34.732  24.007  24.794  1.00  0.00     0.106 C 
ATOM      8  C   UNL A   1      33.900  24.647  23.732  1.00  0.00    -0.006 C 
ATOM      9  C   UNL A   1      34.063  24.468  26.094  1.00  0.00     0.047 C 
ATOM     10  C   UNL A   1      33.103  25.598  24.232  1.00  0.00    -0.016 C 
BRANCH   7  11
ATOM     11  N   UNL A   1      34.708  22.573  24.627  1.00  0.00    -0.350 N 
ATOM     12  O   UNL A   1      36.550  22.211  25.944  1.00  0.00    -0.275 OA
ATOM     13  C   UNL A   1      35.659  21.776  25.220  1.00  0.00     0.222 C 
ATOM     14  H   UNL A   1      34.002  22.159  24.080  1.00  0.00     0.164 HD
BRANCH  13  15
ATOM     15  C   UNL A   1      35.519  20.295  24.958  1.00  0.00     0.122 C 
BRANCH  15  16
ATOM     16  C   UNL A   1      34.054  19.937  24.736  1.00  0.00     0.133 C 
BRANCH  16  17
ATOM     17  N   UNL A   1      33.887  18.624  24.144  1.00  0.00    -0.337 N 
ATOM     18  C   UNL A   1      34.763  17.579  24.227  1.00  0.00     0.107 A 
ATOM     19  C   UNL A   1      32.818  18.208  23.406  1.00  0.00     0.199 A 
ATOM     20  C   UNL A   1      34.202  16.583  23.462  1.00  0.00     0.130 A 
ATOM     21  N   UNL A   1      32.997  16.989  22.951  1.00  0.00    -0.245 NA
ENDBRANCH  16  17
ENDBRANCH  15  16
ENDBRANCH  13  15
ENDBRANCH   7  11
ENDBRANCH   3   6
ENDBRANCH   1   2
BRANCH   1  22
ATOM     22  C   UNL A   1      31.939  29.245  27.268  1.00  0.00     0.042 C 
BRANCH  22  23
ATOM     23  C   UNL A   1      33.415  29.575  27.185  1.00  0.00     0.118 C 
BRANCH  23  24
ATOM     24  N   UNL A   1      33.708  31.016  27.229  1.00  0.00    -0.352 N 
ATOM     25  C   UNL A   1      34.762  31.667  27.867  1.00  0.00     0.251 C 
ATOM     26  H   UNL A   1      33.077  31.597  26.744  1.00  0.00     0.163 HD
ATOM     27  O   UNL A   1      34.708  32.855  28.117  1.00  0.00    -0.269 OA
BRANCH  25  28
ATOM     28  C   UNL A   1      35.954  30.873  28.234  1.00  0.00     0.039 A 
ATOM     29  C   UNL A   1      36.181  29.566  27.794  1.00  0.00     0.014 A 
ATOM     30  C   UNL A   1      36.895  31.512  29.020  1.00  0.00     0.014 A 
ATOM     31  C   UNL A   1      37.396  28.959  28.123  1.00  0.00     0.010 A 
ATOM     32  C   UNL A   1      38.177  31.066  29.024  1.00  0.00     0.010 A 
ATOM     33  C   UNL A   1      38.391  29.734  28.740  1.00  0.00    -0.014 A 
BRANCH  33  34
ATOM     34  C   UNL A   1      39.707  29.234  29.092  1.00  0.00     0.031 A 
ATOM     35  C   UNL A   1      39.940  29.119  30.543  1.00  0.00     0.074 A 
ATOM     36  C   UNL A   1      40.531  28.651  28.189  1.00  0.00     0.049 A 
ATOM     37  N   UNL A   1      40.666  29.891  31.279  1.00  0.00    -0.248 NA
ATOM     38  C   UNL A   1      39.146  28.135  31.295  1.00  0.00     0.031 C 
ATOM     39  C   UNL A   1      40.276  28.352  26.770  1.00  0.00     0.029 A 
ATOM     40  N   UNL A   1      41.745  28.077  28.393  1.00  0.00    -0.354 N 
ATOM     41  C   UNL A   1      40.615  29.340  32.552  1.00  0.00     0.074 A 
ATOM     42  C   UNL A   1      39.495  28.433  32.549  1.00  0.00     0.031 C 
ATOM     43  C   UNL A   1      41.190  27.464  26.318  1.00  0.00     0.029 A 
ATOM     44  C   UNL A   1      42.192  27.274  27.349  1.00  0.00     0.049 A 
ATOM     45  H   UNL A   1      42.268  28.219  29.215  1.00  0.00     0.167 HD
ATOM     46  C   UNL A   1      41.683  29.439  33.393  1.00  0.00     0.031 A 
ATOM     47  C   UNL A   1      43.301  26.495  27.346  1.00  0.00     0.031 A 
ATOM     48  C   UNL A   1      42.654  30.388  32.895  1.00  0.00     0.049 A 
ATOM     49  C   UNL A   1      44.185  26.994  28.423  1.00  0.00     0.074 A 
ATOM     50  C   UNL A   1      42.633  31.726  32.552  1.00  0.00     0.029 A 
ATOM     51  N   UNL A   1      43.769  29.862  32.284  1.00  0.00    -0.354 N 
ATOM     52  N   UNL A   1      44.768  28.158  28.389  1.00  0.00    -0.248 NA
ATOM     53  C   UNL A   1      44.066  26.395  29.742  1.00  0.00     0.031 C 
ATOM     54  C   UNL A   1      43.456  31.822  31.389  1.00  0.00     0.029 A 
ATOM     55  C   UNL A   1      43.996  30.560  31.130  1.00  0.00     0.049 A 
ATOM     56  H   UNL A   1      44.311  29.110  32.620  1.00  0.00     0.167 HD
ATOM     57  C   UNL A   1      44.666  28.638  29.687  1.00  0.00     0.074 A 
ATOM     58  C   UNL A   1      44.339  27.464  30.496  1.00  0.00     0.031 C 
ATOM     59  C   UNL A   1      44.565  29.979  29.933  1.00  0.00     0.031 A 
BRANCH  46  60
ATOM     60  C   UNL A   1      42.077  28.358  34.377  1.00  0.00    -0.014 A 
ATOM     61  C   UNL A   1      42.491  27.116  33.859  1.00  0.00     0.009 A 
ATOM     62  C   UNL A   1      41.791  28.399  35.754  1.00  0.00     0.009 A 
ATOM     63  C   UNL A   1      42.496  25.961  34.650  1.00  0.00     0.001 A 
ATOM     64  C   UNL A   1      41.837  27.256  36.556  1.00  0.00     0.001 A 
ATOM     65  C   UNL A   1      42.155  26.030  35.995  1.00  0.00     0.000 A 
ENDBRANCH  46  60
BRANCH  47  66
ATOM     66  C   UNL A   1      43.559  25.218  26.648  1.00  0.00    -0.014 A 
ATOM     67  C   UNL A   1      42.705  24.118  26.828  1.00  0.00     0.009 A 
ATOM     68  C   UNL A   1      44.477  25.167  25.584  1.00  0.00     0.009 A 
ATOM     69  C   UNL A   1      42.732  23.030  25.943  1.00  0.00     0.001 A 
ATOM     70  C   UNL A   1      44.507  24.079  24.702  1.00  0.00     0.001 A 
ATOM     71  C   UNL A   1      43.621  23.020  24.872  1.00  0.00     0.000 A 
ENDBRANCH  47  66
BRANCH  59  72
ATOM     72  C   UNL A   1      44.831  30.927  28.786  1.00  0.00    -0.014 A 
ATOM     73  C   UNL A   1      46.069  31.559  28.577  1.00  0.00     0.009 A 
ATOM     74  C   UNL A   1      43.839  31.071  27.805  1.00  0.00     0.009 A 
ATOM     75  C   UNL A   1      46.295  32.337  27.434  1.00  0.00     0.001 A 
ATOM     76  C   UNL A   1      44.071  31.829  26.656  1.00  0.00     0.001 A 
ATOM     77  C   UNL A   1      45.296  32.466  26.473  1.00  0.00     0.000 A 
ENDBRANCH  59  72
ENDBRANCH  33  34
ENDBRANCH  25  28
ENDBRANCH  23  24
ENDBRANCH  22  23
ENDBRANCH   1  22
TORSDOF 14
ENDMDL
