MODEL 1
REMARK VINA RESULT:     -12.6      0.000      0.000
REMARK SMILES O=C(NCCCNC(=O)c1ccc(-c2c3nc(c(-c4ccccc4)c4ccc([nH]4)c(-c4ccccc4)c4nc(c(-c5ccccc5)c5ccc2[nH]5)C=C4)C=C3)cc1)C1=Cc2cc(S(F)(F)(F)(F)F)ccc2O[C@@H]1C(F)(F)F
REMARK SMILES IDX 5 1 4 2 3 3 1 4 2 5 58 7 59 8 73 9 60 10 72 11 61 12 71 13
REMARK SMILES IDX 62 14 70 15 69 16 74 17 75 18 76 19 77 20 63 21 64 22 65 23
REMARK SMILES IDX 66 24 67 25 68 26 6 27 7 28 8 29 9 31 10 32 11 33 57 34
REMARK SMILES IDX 12 35 56 36 13 37 14 38 15 39 50 40 16 41 55 42 49 43 51 44
REMARK SMILES IDX 17 45 54 46 48 47 47 48 18 50 40 51 25 52 39 53 26 54 29 55
REMARK SMILES IDX 38 56 52 57 27 58 28 59 37 61 53 62 30 63 19 64 20 65 24 66
REMARK SMILES IDX 21 67 23 68 22 69 41 70 42 71 46 72 43 73 45 74 44 75 31 76
REMARK SMILES IDX 32 77 36 78 33 79 35 80 34 81
REMARK H PARENT 3 6 7 30 51 49 29 60
REMARK Flexibility Score: inf
ROOT
ATOM      1  C   UNL A   1      33.628  29.665  27.011  1.00  0.00     0.042 C 
ENDROOT
BRANCH   1   2
ATOM      2  C   UNL A   1      33.672  28.154  26.856  1.00  0.00     0.118 C 
BRANCH   2   3
ATOM      3  N   UNL A   1      32.420  27.572  27.361  1.00  0.00    -0.352 N 
ATOM      4  O   UNL A   1      30.398  26.427  26.868  1.00  0.00    -0.270 OA
ATOM      5  C   UNL A   1      31.481  26.929  26.432  1.00  0.00     0.251 C 
ATOM      6  H   UNL A   1      32.210  27.615  28.322  1.00  0.00     0.163 HD
BRANCH   5   7
ATOM      7  C   UNL A   1      31.804  26.866  24.947  1.00  0.00     0.067 C 
ATOM      8  C   UNL A   1      32.627  25.891  24.471  1.00  0.00     0.025 C 
ATOM      9  C   UNL A   1      31.208  27.889  23.995  1.00  0.00     0.314 C 
ATOM     10  C   UNL A   1      33.222  24.867  25.424  1.00  0.00     0.019 A 
ATOM     11  O   UNL A   1      31.158  24.588  26.568  1.00  0.00    -0.475 OA
ATOM     12  C   UNL A   1      34.588  24.678  25.302  1.00  0.00     0.036 A 
ATOM     13  C   UNL A   1      32.523  24.250  26.369  1.00  0.00     0.128 A 
ATOM     14  C   UNL A   1      35.085  23.584  26.049  1.00  0.00     0.107 A 
ATOM     15  C   UNL A   1      33.107  23.287  27.155  1.00  0.00     0.048 A 
ATOM     16  C   UNL A   1      34.441  23.004  27.047  1.00  0.00     0.028 A 
BRANCH   9  17
ATOM     17  C   UNL A   1      30.367  27.177  22.947  1.00  0.00     0.429 C 
ATOM     18  F   UNL A   1      29.404  27.990  22.524  1.00  0.00    -0.167 F 
ATOM     19  F   UNL A   1      31.139  26.832  21.920  1.00  0.00    -0.167 F 
ATOM     20  F   UNL A   1      29.825  26.087  23.481  1.00  0.00    -0.167 F 
ENDBRANCH   9  17
BRANCH  14  21
ATOM     21  S   UNL A   1      36.715  22.932  25.608  1.00  0.00     0.310 S 
ATOM     22  F   UNL A   1      36.762  23.814  24.291  1.00  0.00    -0.094 F 
ATOM     23  F   UNL A   1      36.014  21.812  24.749  1.00  0.00    -0.094 F 
ATOM     24  F   UNL A   1      38.119  22.388  25.222  1.00  0.00    -0.094 F 
ATOM     25  F   UNL A   1      37.398  24.143  26.358  1.00  0.00    -0.094 F 
ATOM     26  F   UNL A   1      35.298  23.561  25.915  1.00  0.00    -0.094 F 
ENDBRANCH  14  21
ENDBRANCH   5   7
ENDBRANCH   2   3
ENDBRANCH   1   2
BRANCH   1  27
ATOM     27  C   UNL A   1      34.970  30.162  27.522  1.00  0.00     0.118 C 
BRANCH  27  28
ATOM     28  N   UNL A   1      34.778  30.866  28.799  1.00  0.00    -0.352 N 
ATOM     29  C   UNL A   1      35.836  30.839  29.820  1.00  0.00     0.251 C 
ATOM     30  H   UNL A   1      33.941  31.354  28.970  1.00  0.00     0.163 HD
ATOM     31  O   UNL A   1      35.669  31.447  30.923  1.00  0.00    -0.269 OA
BRANCH  29  32
ATOM     32  C   UNL A   1      37.128  30.083  29.556  1.00  0.00     0.039 A 
ATOM     33  C   UNL A   1      37.751  29.432  30.607  1.00  0.00     0.014 A 
ATOM     34  C   UNL A   1      37.712  30.189  28.368  1.00  0.00     0.014 A 
ATOM     35  C   UNL A   1      39.125  29.173  30.388  1.00  0.00     0.010 A 
ATOM     36  C   UNL A   1      39.014  29.791  28.191  1.00  0.00     0.010 A 
ATOM     37  C   UNL A   1      39.712  29.194  29.205  1.00  0.00    -0.014 A 
BRANCH  37  38
ATOM     38  C   UNL A   1      41.086  28.585  28.982  1.00  0.00     0.031 A 
ATOM     39  C   UNL A   1      41.213  27.244  28.613  1.00  0.00     0.074 A 
ATOM     40  C   UNL A   1      42.143  29.475  29.037  1.00  0.00     0.049 A 
ATOM     41  N   UNL A   1      42.320  26.607  28.228  1.00  0.00    -0.248 NA
ATOM     42  C   UNL A   1      40.097  26.287  28.586  1.00  0.00     0.031 C 
ATOM     43  C   UNL A   1      42.022  30.831  29.399  1.00  0.00     0.029 A 
ATOM     44  N   UNL A   1      43.472  29.230  28.762  1.00  0.00    -0.354 N 
ATOM     45  C   UNL A   1      42.042  25.335  27.937  1.00  0.00     0.074 A 
ATOM     46  C   UNL A   1      40.609  25.109  28.169  1.00  0.00     0.031 C 
ATOM     47  C   UNL A   1      43.260  31.392  29.355  1.00  0.00     0.029 A 
ATOM     48  C   UNL A   1      44.175  30.396  28.962  1.00  0.00     0.049 A 
ATOM     49  H   UNL A   1      43.851  28.370  28.471  1.00  0.00     0.167 HD
ATOM     50  C   UNL A   1      42.928  24.354  27.485  1.00  0.00     0.031 A 
ATOM     51  C   UNL A   1      45.539  30.600  28.820  1.00  0.00     0.031 A 
ATOM     52  C   UNL A   1      44.284  24.570  27.300  1.00  0.00     0.049 A 
ATOM     53  C   UNL A   1      46.434  29.604  28.424  1.00  0.00     0.074 A 
ATOM     54  C   UNL A   1      45.189  23.595  26.838  1.00  0.00     0.029 A 
ATOM     55  N   UNL A   1      44.991  25.730  27.525  1.00  0.00    -0.354 N 
ATOM     56  N   UNL A   1      46.150  28.342  28.095  1.00  0.00    -0.248 NA
ATOM     57  C   UNL A   1      47.885  29.799  28.301  1.00  0.00     0.031 C 
ATOM     58  C   UNL A   1      46.427  24.155  26.794  1.00  0.00     0.029 A 
ATOM     59  C   UNL A   1      46.315  25.490  27.229  1.00  0.00     0.049 A 
ATOM     60  H   UNL A   1      44.617  26.583  27.844  1.00  0.00     0.167 HD
ATOM     61  C   UNL A   1      47.264  27.695  27.750  1.00  0.00     0.074 A 
ATOM     62  C   UNL A   1      48.398  28.620  27.885  1.00  0.00     0.031 C 
ATOM     63  C   UNL A   1      47.382  26.371  27.326  1.00  0.00     0.031 A 
BRANCH  50  64
ATOM     64  C   UNL A   1      42.372  22.973  27.177  1.00  0.00    -0.014 A 
ATOM     65  C   UNL A   1      41.925  22.654  25.905  1.00  0.00     0.009 A 
ATOM     66  C   UNL A   1      42.362  22.077  28.157  1.00  0.00     0.009 A 
ATOM     67  C   UNL A   1      41.211  21.434  25.839  1.00  0.00     0.001 A 
ATOM     68  C   UNL A   1      41.765  20.852  27.979  1.00  0.00     0.001 A 
ATOM     69  C   UNL A   1      41.250  20.492  26.765  1.00  0.00     0.000 A 
ENDBRANCH  50  64
BRANCH  51  70
ATOM     70  C   UNL A   1      46.091  31.986  29.112  1.00  0.00    -0.014 A 
ATOM     71  C   UNL A   1      46.490  32.335  30.392  1.00  0.00     0.009 A 
ATOM     72  C   UNL A   1      46.145  32.859  28.112  1.00  0.00     0.009 A 
ATOM     73  C   UNL A   1      46.660  33.726  30.580  1.00  0.00     0.001 A 
ATOM     74  C   UNL A   1      46.452  34.176  28.350  1.00  0.00     0.001 A 
ATOM     75  C   UNL A   1      46.797  34.603  29.602  1.00  0.00     0.000 A 
ENDBRANCH  51  70
BRANCH  63  76
ATOM     76  C   UNL A   1      48.764  25.863  26.947  1.00  0.00    -0.014 A 
ATOM     77  C   UNL A   1      49.524  25.268  27.939  1.00  0.00     0.009 A 
ATOM     78  C   UNL A   1      49.264  26.088  25.736  1.00  0.00     0.009 A 
ATOM     79  C   UNL A   1      50.907  25.208  27.644  1.00  0.00     0.001 A 
ATOM     80  C   UNL A   1      50.598  25.878  25.482  1.00  0.00     0.001 A 
ATOM     81  C   UNL A   1      51.422  25.348  26.436  1.00  0.00     0.000 A 
ENDBRANCH  63  76
ENDBRANCH  37  38
ENDBRANCH  29  32
ENDBRANCH  27  28
ENDBRANCH   1  27
TORSDOF 12
ENDMDL
MODEL 2
REMARK VINA RESULT:     -12.3      2.207      3.902
REMARK SMILES O=C(NCCCNC(=O)c1ccc(-c2c3nc(c(-c4ccccc4)c4ccc([nH]4)c(-c4ccccc4)c4nc(c(-c5ccccc5)c5ccc2[nH]5)C=C4)C=C3)cc1)C1=Cc2cc(S(F)(F)(F)(F)F)ccc2O[C@@H]1C(F)(F)F
REMARK SMILES IDX 5 1 4 2 3 3 1 4 2 5 58 7 59 8 73 9 60 10 72 11 61 12 71 13
REMARK SMILES IDX 62 14 70 15 69 16 74 17 75 18 76 19 77 20 63 21 64 22 65 23
REMARK SMILES IDX 66 24 67 25 68 26 6 27 7 28 8 29 9 31 10 32 11 33 57 34
REMARK SMILES IDX 12 35 56 36 13 37 14 38 15 39 50 40 16 41 55 42 49 43 51 44
REMARK SMILES IDX 17 45 54 46 48 47 47 48 18 50 40 51 25 52 39 53 26 54 29 55
REMARK SMILES IDX 38 56 52 57 27 58 28 59 37 61 53 62 30 63 19 64 20 65 24 66
REMARK SMILES IDX 21 67 23 68 22 69 41 70 42 71 46 72 43 73 45 74 44 75 31 76
REMARK SMILES IDX 32 77 36 78 33 79 35 80 34 81
REMARK H PARENT 3 6 7 30 51 49 29 60
REMARK Flexibility Score: inf
ROOT
ATOM      1  C   UNL A   1      32.843  28.888  26.684  1.00  0.00     0.042 C 
ENDROOT
BRANCH   1   2
ATOM      2  C   UNL A   1      32.658  27.392  26.881  1.00  0.00     0.118 C 
BRANCH   2   3
ATOM      3  N   UNL A   1      33.654  26.665  26.081  1.00  0.00    -0.352 N 
ATOM      4  O   UNL A   1      34.160  24.758  24.758  1.00  0.00    -0.270 OA
ATOM      5  C   UNL A   1      33.299  25.387  25.450  1.00  0.00     0.251 C 
ATOM      6  H   UNL A   1      34.560  27.035  25.970  1.00  0.00     0.163 HD
BRANCH   5   7
ATOM      7  C   UNL A   1      31.901  24.815  25.624  1.00  0.00     0.067 C 
ATOM      8  C   UNL A   1      30.849  25.379  24.969  1.00  0.00     0.025 C 
ATOM      9  C   UNL A   1      31.677  23.614  26.528  1.00  0.00     0.314 C 
ATOM     10  C   UNL A   1      31.073  26.580  24.064  1.00  0.00     0.019 A 
ATOM     11  O   UNL A   1      33.026  25.619  23.110  1.00  0.00    -0.475 OA
ATOM     12  C   UNL A   1      30.211  27.643  24.276  1.00  0.00     0.036 A 
ATOM     13  C   UNL A   1      32.066  26.664  23.187  1.00  0.00     0.128 A 
ATOM     14  C   UNL A   1      30.303  28.660  23.297  1.00  0.00     0.107 A 
ATOM     15  C   UNL A   1      32.174  27.750  22.353  1.00  0.00     0.048 A 
ATOM     16  C   UNL A   1      31.319  28.811  22.466  1.00  0.00     0.028 A 
BRANCH   9  17
ATOM     17  C   UNL A   1      31.093  22.470  25.715  1.00  0.00     0.429 C 
ATOM     18  F   UNL A   1      29.851  22.226  26.122  1.00  0.00    -0.167 F 
ATOM     19  F   UNL A   1      31.080  22.804  24.427  1.00  0.00    -0.167 F 
ATOM     20  F   UNL A   1      31.838  21.382  25.883  1.00  0.00    -0.167 F 
ENDBRANCH   9  17
BRANCH  14  21
ATOM     21  S   UNL A   1      28.932  29.836  23.172  1.00  0.00     0.310 S 
ATOM     22  F   UNL A   1      29.656  30.627  22.003  1.00  0.00    -0.094 F 
ATOM     23  F   UNL A   1      29.680  30.787  24.183  1.00  0.00    -0.094 F 
ATOM     24  F   UNL A   1      27.758  30.848  23.048  1.00  0.00    -0.094 F 
ATOM     25  F   UNL A   1      28.267  28.938  22.057  1.00  0.00    -0.094 F 
ATOM     26  F   UNL A   1      30.171  28.854  23.204  1.00  0.00    -0.094 F 
ENDBRANCH  14  21
ENDBRANCH   5   7
ENDBRANCH   2   3
ENDBRANCH   1   2
BRANCH   1  27
ATOM     27  C   UNL A   1      34.216  29.299  27.189  1.00  0.00     0.118 C 
BRANCH  27  28
ATOM     28  N   UNL A   1      34.075  30.406  28.147  1.00  0.00    -0.352 N 
ATOM     29  C   UNL A   1      35.204  30.779  29.011  1.00  0.00     0.251 C 
ATOM     30  H   UNL A   1      33.224  30.896  28.210  1.00  0.00     0.163 HD
ATOM     31  O   UNL A   1      35.081  31.735  29.839  1.00  0.00    -0.269 OA
BRANCH  29  32
ATOM     32  C   UNL A   1      36.518  30.021  28.915  1.00  0.00     0.039 A 
ATOM     33  C   UNL A   1      37.009  29.383  30.042  1.00  0.00     0.014 A 
ATOM     34  C   UNL A   1      37.243  30.113  27.805  1.00  0.00     0.014 A 
ATOM     35  C   UNL A   1      38.399  29.122  29.994  1.00  0.00     0.010 A 
ATOM     36  C   UNL A   1      38.556  29.714  27.793  1.00  0.00     0.010 A 
ATOM     37  C   UNL A   1      39.125  29.129  28.890  1.00  0.00    -0.014 A 
BRANCH  37  38
ATOM     38  C   UNL A   1      40.516  28.518  28.843  1.00  0.00     0.031 A 
ATOM     39  C   UNL A   1      40.684  27.171  28.516  1.00  0.00     0.074 A 
ATOM     40  C   UNL A   1      41.559  29.411  29.008  1.00  0.00     0.049 A 
ATOM     41  N   UNL A   1      41.829  26.529  28.276  1.00  0.00    -0.248 NA
ATOM     42  C   UNL A   1      39.578  26.213  28.373  1.00  0.00     0.031 C 
ATOM     43  C   UNL A   1      41.397  30.773  29.330  1.00  0.00     0.029 A 
ATOM     44  N   UNL A   1      42.911  29.163  28.897  1.00  0.00    -0.354 N 
ATOM     45  C   UNL A   1      41.587  25.252  27.976  1.00  0.00     0.074 A 
ATOM     46  C   UNL A   1      40.136  25.028  28.040  1.00  0.00     0.031 C 
ATOM     47  C   UNL A   1      42.632  31.334  29.423  1.00  0.00     0.029 A 
ATOM     48  C   UNL A   1      43.586  30.333  29.159  1.00  0.00     0.049 A 
ATOM     49  H   UNL A   1      43.321  28.298  28.669  1.00  0.00     0.167 HD
ATOM     50  C   UNL A   1      42.519  24.265  27.650  1.00  0.00     0.031 A 
ATOM     51  C   UNL A   1      44.957  30.537  29.177  1.00  0.00     0.031 A 
ATOM     52  C   UNL A   1      43.888  24.480  27.624  1.00  0.00     0.049 A 
ATOM     53  C   UNL A   1      45.893  29.535  28.908  1.00  0.00     0.074 A 
ATOM     54  C   UNL A   1      44.841  23.498  27.290  1.00  0.00     0.029 A 
ATOM     55  N   UNL A   1      44.564  25.644  27.911  1.00  0.00    -0.354 N 
ATOM     56  N   UNL A   1      45.649  28.268  28.568  1.00  0.00    -0.248 NA
ATOM     57  C   UNL A   1      47.348  29.730  28.954  1.00  0.00     0.031 C 
ATOM     58  C   UNL A   1      46.075  24.059  27.383  1.00  0.00     0.029 A 
ATOM     59  C   UNL A   1      45.914  25.401  27.778  1.00  0.00     0.049 A 
ATOM     60  H   UNL A   1      44.155  26.502  28.168  1.00  0.00     0.167 HD
ATOM     61  C   UNL A   1      46.795  27.617  28.370  1.00  0.00     0.074 A 
ATOM     62  C   UNL A   1      47.906  28.545  28.623  1.00  0.00     0.031 C 
ATOM     63  C   UNL A   1      46.962  26.285  27.986  1.00  0.00     0.031 A 
BRANCH  50  64
ATOM     64  C   UNL A   1      42.004  22.878  27.303  1.00  0.00    -0.014 A 
ATOM     65  C   UNL A   1      41.706  22.537  25.993  1.00  0.00     0.009 A 
ATOM     66  C   UNL A   1      41.881  21.998  28.289  1.00  0.00     0.009 A 
ATOM     67  C   UNL A   1      41.004  21.315  25.865  1.00  0.00     0.001 A 
ATOM     68  C   UNL A   1      41.309  20.769  28.063  1.00  0.00     0.001 A 
ATOM     69  C   UNL A   1      40.937  20.387  26.804  1.00  0.00     0.000 A 
ENDBRANCH  50  64
BRANCH  51  70
ATOM     70  C   UNL A   1      45.472  31.929  29.508  1.00  0.00    -0.014 A 
ATOM     71  C   UNL A   1      45.665  32.318  30.823  1.00  0.00     0.009 A 
ATOM     72  C   UNL A   1      45.693  32.766  28.502  1.00  0.00     0.009 A 
ATOM     73  C   UNL A   1      45.820  33.713  30.991  1.00  0.00     0.001 A 
ATOM     74  C   UNL A   1      45.974  34.089  28.743  1.00  0.00     0.001 A 
ATOM     75  C   UNL A   1      46.121  34.556  30.019  1.00  0.00     0.000 A 
ENDBRANCH  51  70
BRANCH  63  76
ATOM     76  C   UNL A   1      48.379  25.772  27.783  1.00  0.00    -0.014 A 
ATOM     77  C   UNL A   1      49.095  25.401  28.908  1.00  0.00     0.009 A 
ATOM     78  C   UNL A   1      48.944  25.791  26.580  1.00  0.00     0.009 A 
ATOM     79  C   UNL A   1      50.495  25.344  28.704  1.00  0.00     0.001 A 
ATOM     80  C   UNL A   1      50.297  25.593  26.442  1.00  0.00     0.001 A 
ATOM     81  C   UNL A   1      51.077  25.281  27.520  1.00  0.00     0.000 A 
ENDBRANCH  63  76
ENDBRANCH  37  38
ENDBRANCH  29  32
ENDBRANCH  27  28
ENDBRANCH   1  27
TORSDOF 12
ENDMDL
MODEL 3
REMARK VINA RESULT:     -12.2      2.970      7.311
REMARK SMILES O=C(NCCCNC(=O)c1ccc(-c2c3nc(c(-c4ccccc4)c4ccc([nH]4)c(-c4ccccc4)c4nc(c(-c5ccccc5)c5ccc2[nH]5)C=C4)C=C3)cc1)C1=Cc2cc(S(F)(F)(F)(F)F)ccc2O[C@@H]1C(F)(F)F
REMARK SMILES IDX 5 1 4 2 3 3 1 4 2 5 58 7 59 8 73 9 60 10 72 11 61 12 71 13
REMARK SMILES IDX 62 14 70 15 69 16 74 17 75 18 76 19 77 20 63 21 64 22 65 23
REMARK SMILES IDX 66 24 67 25 68 26 6 27 7 28 8 29 9 31 10 32 11 33 57 34
REMARK SMILES IDX 12 35 56 36 13 37 14 38 15 39 50 40 16 41 55 42 49 43 51 44
REMARK SMILES IDX 17 45 54 46 48 47 47 48 18 50 40 51 25 52 39 53 26 54 29 55
REMARK SMILES IDX 38 56 52 57 27 58 28 59 37 61 53 62 30 63 19 64 20 65 24 66
REMARK SMILES IDX 21 67 23 68 22 69 41 70 42 71 46 72 43 73 45 74 44 75 31 76
REMARK SMILES IDX 32 77 36 78 33 79 35 80 34 81
REMARK H PARENT 3 6 7 30 51 49 29 60
REMARK Flexibility Score: inf
ROOT
ATOM      1  C   UNL A   1      37.040  21.245  24.639  1.00  0.00     0.042 C 
ENDROOT
BRANCH   1   2
ATOM      2  C   UNL A   1      36.703  22.634  24.123  1.00  0.00     0.118 C 
BRANCH   2   3
ATOM      3  N   UNL A   1      36.183  23.454  25.227  1.00  0.00    -0.352 N 
ATOM      4  O   UNL A   1      34.451  24.866  26.034  1.00  0.00    -0.270 OA
ATOM      5  C   UNL A   1      34.901  24.158  25.080  1.00  0.00     0.251 C 
ATOM      6  H   UNL A   1      36.693  23.532  26.065  1.00  0.00     0.163 HD
BRANCH   5   7
ATOM      7  C   UNL A   1      34.112  24.038  23.785  1.00  0.00     0.067 C 
ATOM      8  C   UNL A   1      33.411  22.903  23.518  1.00  0.00     0.025 C 
ATOM      9  C   UNL A   1      34.107  25.187  22.790  1.00  0.00     0.314 C 
ATOM     10  C   UNL A   1      33.417  21.754  24.514  1.00  0.00     0.019 A 
ATOM     11  O   UNL A   1      33.141  23.225  26.359  1.00  0.00    -0.475 OA
ATOM     12  C   UNL A   1      33.689  20.510  23.971  1.00  0.00     0.036 A 
ATOM     13  C   UNL A   1      33.259  21.916  25.822  1.00  0.00     0.128 A 
ATOM     14  C   UNL A   1      33.490  19.436  24.871  1.00  0.00     0.107 A 
ATOM     15  C   UNL A   1      33.209  20.829  26.660  1.00  0.00     0.048 A 
ATOM     16  C   UNL A   1      33.410  19.563  26.184  1.00  0.00     0.028 A 
BRANCH   9  17
ATOM     17  C   UNL A   1      32.681  25.674  22.587  1.00  0.00     0.429 C 
ATOM     18  F   UNL A   1      32.698  26.950  22.213  1.00  0.00    -0.167 F 
ATOM     19  F   UNL A   1      32.094  24.944  21.643  1.00  0.00    -0.167 F 
ATOM     20  F   UNL A   1      32.005  25.554  23.725  1.00  0.00    -0.167 F 
ENDBRANCH   9  17
BRANCH  14  21
ATOM     21  S   UNL A   1      33.332  17.772  24.176  1.00  0.00     0.310 S 
ATOM     22  F   UNL A   1      33.077  18.354  22.723  1.00  0.00    -0.094 F 
ATOM     23  F   UNL A   1      31.774  17.845  24.403  1.00  0.00    -0.094 F 
ATOM     24  F   UNL A   1      33.203  16.349  23.564  1.00  0.00    -0.094 F 
ATOM     25  F   UNL A   1      34.873  17.774  23.830  1.00  0.00    -0.094 F 
ATOM     26  F   UNL A   1      33.461  19.261  24.692  1.00  0.00    -0.094 F 
ENDBRANCH  14  21
ENDBRANCH   5   7
ENDBRANCH   2   3
ENDBRANCH   1   2
BRANCH   1  27
ATOM     27  C   UNL A   1      38.304  21.311  25.482  1.00  0.00     0.118 C 
BRANCH  27  28
ATOM     28  N   UNL A   1      39.049  20.050  25.348  1.00  0.00    -0.352 N 
ATOM     29  C   UNL A   1      40.420  19.948  25.867  1.00  0.00     0.251 C 
ATOM     30  H   UNL A   1      38.629  19.276  24.908  1.00  0.00     0.163 HD
ATOM     31  O   UNL A   1      41.064  18.859  25.750  1.00  0.00    -0.269 OA
BRANCH  29  32
ATOM     32  C   UNL A   1      41.068  21.146  26.543  1.00  0.00     0.039 A 
ATOM     33  C   UNL A   1      40.945  21.291  27.915  1.00  0.00     0.014 A 
ATOM     34  C   UNL A   1      41.603  22.104  25.794  1.00  0.00     0.014 A 
ATOM     35  C   UNL A   1      41.154  22.613  28.373  1.00  0.00     0.010 A 
ATOM     36  C   UNL A   1      41.908  23.327  26.338  1.00  0.00     0.010 A 
ATOM     37  C   UNL A   1      41.756  23.561  27.677  1.00  0.00    -0.014 A 
BRANCH  37  38
ATOM     38  C   UNL A   1      42.253  24.840  28.329  1.00  0.00     0.031 A 
ATOM     39  C   UNL A   1      43.607  25.000  28.627  1.00  0.00     0.074 A 
ATOM     40  C   UNL A   1      41.307  25.841  28.465  1.00  0.00     0.049 A 
ATOM     41  N   UNL A   1      44.223  26.107  29.045  1.00  0.00    -0.248 NA
ATOM     42  C   UNL A   1      44.608  23.929  28.516  1.00  0.00     0.031 C 
ATOM     43  C   UNL A   1      39.940  25.689  28.158  1.00  0.00     0.029 A 
ATOM     44  N   UNL A   1      41.499  27.132  28.908  1.00  0.00    -0.354 N 
ATOM     45  C   UNL A   1      45.528  25.876  29.205  1.00  0.00     0.074 A 
ATOM     46  C   UNL A   1      45.793  24.470  28.873  1.00  0.00     0.031 C 
ATOM     47  C   UNL A   1      39.316  26.867  28.424  1.00  0.00     0.029 A 
ATOM     48  C   UNL A   1      40.282  27.775  28.899  1.00  0.00     0.049 A 
ATOM     49  H   UNL A   1      42.358  27.525  29.183  1.00  0.00     0.167 HD
ATOM     50  C   UNL A   1      46.507  26.784  29.614  1.00  0.00     0.031 A 
ATOM     51  C   UNL A   1      40.008  29.078  29.284  1.00  0.00     0.031 A 
ATOM     52  C   UNL A   1      46.239  28.100  29.956  1.00  0.00     0.049 A 
ATOM     53  C   UNL A   1      40.977  29.970  29.748  1.00  0.00     0.074 A 
ATOM     54  C   UNL A   1      47.216  29.030  30.363  1.00  0.00     0.029 A 
ATOM     55  N   UNL A   1      45.018  28.736  29.972  1.00  0.00    -0.354 N 
ATOM     56  N   UNL A   1      42.288  29.750  29.870  1.00  0.00    -0.248 NA
ATOM     57  C   UNL A   1      40.695  31.342  30.189  1.00  0.00     0.031 C 
ATOM     58  C   UNL A   1      46.591  30.208  30.629  1.00  0.00     0.029 A 
ATOM     59  C   UNL A   1      45.214  30.033  30.393  1.00  0.00     0.049 A 
ATOM     60  H   UNL A   1      44.154  28.334  29.724  1.00  0.00     0.167 HD
ATOM     61  C   UNL A   1      42.896  30.845  30.329  1.00  0.00     0.074 A 
ATOM     62  C   UNL A   1      41.879  31.883  30.548  1.00  0.00     0.031 C 
ATOM     63  C   UNL A   1      44.259  31.023  30.571  1.00  0.00     0.031 A 
BRANCH  50  64
ATOM     64  C   UNL A   1      47.946  26.302  29.687  1.00  0.00    -0.014 A 
ATOM     65  C   UNL A   1      48.760  26.320  28.565  1.00  0.00     0.009 A 
ATOM     66  C   UNL A   1      48.405  25.897  30.864  1.00  0.00     0.009 A 
ATOM     67  C   UNL A   1      49.974  25.612  28.728  1.00  0.00     0.001 A 
ATOM     68  C   UNL A   1      49.656  25.338  30.974  1.00  0.00     0.001 A 
ATOM     69  C   UNL A   1      50.492  25.270  29.894  1.00  0.00     0.000 A 
ENDBRANCH  50  64
BRANCH  51  70
ATOM     70  C   UNL A   1      38.570  29.565  29.195  1.00  0.00    -0.014 A 
ATOM     71  C   UNL A   1      37.725  29.481  30.290  1.00  0.00     0.009 A 
ATOM     72  C   UNL A   1      38.143  30.037  28.030  1.00  0.00     0.009 A 
ATOM     73  C   UNL A   1      36.358  29.653  29.973  1.00  0.00     0.001 A 
ATOM     74  C   UNL A   1      36.812  30.312  27.833  1.00  0.00     0.001 A 
ATOM     75  C   UNL A   1      35.911  30.194  28.854  1.00  0.00     0.000 A 
ENDBRANCH  51  70
BRANCH  63  76
ATOM     76  C   UNL A   1      44.726  32.385  31.059  1.00  0.00    -0.014 A 
ATOM     77  C   UNL A   1      44.718  32.615  32.424  1.00  0.00     0.009 A 
ATOM     78  C   UNL A   1      45.020  33.353  30.198  1.00  0.00     0.009 A 
ATOM     79  C   UNL A   1      44.750  33.986  32.776  1.00  0.00     0.001 A 
ATOM     80  C   UNL A   1      45.171  34.649  30.630  1.00  0.00     0.001 A 
ATOM     81  C   UNL A   1      45.116  34.959  31.961  1.00  0.00     0.000 A 
ENDBRANCH  63  76
ENDBRANCH  37  38
ENDBRANCH  29  32
ENDBRANCH  27  28
ENDBRANCH   1  27
TORSDOF 12
ENDMDL
