MODEL 1
REMARK VINA RESULT:      -9.5      0.000      0.000
REMARK SMILES O=C(NCCCNC(=O)c1nn(-c2ccc(Br)cc2F)cc1CCCO)c1ccc(-c2c3nc(c(-c4ccccc4)c4ccc([nH]4)c(-c4ccccc4)c4nc(c(-c5ccccc5)c5ccc2[nH]5)C=C4)C=C3)cc1
REMARK SMILES IDX 6 1 5 2 4 3 3 4 1 5 2 6 27 8 28 9 74 10 29 11 73 12 30 13
REMARK SMILES IDX 31 14 32 15 67 16 33 17 72 18 66 19 68 20 34 21 71 22 65 23
REMARK SMILES IDX 64 24 35 26 57 27 42 28 56 29 43 30 46 31 55 32 69 33 44 34
REMARK SMILES IDX 45 35 54 37 70 38 47 39 36 40 37 41 41 42 38 43 40 44 39 45
REMARK SMILES IDX 58 46 59 47 63 48 60 49 62 50 61 51 48 52 49 53 53 54 50 55
REMARK SMILES IDX 52 56 51 57 7 58 8 59 9 61 10 62 11 63 22 64 12 65 21 66
REMARK SMILES IDX 23 67 24 68 25 69 26 70 13 72 14 73 19 74 15 75 18 76 20 77
REMARK SMILES IDX 16 78 17 79
REMARK H PARENT 3 7 68 25 46 36 7 60 26 71
REMARK Flexibility Score: inf
ROOT
ATOM      1  C   UNL A   1      35.064  33.271  31.838  1.00  0.00     0.118 C 
ENDROOT
BRANCH   1   2
ATOM      2  C   UNL A   1      34.313  34.225  30.904  1.00  0.00     0.042 C 
BRANCH   2   3
ATOM      3  C   UNL A   1      34.688  34.138  29.423  1.00  0.00     0.118 C 
BRANCH   3   4
ATOM      4  N   UNL A   1      34.098  33.035  28.689  1.00  0.00    -0.352 N 
ATOM      5  O   UNL A   1      33.654  31.077  27.768  1.00  0.00    -0.269 OA
ATOM      6  C   UNL A   1      34.505  31.783  28.315  1.00  0.00     0.251 C 
ATOM      7  H   UNL A   1      33.183  33.234  28.386  1.00  0.00     0.163 HD
BRANCH   6   8
ATOM      8  C   UNL A   1      35.879  31.233  28.485  1.00  0.00     0.039 A 
ATOM      9  C   UNL A   1      36.989  31.952  28.922  1.00  0.00     0.014 A 
ATOM     10  C   UNL A   1      36.043  29.863  28.199  1.00  0.00     0.014 A 
ATOM     11  C   UNL A   1      38.237  31.334  29.022  1.00  0.00     0.010 A 
ATOM     12  C   UNL A   1      37.283  29.234  28.319  1.00  0.00     0.010 A 
ATOM     13  C   UNL A   1      38.390  29.976  28.721  1.00  0.00    -0.014 A 
BRANCH  13  14
ATOM     14  C   UNL A   1      39.701  29.373  28.965  1.00  0.00     0.031 A 
ATOM     15  C   UNL A   1      40.035  29.051  30.383  1.00  0.00     0.074 A 
ATOM     16  C   UNL A   1      40.574  28.962  28.025  1.00  0.00     0.049 A 
ATOM     17  N   UNL A   1      41.001  29.524  31.104  1.00  0.00    -0.248 NA
ATOM     18  C   UNL A   1      39.180  28.079  31.079  1.00  0.00     0.031 C 
ATOM     19  C   UNL A   1      40.362  28.827  26.585  1.00  0.00     0.029 A 
ATOM     20  N   UNL A   1      41.843  28.483  28.208  1.00  0.00    -0.354 N 
ATOM     21  C   UNL A   1      40.971  28.818  32.304  1.00  0.00     0.074 A 
ATOM     22  C   UNL A   1      39.786  27.993  32.265  1.00  0.00     0.031 C 
ATOM     23  C   UNL A   1      41.385  28.116  26.056  1.00  0.00     0.029 A 
ATOM     24  C   UNL A   1      42.378  27.867  27.091  1.00  0.00     0.049 A 
ATOM     25  H   UNL A   1      42.331  28.568  29.059  1.00  0.00     0.167 HD
ATOM     26  C   UNL A   1      41.999  28.835  33.196  1.00  0.00     0.031 A 
ATOM     27  C   UNL A   1      43.534  27.167  27.023  1.00  0.00     0.031 A 
ATOM     28  C   UNL A   1      42.938  29.893  32.951  1.00  0.00     0.049 A 
ATOM     29  C   UNL A   1      44.381  27.524  28.182  1.00  0.00     0.074 A 
ATOM     30  C   UNL A   1      42.882  31.270  32.897  1.00  0.00     0.029 A 
ATOM     31  N   UNL A   1      44.162  29.550  32.435  1.00  0.00    -0.354 N 
ATOM     32  N   UNL A   1      45.007  28.657  28.312  1.00  0.00    -0.248 NA
ATOM     33  C   UNL A   1      44.330  26.701  29.380  1.00  0.00     0.031 C 
ATOM     34  C   UNL A   1      43.866  31.647  31.936  1.00  0.00     0.029 A 
ATOM     35  C   UNL A   1      44.457  30.473  31.467  1.00  0.00     0.049 A 
ATOM     36  H   UNL A   1      44.721  28.786  32.707  1.00  0.00     0.167 HD
ATOM     37  C   UNL A   1      45.064  28.876  29.678  1.00  0.00     0.074 A 
ATOM     38  C   UNL A   1      44.778  27.580  30.278  1.00  0.00     0.031 C 
ATOM     39  C   UNL A   1      45.052  30.142  30.191  1.00  0.00     0.031 A 
BRANCH  26  40
ATOM     40  C   UNL A   1      42.334  27.697  34.126  1.00  0.00    -0.014 A 
ATOM     41  C   UNL A   1      43.098  26.619  33.641  1.00  0.00     0.009 A 
ATOM     42  C   UNL A   1      41.698  27.518  35.368  1.00  0.00     0.009 A 
ATOM     43  C   UNL A   1      43.182  25.408  34.341  1.00  0.00     0.001 A 
ATOM     44  C   UNL A   1      41.816  26.326  36.091  1.00  0.00     0.001 A 
ATOM     45  C   UNL A   1      42.539  25.263  35.565  1.00  0.00     0.000 A 
ENDBRANCH  26  40
BRANCH  27  46
ATOM     46  C   UNL A   1      43.923  26.094  26.088  1.00  0.00    -0.014 A 
ATOM     47  C   UNL A   1      45.261  25.938  25.690  1.00  0.00     0.009 A 
ATOM     48  C   UNL A   1      43.019  25.066  25.769  1.00  0.00     0.009 A 
ATOM     49  C   UNL A   1      45.682  24.782  25.023  1.00  0.00     0.001 A 
ATOM     50  C   UNL A   1      43.436  23.916  25.094  1.00  0.00     0.001 A 
ATOM     51  C   UNL A   1      44.771  23.767  24.734  1.00  0.00     0.000 A 
ENDBRANCH  27  46
BRANCH  39  52
ATOM     52  C   UNL A   1      45.342  31.292  29.259  1.00  0.00    -0.014 A 
ATOM     53  C   UNL A   1      46.640  31.783  29.038  1.00  0.00     0.009 A 
ATOM     54  C   UNL A   1      44.294  31.809  28.482  1.00  0.00     0.009 A 
ATOM     55  C   UNL A   1      46.874  32.797  28.106  1.00  0.00     0.001 A 
ATOM     56  C   UNL A   1      44.532  32.804  27.531  1.00  0.00     0.001 A 
ATOM     57  C   UNL A   1      45.820  33.305  27.350  1.00  0.00     0.000 A 
ENDBRANCH  39  52
ENDBRANCH  13  14
ENDBRANCH   6   8
ENDBRANCH   3   4
ENDBRANCH   2   3
ENDBRANCH   1   2
BRANCH   1  58
ATOM     58  N   UNL A   1      35.467  33.914  33.074  1.00  0.00    -0.351 N 
ATOM     59  C   UNL A   1      36.706  34.030  33.640  1.00  0.00     0.272 C 
ATOM     60  H   UNL A   1      34.735  34.331  33.585  1.00  0.00     0.163 HD
ATOM     61  O   UNL A   1      36.752  34.447  34.808  1.00  0.00    -0.267 OA
BRANCH  59  62
ATOM     62  C   UNL A   1      37.904  33.619  32.901  1.00  0.00     0.153 A 
ATOM     63  N   UNL A   1      38.691  34.522  32.279  1.00  0.00    -0.162 NA
ATOM     64  C   UNL A   1      38.431  32.300  32.762  1.00  0.00     0.004 A 
ATOM     65  N   UNL A   1      39.590  33.786  31.585  1.00  0.00    -0.237 N 
ATOM     66  C   UNL A   1      39.469  32.448  31.864  1.00  0.00     0.119 A 
BRANCH  64  67
ATOM     67  C   UNL A   1      37.932  31.005  33.320  1.00  0.00     0.042 C 
BRANCH  67  68
ATOM     68  C   UNL A   1      38.590  30.551  34.630  1.00  0.00     0.033 C 
BRANCH  68  69
ATOM     69  C   UNL A   1      38.099  31.229  35.905  1.00  0.00     0.156 C 
BRANCH  69  70
ATOM     70  O   UNL A   1      37.712  30.276  36.885  1.00  0.00    -0.396 OA
ATOM     71  H   UNL A   1      37.214  29.560  36.461  1.00  0.00     0.210 HD
ENDBRANCH  69  70
ENDBRANCH  68  69
ENDBRANCH  67  68
ENDBRANCH  64  67
BRANCH  65  72
ATOM     72  C   UNL A   1      40.507  34.401  30.703  1.00  0.00     0.100 A 
ATOM     73  C   UNL A   1      41.828  34.623  31.114  1.00  0.00     0.032 A 
ATOM     74  C   UNL A   1      40.107  34.798  29.425  1.00  0.00     0.149 A 
ATOM     75  C   UNL A   1      42.744  35.198  30.227  1.00  0.00     0.018 A 
ATOM     76  C   UNL A   1      41.003  35.415  28.557  1.00  0.00     0.057 A 
ATOM     77  F   UNL A   1      38.833  34.669  29.024  1.00  0.00    -0.205 F 
ATOM     78  C   UNL A   1      42.324  35.599  28.957  1.00  0.00     0.021 A 
ATOM     79  Br  UNL A   1      43.556  36.405  27.772  1.00  0.00    -0.051 Br
ENDBRANCH  65  72
ENDBRANCH  59  62
ENDBRANCH   1  58
TORSDOF 15
ENDMDL
MODEL 2
REMARK VINA RESULT:      -9.4      5.179      8.205
REMARK SMILES O=C(NCCCNC(=O)c1nn(-c2ccc(Br)cc2F)cc1CCCO)c1ccc(-c2c3nc(c(-c4ccccc4)c4ccc([nH]4)c(-c4ccccc4)c4nc(c(-c5ccccc5)c5ccc2[nH]5)C=C4)C=C3)cc1
REMARK SMILES IDX 6 1 5 2 4 3 3 4 1 5 2 6 27 8 28 9 74 10 29 11 73 12 30 13
REMARK SMILES IDX 31 14 32 15 67 16 33 17 72 18 66 19 68 20 34 21 71 22 65 23
REMARK SMILES IDX 64 24 35 26 57 27 42 28 56 29 43 30 46 31 55 32 69 33 44 34
REMARK SMILES IDX 45 35 54 37 70 38 47 39 36 40 37 41 41 42 38 43 40 44 39 45
REMARK SMILES IDX 58 46 59 47 63 48 60 49 62 50 61 51 48 52 49 53 53 54 50 55
REMARK SMILES IDX 52 56 51 57 7 58 8 59 9 61 10 62 11 63 22 64 12 65 21 66
REMARK SMILES IDX 23 67 24 68 25 69 26 70 13 72 14 73 19 74 15 75 18 76 20 77
REMARK SMILES IDX 16 78 17 79
REMARK H PARENT 3 7 68 25 46 36 7 60 26 71
REMARK Flexibility Score: inf
ROOT
ATOM      1  C   UNL A   1      33.802  28.652  25.295  1.00  0.00     0.118 C 
ENDROOT
BRANCH   1   2
ATOM      2  C   UNL A   1      32.917  29.772  25.850  1.00  0.00     0.042 C 
BRANCH   2   3
ATOM      3  C   UNL A   1      33.199  30.186  27.296  1.00  0.00     0.118 C 
BRANCH   3   4
ATOM      4  N   UNL A   1      33.773  31.507  27.472  1.00  0.00    -0.352 N 
ATOM      5  O   UNL A   1      35.135  33.228  27.720  1.00  0.00    -0.269 OA
ATOM      6  C   UNL A   1      35.017  32.000  27.754  1.00  0.00     0.251 C 
ATOM      7  H   UNL A   1      33.106  32.223  27.360  1.00  0.00     0.163 HD
BRANCH   6   8
ATOM      8  C   UNL A   1      36.207  31.185  28.125  1.00  0.00     0.039 A 
ATOM      9  C   UNL A   1      36.401  29.844  27.801  1.00  0.00     0.014 A 
ATOM     10  C   UNL A   1      37.223  31.851  28.840  1.00  0.00     0.014 A 
ATOM     11  C   UNL A   1      37.552  29.174  28.223  1.00  0.00     0.010 A 
ATOM     12  C   UNL A   1      38.385  31.193  29.244  1.00  0.00     0.010 A 
ATOM     13  C   UNL A   1      38.546  29.842  28.945  1.00  0.00    -0.014 A 
BRANCH  13  14
ATOM     14  C   UNL A   1      39.774  29.106  29.247  1.00  0.00     0.031 A 
ATOM     15  C   UNL A   1      40.096  28.906  30.690  1.00  0.00     0.074 A 
ATOM     16  C   UNL A   1      40.566  28.483  28.353  1.00  0.00     0.049 A 
ATOM     17  N   UNL A   1      41.130  29.328  31.344  1.00  0.00    -0.248 NA
ATOM     18  C   UNL A   1      39.140  28.138  31.500  1.00  0.00     0.031 C 
ATOM     19  C   UNL A   1      40.306  28.215  26.941  1.00  0.00     0.029 A 
ATOM     20  N   UNL A   1      41.767  27.868  28.581  1.00  0.00    -0.354 N 
ATOM     21  C   UNL A   1      41.037  28.772  32.618  1.00  0.00     0.074 A 
ATOM     22  C   UNL A   1      39.757  28.107  32.682  1.00  0.00     0.031 C 
ATOM     23  C   UNL A   1      41.217  27.322  26.488  1.00  0.00     0.029 A 
ATOM     24  C   UNL A   1      42.194  27.066  27.537  1.00  0.00     0.049 A 
ATOM     25  H   UNL A   1      42.281  27.984  29.412  1.00  0.00     0.167 HD
ATOM     26  C   UNL A   1      42.079  28.756  33.494  1.00  0.00     0.031 A 
ATOM     27  C   UNL A   1      43.250  26.218  27.540  1.00  0.00     0.031 A 
ATOM     28  C   UNL A   1      43.140  29.649  33.121  1.00  0.00     0.049 A 
ATOM     29  C   UNL A   1      44.161  26.591  28.644  1.00  0.00     0.074 A 
ATOM     30  C   UNL A   1      43.259  31.008  32.910  1.00  0.00     0.029 A 
ATOM     31  N   UNL A   1      44.299  29.095  32.639  1.00  0.00    -0.354 N 
ATOM     32  N   UNL A   1      44.930  27.641  28.639  1.00  0.00    -0.248 NA
ATOM     33  C   UNL A   1      44.032  25.922  29.929  1.00  0.00     0.031 C 
ATOM     34  C   UNL A   1      44.261  31.143  31.905  1.00  0.00     0.029 A 
ATOM     35  C   UNL A   1      44.687  29.857  31.569  1.00  0.00     0.049 A 
ATOM     36  H   UNL A   1      44.761  28.301  32.992  1.00  0.00     0.167 HD
ATOM     37  C   UNL A   1      45.044  28.004  29.970  1.00  0.00     0.074 A 
ATOM     38  C   UNL A   1      44.609  26.831  30.717  1.00  0.00     0.031 C 
ATOM     39  C   UNL A   1      45.205  29.310  30.334  1.00  0.00     0.031 A 
BRANCH  26  40
ATOM     40  C   UNL A   1      42.288  27.696  34.545  1.00  0.00    -0.014 A 
ATOM     41  C   UNL A   1      42.759  26.428  34.156  1.00  0.00     0.009 A 
ATOM     42  C   UNL A   1      41.779  27.812  35.852  1.00  0.00     0.009 A 
ATOM     43  C   UNL A   1      42.681  25.324  35.013  1.00  0.00     0.001 A 
ATOM     44  C   UNL A   1      41.741  26.721  36.727  1.00  0.00     0.001 A 
ATOM     45  C   UNL A   1      42.170  25.471  36.299  1.00  0.00     0.000 A 
ENDBRANCH  26  40
BRANCH  27  46
ATOM     46  C   UNL A   1      43.478  25.006  26.732  1.00  0.00    -0.014 A 
ATOM     47  C   UNL A   1      42.700  23.854  26.930  1.00  0.00     0.009 A 
ATOM     48  C   UNL A   1      44.302  25.055  25.593  1.00  0.00     0.009 A 
ATOM     49  C   UNL A   1      42.727  22.802  26.006  1.00  0.00     0.001 A 
ATOM     50  C   UNL A   1      44.336  24.001  24.676  1.00  0.00     0.001 A 
ATOM     51  C   UNL A   1      43.537  22.880  24.876  1.00  0.00     0.000 A 
ENDBRANCH  27  46
BRANCH  39  52
ATOM     52  C   UNL A   1      45.619  30.301  29.275  1.00  0.00    -0.014 A 
ATOM     53  C   UNL A   1      44.699  30.913  28.405  1.00  0.00     0.009 A 
ATOM     54  C   UNL A   1      46.954  30.728  29.239  1.00  0.00     0.009 A 
ATOM     55  C   UNL A   1      45.114  31.884  27.491  1.00  0.00     0.001 A 
ATOM     56  C   UNL A   1      47.364  31.720  28.343  1.00  0.00     0.001 A 
ATOM     57  C   UNL A   1      46.446  32.290  27.463  1.00  0.00     0.000 A 
ENDBRANCH  39  52
ENDBRANCH  13  14
ENDBRANCH   6   8
ENDBRANCH   3   4
ENDBRANCH   2   3
ENDBRANCH   1   2
BRANCH   1  58
ATOM     58  N   UNL A   1      33.993  28.761  23.861  1.00  0.00    -0.351 N 
ATOM     59  C   UNL A   1      33.591  27.925  22.855  1.00  0.00     0.272 C 
ATOM     60  H   UNL A   1      34.488  29.559  23.566  1.00  0.00     0.163 HD
ATOM     61  O   UNL A   1      34.065  28.139  21.728  1.00  0.00    -0.267 OA
BRANCH  59  62
ATOM     62  C   UNL A   1      32.691  26.802  23.134  1.00  0.00     0.153 A 
ATOM     63  N   UNL A   1      33.153  25.641  23.645  1.00  0.00    -0.162 NA
ATOM     64  C   UNL A   1      31.274  26.761  22.970  1.00  0.00     0.004 A 
ATOM     65  N   UNL A   1      32.092  24.801  23.620  1.00  0.00    -0.237 N 
ATOM     66  C   UNL A   1      30.946  25.446  23.233  1.00  0.00     0.119 A 
BRANCH  64  67
ATOM     67  C   UNL A   1      30.333  27.821  22.492  1.00  0.00     0.042 C 
BRANCH  67  68
ATOM     68  C   UNL A   1      29.019  27.943  23.275  1.00  0.00     0.033 C 
BRANCH  68  69
ATOM     69  C   UNL A   1      28.122  29.122  22.913  1.00  0.00     0.156 C 
BRANCH  69  70
ATOM     70  O   UNL A   1      26.774  28.713  22.731  1.00  0.00    -0.396 OA
ATOM     71  H   UNL A   1      26.755  27.815  22.365  1.00  0.00     0.210 HD
ENDBRANCH  69  70
ENDBRANCH  68  69
ENDBRANCH  67  68
ENDBRANCH  64  67
BRANCH  65  72
ATOM     72  C   UNL A   1      32.237  23.439  23.969  1.00  0.00     0.100 A 
ATOM     73  C   UNL A   1      32.191  22.455  22.973  1.00  0.00     0.032 A 
ATOM     74  C   UNL A   1      32.420  23.063  25.302  1.00  0.00     0.149 A 
ATOM     75  C   UNL A   1      32.372  21.111  23.316  1.00  0.00     0.018 A 
ATOM     76  C   UNL A   1      32.551  21.722  25.653  1.00  0.00     0.057 A 
ATOM     77  F   UNL A   1      32.396  23.970  26.290  1.00  0.00    -0.205 F 
ATOM     78  C   UNL A   1      32.542  20.751  24.653  1.00  0.00     0.021 A 
ATOM     79  Br  UNL A   1      32.755  18.931  25.117  1.00  0.00    -0.051 Br
ENDBRANCH  65  72
ENDBRANCH  59  62
ENDBRANCH   1  58
TORSDOF 15
ENDMDL
MODEL 3
REMARK VINA RESULT:      -9.2      5.767     10.525
REMARK SMILES O=C(NCCCNC(=O)c1nn(-c2ccc(Br)cc2F)cc1CCCO)c1ccc(-c2c3nc(c(-c4ccccc4)c4ccc([nH]4)c(-c4ccccc4)c4nc(c(-c5ccccc5)c5ccc2[nH]5)C=C4)C=C3)cc1
REMARK SMILES IDX 6 1 5 2 4 3 3 4 1 5 2 6 27 8 28 9 74 10 29 11 73 12 30 13
REMARK SMILES IDX 31 14 32 15 67 16 33 17 72 18 66 19 68 20 34 21 71 22 65 23
REMARK SMILES IDX 64 24 35 26 57 27 42 28 56 29 43 30 46 31 55 32 69 33 44 34
REMARK SMILES IDX 45 35 54 37 70 38 47 39 36 40 37 41 41 42 38 43 40 44 39 45
REMARK SMILES IDX 58 46 59 47 63 48 60 49 62 50 61 51 48 52 49 53 53 54 50 55
REMARK SMILES IDX 52 56 51 57 7 58 8 59 9 61 10 62 11 63 22 64 12 65 21 66
REMARK SMILES IDX 23 67 24 68 25 69 26 70 13 72 14 73 19 74 15 75 18 76 20 77
REMARK SMILES IDX 16 78 17 79
REMARK H PARENT 3 7 68 25 46 36 7 60 26 71
REMARK Flexibility Score: inf
ROOT
ATOM      1  C   UNL A   1      35.660  22.928  26.125  1.00  0.00     0.118 C 
ENDROOT
BRANCH   1   2
ATOM      2  C   UNL A   1      36.536  21.732  25.741  1.00  0.00     0.042 C 
BRANCH   2   3
ATOM      3  C   UNL A   1      37.928  22.073  25.205  1.00  0.00     0.118 C 
BRANCH   3   4
ATOM      4  N   UNL A   1      39.042  21.509  25.944  1.00  0.00    -0.352 N 
ATOM      5  O   UNL A   1      40.696  21.136  27.359  1.00  0.00    -0.269 OA
ATOM      6  C   UNL A   1      39.932  21.975  26.872  1.00  0.00     0.251 C 
ATOM      7  H   UNL A   1      39.194  20.560  25.726  1.00  0.00     0.163 HD
BRANCH   6   8
ATOM      8  C   UNL A   1      40.068  23.393  27.304  1.00  0.00     0.039 A 
ATOM      9  C   UNL A   1      39.101  24.383  27.146  1.00  0.00     0.014 A 
ATOM     10  C   UNL A   1      41.274  23.737  27.949  1.00  0.00     0.014 A 
ATOM     11  C   UNL A   1      39.350  25.689  27.574  1.00  0.00     0.010 A 
ATOM     12  C   UNL A   1      41.519  25.035  28.398  1.00  0.00     0.010 A 
ATOM     13  C   UNL A   1      40.556  26.021  28.198  1.00  0.00    -0.014 A 
BRANCH  13  14
ATOM     14  C   UNL A   1      40.694  27.380  28.724  1.00  0.00     0.031 A 
ATOM     15  C   UNL A   1      41.790  28.212  28.148  1.00  0.00     0.074 A 
ATOM     16  C   UNL A   1      39.850  27.990  29.578  1.00  0.00     0.049 A 
ATOM     17  N   UNL A   1      42.811  28.723  28.758  1.00  0.00    -0.248 NA
ATOM     18  C   UNL A   1      41.735  28.507  26.710  1.00  0.00     0.031 C 
ATOM     19  C   UNL A   1      38.528  27.551  30.018  1.00  0.00     0.029 A 
ATOM     20  N   UNL A   1      39.992  29.218  30.166  1.00  0.00    -0.354 N 
ATOM     21  C   UNL A   1      43.464  29.521  27.821  1.00  0.00     0.074 A 
ATOM     22  C   UNL A   1      42.802  29.294  26.558  1.00  0.00     0.031 C 
ATOM     23  C   UNL A   1      37.906  28.581  30.637  1.00  0.00     0.029 A 
ATOM     24  C   UNL A   1      38.834  29.697  30.752  1.00  0.00     0.049 A 
ATOM     25  H   UNL A   1      40.841  29.716  30.171  1.00  0.00     0.167 HD
ATOM     26  C   UNL A   1      44.411  30.437  28.163  1.00  0.00     0.031 A 
ATOM     27  C   UNL A   1      38.631  30.935  31.261  1.00  0.00     0.031 A 
ATOM     28  C   UNL A   1      44.906  30.261  29.499  1.00  0.00     0.049 A 
ATOM     29  C   UNL A   1      39.942  31.567  31.524  1.00  0.00     0.074 A 
ATOM     30  C   UNL A   1      45.544  29.252  30.192  1.00  0.00     0.029 A 
ATOM     31  N   UNL A   1      44.517  31.174  30.447  1.00  0.00    -0.354 N 
ATOM     32  N   UNL A   1      40.735  31.233  32.499  1.00  0.00    -0.248 NA
ATOM     33  C   UNL A   1      40.530  32.431  30.512  1.00  0.00     0.031 C 
ATOM     34  C   UNL A   1      45.099  29.385  31.540  1.00  0.00     0.029 A 
ATOM     35  C   UNL A   1      44.217  30.466  31.581  1.00  0.00     0.049 A 
ATOM     36  H   UNL A   1      44.462  32.150  30.334  1.00  0.00     0.167 HD
ATOM     37  C   UNL A   1      42.010  31.491  32.023  1.00  0.00     0.074 A 
ATOM     38  C   UNL A   1      41.813  32.364  30.874  1.00  0.00     0.031 C 
ATOM     39  C   UNL A   1      43.079  30.743  32.429  1.00  0.00     0.031 A 
BRANCH  26  40
ATOM     40  C   UNL A   1      44.683  31.703  27.393  1.00  0.00    -0.014 A 
ATOM     41  C   UNL A   1      45.983  31.948  26.913  1.00  0.00     0.009 A 
ATOM     42  C   UNL A   1      43.780  32.783  27.364  1.00  0.00     0.009 A 
ATOM     43  C   UNL A   1      46.373  33.218  26.471  1.00  0.00     0.001 A 
ATOM     44  C   UNL A   1      44.154  34.042  26.881  1.00  0.00     0.001 A 
ATOM     45  C   UNL A   1      45.458  34.265  26.457  1.00  0.00     0.000 A 
ENDBRANCH  26  40
BRANCH  27  46
ATOM     46  C   UNL A   1      37.370  31.685  31.422  1.00  0.00    -0.014 A 
ATOM     47  C   UNL A   1      36.549  31.955  30.316  1.00  0.00     0.009 A 
ATOM     48  C   UNL A   1      36.847  31.928  32.704  1.00  0.00     0.009 A 
ATOM     49  C   UNL A   1      35.243  32.427  30.489  1.00  0.00     0.001 A 
ATOM     50  C   UNL A   1      35.546  32.408  32.878  1.00  0.00     0.001 A 
ATOM     51  C   UNL A   1      34.739  32.644  31.770  1.00  0.00     0.000 A 
ENDBRANCH  27  46
BRANCH  39  52
ATOM     52  C   UNL A   1      42.924  29.884  33.658  1.00  0.00    -0.014 A 
ATOM     53  C   UNL A   1      43.260  30.333  34.948  1.00  0.00     0.009 A 
ATOM     54  C   UNL A   1      42.298  28.635  33.531  1.00  0.00     0.009 A 
ATOM     55  C   UNL A   1      43.024  29.533  36.069  1.00  0.00     0.001 A 
ATOM     56  C   UNL A   1      42.039  27.847  34.655  1.00  0.00     0.001 A 
ATOM     57  C   UNL A   1      42.411  28.292  35.922  1.00  0.00     0.000 A 
ENDBRANCH  39  52
ENDBRANCH  13  14
ENDBRANCH   6   8
ENDBRANCH   3   4
ENDBRANCH   2   3
ENDBRANCH   1   2
BRANCH   1  58
ATOM     58  N   UNL A   1      34.690  22.593  27.150  1.00  0.00    -0.351 N 
ATOM     59  C   UNL A   1      33.331  22.748  27.158  1.00  0.00     0.272 C 
ATOM     60  H   UNL A   1      35.068  22.194  27.967  1.00  0.00     0.163 HD
ATOM     61  O   UNL A   1      32.754  22.576  28.244  1.00  0.00    -0.267 OA
BRANCH  59  62
ATOM     62  C   UNL A   1      32.621  23.158  25.943  1.00  0.00     0.153 A 
ATOM     63  N   UNL A   1      32.486  24.459  25.612  1.00  0.00    -0.162 NA
ATOM     64  C   UNL A   1      32.033  22.315  24.952  1.00  0.00     0.004 A 
ATOM     65  N   UNL A   1      31.658  24.466  24.541  1.00  0.00    -0.237 N 
ATOM     66  C   UNL A   1      31.378  23.193  24.112  1.00  0.00     0.119 A 
BRANCH  64  67
ATOM     67  C   UNL A   1      31.986  20.822  24.869  1.00  0.00     0.042 C 
BRANCH  67  68
ATOM     68  C   UNL A   1      33.304  20.138  24.484  1.00  0.00     0.033 C 
BRANCH  68  69
ATOM     69  C   UNL A   1      33.730  18.954  25.345  1.00  0.00     0.156 C 
BRANCH  69  70
ATOM     70  O   UNL A   1      32.903  18.819  26.492  1.00  0.00    -0.396 OA
ATOM     71  H   UNL A   1      31.988  18.656  26.213  1.00  0.00     0.210 HD
ENDBRANCH  69  70
ENDBRANCH  68  69
ENDBRANCH  67  68
ENDBRANCH  64  67
BRANCH  65  72
ATOM     72  C   UNL A   1      31.188  25.681  23.994  1.00  0.00     0.100 A 
ATOM     73  C   UNL A   1      31.885  26.287  22.941  1.00  0.00     0.032 A 
ATOM     74  C   UNL A   1      30.035  26.288  24.498  1.00  0.00     0.149 A 
ATOM     75  C   UNL A   1      31.397  27.471  22.376  1.00  0.00     0.018 A 
ATOM     76  C   UNL A   1      29.574  27.491  23.971  1.00  0.00     0.057 A 
ATOM     77  F   UNL A   1      29.384  25.775  25.553  1.00  0.00    -0.205 F 
ATOM     78  C   UNL A   1      30.251  28.071  22.899  1.00  0.00     0.021 A 
ATOM     79  Br  UNL A   1      29.612  29.685  22.154  1.00  0.00    -0.051 Br
ENDBRANCH  65  72
ENDBRANCH  59  62
ENDBRANCH   1  58
TORSDOF 15
ENDMDL
