MODEL 1
REMARK VINA RESULT:     -13.2      0.000      0.000
REMARK SMILES Cc1cccc(CC(=O)N2CCC3(CCC(=O)N([C@H](C)C(=O)NCCCNC(=O)c4ccc(-c5c6nc(c(-c7ccccc7)c7ccc([nH]7)c(-c7ccccc7)c7nc(c(-c8ccccc8)c8ccc5[nH]8)C=C7)C=C6)cc4)C3)CC2)c1
REMARK SMILES IDX 24 1 23 2 21 3 22 4 19 6 20 7 18 8 8 9 9 10 10 11 11 12
REMARK SMILES IDX 80 13 12 14 79 15 13 16 14 17 78 18 15 19 16 20 17 21 7 22
REMARK SMILES IDX 6 23 1 24 2 25 3 26 81 27 4 28 5 29 25 30 26 31 27 32 28 33
REMARK SMILES IDX 29 35 30 36 31 37 77 38 32 39 76 40 33 41 34 42 35 43 70 44
REMARK SMILES IDX 36 45 75 46 69 47 71 48 37 49 74 50 68 51 67 52 38 54 60 55
REMARK SMILES IDX 45 56 59 57 46 58 49 59 58 60 72 61 47 62 48 63 57 65 73 66
REMARK SMILES IDX 50 67 39 68 40 69 44 70 41 71 43 72 42 73 61 74 62 75 66 76
REMARK SMILES IDX 63 77 65 78 64 79 51 80 52 81 56 82 53 83 55 84 54 85
REMARK H PARENT 23 5 27 34 71 53 49 64
REMARK Flexibility Score: inf
ROOT
ATOM      1  C   UNL A   1      32.178  29.952  26.867  1.00  0.00     0.117 C 
ENDROOT
BRANCH   1   2
ATOM      2  N   UNL A   1      31.370  28.758  27.033  1.00  0.00    -0.354 N 
ATOM      3  C   UNL A   1      31.562  27.509  26.501  1.00  0.00     0.242 C 
ATOM      4  O   UNL A   1      30.866  26.586  26.935  1.00  0.00    -0.273 OA
ATOM      5  H   UNL A   1      30.574  28.858  27.605  1.00  0.00     0.163 HD
BRANCH   3   6
ATOM      6  C   UNL A   1      32.543  27.268  25.322  1.00  0.00     0.171 C 
ATOM      7  C   UNL A   1      33.962  26.997  25.840  1.00  0.00     0.042 C 
BRANCH   6   8
ATOM      8  N   UNL A   1      32.160  26.336  24.241  1.00  0.00    -0.330 N 
ATOM      9  C   UNL A   1      32.991  19.918  25.198  1.00  0.00     0.226 C 
ATOM     10  O   UNL A   1      32.624  19.449  26.283  1.00  0.00    -0.275 OA
ATOM     11  N   UNL A   1      32.333  21.009  24.649  1.00  0.00    -0.342 N 
ATOM     12  C   UNL A   1      31.497  21.856  25.498  1.00  0.00     0.120 C 
ATOM     13  C   UNL A   1      32.350  21.424  23.258  1.00  0.00     0.120 C 
ATOM     14  C   UNL A   1      31.966  23.320  25.405  1.00  0.00     0.030 C 
ATOM     15  C   UNL A   1      32.997  22.794  23.158  1.00  0.00     0.030 C 
ATOM     16  C   UNL A   1      32.170  23.838  23.949  1.00  0.00    -0.008 C 
ATOM     17  C   UNL A   1      30.823  24.036  23.203  1.00  0.00     0.019 C 
ATOM     18  C   UNL A   1      32.971  25.164  23.968  1.00  0.00     0.127 C 
ATOM     19  C   UNL A   1      30.098  25.303  23.587  1.00  0.00     0.101 C 
ATOM     20  C   UNL A   1      31.017  26.492  23.484  1.00  0.00     0.223 C 
ATOM     21  O   UNL A   1      30.685  27.529  22.924  1.00  0.00    -0.275 OA
BRANCH   9  22
ATOM     22  C   UNL A   1      34.314  19.421  24.609  1.00  0.00     0.135 C 
BRANCH  22  23
ATOM     23  C   UNL A   1      35.589  20.152  24.939  1.00  0.00    -0.038 A 
ATOM     24  C   UNL A   1      36.645  23.715  25.820  1.00  0.00     0.044 C 
ATOM     25  C   UNL A   1      36.706  22.251  25.496  1.00  0.00    -0.051 A 
ATOM     26  C   UNL A   1      37.942  21.626  25.302  1.00  0.00     0.003 A 
ATOM     27  C   UNL A   1      35.535  21.501  25.338  1.00  0.00     0.007 A 
ATOM     28  C   UNL A   1      38.007  20.273  24.959  1.00  0.00     0.001 A 
ATOM     29  C   UNL A   1      36.836  19.535  24.780  1.00  0.00     0.004 A 
ENDBRANCH  22  23
ENDBRANCH   9  22
ENDBRANCH   6   8
ENDBRANCH   3   6
ENDBRANCH   1   2
BRANCH   1  30
ATOM     30  C   UNL A   1      33.408  29.989  27.745  1.00  0.00     0.042 C 
BRANCH  30  31
ATOM     31  C   UNL A   1      34.325  31.136  27.377  1.00  0.00     0.118 C 
BRANCH  31  32
ATOM     32  N   UNL A   1      34.902  31.844  28.524  1.00  0.00    -0.352 N 
ATOM     33  C   UNL A   1      35.976  31.454  29.314  1.00  0.00     0.251 C 
ATOM     34  H   UNL A   1      34.477  32.698  28.764  1.00  0.00     0.163 HD
ATOM     35  O   UNL A   1      36.405  32.170  30.204  1.00  0.00    -0.269 OA
BRANCH  33  36
ATOM     36  C   UNL A   1      36.672  30.198  28.952  1.00  0.00     0.039 A 
ATOM     37  C   UNL A   1      36.907  29.277  29.975  1.00  0.00     0.014 A 
ATOM     38  C   UNL A   1      37.383  30.141  27.758  1.00  0.00     0.014 A 
ATOM     39  C   UNL A   1      38.052  28.492  29.912  1.00  0.00     0.010 A 
ATOM     40  C   UNL A   1      38.588  29.468  27.759  1.00  0.00     0.010 A 
ATOM     41  C   UNL A   1      38.956  28.701  28.872  1.00  0.00    -0.014 A 
BRANCH  41  42
ATOM     42  C   UNL A   1      40.349  28.269  28.941  1.00  0.00     0.031 A 
ATOM     43  C   UNL A   1      40.737  26.935  28.449  1.00  0.00     0.074 A 
ATOM     44  C   UNL A   1      41.303  29.080  29.457  1.00  0.00     0.049 A 
ATOM     45  N   UNL A   1      41.800  26.316  28.842  1.00  0.00    -0.248 NA
ATOM     46  C   UNL A   1      39.912  26.133  27.546  1.00  0.00     0.031 C 
ATOM     47  C   UNL A   1      42.753  28.911  29.378  1.00  0.00     0.029 A 
ATOM     48  N   UNL A   1      41.128  30.104  30.390  1.00  0.00    -0.354 N 
ATOM     49  C   UNL A   1      41.968  25.237  28.017  1.00  0.00     0.074 A 
ATOM     50  C   UNL A   1      40.702  25.074  27.349  1.00  0.00     0.031 C 
ATOM     51  C   UNL A   1      43.325  29.586  30.387  1.00  0.00     0.029 A 
ATOM     52  C   UNL A   1      42.262  30.105  31.227  1.00  0.00     0.049 A 
ATOM     53  H   UNL A   1      40.358  30.713  30.451  1.00  0.00     0.167 HD
ATOM     54  C   UNL A   1      43.210  24.702  27.877  1.00  0.00     0.031 A 
ATOM     55  C   UNL A   1      42.143  29.893  32.570  1.00  0.00     0.031 A 
ATOM     56  C   UNL A   1      44.144  25.171  28.902  1.00  0.00     0.049 A 
ATOM     57  C   UNL A   1      42.846  28.646  33.078  1.00  0.00     0.074 A 
ATOM     58  C   UNL A   1      45.319  25.903  28.905  1.00  0.00     0.029 A 
ATOM     59  N   UNL A   1      43.773  25.049  30.235  1.00  0.00    -0.354 N 
ATOM     60  N   UNL A   1      43.528  27.819  32.335  1.00  0.00    -0.248 NA
ATOM     61  C   UNL A   1      42.725  28.174  34.460  1.00  0.00     0.031 C 
ATOM     62  C   UNL A   1      45.642  26.220  30.261  1.00  0.00     0.029 A 
ATOM     63  C   UNL A   1      44.680  25.656  31.077  1.00  0.00     0.049 A 
ATOM     64  H   UNL A   1      42.960  24.584  30.541  1.00  0.00     0.167 HD
ATOM     65  C   UNL A   1      43.842  26.702  33.065  1.00  0.00     0.074 A 
ATOM     66  C   UNL A   1      43.333  26.978  34.395  1.00  0.00     0.031 C 
ATOM     67  C   UNL A   1      44.435  25.605  32.510  1.00  0.00     0.031 A 
BRANCH  54  68
ATOM     68  C   UNL A   1      43.625  23.861  26.691  1.00  0.00    -0.014 A 
ATOM     69  C   UNL A   1      43.415  22.471  26.718  1.00  0.00     0.009 A 
ATOM     70  C   UNL A   1      44.329  24.352  25.573  1.00  0.00     0.009 A 
ATOM     71  C   UNL A   1      43.886  21.630  25.698  1.00  0.00     0.001 A 
ATOM     72  C   UNL A   1      44.766  23.524  24.532  1.00  0.00     0.001 A 
ATOM     73  C   UNL A   1      44.553  22.158  24.598  1.00  0.00     0.000 A 
ENDBRANCH  54  68
BRANCH  55  74
ATOM     74  C   UNL A   1      40.885  30.450  33.141  1.00  0.00    -0.014 A 
ATOM     75  C   UNL A   1      40.820  31.837  33.382  1.00  0.00     0.009 A 
ATOM     76  C   UNL A   1      39.690  29.718  33.108  1.00  0.00     0.009 A 
ATOM     77  C   UNL A   1      39.588  32.492  33.468  1.00  0.00     0.001 A 
ATOM     78  C   UNL A   1      38.458  30.376  33.209  1.00  0.00     0.001 A 
ATOM     79  C   UNL A   1      38.408  31.763  33.353  1.00  0.00     0.000 A 
ENDBRANCH  55  74
BRANCH  67  80
ATOM     80  C   UNL A   1      44.773  24.343  33.264  1.00  0.00    -0.014 A 
ATOM     81  C   UNL A   1      43.829  23.355  33.574  1.00  0.00     0.009 A 
ATOM     82  C   UNL A   1      46.071  24.170  33.795  1.00  0.00     0.009 A 
ATOM     83  C   UNL A   1      44.181  22.221  34.322  1.00  0.00     0.001 A 
ATOM     84  C   UNL A   1      46.420  23.054  34.561  1.00  0.00     0.001 A 
ATOM     85  C   UNL A   1      45.475  22.071  34.815  1.00  0.00     0.000 A 
ENDBRANCH  67  80
ENDBRANCH  41  42
ENDBRANCH  33  36
ENDBRANCH  31  32
ENDBRANCH  30  31
ENDBRANCH   1  30
TORSDOF 13
ENDMDL
MODEL 2
REMARK VINA RESULT:     -12.9      3.082      8.672
REMARK SMILES Cc1cccc(CC(=O)N2CCC3(CCC(=O)N([C@H](C)C(=O)NCCCNC(=O)c4ccc(-c5c6nc(c(-c7ccccc7)c7ccc([nH]7)c(-c7ccccc7)c7nc(c(-c8ccccc8)c8ccc5[nH]8)C=C7)C=C6)cc4)C3)CC2)c1
REMARK SMILES IDX 24 1 23 2 21 3 22 4 19 6 20 7 18 8 8 9 9 10 10 11 11 12
REMARK SMILES IDX 80 13 12 14 79 15 13 16 14 17 78 18 15 19 16 20 17 21 7 22
REMARK SMILES IDX 6 23 1 24 2 25 3 26 81 27 4 28 5 29 25 30 26 31 27 32 28 33
REMARK SMILES IDX 29 35 30 36 31 37 77 38 32 39 76 40 33 41 34 42 35 43 70 44
REMARK SMILES IDX 36 45 75 46 69 47 71 48 37 49 74 50 68 51 67 52 38 54 60 55
REMARK SMILES IDX 45 56 59 57 46 58 49 59 58 60 72 61 47 62 48 63 57 65 73 66
REMARK SMILES IDX 50 67 39 68 40 69 44 70 41 71 43 72 42 73 61 74 62 75 66 76
REMARK SMILES IDX 63 77 65 78 64 79 51 80 52 81 56 82 53 83 55 84 54 85
REMARK H PARENT 23 5 27 34 71 53 49 64
REMARK Flexibility Score: inf
ROOT
ATOM      1  C   UNL A   1      37.467  23.511  25.851  1.00  0.00     0.117 C 
ENDROOT
BRANCH   1   2
ATOM      2  N   UNL A   1      37.358  23.431  24.405  1.00  0.00    -0.354 N 
ATOM      3  C   UNL A   1      36.407  22.796  23.649  1.00  0.00     0.242 C 
ATOM      4  O   UNL A   1      36.391  23.025  22.435  1.00  0.00    -0.273 OA
ATOM      5  H   UNL A   1      38.063  23.895  23.899  1.00  0.00     0.163 HD
BRANCH   3   6
ATOM      6  C   UNL A   1      35.445  21.745  24.264  1.00  0.00     0.171 C 
ATOM      7  C   UNL A   1      36.145  20.946  25.372  1.00  0.00     0.042 C 
BRANCH   6   8
ATOM      8  N   UNL A   1      34.080  22.155  24.656  1.00  0.00    -0.330 N 
ATOM      9  C   UNL A   1      32.835  28.527  25.459  1.00  0.00     0.226 C 
ATOM     10  O   UNL A   1      33.258  29.306  24.595  1.00  0.00    -0.275 OA
ATOM     11  N   UNL A   1      32.472  27.233  25.117  1.00  0.00    -0.342 N 
ATOM     12  C   UNL A   1      32.956  26.650  23.866  1.00  0.00     0.120 C 
ATOM     13  C   UNL A   1      31.608  26.344  25.873  1.00  0.00     0.120 C 
ATOM     14  C   UNL A   1      33.698  25.331  24.152  1.00  0.00     0.030 C 
ATOM     15  C   UNL A   1      32.410  25.134  26.317  1.00  0.00     0.030 C 
ATOM     16  C   UNL A   1      32.929  24.350  25.087  1.00  0.00    -0.008 C 
ATOM     17  C   UNL A   1      31.701  23.711  24.382  1.00  0.00     0.019 C 
ATOM     18  C   UNL A   1      33.888  23.245  25.596  1.00  0.00     0.127 C 
ATOM     19  C   UNL A   1      32.059  22.587  23.441  1.00  0.00     0.101 C 
ATOM     20  C   UNL A   1      32.942  21.579  24.129  1.00  0.00     0.223 C 
ATOM     21  O   UNL A   1      32.732  20.375  24.066  1.00  0.00    -0.275 OA
BRANCH   9  22
ATOM     22  C   UNL A   1      32.948  28.949  26.927  1.00  0.00     0.135 C 
BRANCH  22  23
ATOM     23  C   UNL A   1      34.128  29.773  27.369  1.00  0.00    -0.038 A 
ATOM     24  C   UNL A   1      34.891  33.448  28.073  1.00  0.00     0.044 C 
ATOM     25  C   UNL A   1      35.062  31.968  27.892  1.00  0.00    -0.051 A 
ATOM     26  C   UNL A   1      36.338  31.398  27.933  1.00  0.00     0.003 A 
ATOM     27  C   UNL A   1      33.960  31.145  27.636  1.00  0.00     0.007 A 
ATOM     28  C   UNL A   1      36.510  30.028  27.724  1.00  0.00     0.001 A 
ATOM     29  C   UNL A   1      35.411  29.215  27.445  1.00  0.00     0.004 A 
ENDBRANCH  22  23
ENDBRANCH   9  22
ENDBRANCH   6   8
ENDBRANCH   3   6
ENDBRANCH   1   2
BRANCH   1  30
ATOM     30  C   UNL A   1      38.757  24.130  26.336  1.00  0.00     0.042 C 
BRANCH  30  31
ATOM     31  C   UNL A   1      39.558  23.164  27.185  1.00  0.00     0.118 C 
BRANCH  31  32
ATOM     32  N   UNL A   1      40.081  22.005  26.456  1.00  0.00    -0.352 N 
ATOM     33  C   UNL A   1      41.409  21.629  26.294  1.00  0.00     0.251 C 
ATOM     34  H   UNL A   1      39.413  21.423  26.030  1.00  0.00     0.163 HD
ATOM     35  O   UNL A   1      41.713  20.598  25.717  1.00  0.00    -0.269 OA
BRANCH  33  36
ATOM     36  C   UNL A   1      42.442  22.454  26.963  1.00  0.00     0.039 A 
ATOM     37  C   UNL A   1      42.524  22.374  28.354  1.00  0.00     0.014 A 
ATOM     38  C   UNL A   1      43.006  23.520  26.270  1.00  0.00     0.014 A 
ATOM     39  C   UNL A   1      42.910  23.505  29.062  1.00  0.00     0.010 A 
ATOM     40  C   UNL A   1      43.253  24.682  26.972  1.00  0.00     0.010 A 
ATOM     41  C   UNL A   1      43.132  24.693  28.367  1.00  0.00    -0.014 A 
BRANCH  41  42
ATOM     42  C   UNL A   1      43.107  26.001  29.015  1.00  0.00     0.031 A 
ATOM     43  C   UNL A   1      41.895  26.838  28.951  1.00  0.00     0.074 A 
ATOM     44  C   UNL A   1      44.190  26.467  29.680  1.00  0.00     0.049 A 
ATOM     45  N   UNL A   1      41.910  28.120  29.102  1.00  0.00    -0.248 NA
ATOM     46  C   UNL A   1      40.571  26.320  28.610  1.00  0.00     0.031 C 
ATOM     47  C   UNL A   1      44.256  27.620  30.577  1.00  0.00     0.029 A 
ATOM     48  N   UNL A   1      45.527  26.124  29.467  1.00  0.00    -0.354 N 
ATOM     49  C   UNL A   1      40.609  28.528  29.220  1.00  0.00     0.074 A 
ATOM     50  C   UNL A   1      39.822  27.418  28.748  1.00  0.00     0.031 C 
ATOM     51  C   UNL A   1      45.523  28.056  30.633  1.00  0.00     0.029 A 
ATOM     52  C   UNL A   1      46.296  27.286  29.675  1.00  0.00     0.049 A 
ATOM     53  H   UNL A   1      45.868  25.235  29.218  1.00  0.00     0.167 HD
ATOM     54  C   UNL A   1      40.342  29.702  29.852  1.00  0.00     0.031 A 
ATOM     55  C   UNL A   1      47.061  27.811  28.675  1.00  0.00     0.031 A 
ATOM     56  C   UNL A   1      41.537  30.529  30.034  1.00  0.00     0.049 A 
ATOM     57  C   UNL A   1      46.657  29.207  28.236  1.00  0.00     0.074 A 
ATOM     58  C   UNL A   1      42.245  31.013  31.120  1.00  0.00     0.029 A 
ATOM     59  N   UNL A   1      42.316  30.811  28.920  1.00  0.00    -0.354 N 
ATOM     60  N   UNL A   1      45.674  29.895  28.747  1.00  0.00    -0.248 NA
ATOM     61  C   UNL A   1      47.267  29.886  27.090  1.00  0.00     0.031 C 
ATOM     62  C   UNL A   1      43.462  31.586  30.638  1.00  0.00     0.029 A 
ATOM     63  C   UNL A   1      43.476  31.474  29.261  1.00  0.00     0.049 A 
ATOM     64  H   UNL A   1      42.070  30.567  27.998  1.00  0.00     0.167 HD
ATOM     65  C   UNL A   1      45.452  31.011  27.983  1.00  0.00     0.074 A 
ATOM     66  C   UNL A   1      46.485  30.972  26.966  1.00  0.00     0.031 C 
ATOM     67  C   UNL A   1      44.396  31.849  28.198  1.00  0.00     0.031 A 
BRANCH  54  68
ATOM     68  C   UNL A   1      38.998  30.033  30.460  1.00  0.00    -0.014 A 
ATOM     69  C   UNL A   1      38.643  31.377  30.669  1.00  0.00     0.009 A 
ATOM     70  C   UNL A   1      38.088  29.076  30.952  1.00  0.00     0.009 A 
ATOM     71  C   UNL A   1      37.461  31.737  31.335  1.00  0.00     0.001 A 
ATOM     72  C   UNL A   1      36.887  29.427  31.581  1.00  0.00     0.001 A 
ATOM     73  C   UNL A   1      36.577  30.761  31.782  1.00  0.00     0.000 A 
ENDBRANCH  54  68
BRANCH  55  74
ATOM     74  C   UNL A   1      47.640  26.773  27.776  1.00  0.00    -0.014 A 
ATOM     75  C   UNL A   1      46.968  26.485  26.571  1.00  0.00     0.009 A 
ATOM     76  C   UNL A   1      48.970  26.353  27.919  1.00  0.00     0.009 A 
ATOM     77  C   UNL A   1      47.644  25.901  25.497  1.00  0.00     0.001 A 
ATOM     78  C   UNL A   1      49.639  25.755  26.845  1.00  0.00     0.001 A 
ATOM     79  C   UNL A   1      48.988  25.562  25.626  1.00  0.00     0.000 A 
ENDBRANCH  55  74
BRANCH  67  80
ATOM     80  C   UNL A   1      44.093  33.071  27.367  1.00  0.00    -0.014 A 
ATOM     81  C   UNL A   1      43.697  34.297  27.918  1.00  0.00     0.009 A 
ATOM     82  C   UNL A   1      44.091  32.979  25.957  1.00  0.00     0.009 A 
ATOM     83  C   UNL A   1      43.378  35.393  27.102  1.00  0.00     0.001 A 
ATOM     84  C   UNL A   1      43.750  34.060  25.140  1.00  0.00     0.001 A 
ATOM     85  C   UNL A   1      43.404  35.274  25.714  1.00  0.00     0.000 A 
ENDBRANCH  67  80
ENDBRANCH  41  42
ENDBRANCH  33  36
ENDBRANCH  31  32
ENDBRANCH  30  31
ENDBRANCH   1  30
TORSDOF 13
ENDMDL
MODEL 3
REMARK VINA RESULT:     -12.4      1.702      2.408
REMARK SMILES Cc1cccc(CC(=O)N2CCC3(CCC(=O)N([C@H](C)C(=O)NCCCNC(=O)c4ccc(-c5c6nc(c(-c7ccccc7)c7ccc([nH]7)c(-c7ccccc7)c7nc(c(-c8ccccc8)c8ccc5[nH]8)C=C7)C=C6)cc4)C3)CC2)c1
REMARK SMILES IDX 24 1 23 2 21 3 22 4 19 6 20 7 18 8 8 9 9 10 10 11 11 12
REMARK SMILES IDX 80 13 12 14 79 15 13 16 14 17 78 18 15 19 16 20 17 21 7 22
REMARK SMILES IDX 6 23 1 24 2 25 3 26 81 27 4 28 5 29 25 30 26 31 27 32 28 33
REMARK SMILES IDX 29 35 30 36 31 37 77 38 32 39 76 40 33 41 34 42 35 43 70 44
REMARK SMILES IDX 36 45 75 46 69 47 71 48 37 49 74 50 68 51 67 52 38 54 60 55
REMARK SMILES IDX 45 56 59 57 46 58 49 59 58 60 72 61 47 62 48 63 57 65 73 66
REMARK SMILES IDX 50 67 39 68 40 69 44 70 41 71 43 72 42 73 61 74 62 75 66 76
REMARK SMILES IDX 63 77 65 78 64 79 51 80 52 81 56 82 53 83 55 84 54 85
REMARK H PARENT 23 5 27 34 71 53 49 64
REMARK Flexibility Score: inf
ROOT
ATOM      1  C   UNL A   1      34.089  29.931  26.885  1.00  0.00     0.117 C 
ENDROOT
BRANCH   1   2
ATOM      2  N   UNL A   1      33.141  29.017  27.496  1.00  0.00    -0.354 N 
ATOM      3  C   UNL A   1      31.872  28.696  27.090  1.00  0.00     0.242 C 
ATOM      4  O   UNL A   1      31.314  27.743  27.642  1.00  0.00    -0.273 OA
ATOM      5  H   UNL A   1      33.451  28.566  28.315  1.00  0.00     0.163 HD
BRANCH   3   6
ATOM      6  C   UNL A   1      31.110  29.557  26.046  1.00  0.00     0.171 C 
ATOM      7  C   UNL A   1      31.389  31.050  26.259  1.00  0.00     0.042 C 
BRANCH   6   8
ATOM      8  N   UNL A   1      31.169  29.181  24.617  1.00  0.00    -0.330 N 
ATOM      9  C   UNL A   1      32.736  23.023  23.060  1.00  0.00     0.226 C 
ATOM     10  O   UNL A   1      32.182  22.115  23.693  1.00  0.00    -0.275 OA
ATOM     11  N   UNL A   1      32.076  24.222  22.837  1.00  0.00    -0.342 N 
ATOM     12  C   UNL A   1      30.927  24.585  23.665  1.00  0.00     0.120 C 
ATOM     13  C   UNL A   1      32.383  25.206  21.814  1.00  0.00     0.120 C 
ATOM     14  C   UNL A   1      31.165  25.956  24.325  1.00  0.00     0.030 C 
ATOM     15  C   UNL A   1      32.807  26.501  22.483  1.00  0.00     0.030 C 
ATOM     16  C   UNL A   1      31.651  27.066  23.345  1.00  0.00    -0.008 C 
ATOM     17  C   UNL A   1      30.525  27.528  22.379  1.00  0.00     0.019 C 
ATOM     18  C   UNL A   1      32.199  28.274  24.144  1.00  0.00     0.127 C 
ATOM     19  C   UNL A   1      29.535  28.474  23.013  1.00  0.00     0.101 C 
ATOM     20  C   UNL A   1      30.248  29.617  23.686  1.00  0.00     0.223 C 
ATOM     21  O   UNL A   1      29.910  30.783  23.529  1.00  0.00    -0.275 OA
BRANCH   9  22
ATOM     22  C   UNL A   1      34.227  22.877  22.746  1.00  0.00     0.135 C 
BRANCH  22  23
ATOM     23  C   UNL A   1      35.240  23.168  23.822  1.00  0.00    -0.038 A 
ATOM     24  C   UNL A   1      38.274  21.443  25.373  1.00  0.00     0.044 C 
ATOM     25  C   UNL A   1      37.186  22.441  25.106  1.00  0.00    -0.051 A 
ATOM     26  C   UNL A   1      36.994  23.519  25.977  1.00  0.00     0.003 A 
ATOM     27  C   UNL A   1      36.321  22.287  24.017  1.00  0.00     0.007 A 
ATOM     28  C   UNL A   1      35.957  24.430  25.760  1.00  0.00     0.001 A 
ATOM     29  C   UNL A   1      35.083  24.259  24.686  1.00  0.00     0.004 A 
ENDBRANCH  22  23
ENDBRANCH   9  22
ENDBRANCH   6   8
ENDBRANCH   3   6
ENDBRANCH   1   2
BRANCH   1  30
ATOM     30  C   UNL A   1      34.154  31.285  27.552  1.00  0.00     0.042 C 
BRANCH  30  31
ATOM     31  C   UNL A   1      34.793  31.205  28.923  1.00  0.00     0.118 C 
BRANCH  31  32
ATOM     32  N   UNL A   1      35.957  32.078  29.102  1.00  0.00    -0.352 N 
ATOM     33  C   UNL A   1      37.301  31.732  29.028  1.00  0.00     0.251 C 
ATOM     34  H   UNL A   1      35.764  33.022  29.298  1.00  0.00     0.163 HD
ATOM     35  O   UNL A   1      38.181  32.571  29.130  1.00  0.00    -0.269 OA
BRANCH  33  36
ATOM     36  C   UNL A   1      37.630  30.329  28.685  1.00  0.00     0.039 A 
ATOM     37  C   UNL A   1      37.704  29.413  29.735  1.00  0.00     0.014 A 
ATOM     38  C   UNL A   1      38.209  30.055  27.450  1.00  0.00     0.014 A 
ATOM     39  C   UNL A   1      38.607  28.361  29.636  1.00  0.00     0.010 A 
ATOM     40  C   UNL A   1      39.202  29.099  27.405  1.00  0.00     0.010 A 
ATOM     41  C   UNL A   1      39.452  28.300  28.529  1.00  0.00    -0.014 A 
BRANCH  41  42
ATOM     42  C   UNL A   1      40.693  27.531  28.527  1.00  0.00     0.031 A 
ATOM     43  C   UNL A   1      40.655  26.061  28.418  1.00  0.00     0.074 A 
ATOM     44  C   UNL A   1      41.893  28.150  28.626  1.00  0.00     0.049 A 
ATOM     45  N   UNL A   1      41.611  25.296  28.826  1.00  0.00    -0.248 NA
ATOM     46  C   UNL A   1      39.494  25.316  27.934  1.00  0.00     0.031 C 
ATOM     47  C   UNL A   1      43.215  27.570  28.395  1.00  0.00     0.029 A 
ATOM     48  N   UNL A   1      42.161  29.388  29.213  1.00  0.00    -0.354 N 
ATOM     49  C   UNL A   1      41.349  24.037  28.357  1.00  0.00     0.074 A 
ATOM     50  C   UNL A   1      39.964  24.065  27.961  1.00  0.00     0.031 C 
ATOM     51  C   UNL A   1      44.130  28.297  29.055  1.00  0.00     0.029 A 
ATOM     52  C   UNL A   1      43.420  29.291  29.838  1.00  0.00     0.049 A 
ATOM     53  H   UNL A   1      41.579  30.181  29.194  1.00  0.00     0.167 HD
ATOM     54  C   UNL A   1      42.377  23.160  28.212  1.00  0.00     0.031 A 
ATOM     55  C   UNL A   1      43.553  29.477  31.184  1.00  0.00     0.031 A 
ATOM     56  C   UNL A   1      43.594  23.601  28.898  1.00  0.00     0.049 A 
ATOM     57  C   UNL A   1      44.051  28.260  31.944  1.00  0.00     0.074 A 
ATOM     58  C   UNL A   1      44.874  23.952  28.507  1.00  0.00     0.029 A 
ATOM     59  N   UNL A   1      43.504  23.937  30.243  1.00  0.00    -0.354 N 
ATOM     60  N   UNL A   1      44.351  27.112  31.401  1.00  0.00    -0.248 NA
ATOM     61  C   UNL A   1      44.132  28.217  33.406  1.00  0.00     0.031 C 
ATOM     62  C   UNL A   1      45.548  24.507  29.639  1.00  0.00     0.029 A 
ATOM     63  C   UNL A   1      44.686  24.466  30.718  1.00  0.00     0.049 A 
ATOM     64  H   UNL A   1      42.695  23.813  30.790  1.00  0.00     0.167 HD
ATOM     65  C   UNL A   1      44.558  26.182  32.386  1.00  0.00     0.074 A 
ATOM     66  C   UNL A   1      44.427  26.924  33.626  1.00  0.00     0.031 C 
ATOM     67  C   UNL A   1      44.754  24.859  32.117  1.00  0.00     0.031 A 
BRANCH  54  68
ATOM     68  C   UNL A   1      42.324  21.959  27.296  1.00  0.00    -0.014 A 
ATOM     69  C   UNL A   1      41.409  20.925  27.559  1.00  0.00     0.009 A 
ATOM     70  C   UNL A   1      43.219  21.728  26.232  1.00  0.00     0.009 A 
ATOM     71  C   UNL A   1      41.398  19.737  26.812  1.00  0.00     0.001 A 
ATOM     72  C   UNL A   1      43.187  20.563  25.456  1.00  0.00     0.001 A 
ATOM     73  C   UNL A   1      42.280  19.560  25.753  1.00  0.00     0.000 A 
ENDBRANCH  54  68
BRANCH  55  74
ATOM     74  C   UNL A   1      42.608  30.490  31.730  1.00  0.00    -0.014 A 
ATOM     75  C   UNL A   1      42.876  31.852  31.486  1.00  0.00     0.009 A 
ATOM     76  C   UNL A   1      41.322  30.126  32.152  1.00  0.00     0.009 A 
ATOM     77  C   UNL A   1      41.856  32.805  31.546  1.00  0.00     0.001 A 
ATOM     78  C   UNL A   1      40.306  31.087  32.225  1.00  0.00     0.001 A 
ATOM     79  C   UNL A   1      40.564  32.415  31.888  1.00  0.00     0.000 A 
ENDBRANCH  55  74
BRANCH  67  80
ATOM     80  C   UNL A   1      44.957  23.794  33.166  1.00  0.00    -0.014 A 
ATOM     81  C   UNL A   1      43.925  22.973  33.639  1.00  0.00     0.009 A 
ATOM     82  C   UNL A   1      46.211  23.666  33.803  1.00  0.00     0.009 A 
ATOM     83  C   UNL A   1      44.152  22.029  34.653  1.00  0.00     0.001 A 
ATOM     84  C   UNL A   1      46.436  22.745  34.830  1.00  0.00     0.001 A 
ATOM     85  C   UNL A   1      45.406  21.916  35.247  1.00  0.00     0.000 A 
ENDBRANCH  67  80
ENDBRANCH  41  42
ENDBRANCH  33  36
ENDBRANCH  31  32
ENDBRANCH  30  31
ENDBRANCH   1  30
TORSDOF 13
ENDMDL
