MODEL 1
REMARK VINA RESULT:     -11.0      0.000      0.000
REMARK SMILES O=C(COCC(=O)/[NH+]=C1\S[C@@H]2CS(=O)(=O)C[C@H]2N1c1ccc(Cl)cc1)NCCCNC(=O)c1ccc(-c2c3nc(c(-c4ccccc4)c4ccc([nH]4)c(-c4ccccc4)c4nc(c(-c5ccccc5)c5ccc2[nH]5)C=C4)C=C3)cc1
REMARK SMILES IDX 27 1 26 2 2 3 1 4 3 6 4 7 5 8 6 9 7 10 8 11 9 12 10 14 18 15
REMARK SMILES IDX 11 16 17 17 12 18 16 19 13 20 14 21 15 22 19 23 20 24 25 25
REMARK SMILES IDX 21 26 24 27 22 28 23 29 28 30 29 31 30 32 31 33 32 35 33 36
REMARK SMILES IDX 34 37 80 38 35 39 79 40 36 41 37 42 38 43 73 44 39 45 78 46
REMARK SMILES IDX 72 47 74 48 40 49 77 50 71 51 70 52 41 54 63 55 48 56 62 57
REMARK SMILES IDX 49 58 52 59 61 60 75 61 50 62 51 63 60 65 76 66 53 67 42 68
REMARK SMILES IDX 43 69 47 70 44 71 46 72 45 73 64 74 65 75 69 76 66 77 68 78
REMARK SMILES IDX 67 79 54 80 55 81 59 82 56 83 58 84 57 85
REMARK H PARENT 26 5 8 13 30 34 74 53 52 64
REMARK Flexibility Score: inf
ROOT
ATOM      1  C   UNL A   1      42.314  18.808  27.765  1.00  0.00     0.117 C 
ENDROOT
BRANCH   1   2
ATOM      2  N   UNL A   1      42.559  20.238  27.812  1.00  0.00    -0.354 N 
ATOM      3  C   UNL A   1      41.749  21.254  27.391  1.00  0.00     0.246 C 
ATOM      4  O   UNL A   1      42.120  22.418  27.542  1.00  0.00    -0.272 OA
ATOM      5  H   UNL A   1      43.423  20.512  28.199  1.00  0.00     0.163 HD
BRANCH   3   6
ATOM      6  C   UNL A   1      40.413  20.917  26.726  1.00  0.00     0.260 C 
BRANCH   6   7
ATOM      7  O   UNL A   1      39.823  22.036  26.082  1.00  0.00    -0.359 OA
BRANCH   7   8
ATOM      8  C   UNL A   1      38.517  22.320  26.571  1.00  0.00     0.288 C 
BRANCH   8   9
ATOM      9  C   UNL A   1      37.716  23.445  25.884  1.00  0.00     0.333 C 
ATOM     10  O   UNL A   1      38.317  24.387  25.371  1.00  0.00    -0.244 OA
ATOM     11  N   UNL A   1      36.343  23.403  25.894  1.00  0.00    -0.202 N 
ATOM     12  C   UNL A   1      35.669  22.427  25.385  1.00  0.00     0.319 C 
ATOM     13  H   UNL A   1      35.853  24.150  26.308  1.00  0.00     0.316 HD
ATOM     14  S   UNL A   1      36.367  20.907  24.735  1.00  0.00    -0.029 SA
ATOM     15  N   UNL A   1      34.270  22.355  25.281  1.00  0.00    -0.217 N 
ATOM     16  C   UNL A   1      34.818  20.071  25.126  1.00  0.00     0.120 C 
ATOM     17  C   UNL A   1      33.815  21.118  24.624  1.00  0.00     0.212 C 
ATOM     18  C   UNL A   1      34.478  18.749  24.492  1.00  0.00     0.156 C 
ATOM     19  C   UNL A   1      32.469  20.513  24.938  1.00  0.00     0.188 C 
ATOM     20  S   UNL A   1      32.685  18.805  24.421  1.00  0.00     0.155 S 
ATOM     21  O   UNL A   1      32.149  17.946  25.456  1.00  0.00    -0.229 OA
ATOM     22  O   UNL A   1      32.290  18.692  23.036  1.00  0.00    -0.229 OA
BRANCH  15  23
ATOM     23  C   UNL A   1      33.444  23.491  25.261  1.00  0.00     0.128 A 
ATOM     24  C   UNL A   1      33.141  24.152  24.060  1.00  0.00     0.053 A 
ATOM     25  C   UNL A   1      32.855  23.989  26.437  1.00  0.00     0.053 A 
ATOM     26  C   UNL A   1      32.298  25.270  24.033  1.00  0.00     0.025 A 
ATOM     27  C   UNL A   1      32.010  25.106  26.417  1.00  0.00     0.025 A 
ATOM     28  C   UNL A   1      31.737  25.743  25.214  1.00  0.00     0.041 A 
ATOM     29  Cl  UNL A   1      30.690  27.107  25.178  1.00  0.00    -0.084 Cl
ENDBRANCH  15  23
ENDBRANCH   8   9
ENDBRANCH   7   8
ENDBRANCH   6   7
ENDBRANCH   3   6
ENDBRANCH   1   2
BRANCH   1  30
ATOM     30  C   UNL A   1      42.984  18.133  26.573  1.00  0.00     0.042 C 
BRANCH  30  31
ATOM     31  C   UNL A   1      43.117  19.018  25.337  1.00  0.00     0.118 C 
BRANCH  31  32
ATOM     32  N   UNL A   1      44.379  18.831  24.631  1.00  0.00    -0.352 N 
ATOM     33  C   UNL A   1      45.338  19.750  24.276  1.00  0.00     0.251 C 
ATOM     34  H   UNL A   1      44.575  17.903  24.367  1.00  0.00     0.163 HD
ATOM     35  O   UNL A   1      46.266  19.417  23.547  1.00  0.00    -0.269 OA
BRANCH  33  36
ATOM     36  C   UNL A   1      45.234  21.145  24.748  1.00  0.00     0.039 A 
ATOM     37  C   UNL A   1      45.586  21.444  26.067  1.00  0.00     0.014 A 
ATOM     38  C   UNL A   1      44.802  22.158  23.890  1.00  0.00     0.014 A 
ATOM     39  C   UNL A   1      45.589  22.773  26.500  1.00  0.00     0.010 A 
ATOM     40  C   UNL A   1      44.880  23.485  24.297  1.00  0.00     0.010 A 
ATOM     41  C   UNL A   1      45.282  23.808  25.603  1.00  0.00    -0.014 A 
BRANCH  41  42
ATOM     42  C   UNL A   1      45.381  25.239  25.987  1.00  0.00     0.031 A 
ATOM     43  C   UNL A   1      46.711  25.938  25.943  1.00  0.00     0.074 A 
ATOM     44  C   UNL A   1      44.299  25.879  26.473  1.00  0.00     0.049 A 
ATOM     45  N   UNL A   1      47.033  27.129  26.375  1.00  0.00    -0.248 NA
ATOM     46  C   UNL A   1      47.831  25.183  25.359  1.00  0.00     0.031 C 
ATOM     47  C   UNL A   1      42.954  25.311  26.584  1.00  0.00     0.029 A 
ATOM     48  N   UNL A   1      44.167  27.146  26.983  1.00  0.00    -0.354 N 
ATOM     49  C   UNL A   1      48.396  27.259  26.136  1.00  0.00     0.074 A 
ATOM     50  C   UNL A   1      48.847  26.007  25.569  1.00  0.00     0.031 C 
ATOM     51  C   UNL A   1      42.130  26.233  27.108  1.00  0.00     0.029 A 
ATOM     52  C   UNL A   1      42.898  27.433  27.424  1.00  0.00     0.049 A 
ATOM     53  H   UNL A   1      44.912  27.789  27.028  1.00  0.00     0.167 HD
ATOM     54  C   UNL A   1      49.198  28.329  26.355  1.00  0.00     0.031 A 
ATOM     55  C   UNL A   1      42.410  28.531  28.033  1.00  0.00     0.031 A 
ATOM     56  C   UNL A   1      48.749  29.571  26.924  1.00  0.00     0.049 A 
ATOM     57  C   UNL A   1      43.332  29.684  28.317  1.00  0.00     0.074 A 
ATOM     58  C   UNL A   1      49.475  30.727  27.152  1.00  0.00     0.029 A 
ATOM     59  N   UNL A   1      47.456  29.818  27.361  1.00  0.00    -0.354 N 
ATOM     60  N   UNL A   1      44.608  29.810  28.046  1.00  0.00    -0.248 NA
ATOM     61  C   UNL A   1      42.741  30.851  28.989  1.00  0.00     0.031 C 
ATOM     62  C   UNL A   1      48.637  31.651  27.784  1.00  0.00     0.029 A 
ATOM     63  C   UNL A   1      47.370  31.098  27.881  1.00  0.00     0.049 A 
ATOM     64  H   UNL A   1      46.710  29.177  27.310  1.00  0.00     0.167 HD
ATOM     65  C   UNL A   1      44.963  31.083  28.473  1.00  0.00     0.074 A 
ATOM     66  C   UNL A   1      43.767  31.692  29.017  1.00  0.00     0.031 C 
ATOM     67  C   UNL A   1      46.171  31.695  28.412  1.00  0.00     0.031 A 
BRANCH  54  68
ATOM     68  C   UNL A   1      50.651  28.187  25.991  1.00  0.00    -0.014 A 
ATOM     69  C   UNL A   1      51.082  28.266  24.657  1.00  0.00     0.009 A 
ATOM     70  C   UNL A   1      51.608  27.990  27.000  1.00  0.00     0.009 A 
ATOM     71  C   UNL A   1      52.432  28.102  24.337  1.00  0.00     0.001 A 
ATOM     72  C   UNL A   1      52.960  27.863  26.681  1.00  0.00     0.001 A 
ATOM     73  C   UNL A   1      53.370  27.905  25.349  1.00  0.00     0.000 A 
ENDBRANCH  54  68
BRANCH  55  74
ATOM     74  C   UNL A   1      40.973  28.599  28.409  1.00  0.00    -0.014 A 
ATOM     75  C   UNL A   1      40.543  28.117  29.655  1.00  0.00     0.009 A 
ATOM     76  C   UNL A   1      40.023  29.139  27.527  1.00  0.00     0.009 A 
ATOM     77  C   UNL A   1      39.189  28.146  29.998  1.00  0.00     0.001 A 
ATOM     78  C   UNL A   1      38.674  29.197  27.885  1.00  0.00     0.001 A 
ATOM     79  C   UNL A   1      38.257  28.691  29.116  1.00  0.00     0.000 A 
ENDBRANCH  55  74
BRANCH  67  80
ATOM     80  C   UNL A   1      46.252  33.119  28.891  1.00  0.00    -0.014 A 
ATOM     81  C   UNL A   1      46.601  33.435  30.213  1.00  0.00     0.009 A 
ATOM     82  C   UNL A   1      46.027  34.165  27.980  1.00  0.00     0.009 A 
ATOM     83  C   UNL A   1      46.692  34.769  30.619  1.00  0.00     0.001 A 
ATOM     84  C   UNL A   1      46.152  35.495  28.379  1.00  0.00     0.001 A 
ATOM     85  C   UNL A   1      46.475  35.796  29.701  1.00  0.00     0.000 A 
ENDBRANCH  67  80
ENDBRANCH  41  42
ENDBRANCH  33  36
ENDBRANCH  31  32
ENDBRANCH  30  31
ENDBRANCH   1  30
TORSDOF 14
ENDMDL
MODEL 2
REMARK VINA RESULT:     -10.8      5.160      9.202
REMARK SMILES O=C(COCC(=O)/[NH+]=C1\S[C@@H]2CS(=O)(=O)C[C@H]2N1c1ccc(Cl)cc1)NCCCNC(=O)c1ccc(-c2c3nc(c(-c4ccccc4)c4ccc([nH]4)c(-c4ccccc4)c4nc(c(-c5ccccc5)c5ccc2[nH]5)C=C4)C=C3)cc1
REMARK SMILES IDX 27 1 26 2 2 3 1 4 3 6 4 7 5 8 6 9 7 10 8 11 9 12 10 14 18 15
REMARK SMILES IDX 11 16 17 17 12 18 16 19 13 20 14 21 15 22 19 23 20 24 25 25
REMARK SMILES IDX 21 26 24 27 22 28 23 29 28 30 29 31 30 32 31 33 32 35 33 36
REMARK SMILES IDX 34 37 80 38 35 39 79 40 36 41 37 42 38 43 73 44 39 45 78 46
REMARK SMILES IDX 72 47 74 48 40 49 77 50 71 51 70 52 41 54 63 55 48 56 62 57
REMARK SMILES IDX 49 58 52 59 61 60 75 61 50 62 51 63 60 65 76 66 53 67 42 68
REMARK SMILES IDX 43 69 47 70 44 71 46 72 45 73 64 74 65 75 69 76 66 77 68 78
REMARK SMILES IDX 67 79 54 80 55 81 59 82 56 83 58 84 57 85
REMARK H PARENT 26 5 8 13 30 34 74 53 52 64
REMARK Flexibility Score: inf
ROOT
ATOM      1  C   UNL A   1      32.180  27.966  23.252  1.00  0.00     0.117 C 
ENDROOT
BRANCH   1   2
ATOM      2  N   UNL A   1      32.866  27.220  22.213  1.00  0.00    -0.354 N 
ATOM      3  C   UNL A   1      32.595  25.964  21.748  1.00  0.00     0.246 C 
ATOM      4  O   UNL A   1      33.276  25.506  20.831  1.00  0.00    -0.272 OA
ATOM      5  H   UNL A   1      33.625  27.680  21.787  1.00  0.00     0.163 HD
BRANCH   3   6
ATOM      6  C   UNL A   1      31.467  25.157  22.394  1.00  0.00     0.260 C 
BRANCH   6   7
ATOM      7  O   UNL A   1      31.864  23.838  22.737  1.00  0.00    -0.359 OA
BRANCH   7   8
ATOM      8  C   UNL A   1      31.658  23.547  24.114  1.00  0.00     0.288 C 
BRANCH   8   9
ATOM      9  C   UNL A   1      32.873  23.625  25.061  1.00  0.00     0.333 C 
ATOM     10  O   UNL A   1      32.891  24.476  25.949  1.00  0.00    -0.244 OA
ATOM     11  N   UNL A   1      33.935  22.777  24.871  1.00  0.00    -0.202 N 
ATOM     12  C   UNL A   1      33.821  21.492  24.907  1.00  0.00     0.319 C 
ATOM     13  H   UNL A   1      34.824  23.166  24.701  1.00  0.00     0.316 HD
ATOM     14  S   UNL A   1      32.276  20.589  25.040  1.00  0.00    -0.029 SA
ATOM     15  N   UNL A   1      34.872  20.565  24.809  1.00  0.00    -0.217 N 
ATOM     16  C   UNL A   1      33.055  19.202  24.189  1.00  0.00     0.120 C 
ATOM     17  C   UNL A   1      34.408  19.171  24.912  1.00  0.00     0.212 C 
ATOM     18  C   UNL A   1      32.453  17.825  24.255  1.00  0.00     0.156 C 
ATOM     19  C   UNL A   1      35.154  18.045  24.241  1.00  0.00     0.188 C 
ATOM     20  S   UNL A   1      33.896  16.766  24.124  1.00  0.00     0.155 S 
ATOM     21  O   UNL A   1      33.945  16.202  22.792  1.00  0.00    -0.229 OA
ATOM     22  O   UNL A   1      33.960  15.952  25.317  1.00  0.00    -0.229 OA
BRANCH  15  23
ATOM     23  C   UNL A   1      36.201  20.877  25.140  1.00  0.00     0.128 A 
ATOM     24  C   UNL A   1      37.230  19.933  24.995  1.00  0.00     0.053 A 
ATOM     25  C   UNL A   1      36.561  22.158  25.594  1.00  0.00     0.053 A 
ATOM     26  C   UNL A   1      38.560  20.247  25.302  1.00  0.00     0.025 A 
ATOM     27  C   UNL A   1      37.889  22.480  25.901  1.00  0.00     0.025 A 
ATOM     28  C   UNL A   1      38.883  21.521  25.755  1.00  0.00     0.041 A 
ATOM     29  Cl  UNL A   1      40.519  21.912  26.117  1.00  0.00    -0.084 Cl
ENDBRANCH  15  23
ENDBRANCH   8   9
ENDBRANCH   7   8
ENDBRANCH   6   7
ENDBRANCH   3   6
ENDBRANCH   1   2
BRANCH   1  30
ATOM     30  C   UNL A   1      32.994  29.148  23.767  1.00  0.00     0.042 C 
BRANCH  30  31
ATOM     31  C   UNL A   1      33.138  29.205  25.285  1.00  0.00     0.118 C 
BRANCH  31  32
ATOM     32  N   UNL A   1      32.604  30.430  25.868  1.00  0.00    -0.352 N 
ATOM     33  C   UNL A   1      33.087  31.203  26.897  1.00  0.00     0.251 C 
ATOM     34  H   UNL A   1      31.769  30.755  25.460  1.00  0.00     0.163 HD
ATOM     35  O   UNL A   1      32.409  32.122  27.343  1.00  0.00    -0.269 OA
BRANCH  33  36
ATOM     36  C   UNL A   1      34.409  30.908  27.485  1.00  0.00     0.039 A 
ATOM     37  C   UNL A   1      35.332  31.947  27.638  1.00  0.00     0.014 A 
ATOM     38  C   UNL A   1      34.735  29.613  27.894  1.00  0.00     0.014 A 
ATOM     39  C   UNL A   1      36.548  31.704  28.282  1.00  0.00     0.010 A 
ATOM     40  C   UNL A   1      35.909  29.391  28.604  1.00  0.00     0.010 A 
ATOM     41  C   UNL A   1      36.825  30.434  28.813  1.00  0.00    -0.014 A 
BRANCH  41  42
ATOM     42  C   UNL A   1      38.052  30.161  29.602  1.00  0.00     0.031 A 
ATOM     43  C   UNL A   1      39.158  29.335  29.007  1.00  0.00     0.074 A 
ATOM     44  C   UNL A   1      38.128  30.565  30.885  1.00  0.00     0.049 A 
ATOM     45  N   UNL A   1      40.236  28.862  29.577  1.00  0.00    -0.248 NA
ATOM     46  C   UNL A   1      39.016  28.970  27.588  1.00  0.00     0.031 C 
ATOM     47  C   UNL A   1      37.119  31.359  31.588  1.00  0.00     0.029 A 
ATOM     48  N   UNL A   1      39.096  30.346  31.833  1.00  0.00    -0.354 N 
ATOM     49  C   UNL A   1      40.889  28.127  28.596  1.00  0.00     0.074 A 
ATOM     50  C   UNL A   1      40.061  28.175  27.411  1.00  0.00     0.031 C 
ATOM     51  C   UNL A   1      37.530  31.577  32.848  1.00  0.00     0.029 A 
ATOM     52  C   UNL A   1      38.801  30.890  33.059  1.00  0.00     0.049 A 
ATOM     53  H   UNL A   1      39.925  29.845  31.651  1.00  0.00     0.167 HD
ATOM     54  C   UNL A   1      42.078  27.483  28.668  1.00  0.00     0.031 A 
ATOM     55  C   UNL A   1      39.466  30.829  34.228  1.00  0.00     0.031 A 
ATOM     56  C   UNL A   1      42.898  27.432  29.849  1.00  0.00     0.049 A 
ATOM     57  C   UNL A   1      40.756  30.060  34.300  1.00  0.00     0.074 A 
ATOM     58  C   UNL A   1      44.137  26.836  30.014  1.00  0.00     0.029 A 
ATOM     59  N   UNL A   1      42.558  27.994  31.071  1.00  0.00    -0.354 N 
ATOM     60  N   UNL A   1      41.384  29.407  33.352  1.00  0.00    -0.248 NA
ATOM     61  C   UNL A   1      41.433  30.024  35.605  1.00  0.00     0.031 C 
ATOM     62  C   UNL A   1      44.518  26.984  31.351  1.00  0.00     0.029 A 
ATOM     63  C   UNL A   1      43.552  27.736  32.001  1.00  0.00     0.049 A 
ATOM     64  H   UNL A   1      41.734  28.500  31.250  1.00  0.00     0.167 HD
ATOM     65  C   UNL A   1      42.548  28.920  33.933  1.00  0.00     0.074 A 
ATOM     66  C   UNL A   1      42.542  29.358  35.314  1.00  0.00     0.031 C 
ATOM     67  C   UNL A   1      43.537  28.184  33.370  1.00  0.00     0.031 A 
BRANCH  54  68
ATOM     68  C   UNL A   1      42.550  26.764  27.433  1.00  0.00    -0.014 A 
ATOM     69  C   UNL A   1      43.552  27.305  26.610  1.00  0.00     0.009 A 
ATOM     70  C   UNL A   1      41.998  25.518  27.096  1.00  0.00     0.009 A 
ATOM     71  C   UNL A   1      43.955  26.637  25.452  1.00  0.00     0.001 A 
ATOM     72  C   UNL A   1      42.428  24.836  25.957  1.00  0.00     0.001 A 
ATOM     73  C   UNL A   1      43.397  25.402  25.129  1.00  0.00     0.000 A 
ENDBRANCH  54  68
BRANCH  55  74
ATOM     74  C   UNL A   1      38.931  31.524  35.429  1.00  0.00    -0.014 A 
ATOM     75  C   UNL A   1      39.201  32.885  35.639  1.00  0.00     0.009 A 
ATOM     76  C   UNL A   1      38.155  30.834  36.375  1.00  0.00     0.009 A 
ATOM     77  C   UNL A   1      38.731  33.533  36.783  1.00  0.00     0.001 A 
ATOM     78  C   UNL A   1      37.659  31.492  37.502  1.00  0.00     0.001 A 
ATOM     79  C   UNL A   1      37.956  32.838  37.711  1.00  0.00     0.000 A 
ENDBRANCH  55  74
BRANCH  67  80
ATOM     80  C   UNL A   1      44.729  27.853  34.227  1.00  0.00    -0.014 A 
ATOM     81  C   UNL A   1      44.794  26.666  34.973  1.00  0.00     0.009 A 
ATOM     82  C   UNL A   1      45.830  28.725  34.240  1.00  0.00     0.009 A 
ATOM     83  C   UNL A   1      45.927  26.376  35.739  1.00  0.00     0.001 A 
ATOM     84  C   UNL A   1      46.972  28.416  34.978  1.00  0.00     0.001 A 
ATOM     85  C   UNL A   1      47.016  27.247  35.735  1.00  0.00     0.000 A 
ENDBRANCH  67  80
ENDBRANCH  41  42
ENDBRANCH  33  36
ENDBRANCH  31  32
ENDBRANCH  30  31
ENDBRANCH   1  30
TORSDOF 14
ENDMDL
MODEL 3
REMARK VINA RESULT:     -10.7      5.761     10.259
REMARK SMILES O=C(COCC(=O)/[NH+]=C1\S[C@@H]2CS(=O)(=O)C[C@H]2N1c1ccc(Cl)cc1)NCCCNC(=O)c1ccc(-c2c3nc(c(-c4ccccc4)c4ccc([nH]4)c(-c4ccccc4)c4nc(c(-c5ccccc5)c5ccc2[nH]5)C=C4)C=C3)cc1
REMARK SMILES IDX 27 1 26 2 2 3 1 4 3 6 4 7 5 8 6 9 7 10 8 11 9 12 10 14 18 15
REMARK SMILES IDX 11 16 17 17 12 18 16 19 13 20 14 21 15 22 19 23 20 24 25 25
REMARK SMILES IDX 21 26 24 27 22 28 23 29 28 30 29 31 30 32 31 33 32 35 33 36
REMARK SMILES IDX 34 37 80 38 35 39 79 40 36 41 37 42 38 43 73 44 39 45 78 46
REMARK SMILES IDX 72 47 74 48 40 49 77 50 71 51 70 52 41 54 63 55 48 56 62 57
REMARK SMILES IDX 49 58 52 59 61 60 75 61 50 62 51 63 60 65 76 66 53 67 42 68
REMARK SMILES IDX 43 69 47 70 44 71 46 72 45 73 64 74 65 75 69 76 66 77 68 78
REMARK SMILES IDX 67 79 54 80 55 81 59 82 56 83 58 84 57 85
REMARK H PARENT 26 5 8 13 30 34 74 53 52 64
REMARK Flexibility Score: inf
ROOT
ATOM      1  C   UNL A   1      32.106  29.668  25.785  1.00  0.00     0.117 C 
ENDROOT
BRANCH   1   2
ATOM      2  N   UNL A   1      33.073  29.738  24.705  1.00  0.00    -0.354 N 
ATOM      3  C   UNL A   1      33.134  28.982  23.568  1.00  0.00     0.246 C 
ATOM      4  O   UNL A   1      34.020  29.211  22.744  1.00  0.00    -0.272 OA
ATOM      5  H   UNL A   1      33.776  30.420  24.804  1.00  0.00     0.163 HD
BRANCH   3   6
ATOM      6  C   UNL A   1      32.113  27.862  23.362  1.00  0.00     0.260 C 
BRANCH   6   7
ATOM      7  O   UNL A   1      32.694  26.684  22.822  1.00  0.00    -0.359 OA
BRANCH   7   8
ATOM      8  C   UNL A   1      32.697  25.603  23.748  1.00  0.00     0.288 C 
BRANCH   8   9
ATOM      9  C   UNL A   1      33.874  25.502  24.739  1.00  0.00     0.333 C 
ATOM     10  O   UNL A   1      34.082  26.426  25.525  1.00  0.00    -0.244 OA
ATOM     11  N   UNL A   1      34.702  24.407  24.700  1.00  0.00    -0.202 N 
ATOM     12  C   UNL A   1      34.276  23.202  24.875  1.00  0.00     0.319 C 
ATOM     13  H   UNL A   1      35.662  24.548  24.531  1.00  0.00     0.316 HD
ATOM     14  S   UNL A   1      32.555  22.719  25.032  1.00  0.00    -0.029 SA
ATOM     15  N   UNL A   1      35.071  22.045  24.934  1.00  0.00    -0.217 N 
ATOM     16  C   UNL A   1      32.989  21.093  24.384  1.00  0.00     0.120 C 
ATOM     17  C   UNL A   1      34.278  20.826  25.172  1.00  0.00     0.212 C 
ATOM     18  C   UNL A   1      32.067  19.919  24.575  1.00  0.00     0.156 C 
ATOM     19  C   UNL A   1      34.740  19.481  24.670  1.00  0.00     0.188 C 
ATOM     20  S   UNL A   1      33.211  18.537  24.637  1.00  0.00     0.155 S 
ATOM     21  O   UNL A   1      33.147  17.819  23.381  1.00  0.00    -0.229 OA
ATOM     22  O   UNL A   1      33.049  17.883  25.915  1.00  0.00    -0.229 OA
BRANCH  15  23
ATOM     23  C   UNL A   1      36.428  22.066  25.294  1.00  0.00     0.128 A 
ATOM     24  C   UNL A   1      36.973  23.135  26.023  1.00  0.00     0.053 A 
ATOM     25  C   UNL A   1      37.288  21.000  24.974  1.00  0.00     0.053 A 
ATOM     26  C   UNL A   1      38.321  23.148  26.405  1.00  0.00     0.025 A 
ATOM     27  C   UNL A   1      38.636  21.006  25.354  1.00  0.00     0.025 A 
ATOM     28  C   UNL A   1      39.147  22.082  26.067  1.00  0.00     0.041 A 
ATOM     29  Cl  UNL A   1      40.798  22.092  26.549  1.00  0.00    -0.084 Cl
ENDBRANCH  15  23
ENDBRANCH   8   9
ENDBRANCH   7   8
ENDBRANCH   6   7
ENDBRANCH   3   6
ENDBRANCH   1   2
BRANCH   1  30
ATOM     30  C   UNL A   1      31.720  31.042  26.323  1.00  0.00     0.042 C 
BRANCH  30  31
ATOM     31  C   UNL A   1      32.867  31.811  26.974  1.00  0.00     0.118 C 
BRANCH  31  32
ATOM     32  N   UNL A   1      32.524  33.192  27.292  1.00  0.00    -0.352 N 
ATOM     33  C   UNL A   1      33.071  34.047  28.219  1.00  0.00     0.251 C 
ATOM     34  H   UNL A   1      31.787  33.571  26.761  1.00  0.00     0.163 HD
ATOM     35  O   UNL A   1      32.541  35.130  28.441  1.00  0.00    -0.269 OA
BRANCH  33  36
ATOM     36  C   UNL A   1      34.280  33.650  28.968  1.00  0.00     0.039 A 
ATOM     37  C   UNL A   1      34.162  32.718  30.004  1.00  0.00     0.014 A 
ATOM     38  C   UNL A   1      35.528  34.187  28.644  1.00  0.00     0.014 A 
ATOM     39  C   UNL A   1      35.310  32.258  30.655  1.00  0.00     0.010 A 
ATOM     40  C   UNL A   1      36.674  33.671  29.238  1.00  0.00     0.010 A 
ATOM     41  C   UNL A   1      36.579  32.696  30.244  1.00  0.00    -0.014 A 
BRANCH  41  42
ATOM     42  C   UNL A   1      37.828  32.151  30.831  1.00  0.00     0.031 A 
ATOM     43  C   UNL A   1      38.587  31.071  30.112  1.00  0.00     0.074 A 
ATOM     44  C   UNL A   1      38.224  32.551  32.056  1.00  0.00     0.049 A 
ATOM     45  N   UNL A   1      39.608  30.364  30.522  1.00  0.00    -0.248 NA
ATOM     46  C   UNL A   1      38.114  30.722  28.762  1.00  0.00     0.031 C 
ATOM     47  C   UNL A   1      37.569  33.578  32.868  1.00  0.00     0.029 A 
ATOM     48  N   UNL A   1      39.266  32.123  32.840  1.00  0.00    -0.354 N 
ATOM     49  C   UNL A   1      39.887  29.474  29.492  1.00  0.00     0.074 A 
ATOM     50  C   UNL A   1      38.895  29.695  28.462  1.00  0.00     0.031 C 
ATOM     51  C   UNL A   1      38.236  33.715  34.025  1.00  0.00     0.029 A 
ATOM     52  C   UNL A   1      39.329  32.747  34.062  1.00  0.00     0.049 A 
ATOM     53  H   UNL A   1      39.909  31.434  32.553  1.00  0.00     0.167 HD
ATOM     54  C   UNL A   1      40.886  28.564  29.404  1.00  0.00     0.031 A 
ATOM     55  C   UNL A   1      40.158  32.551  35.105  1.00  0.00     0.031 A 
ATOM     56  C   UNL A   1      41.867  28.341  30.431  1.00  0.00     0.049 A 
ATOM     57  C   UNL A   1      41.224  31.496  35.006  1.00  0.00     0.074 A 
ATOM     58  C   UNL A   1      42.942  27.467  30.423  1.00  0.00     0.029 A 
ATOM     59  N   UNL A   1      41.891  28.992  31.655  1.00  0.00    -0.354 N 
ATOM     60  N   UNL A   1      41.504  30.692  34.009  1.00  0.00    -0.248 NA
ATOM     61  C   UNL A   1      42.094  31.324  36.179  1.00  0.00     0.031 C 
ATOM     62  C   UNL A   1      43.578  27.546  31.665  1.00  0.00     0.029 A 
ATOM     63  C   UNL A   1      42.946  28.521  32.420  1.00  0.00     0.049 A 
ATOM     64  H   UNL A   1      41.253  29.685  31.939  1.00  0.00     0.167 HD
ATOM     65  C   UNL A   1      42.606  29.951  34.416  1.00  0.00     0.074 A 
ATOM     66  C   UNL A   1      42.947  30.404  35.749  1.00  0.00     0.031 C 
ATOM     67  C   UNL A   1      43.280  28.987  33.742  1.00  0.00     0.031 A 
BRANCH  54  68
ATOM     68  C   UNL A   1      40.949  27.728  28.154  1.00  0.00    -0.014 A 
ATOM     69  C   UNL A   1      40.286  26.493  28.066  1.00  0.00     0.009 A 
ATOM     70  C   UNL A   1      41.669  28.190  27.040  1.00  0.00     0.009 A 
ATOM     71  C   UNL A   1      40.382  25.718  26.908  1.00  0.00     0.001 A 
ATOM     72  C   UNL A   1      41.733  27.430  25.871  1.00  0.00     0.001 A 
ATOM     73  C   UNL A   1      41.100  26.188  25.811  1.00  0.00     0.000 A 
ENDBRANCH  54  68
BRANCH  55  74
ATOM     74  C   UNL A   1      40.022  33.378  36.333  1.00  0.00    -0.014 A 
ATOM     75  C   UNL A   1      40.687  34.610  36.434  1.00  0.00     0.009 A 
ATOM     76  C   UNL A   1      39.235  32.943  37.412  1.00  0.00     0.009 A 
ATOM     77  C   UNL A   1      40.591  35.374  37.600  1.00  0.00     0.001 A 
ATOM     78  C   UNL A   1      39.116  33.723  38.563  1.00  0.00     0.001 A 
ATOM     79  C   UNL A   1      39.802  34.933  38.661  1.00  0.00     0.000 A 
ENDBRANCH  55  74
BRANCH  67  80
ATOM     80  C   UNL A   1      44.493  28.396  34.405  1.00  0.00    -0.014 A 
ATOM     81  C   UNL A   1      44.410  27.249  35.209  1.00  0.00     0.009 A 
ATOM     82  C   UNL A   1      45.753  28.972  34.173  1.00  0.00     0.009 A 
ATOM     83  C   UNL A   1      45.561  26.709  35.791  1.00  0.00     0.001 A 
ATOM     84  C   UNL A   1      46.904  28.412  34.727  1.00  0.00     0.001 A 
ATOM     85  C   UNL A   1      46.806  27.287  35.543  1.00  0.00     0.000 A 
ENDBRANCH  67  80
ENDBRANCH  41  42
ENDBRANCH  33  36
ENDBRANCH  31  32
ENDBRANCH  30  31
ENDBRANCH   1  30
TORSDOF 14
ENDMDL
