MODEL 1
REMARK VINA RESULT:     -11.0      0.000      0.000
REMARK SMILES CC(=O)N(c1ccccc1)c1nc(/C=C(/C#N)C(=O)NCCCNC(=O)c2ccc(-c3c4nc(c(-c5ccccc5)c5ccc([nH]5)c(-c5ccccc5)c5nc(c(-c6ccccc6)c6ccc3[nH]6)C=C5)C=C4)cc2)cs1
REMARK SMILES IDX 21 1 20 2 18 3 19 4 15 6 14 7 13 8 11 9 12 10 76 11 75 12
REMARK SMILES IDX 4 13 2 14 1 15 3 16 5 17 6 18 10 19 7 20 9 21 8 22 16 23
REMARK SMILES IDX 17 24 22 25 23 26 24 27 25 28 26 30 27 31 28 32 74 33 29 34
REMARK SMILES IDX 73 35 30 36 31 37 32 38 67 39 33 40 72 41 66 42 68 43 34 44
REMARK SMILES IDX 71 45 65 46 64 47 35 49 57 50 42 51 56 52 43 53 46 54 55 55
REMARK SMILES IDX 69 56 44 57 45 58 54 60 70 61 47 62 36 63 37 64 41 65 38 66
REMARK SMILES IDX 40 67 39 68 58 69 59 70 63 71 60 72 62 73 61 74 48 75 49 76
REMARK SMILES IDX 53 77 50 78 52 79 51 80
REMARK H PARENT 20 5 24 29 68 48 46 59
REMARK Flexibility Score: inf
ROOT
ATOM      1  C   UNL A   1      33.229  29.307  24.830  1.00  0.00     0.118 C 
ENDROOT
BRANCH   1   2
ATOM      2  N   UNL A   1      33.650  29.015  23.465  1.00  0.00    -0.351 N 
ATOM      3  C   UNL A   1      33.199  28.113  22.546  1.00  0.00     0.262 C 
ATOM      4  O   UNL A   1      34.016  27.735  21.705  1.00  0.00    -0.268 OA
ATOM      5  H   UNL A   1      34.396  29.573  23.147  1.00  0.00     0.163 HD
BRANCH   3   6
ATOM      6  C   UNL A   1      31.780  27.618  22.536  1.00  0.00     0.119 C 
ATOM      7  C   UNL A   1      31.470  26.331  22.806  1.00  0.00     0.054 C 
BRANCH   7   8
ATOM      8  C   UNL A   1      32.364  25.224  23.051  1.00  0.00     0.078 A 
ATOM      9  C   UNL A   1      33.548  23.915  24.395  1.00  0.00     0.197 A 
ATOM     10  N   UNL A   1      32.661  24.895  24.366  1.00  0.00    -0.220 NA
ATOM     11  S   UNL A   1      34.046  23.324  22.856  1.00  0.00    -0.104 S 
ATOM     12  C   UNL A   1      32.926  24.381  22.115  1.00  0.00     0.097 A 
BRANCH   9  13
ATOM     13  N   UNL A   1      34.002  23.197  25.503  1.00  0.00    -0.256 N 
BRANCH  13  14
ATOM     14  C   UNL A   1      33.015  22.717  26.358  1.00  0.00     0.230 C 
ATOM     15  C   UNL A   1      33.381  22.530  27.814  1.00  0.00     0.115 C 
ATOM     16  O   UNL A   1      31.871  22.414  26.006  1.00  0.00    -0.274 OA
ENDBRANCH  13  14
BRANCH  13  17
ATOM     17  C   UNL A   1      35.399  22.899  25.573  1.00  0.00     0.051 A 
ATOM     18  C   UNL A   1      35.853  21.588  25.349  1.00  0.00     0.027 A 
ATOM     19  C   UNL A   1      36.347  23.888  25.876  1.00  0.00     0.027 A 
ATOM     20  C   UNL A   1      37.216  21.283  25.399  1.00  0.00     0.002 A 
ATOM     21  C   UNL A   1      37.710  23.579  25.937  1.00  0.00     0.002 A 
ATOM     22  C   UNL A   1      38.144  22.279  25.691  1.00  0.00     0.000 A 
ENDBRANCH  13  17
ENDBRANCH   9  13
ENDBRANCH   7   8
BRANCH   6  23
ATOM     23  C   UNL A   1      30.757  28.709  22.268  1.00  0.00     0.105 C 
ATOM     24  N   UNL A   1      29.907  29.614  22.044  1.00  0.00    -0.192 NA
ENDBRANCH   6  23
ENDBRANCH   3   6
ENDBRANCH   1   2
BRANCH   1  25
ATOM     25  C   UNL A   1      33.947  28.367  25.806  1.00  0.00     0.042 C 
BRANCH  25  26
ATOM     26  C   UNL A   1      33.544  28.608  27.262  1.00  0.00     0.118 C 
BRANCH  26  27
ATOM     27  N   UNL A   1      33.572  30.025  27.593  1.00  0.00    -0.352 N 
ATOM     28  C   UNL A   1      34.536  30.748  28.240  1.00  0.00     0.251 C 
ATOM     29  H   UNL A   1      32.781  30.539  27.310  1.00  0.00     0.163 HD
ATOM     30  O   UNL A   1      34.268  31.877  28.657  1.00  0.00    -0.269 OA
BRANCH  28  31
ATOM     31  C   UNL A   1      35.893  30.200  28.432  1.00  0.00     0.039 A 
ATOM     32  C   UNL A   1      36.238  29.684  29.685  1.00  0.00     0.014 A 
ATOM     33  C   UNL A   1      36.845  30.263  27.410  1.00  0.00     0.014 A 
ATOM     34  C   UNL A   1      37.533  29.211  29.908  1.00  0.00     0.010 A 
ATOM     35  C   UNL A   1      38.118  29.738  27.615  1.00  0.00     0.010 A 
ATOM     36  C   UNL A   1      38.479  29.226  28.871  1.00  0.00    -0.014 A 
BRANCH  36  37
ATOM     37  C   UNL A   1      39.864  28.743  29.091  1.00  0.00     0.031 A 
ATOM     38  C   UNL A   1      40.894  29.660  29.692  1.00  0.00     0.074 A 
ATOM     39  C   UNL A   1      40.209  27.502  28.701  1.00  0.00     0.049 A 
ATOM     40  N   UNL A   1      42.169  29.451  29.896  1.00  0.00    -0.248 NA
ATOM     41  C   UNL A   1      40.433  31.000  30.092  1.00  0.00     0.031 C 
ATOM     42  C   UNL A   1      39.309  26.528  28.080  1.00  0.00     0.029 A 
ATOM     43  N   UNL A   1      41.414  26.851  28.763  1.00  0.00    -0.354 N 
ATOM     44  C   UNL A   1      42.666  30.636  30.422  1.00  0.00     0.074 A 
ATOM     45  C   UNL A   1      41.565  31.574  30.469  1.00  0.00     0.031 C 
ATOM     46  C   UNL A   1      39.991  25.396  27.836  1.00  0.00     0.029 A 
ATOM     47  C   UNL A   1      41.378  25.578  28.252  1.00  0.00     0.049 A 
ATOM     48  H   UNL A   1      42.229  27.259  29.138  1.00  0.00     0.167 HD
ATOM     49  C   UNL A   1      43.923  30.917  30.843  1.00  0.00     0.031 A 
ATOM     50  C   UNL A   1      42.355  24.660  28.129  1.00  0.00     0.031 A 
ATOM     51  C   UNL A   1      45.013  29.978  30.816  1.00  0.00     0.049 A 
ATOM     52  C   UNL A   1      43.739  24.991  28.612  1.00  0.00     0.074 A 
ATOM     53  C   UNL A   1      46.310  30.147  31.267  1.00  0.00     0.029 A 
ATOM     54  N   UNL A   1      44.928  28.689  30.311  1.00  0.00    -0.354 N 
ATOM     55  N   UNL A   1      44.181  26.100  29.154  1.00  0.00    -0.248 NA
ATOM     56  C   UNL A   1      44.753  23.937  28.477  1.00  0.00     0.031 C 
ATOM     57  C   UNL A   1      47.021  28.972  31.001  1.00  0.00     0.029 A 
ATOM     58  C   UNL A   1      46.154  28.056  30.427  1.00  0.00     0.049 A 
ATOM     59  H   UNL A   1      44.116  28.285  29.927  1.00  0.00     0.167 HD
ATOM     60  C   UNL A   1      45.517  25.867  29.452  1.00  0.00     0.074 A 
ATOM     61  C   UNL A   1      45.808  24.508  29.043  1.00  0.00     0.031 C 
ATOM     62  C   UNL A   1      46.422  26.703  30.017  1.00  0.00     0.031 A 
BRANCH  49  63
ATOM     63  C   UNL A   1      44.184  32.302  31.364  1.00  0.00    -0.014 A 
ATOM     64  C   UNL A   1      44.592  33.338  30.508  1.00  0.00     0.009 A 
ATOM     65  C   UNL A   1      43.999  32.581  32.727  1.00  0.00     0.009 A 
ATOM     66  C   UNL A   1      44.846  34.615  31.013  1.00  0.00     0.001 A 
ATOM     67  C   UNL A   1      44.227  33.867  33.225  1.00  0.00     0.001 A 
ATOM     68  C   UNL A   1      44.661  34.878  32.369  1.00  0.00     0.000 A 
ENDBRANCH  49  63
BRANCH  50  69
ATOM     69  C   UNL A   1      42.053  23.329  27.544  1.00  0.00    -0.014 A 
ATOM     70  C   UNL A   1      42.342  23.065  26.196  1.00  0.00     0.009 A 
ATOM     71  C   UNL A   1      41.478  22.317  28.327  1.00  0.00     0.009 A 
ATOM     72  C   UNL A   1      42.037  21.822  25.637  1.00  0.00     0.001 A 
ATOM     73  C   UNL A   1      41.199  21.066  27.772  1.00  0.00     0.001 A 
ATOM     74  C   UNL A   1      41.470  20.823  26.426  1.00  0.00     0.000 A 
ENDBRANCH  50  69
BRANCH  62  75
ATOM     75  C   UNL A   1      47.799  26.155  30.260  1.00  0.00    -0.014 A 
ATOM     76  C   UNL A   1      48.245  25.853  31.555  1.00  0.00     0.009 A 
ATOM     77  C   UNL A   1      48.648  25.907  29.169  1.00  0.00     0.009 A 
ATOM     78  C   UNL A   1      49.529  25.344  31.756  1.00  0.00     0.001 A 
ATOM     79  C   UNL A   1      49.921  25.374  29.372  1.00  0.00     0.001 A 
ATOM     80  C   UNL A   1      50.364  25.102  30.665  1.00  0.00     0.000 A 
ENDBRANCH  62  75
ENDBRANCH  36  37
ENDBRANCH  28  31
ENDBRANCH  26  27
ENDBRANCH  25  26
ENDBRANCH   1  25
TORSDOF 15
ENDMDL
MODEL 2
REMARK VINA RESULT:     -10.9      0.389      5.897
REMARK SMILES CC(=O)N(c1ccccc1)c1nc(/C=C(/C#N)C(=O)NCCCNC(=O)c2ccc(-c3c4nc(c(-c5ccccc5)c5ccc([nH]5)c(-c5ccccc5)c5nc(c(-c6ccccc6)c6ccc3[nH]6)C=C5)C=C4)cc2)cs1
REMARK SMILES IDX 21 1 20 2 18 3 19 4 15 6 14 7 13 8 11 9 12 10 76 11 75 12
REMARK SMILES IDX 4 13 2 14 1 15 3 16 5 17 6 18 10 19 7 20 9 21 8 22 16 23
REMARK SMILES IDX 17 24 22 25 23 26 24 27 25 28 26 30 27 31 28 32 74 33 29 34
REMARK SMILES IDX 73 35 30 36 31 37 32 38 67 39 33 40 72 41 66 42 68 43 34 44
REMARK SMILES IDX 71 45 65 46 64 47 35 49 57 50 42 51 56 52 43 53 46 54 55 55
REMARK SMILES IDX 69 56 44 57 45 58 54 60 70 61 47 62 36 63 37 64 41 65 38 66
REMARK SMILES IDX 40 67 39 68 58 69 59 70 63 71 60 72 62 73 61 74 48 75 49 76
REMARK SMILES IDX 53 77 50 78 52 79 51 80
REMARK H PARENT 20 5 24 29 68 48 46 59
REMARK Flexibility Score: inf
ROOT
ATOM      1  C   UNL A   1      33.280  29.262  24.924  1.00  0.00     0.118 C 
ENDROOT
BRANCH   1   2
ATOM      2  N   UNL A   1      33.666  29.038  23.536  1.00  0.00    -0.351 N 
ATOM      3  C   UNL A   1      33.174  28.200  22.578  1.00  0.00     0.262 C 
ATOM      4  O   UNL A   1      33.964  27.851  21.700  1.00  0.00    -0.268 OA
ATOM      5  H   UNL A   1      34.419  29.595  23.234  1.00  0.00     0.163 HD
BRANCH   3   6
ATOM      6  C   UNL A   1      31.743  27.740  22.571  1.00  0.00     0.119 C 
ATOM      7  C   UNL A   1      31.407  26.448  22.781  1.00  0.00     0.054 C 
BRANCH   7   8
ATOM      8  C   UNL A   1      32.277  25.309  22.951  1.00  0.00     0.078 A 
ATOM      9  C   UNL A   1      33.417  23.878  24.204  1.00  0.00     0.197 A 
ATOM     10  N   UNL A   1      32.548  24.873  24.240  1.00  0.00    -0.220 NA
ATOM     11  S   UNL A   1      33.928  23.399  22.630  1.00  0.00    -0.104 S 
ATOM     12  C   UNL A   1      32.839  24.531  21.959  1.00  0.00     0.097 A 
BRANCH   9  13
ATOM     13  N   UNL A   1      33.843  23.067  25.259  1.00  0.00    -0.256 N 
BRANCH  13  14
ATOM     14  C   UNL A   1      32.836  22.408  25.957  1.00  0.00     0.230 C 
ATOM     15  C   UNL A   1      32.403  22.997  27.282  1.00  0.00     0.115 C 
ATOM     16  O   UNL A   1      32.288  21.366  25.582  1.00  0.00    -0.274 OA
ENDBRANCH  13  14
BRANCH  13  17
ATOM     17  C   UNL A   1      35.250  22.875  25.422  1.00  0.00     0.051 A 
ATOM     18  C   UNL A   1      35.809  21.594  25.270  1.00  0.00     0.027 A 
ATOM     19  C   UNL A   1      36.104  23.939  25.748  1.00  0.00     0.027 A 
ATOM     20  C   UNL A   1      37.186  21.392  25.411  1.00  0.00     0.002 A 
ATOM     21  C   UNL A   1      37.479  23.733  25.901  1.00  0.00     0.002 A 
ATOM     22  C   UNL A   1      38.020  22.462  25.725  1.00  0.00     0.000 A 
ENDBRANCH  13  17
ENDBRANCH   9  13
ENDBRANCH   7   8
BRANCH   6  23
ATOM     23  C   UNL A   1      30.742  28.867  22.380  1.00  0.00     0.105 C 
ATOM     24  N   UNL A   1      29.912  29.803  22.221  1.00  0.00    -0.192 NA
ENDBRANCH   6  23
ENDBRANCH   3   6
ENDBRANCH   1   2
BRANCH   1  25
ATOM     25  C   UNL A   1      33.748  28.086  25.789  1.00  0.00     0.042 C 
BRANCH  25  26
ATOM     26  C   UNL A   1      33.617  28.366  27.287  1.00  0.00     0.118 C 
BRANCH  26  27
ATOM     27  N   UNL A   1      33.578  29.795  27.559  1.00  0.00    -0.352 N 
ATOM     28  C   UNL A   1      34.507  30.589  28.172  1.00  0.00     0.251 C 
ATOM     29  H   UNL A   1      32.763  30.259  27.257  1.00  0.00     0.163 HD
ATOM     30  O   UNL A   1      34.188  31.721  28.544  1.00  0.00    -0.269 OA
BRANCH  28  31
ATOM     31  C   UNL A   1      35.889  30.114  28.382  1.00  0.00     0.039 A 
ATOM     32  C   UNL A   1      36.259  29.661  29.652  1.00  0.00     0.014 A 
ATOM     33  C   UNL A   1      36.838  30.186  27.357  1.00  0.00     0.014 A 
ATOM     34  C   UNL A   1      37.575  29.260  29.890  1.00  0.00     0.010 A 
ATOM     35  C   UNL A   1      38.134  29.730  27.579  1.00  0.00     0.010 A 
ATOM     36  C   UNL A   1      38.519  29.282  28.852  1.00  0.00    -0.014 A 
BRANCH  36  37
ATOM     37  C   UNL A   1      39.926  28.875  29.087  1.00  0.00     0.031 A 
ATOM     38  C   UNL A   1      40.392  27.507  28.669  1.00  0.00     0.074 A 
ATOM     39  C   UNL A   1      40.766  29.711  29.724  1.00  0.00     0.049 A 
ATOM     40  N   UNL A   1      41.557  26.939  28.852  1.00  0.00    -0.248 NA
ATOM     41  C   UNL A   1      39.411  26.656  27.977  1.00  0.00     0.031 C 
ATOM     42  C   UNL A   1      40.426  31.051  30.204  1.00  0.00     0.029 A 
ATOM     43  N   UNL A   1      42.079  29.551  30.083  1.00  0.00    -0.354 N 
ATOM     44  C   UNL A   1      41.440  25.660  28.322  1.00  0.00     0.074 A 
ATOM     45  C   UNL A   1      40.080  25.521  27.848  1.00  0.00     0.031 C 
ATOM     46  C   UNL A   1      41.510  31.599  30.778  1.00  0.00     0.029 A 
ATOM     47  C   UNL A   1      42.607  30.637  30.736  1.00  0.00     0.049 A 
ATOM     48  H   UNL A   1      42.596  28.734  29.892  1.00  0.00     0.167 HD
ATOM     49  C   UNL A   1      42.383  24.692  28.226  1.00  0.00     0.031 A 
ATOM     50  C   UNL A   1      43.836  30.835  31.247  1.00  0.00     0.031 A 
ATOM     51  C   UNL A   1      43.740  24.838  28.678  1.00  0.00     0.049 A 
ATOM     52  C   UNL A   1      44.868  29.750  31.118  1.00  0.00     0.074 A 
ATOM     53  C   UNL A   1      44.785  23.937  28.580  1.00  0.00     0.029 A 
ATOM     54  N   UNL A   1      44.240  25.964  29.314  1.00  0.00    -0.354 N 
ATOM     55  N   UNL A   1      44.756  28.565  30.570  1.00  0.00    -0.248 NA
ATOM     56  C   UNL A   1      46.199  30.038  31.669  1.00  0.00     0.031 C 
ATOM     57  C   UNL A   1      45.910  24.504  29.190  1.00  0.00     0.029 A 
ATOM     58  C   UNL A   1      45.576  25.776  29.625  1.00  0.00     0.049 A 
ATOM     59  H   UNL A   1      43.722  26.778  29.514  1.00  0.00     0.167 HD
ATOM     60  C   UNL A   1      46.009  27.977  30.683  1.00  0.00     0.074 A 
ATOM     61  C   UNL A   1      46.868  28.941  31.340  1.00  0.00     0.031 C 
ATOM     62  C   UNL A   1      46.414  26.749  30.277  1.00  0.00     0.031 A 
BRANCH  49  63
ATOM     63  C   UNL A   1      41.970  23.385  27.609  1.00  0.00    -0.014 A 
ATOM     64  C   UNL A   1      41.300  22.405  28.359  1.00  0.00     0.009 A 
ATOM     65  C   UNL A   1      42.236  23.138  26.254  1.00  0.00     0.009 A 
ATOM     66  C   UNL A   1      40.939  21.189  27.775  1.00  0.00     0.001 A 
ATOM     67  C   UNL A   1      41.849  21.932  25.664  1.00  0.00     0.001 A 
ATOM     68  C   UNL A   1      41.211  20.956  26.427  1.00  0.00     0.000 A 
ENDBRANCH  49  63
BRANCH  50  69
ATOM     69  C   UNL A   1      44.168  32.124  31.905  1.00  0.00    -0.014 A 
ATOM     70  C   UNL A   1      43.969  32.287  33.285  1.00  0.00     0.009 A 
ATOM     71  C   UNL A   1      44.685  33.195  31.162  1.00  0.00     0.009 A 
ATOM     72  C   UNL A   1      44.258  33.506  33.902  1.00  0.00     0.001 A 
ATOM     73  C   UNL A   1      44.997  34.405  31.787  1.00  0.00     0.001 A 
ATOM     74  C   UNL A   1      44.775  34.561  33.154  1.00  0.00     0.000 A 
ENDBRANCH  50  69
BRANCH  62  75
ATOM     75  C   UNL A   1      47.857  26.398  30.497  1.00  0.00    -0.014 A 
ATOM     76  C   UNL A   1      48.292  25.819  31.698  1.00  0.00     0.009 A 
ATOM     77  C   UNL A   1      48.788  26.621  29.470  1.00  0.00     0.009 A 
ATOM     78  C   UNL A   1      49.639  25.501  31.879  1.00  0.00     0.001 A 
ATOM     79  C   UNL A   1      50.129  26.278  29.644  1.00  0.00     0.001 A 
ATOM     80  C   UNL A   1      50.555  25.728  30.852  1.00  0.00     0.000 A 
ENDBRANCH  62  75
ENDBRANCH  36  37
ENDBRANCH  28  31
ENDBRANCH  26  27
ENDBRANCH  25  26
ENDBRANCH   1  25
TORSDOF 15
ENDMDL
MODEL 3
REMARK VINA RESULT:     -10.6      3.984      7.096
REMARK SMILES CC(=O)N(c1ccccc1)c1nc(/C=C(/C#N)C(=O)NCCCNC(=O)c2ccc(-c3c4nc(c(-c5ccccc5)c5ccc([nH]5)c(-c5ccccc5)c5nc(c(-c6ccccc6)c6ccc3[nH]6)C=C5)C=C4)cc2)cs1
REMARK SMILES IDX 21 1 20 2 18 3 19 4 15 6 14 7 13 8 11 9 12 10 76 11 75 12
REMARK SMILES IDX 4 13 2 14 1 15 3 16 5 17 6 18 10 19 7 20 9 21 8 22 16 23
REMARK SMILES IDX 17 24 22 25 23 26 24 27 25 28 26 30 27 31 28 32 74 33 29 34
REMARK SMILES IDX 73 35 30 36 31 37 32 38 67 39 33 40 72 41 66 42 68 43 34 44
REMARK SMILES IDX 71 45 65 46 64 47 35 49 57 50 42 51 56 52 43 53 46 54 55 55
REMARK SMILES IDX 69 56 44 57 45 58 54 60 70 61 47 62 36 63 37 64 41 65 38 66
REMARK SMILES IDX 40 67 39 68 58 69 59 70 63 71 60 72 62 73 61 74 48 75 49 76
REMARK SMILES IDX 53 77 50 78 52 79 51 80
REMARK H PARENT 20 5 24 29 68 48 46 59
REMARK Flexibility Score: inf
ROOT
ATOM      1  C   UNL A   1      34.096  35.029  29.445  1.00  0.00     0.118 C 
ENDROOT
BRANCH   1   2
ATOM      2  N   UNL A   1      33.744  34.013  30.429  1.00  0.00    -0.351 N 
ATOM      3  C   UNL A   1      34.018  33.903  31.762  1.00  0.00     0.262 C 
ATOM      4  O   UNL A   1      34.048  32.760  32.220  1.00  0.00    -0.268 OA
ATOM      5  H   UNL A   1      33.210  33.271  30.067  1.00  0.00     0.163 HD
BRANCH   3   6
ATOM      6  C   UNL A   1      34.249  35.103  32.636  1.00  0.00     0.119 C 
ATOM      7  C   UNL A   1      35.435  35.329  33.242  1.00  0.00     0.054 C 
BRANCH   7   8
ATOM      8  C   UNL A   1      36.611  34.491  33.256  1.00  0.00     0.078 A 
ATOM      9  C   UNL A   1      37.910  32.944  34.173  1.00  0.00     0.197 A 
ATOM     10  N   UNL A   1      36.746  33.562  34.277  1.00  0.00    -0.220 NA
ATOM     11  S   UNL A   1      38.883  33.425  32.835  1.00  0.00    -0.104 S 
ATOM     12  C   UNL A   1      37.618  34.449  32.314  1.00  0.00     0.097 A 
BRANCH   9  13
ATOM     13  N   UNL A   1      38.373  31.850  34.906  1.00  0.00    -0.256 N 
BRANCH  13  14
ATOM     14  C   UNL A   1      38.275  31.964  36.289  1.00  0.00     0.230 C 
ATOM     15  C   UNL A   1      39.187  32.957  36.975  1.00  0.00     0.115 C 
ATOM     16  O   UNL A   1      37.511  31.297  36.994  1.00  0.00    -0.274 OA
ENDBRANCH  13  14
BRANCH  13  17
ATOM     17  C   UNL A   1      38.756  30.679  34.180  1.00  0.00     0.051 A 
ATOM     18  C   UNL A   1      37.795  29.953  33.455  1.00  0.00     0.027 A 
ATOM     19  C   UNL A   1      40.080  30.217  34.177  1.00  0.00     0.027 A 
ATOM     20  C   UNL A   1      38.156  28.815  32.726  1.00  0.00     0.002 A 
ATOM     21  C   UNL A   1      40.438  29.071  33.458  1.00  0.00     0.002 A 
ATOM     22  C   UNL A   1      39.478  28.376  32.728  1.00  0.00     0.000 A 
ENDBRANCH  13  17
ENDBRANCH   9  13
ENDBRANCH   7   8
BRANCH   6  23
ATOM     23  C   UNL A   1      33.058  36.045  32.703  1.00  0.00     0.105 C 
ATOM     24  N   UNL A   1      32.070  36.828  32.759  1.00  0.00    -0.192 NA
ENDBRANCH   6  23
ENDBRANCH   3   6
ENDBRANCH   1   2
BRANCH   1  25
ATOM     25  C   UNL A   1      34.298  34.375  28.073  1.00  0.00     0.042 C 
BRANCH  25  26
ATOM     26  C   UNL A   1      35.056  33.049  28.156  1.00  0.00     0.118 C 
BRANCH  26  27
ATOM     27  N   UNL A   1      34.174  31.917  27.915  1.00  0.00    -0.352 N 
ATOM     28  C   UNL A   1      34.485  30.601  27.708  1.00  0.00     0.251 C 
ATOM     29  H   UNL A   1      33.213  32.128  27.899  1.00  0.00     0.163 HD
ATOM     30  O   UNL A   1      33.625  29.837  27.264  1.00  0.00    -0.269 OA
BRANCH  28  31
ATOM     31  C   UNL A   1      35.832  30.083  28.021  1.00  0.00     0.039 A 
ATOM     32  C   UNL A   1      36.084  29.597  29.308  1.00  0.00     0.014 A 
ATOM     33  C   UNL A   1      36.864  30.148  27.079  1.00  0.00     0.014 A 
ATOM     34  C   UNL A   1      37.365  29.155  29.644  1.00  0.00     0.010 A 
ATOM     35  C   UNL A   1      38.125  29.652  27.398  1.00  0.00     0.010 A 
ATOM     36  C   UNL A   1      38.392  29.170  28.688  1.00  0.00    -0.014 A 
BRANCH  36  37
ATOM     37  C   UNL A   1      39.763  28.719  29.029  1.00  0.00     0.031 A 
ATOM     38  C   UNL A   1      40.703  29.649  29.746  1.00  0.00     0.074 A 
ATOM     39  C   UNL A   1      40.179  27.498  28.647  1.00  0.00     0.049 A 
ATOM     40  N   UNL A   1      41.959  29.469  30.067  1.00  0.00    -0.248 NA
ATOM     41  C   UNL A   1      40.168  30.965  30.129  1.00  0.00     0.031 C 
ATOM     42  C   UNL A   1      39.371  26.515  27.922  1.00  0.00     0.029 A 
ATOM     43  N   UNL A   1      41.391  26.878  28.811  1.00  0.00    -0.354 N 
ATOM     44  C   UNL A   1      42.369  30.654  30.664  1.00  0.00     0.074 A 
ATOM     45  C   UNL A   1      41.242  31.560  30.625  1.00  0.00     0.031 C 
ATOM     46  C   UNL A   1      40.105  25.408  27.720  1.00  0.00     0.029 A 
ATOM     47  C   UNL A   1      41.441  25.617  28.271  1.00  0.00     0.049 A 
ATOM     48  H   UNL A   1      42.154  27.298  29.271  1.00  0.00     0.167 HD
ATOM     49  C   UNL A   1      43.572  30.957  31.210  1.00  0.00     0.031 A 
ATOM     50  C   UNL A   1      42.451  24.729  28.222  1.00  0.00     0.031 A 
ATOM     51  C   UNL A   1      44.685  30.049  31.267  1.00  0.00     0.049 A 
ATOM     52  C   UNL A   1      43.772  25.085  28.843  1.00  0.00     0.074 A 
ATOM     53  C   UNL A   1      45.928  30.241  31.844  1.00  0.00     0.029 A 
ATOM     54  N   UNL A   1      44.687  28.771  30.729  1.00  0.00    -0.354 N 
ATOM     55  N   UNL A   1      44.129  26.191  29.449  1.00  0.00    -0.248 NA
ATOM     56  C   UNL A   1      44.825  24.062  28.784  1.00  0.00     0.031 C 
ATOM     57  C   UNL A   1      46.695  29.092  31.622  1.00  0.00     0.029 A 
ATOM     58  C   UNL A   1      45.914  28.169  30.948  1.00  0.00     0.049 A 
ATOM     59  H   UNL A   1      43.927  28.355  30.260  1.00  0.00     0.167 HD
ATOM     60  C   UNL A   1      45.437  25.987  29.869  1.00  0.00     0.074 A 
ATOM     61  C   UNL A   1      45.805  24.647  29.460  1.00  0.00     0.031 C 
ATOM     62  C   UNL A   1      46.259  26.833  30.536  1.00  0.00     0.031 A 
BRANCH  49  63
ATOM     63  C   UNL A   1      43.741  32.336  31.784  1.00  0.00    -0.014 A 
ATOM     64  C   UNL A   1      44.196  33.404  30.993  1.00  0.00     0.009 A 
ATOM     65  C   UNL A   1      43.422  32.576  33.129  1.00  0.00     0.009 A 
ATOM     66  C   UNL A   1      44.365  34.674  31.547  1.00  0.00     0.001 A 
ATOM     67  C   UNL A   1      43.564  33.855  33.674  1.00  0.00     0.001 A 
ATOM     68  C   UNL A   1      44.045  34.899  32.886  1.00  0.00     0.000 A 
ENDBRANCH  49  63
BRANCH  50  69
ATOM     69  C   UNL A   1      42.245  23.405  27.582  1.00  0.00    -0.014 A 
ATOM     70  C   UNL A   1      41.711  22.337  28.320  1.00  0.00     0.009 A 
ATOM     71  C   UNL A   1      42.576  23.202  26.234  1.00  0.00     0.009 A 
ATOM     72  C   UNL A   1      41.538  21.084  27.727  1.00  0.00     0.001 A 
ATOM     73  C   UNL A   1      42.377  21.955  25.637  1.00  0.00     0.001 A 
ATOM     74  C   UNL A   1      41.867  20.897  26.386  1.00  0.00     0.000 A 
ENDBRANCH  50  69
BRANCH  62  75
ATOM     75  C   UNL A   1      47.621  26.317  30.898  1.00  0.00    -0.014 A 
ATOM     76  C   UNL A   1      48.697  26.403  30.000  1.00  0.00     0.009 A 
ATOM     77  C   UNL A   1      47.838  25.766  32.171  1.00  0.00     0.009 A 
ATOM     78  C   UNL A   1      49.954  25.917  30.360  1.00  0.00     0.001 A 
ATOM     79  C   UNL A   1      49.102  25.305  32.537  1.00  0.00     0.001 A 
ATOM     80  C   UNL A   1      50.157  25.371  31.628  1.00  0.00     0.000 A 
ENDBRANCH  62  75
ENDBRANCH  36  37
ENDBRANCH  28  31
ENDBRANCH  26  27
ENDBRANCH  25  26
ENDBRANCH   1  25
TORSDOF 15
ENDMDL
