MODEL 1
REMARK VINA RESULT:     -10.2      0.000      0.000
REMARK SMILES C=CC[NH2+][C@@H](C(=O)NCCCNC(=O)c1ccc(-c2c3nc(c(-c4ccccc4)c4ccc([nH]4)c(-c4ccccc4)c4nc(c(-c5ccccc5)c5ccc2[nH]5)C=C4)C=C3)cc1)c1ccc(CC(C)C)cc1
REMARK SMILES IDX 9 1 8 2 6 3 7 4 5 6 4 7 3 10 2 11 1 12 63 13 64 14 72 15
REMARK SMILES IDX 65 16 71 17 66 18 67 19 68 20 69 21 70 22 10 23 11 24 12 25
REMARK SMILES IDX 13 26 14 28 15 29 16 30 62 31 17 32 61 33 18 34 19 35 20 36
REMARK SMILES IDX 55 37 21 38 60 39 54 40 56 41 22 42 59 43 53 44 52 45 23 47
REMARK SMILES IDX 45 48 30 49 44 50 31 51 34 52 43 53 57 54 32 55 33 56 42 58
REMARK SMILES IDX 58 59 35 60 24 61 25 62 29 63 26 64 28 65 27 66 46 67 47 68
REMARK SMILES IDX 51 69 48 70 50 71 49 72 36 73 37 74 41 75 38 76 40 77 39 78
REMARK H PARENT 8 5 4 8 4 9 12 27 56 46 34 57
REMARK Flexibility Score: inf
ROOT
ATOM      1  C   UNL A   1      33.914  26.633  25.645  1.00  0.00     0.118 C 
ENDROOT
BRANCH   1   2
ATOM      2  N   UNL A   1      34.064  26.386  24.219  1.00  0.00    -0.351 N 
ATOM      3  C   UNL A   1      33.227  25.811  23.305  1.00  0.00     0.283 C 
ATOM      4  O   UNL A   1      33.776  25.375  22.286  1.00  0.00    -0.268 OA
ATOM      5  H   UNL A   1      34.922  26.688  23.844  1.00  0.00     0.163 HD
BRANCH   3   6
ATOM      6  C   UNL A   1      31.678  25.700  23.533  1.00  0.00     0.304 C 
BRANCH   6   7
ATOM      7  N   UNL A   1      31.166  24.538  22.757  1.00  0.00    -0.329 N 
ATOM      8  H   UNL A   1      30.222  24.755  22.436  1.00  0.00     0.347 HD
ATOM      9  H   UNL A   1      31.813  24.386  21.984  1.00  0.00     0.347 HD
BRANCH   7  10
ATOM     10  C   UNL A   1      31.119  23.312  23.518  1.00  0.00     0.289 C 
BRANCH  10  11
ATOM     11  C   UNL A   1      32.088  22.311  22.980  1.00  0.00     0.025 C 
ATOM     12  C   UNL A   1      32.639  21.338  23.718  1.00  0.00     0.010 C 
ENDBRANCH  10  11
ENDBRANCH   7  10
ENDBRANCH   6   7
BRANCH   6  13
ATOM     13  C   UNL A   1      30.920  26.963  23.069  1.00  0.00     0.019 A 
ATOM     14  C   UNL A   1      29.548  27.149  23.294  1.00  0.00     0.011 A 
ATOM     15  C   UNL A   1      31.609  27.992  22.398  1.00  0.00     0.011 A 
ATOM     16  C   UNL A   1      28.923  28.363  22.983  1.00  0.00     0.004 A 
ATOM     17  C   UNL A   1      30.981  29.199  22.070  1.00  0.00     0.004 A 
ATOM     18  C   UNL A   1      29.638  29.411  22.393  1.00  0.00    -0.048 A 
BRANCH  18  19
ATOM     19  C   UNL A   1      28.997  30.760  22.169  1.00  0.00     0.038 C 
BRANCH  19  20
ATOM     20  C   UNL A   1      28.766  31.602  23.438  1.00  0.00    -0.013 C 
ATOM     21  C   UNL A   1      29.075  33.086  23.220  1.00  0.00     0.008 C 
ATOM     22  C   UNL A   1      27.310  31.452  23.889  1.00  0.00     0.008 C 
ENDBRANCH  19  20
ENDBRANCH  18  19
ENDBRANCH   6  13
ENDBRANCH   3   6
ENDBRANCH   1   2
BRANCH   1  23
ATOM     23  C   UNL A   1      33.550  28.101  25.916  1.00  0.00     0.042 C 
BRANCH  23  24
ATOM     24  C   UNL A   1      33.502  28.484  27.393  1.00  0.00     0.118 C 
BRANCH  24  25
ATOM     25  N   UNL A   1      33.502  29.921  27.592  1.00  0.00    -0.352 N 
ATOM     26  C   UNL A   1      34.458  30.755  28.118  1.00  0.00     0.251 C 
ATOM     27  H   UNL A   1      32.679  30.375  27.300  1.00  0.00     0.163 HD
ATOM     28  O   UNL A   1      34.150  31.918  28.372  1.00  0.00    -0.269 OA
BRANCH  26  29
ATOM     29  C   UNL A   1      35.842  30.294  28.409  1.00  0.00     0.039 A 
ATOM     30  C   UNL A   1      36.793  30.370  27.383  1.00  0.00     0.014 A 
ATOM     31  C   UNL A   1      36.203  29.712  29.626  1.00  0.00     0.014 A 
ATOM     32  C   UNL A   1      38.098  29.907  27.591  1.00  0.00     0.010 A 
ATOM     33  C   UNL A   1      37.526  29.326  29.861  1.00  0.00     0.010 A 
ATOM     34  C   UNL A   1      38.487  29.401  28.841  1.00  0.00    -0.014 A 
BRANCH  34  35
ATOM     35  C   UNL A   1      39.871  28.906  29.080  1.00  0.00     0.031 A 
ATOM     36  C   UNL A   1      40.897  29.801  29.727  1.00  0.00     0.074 A 
ATOM     37  C   UNL A   1      40.225  27.664  28.692  1.00  0.00     0.049 A 
ATOM     38  N   UNL A   1      42.167  29.574  29.956  1.00  0.00    -0.248 NA
ATOM     39  C   UNL A   1      40.441  31.132  30.159  1.00  0.00     0.031 C 
ATOM     40  C   UNL A   1      39.344  26.692  28.043  1.00  0.00     0.029 A 
ATOM     41  N   UNL A   1      41.428  27.006  28.789  1.00  0.00    -0.354 N 
ATOM     42  C   UNL A   1      42.662  30.735  30.540  1.00  0.00     0.074 A 
ATOM     43  C   UNL A   1      41.568  31.681  30.589  1.00  0.00     0.031 C 
ATOM     44  C   UNL A   1      40.027  25.555  27.826  1.00  0.00     0.029 A 
ATOM     45  C   UNL A   1      41.403  25.730  28.281  1.00  0.00     0.049 A 
ATOM     46  H   UNL A   1      42.232  27.412  29.186  1.00  0.00     0.167 HD
ATOM     47  C   UNL A   1      43.904  30.989  31.016  1.00  0.00     0.031 A 
ATOM     48  C   UNL A   1      42.377  24.805  28.185  1.00  0.00     0.031 A 
ATOM     49  C   UNL A   1      44.994  30.052  30.993  1.00  0.00     0.049 A 
ATOM     50  C   UNL A   1      43.755  25.123  28.696  1.00  0.00     0.074 A 
ATOM     51  C   UNL A   1      46.281  30.213  31.477  1.00  0.00     0.029 A 
ATOM     52  N   UNL A   1      44.922  28.772  30.467  1.00  0.00    -0.354 N 
ATOM     53  N   UNL A   1      44.193  26.215  29.272  1.00  0.00    -0.248 NA
ATOM     54  C   UNL A   1      44.774  24.072  28.547  1.00  0.00     0.031 C 
ATOM     55  C   UNL A   1      46.999  29.041  31.214  1.00  0.00     0.029 A 
ATOM     56  C   UNL A   1      46.144  28.137  30.607  1.00  0.00     0.049 A 
ATOM     57  H   UNL A   1      44.121  28.374  30.056  1.00  0.00     0.167 HD
ATOM     58  C   UNL A   1      45.524  25.971  29.584  1.00  0.00     0.074 A 
ATOM     59  C   UNL A   1      45.821  24.625  29.145  1.00  0.00     0.031 C 
ATOM     60  C   UNL A   1      46.422  26.791  30.181  1.00  0.00     0.031 A 
BRANCH  47  61
ATOM     61  C   UNL A   1      44.153  32.345  31.614  1.00  0.00    -0.014 A 
ATOM     62  C   UNL A   1      43.965  32.574  32.986  1.00  0.00     0.009 A 
ATOM     63  C   UNL A   1      44.629  33.392  30.809  1.00  0.00     0.009 A 
ATOM     64  C   UNL A   1      44.220  33.832  33.535  1.00  0.00     0.001 A 
ATOM     65  C   UNL A   1      44.909  34.641  31.365  1.00  0.00     0.001 A 
ATOM     66  C   UNL A   1      44.697  34.863  32.725  1.00  0.00     0.000 A 
ENDBRANCH  47  61
BRANCH  48  67
ATOM     67  C   UNL A   1      42.095  23.474  27.585  1.00  0.00    -0.014 A 
ATOM     68  C   UNL A   1      41.552  22.443  28.369  1.00  0.00     0.009 A 
ATOM     69  C   UNL A   1      42.400  23.216  26.240  1.00  0.00     0.009 A 
ATOM     70  C   UNL A   1      41.354  21.171  27.825  1.00  0.00     0.001 A 
ATOM     71  C   UNL A   1      42.173  21.952  25.693  1.00  0.00     0.001 A 
ATOM     72  C   UNL A   1      41.662  20.928  26.489  1.00  0.00     0.000 A 
ENDBRANCH  48  67
BRANCH  60  73
ATOM     73  C   UNL A   1      47.793  26.238  30.442  1.00  0.00    -0.014 A 
ATOM     74  C   UNL A   1      48.149  25.740  31.704  1.00  0.00     0.009 A 
ATOM     75  C   UNL A   1      48.727  26.179  29.396  1.00  0.00     0.009 A 
ATOM     76  C   UNL A   1      49.427  25.220  31.920  1.00  0.00     0.001 A 
ATOM     77  C   UNL A   1      49.995  25.637  29.609  1.00  0.00     0.001 A 
ATOM     78  C   UNL A   1      50.346  25.166  30.873  1.00  0.00     0.000 A 
ENDBRANCH  60  73
ENDBRANCH  34  35
ENDBRANCH  26  29
ENDBRANCH  24  25
ENDBRANCH  23  24
ENDBRANCH   1  23
TORSDOF 16
ENDMDL
MODEL 2
REMARK VINA RESULT:     -10.1      2.702      7.297
REMARK SMILES C=CC[NH2+][C@@H](C(=O)NCCCNC(=O)c1ccc(-c2c3nc(c(-c4ccccc4)c4ccc([nH]4)c(-c4ccccc4)c4nc(c(-c5ccccc5)c5ccc2[nH]5)C=C4)C=C3)cc1)c1ccc(CC(C)C)cc1
REMARK SMILES IDX 9 1 8 2 6 3 7 4 5 6 4 7 3 10 2 11 1 12 63 13 64 14 72 15
REMARK SMILES IDX 65 16 71 17 66 18 67 19 68 20 69 21 70 22 10 23 11 24 12 25
REMARK SMILES IDX 13 26 14 28 15 29 16 30 62 31 17 32 61 33 18 34 19 35 20 36
REMARK SMILES IDX 55 37 21 38 60 39 54 40 56 41 22 42 59 43 53 44 52 45 23 47
REMARK SMILES IDX 45 48 30 49 44 50 31 51 34 52 43 53 57 54 32 55 33 56 42 58
REMARK SMILES IDX 58 59 35 60 24 61 25 62 29 63 26 64 28 65 27 66 46 67 47 68
REMARK SMILES IDX 51 69 48 70 50 71 49 72 36 73 37 74 41 75 38 76 40 77 39 78
REMARK H PARENT 8 5 4 8 4 9 12 27 56 46 34 57
REMARK Flexibility Score: inf
ROOT
ATOM      1  C   UNL A   1      36.585  20.446  24.865  1.00  0.00     0.118 C 
ENDROOT
BRANCH   1   2
ATOM      2  N   UNL A   1      36.890  21.678  24.153  1.00  0.00    -0.351 N 
ATOM      3  C   UNL A   1      36.081  22.620  23.582  1.00  0.00     0.283 C 
ATOM      4  O   UNL A   1      36.616  23.319  22.713  1.00  0.00    -0.268 OA
ATOM      5  H   UNL A   1      37.852  21.868  24.068  1.00  0.00     0.163 HD
BRANCH   3   6
ATOM      6  C   UNL A   1      34.576  22.797  23.989  1.00  0.00     0.304 C 
BRANCH   6   7
ATOM      7  N   UNL A   1      33.722  22.347  22.858  1.00  0.00    -0.329 N 
ATOM      8  H   UNL A   1      33.565  23.141  22.236  1.00  0.00     0.347 HD
ATOM      9  H   UNL A   1      34.216  21.584  22.396  1.00  0.00     0.347 HD
BRANCH   7  10
ATOM     10  C   UNL A   1      32.438  21.831  23.273  1.00  0.00     0.289 C 
BRANCH  10  11
ATOM     11  C   UNL A   1      32.585  20.901  24.432  1.00  0.00     0.025 C 
ATOM     12  C   UNL A   1      32.773  19.580  24.307  1.00  0.00     0.010 C 
ENDBRANCH  10  11
ENDBRANCH   7  10
ENDBRANCH   6   7
BRANCH   6  13
ATOM     13  C   UNL A   1      34.220  24.265  24.310  1.00  0.00     0.019 A 
ATOM     14  C   UNL A   1      33.834  25.184  23.323  1.00  0.00     0.011 A 
ATOM     15  C   UNL A   1      34.268  24.728  25.639  1.00  0.00     0.011 A 
ATOM     16  C   UNL A   1      33.387  26.467  23.666  1.00  0.00     0.004 A 
ATOM     17  C   UNL A   1      33.839  26.016  25.981  1.00  0.00     0.004 A 
ATOM     18  C   UNL A   1      33.359  26.887  25.000  1.00  0.00    -0.048 A 
BRANCH  18  19
ATOM     19  C   UNL A   1      32.765  28.223  25.381  1.00  0.00     0.038 C 
BRANCH  19  20
ATOM     20  C   UNL A   1      32.893  28.603  26.868  1.00  0.00    -0.013 C 
ATOM     21  C   UNL A   1      33.269  30.075  27.067  1.00  0.00     0.008 C 
ATOM     22  C   UNL A   1      31.565  28.323  27.581  1.00  0.00     0.008 C 
ENDBRANCH  19  20
ENDBRANCH  18  19
ENDBRANCH   6  13
ENDBRANCH   3   6
ENDBRANCH   1   2
BRANCH   1  23
ATOM     23  C   UNL A   1      37.820  19.535  24.948  1.00  0.00     0.042 C 
BRANCH  23  24
ATOM     24  C   UNL A   1      38.876  19.982  25.955  1.00  0.00     0.118 C 
BRANCH  24  25
ATOM     25  N   UNL A   1      40.112  19.232  25.830  1.00  0.00    -0.352 N 
ATOM     26  C   UNL A   1      41.419  19.623  25.983  1.00  0.00     0.251 C 
ATOM     27  H   UNL A   1      39.993  18.283  25.597  1.00  0.00     0.163 HD
ATOM     28  O   UNL A   1      42.310  18.854  25.626  1.00  0.00    -0.269 OA
BRANCH  26  29
ATOM     29  C   UNL A   1      41.791  20.949  26.544  1.00  0.00     0.039 A 
ATOM     30  C   UNL A   1      42.069  21.991  25.650  1.00  0.00     0.014 A 
ATOM     31  C   UNL A   1      41.958  21.170  27.913  1.00  0.00     0.014 A 
ATOM     32  C   UNL A   1      42.467  23.247  26.125  1.00  0.00     0.010 A 
ATOM     33  C   UNL A   1      42.275  22.445  28.392  1.00  0.00     0.010 A 
ATOM     34  C   UNL A   1      42.552  23.495  27.503  1.00  0.00    -0.014 A 
BRANCH  34  35
ATOM     35  C   UNL A   1      42.972  24.825  28.026  1.00  0.00     0.031 A 
ATOM     36  C   UNL A   1      41.942  25.889  28.312  1.00  0.00     0.074 A 
ATOM     37  C   UNL A   1      44.278  25.097  28.220  1.00  0.00     0.049 A 
ATOM     38  N   UNL A   1      42.118  27.127  28.706  1.00  0.00    -0.248 NA
ATOM     39  C   UNL A   1      40.532  25.521  28.113  1.00  0.00     0.031 C 
ATOM     40  C   UNL A   1      45.386  24.171  27.976  1.00  0.00     0.029 A 
ATOM     41  N   UNL A   1      44.896  26.240  28.670  1.00  0.00    -0.354 N 
ATOM     42  C   UNL A   1      40.848  27.685  28.784  1.00  0.00     0.074 A 
ATOM     43  C   UNL A   1      39.913  26.668  28.354  1.00  0.00     0.031 C 
ATOM     44  C   UNL A   1      46.542  24.772  28.304  1.00  0.00     0.029 A 
ATOM     45  C   UNL A   1      46.263  26.137  28.742  1.00  0.00     0.049 A 
ATOM     46  H   UNL A   1      44.404  27.055  28.917  1.00  0.00     0.167 HD
ATOM     47  C   UNL A   1      40.483  28.922  29.198  1.00  0.00     0.031 A 
ATOM     48  C   UNL A   1      47.193  27.039  29.112  1.00  0.00     0.031 A 
ATOM     49  C   UNL A   1      41.398  29.935  29.647  1.00  0.00     0.049 A 
ATOM     50  C   UNL A   1      46.763  28.414  29.540  1.00  0.00     0.074 A 
ATOM     51  C   UNL A   1      41.115  31.209  30.111  1.00  0.00     0.029 A 
ATOM     52  N   UNL A   1      42.774  29.786  29.702  1.00  0.00    -0.354 N 
ATOM     53  N   UNL A   1      45.554  28.911  29.637  1.00  0.00    -0.248 NA
ATOM     54  C   UNL A   1      47.830  29.354  29.919  1.00  0.00     0.031 C 
ATOM     55  C   UNL A   1      42.325  31.844  30.415  1.00  0.00     0.029 A 
ATOM     56  C   UNL A   1      43.354  30.948  30.182  1.00  0.00     0.049 A 
ATOM     57  H   UNL A   1      43.265  28.975  29.439  1.00  0.00     0.167 HD
ATOM     58  C   UNL A   1      45.714  30.204  30.117  1.00  0.00     0.074 A 
ATOM     59  C   UNL A   1      47.133  30.413  30.305  1.00  0.00     0.031 C 
ATOM     60  C   UNL A   1      44.766  31.137  30.379  1.00  0.00     0.031 A 
BRANCH  47  61
ATOM     61  C   UNL A   1      39.016  29.250  29.190  1.00  0.00    -0.014 A 
ATOM     62  C   UNL A   1      38.391  29.732  28.029  1.00  0.00     0.009 A 
ATOM     63  C   UNL A   1      38.239  29.027  30.337  1.00  0.00     0.009 A 
ATOM     64  C   UNL A   1      37.023  30.013  28.026  1.00  0.00     0.001 A 
ATOM     65  C   UNL A   1      36.867  29.282  30.324  1.00  0.00     0.001 A 
ATOM     66  C   UNL A   1      36.261  29.782  29.171  1.00  0.00     0.000 A 
ENDBRANCH  47  61
BRANCH  48  67
ATOM     67  C   UNL A   1      48.636  26.679  29.105  1.00  0.00    -0.014 A 
ATOM     68  C   UNL A   1      49.217  26.054  30.220  1.00  0.00     0.009 A 
ATOM     69  C   UNL A   1      49.446  26.992  28.003  1.00  0.00     0.009 A 
ATOM     70  C   UNL A   1      50.587  25.781  30.244  1.00  0.00     0.001 A 
ATOM     71  C   UNL A   1      50.809  26.692  28.019  1.00  0.00     0.001 A 
ATOM     72  C   UNL A   1      51.381  26.098  29.144  1.00  0.00     0.000 A 
ENDBRANCH  48  67
BRANCH  60  73
ATOM     73  C   UNL A   1      45.229  32.448  30.945  1.00  0.00    -0.014 A 
ATOM     74  C   UNL A   1      45.644  33.496  30.109  1.00  0.00     0.009 A 
ATOM     75  C   UNL A   1      45.210  32.650  32.333  1.00  0.00     0.009 A 
ATOM     76  C   UNL A   1      46.061  34.711  30.657  1.00  0.00     0.001 A 
ATOM     77  C   UNL A   1      45.603  33.873  32.877  1.00  0.00     0.001 A 
ATOM     78  C   UNL A   1      46.036  34.900  32.038  1.00  0.00     0.000 A 
ENDBRANCH  60  73
ENDBRANCH  34  35
ENDBRANCH  26  29
ENDBRANCH  24  25
ENDBRANCH  23  24
ENDBRANCH   1  23
TORSDOF 16
ENDMDL
MODEL 3
REMARK VINA RESULT:     -10.0      2.417      7.150
REMARK SMILES C=CC[NH2+][C@@H](C(=O)NCCCNC(=O)c1ccc(-c2c3nc(c(-c4ccccc4)c4ccc([nH]4)c(-c4ccccc4)c4nc(c(-c5ccccc5)c5ccc2[nH]5)C=C4)C=C3)cc1)c1ccc(CC(C)C)cc1
REMARK SMILES IDX 9 1 8 2 6 3 7 4 5 6 4 7 3 10 2 11 1 12 63 13 64 14 72 15
REMARK SMILES IDX 65 16 71 17 66 18 67 19 68 20 69 21 70 22 10 23 11 24 12 25
REMARK SMILES IDX 13 26 14 28 15 29 16 30 62 31 17 32 61 33 18 34 19 35 20 36
REMARK SMILES IDX 55 37 21 38 60 39 54 40 56 41 22 42 59 43 53 44 52 45 23 47
REMARK SMILES IDX 45 48 30 49 44 50 31 51 34 52 43 53 57 54 32 55 33 56 42 58
REMARK SMILES IDX 58 59 35 60 24 61 25 62 29 63 26 64 28 65 27 66 46 67 47 68
REMARK SMILES IDX 51 69 48 70 50 71 49 72 36 73 37 74 41 75 38 76 40 77 39 78
REMARK H PARENT 8 5 4 8 4 9 12 27 56 46 34 57
REMARK Flexibility Score: inf
ROOT
ATOM      1  C   UNL A   1      34.781  24.746  25.578  1.00  0.00     0.118 C 
ENDROOT
BRANCH   1   2
ATOM      2  N   UNL A   1      34.248  25.034  24.255  1.00  0.00    -0.351 N 
ATOM      3  C   UNL A   1      32.985  24.933  23.744  1.00  0.00     0.283 C 
ATOM      4  O   UNL A   1      32.918  24.852  22.511  1.00  0.00    -0.268 OA
ATOM      5  H   UNL A   1      34.918  25.361  23.611  1.00  0.00     0.163 HD
BRANCH   3   6
ATOM      6  C   UNL A   1      31.706  24.910  24.654  1.00  0.00     0.304 C 
BRANCH   6   7
ATOM      7  N   UNL A   1      31.028  23.596  24.487  1.00  0.00    -0.329 N 
ATOM      8  H   UNL A   1      30.027  23.762  24.378  1.00  0.00     0.347 HD
ATOM      9  H   UNL A   1      31.438  23.150  23.667  1.00  0.00     0.347 HD
BRANCH   7  10
ATOM     10  C   UNL A   1      31.225  22.699  25.601  1.00  0.00     0.289 C 
BRANCH  10  11
ATOM     11  C   UNL A   1      32.306  21.712  25.309  1.00  0.00     0.025 C 
ATOM     12  C   UNL A   1      32.354  20.968  24.195  1.00  0.00     0.010 C 
ENDBRANCH  10  11
ENDBRANCH   7  10
ENDBRANCH   6   7
BRANCH   6  13
ATOM     13  C   UNL A   1      30.702  26.024  24.290  1.00  0.00     0.019 A 
ATOM     14  C   UNL A   1      31.100  27.335  23.990  1.00  0.00     0.011 A 
ATOM     15  C   UNL A   1      29.323  25.742  24.241  1.00  0.00     0.011 A 
ATOM     16  C   UNL A   1      30.178  28.284  23.531  1.00  0.00     0.004 A 
ATOM     17  C   UNL A   1      28.397  26.695  23.800  1.00  0.00     0.004 A 
ATOM     18  C   UNL A   1      28.821  27.967  23.405  1.00  0.00    -0.048 A 
BRANCH  18  19
ATOM     19  C   UNL A   1      27.847  28.947  22.797  1.00  0.00     0.038 C 
BRANCH  19  20
ATOM     20  C   UNL A   1      28.395  30.368  22.566  1.00  0.00    -0.013 C 
ATOM     21  C   UNL A   1      28.139  30.871  21.142  1.00  0.00     0.008 C 
ATOM     22  C   UNL A   1      27.745  31.332  23.564  1.00  0.00     0.008 C 
ENDBRANCH  19  20
ENDBRANCH  18  19
ENDBRANCH   6  13
ENDBRANCH   3   6
ENDBRANCH   1   2
BRANCH   1  23
ATOM     23  C   UNL A   1      35.654  23.481  25.559  1.00  0.00     0.042 C 
BRANCH  23  24
ATOM     24  C   UNL A   1      37.000  23.645  24.861  1.00  0.00     0.118 C 
BRANCH  24  25
ATOM     25  N   UNL A   1      37.985  22.687  25.328  1.00  0.00    -0.352 N 
ATOM     26  C   UNL A   1      39.118  22.861  26.086  1.00  0.00     0.251 C 
ATOM     27  H   UNL A   1      37.813  21.757  25.056  1.00  0.00     0.163 HD
ATOM     28  O   UNL A   1      39.909  21.925  26.185  1.00  0.00    -0.269 OA
BRANCH  26  29
ATOM     29  C   UNL A   1      39.426  24.144  26.770  1.00  0.00     0.039 A 
ATOM     30  C   UNL A   1      40.158  25.110  26.067  1.00  0.00     0.014 A 
ATOM     31  C   UNL A   1      39.095  24.386  28.105  1.00  0.00     0.014 A 
ATOM     32  C   UNL A   1      40.514  26.317  26.680  1.00  0.00     0.010 A 
ATOM     33  C   UNL A   1      39.377  25.623  28.692  1.00  0.00     0.010 A 
ATOM     34  C   UNL A   1      40.107  26.598  27.994  1.00  0.00    -0.014 A 
BRANCH  34  35
ATOM     35  C   UNL A   1      40.475  27.877  28.661  1.00  0.00     0.031 A 
ATOM     36  C   UNL A   1      41.862  28.069  29.222  1.00  0.00     0.074 A 
ATOM     37  C   UNL A   1      39.563  28.861  28.796  1.00  0.00     0.049 A 
ATOM     38  N   UNL A   1      42.350  29.082  29.895  1.00  0.00    -0.248 NA
ATOM     39  C   UNL A   1      42.822  26.974  29.013  1.00  0.00     0.031 C 
ATOM     40  C   UNL A   1      38.181  28.812  28.316  1.00  0.00     0.029 A 
ATOM     41  N   UNL A   1      39.666  30.100  29.382  1.00  0.00    -0.354 N 
ATOM     42  C   UNL A   1      43.661  28.739  30.202  1.00  0.00     0.074 A 
ATOM     43  C   UNL A   1      43.880  27.406  29.684  1.00  0.00     0.031 C 
ATOM     44  C   UNL A   1      37.575  29.976  28.601  1.00  0.00     0.029 A 
ATOM     45  C   UNL A   1      38.509  30.838  29.319  1.00  0.00     0.049 A 
ATOM     46  H   UNL A   1      40.491  30.428  29.805  1.00  0.00     0.167 HD
ATOM     47  C   UNL A   1      44.609  29.469  30.837  1.00  0.00     0.031 A 
ATOM     48  C   UNL A   1      38.226  32.067  29.792  1.00  0.00     0.031 A 
ATOM     49  C   UNL A   1      44.412  30.802  31.339  1.00  0.00     0.049 A 
ATOM     50  C   UNL A   1      39.289  32.846  30.518  1.00  0.00     0.074 A 
ATOM     51  C   UNL A   1      45.325  31.629  31.973  1.00  0.00     0.029 A 
ATOM     52  N   UNL A   1      43.223  31.508  31.255  1.00  0.00    -0.354 N 
ATOM     53  N   UNL A   1      40.531  32.514  30.770  1.00  0.00    -0.248 NA
ATOM     54  C   UNL A   1      38.908  34.176  31.019  1.00  0.00     0.031 C 
ATOM     55  C   UNL A   1      44.677  32.825  32.301  1.00  0.00     0.029 A 
ATOM     56  C   UNL A   1      43.376  32.757  31.832  1.00  0.00     0.049 A 
ATOM     57  H   UNL A   1      42.394  31.172  30.844  1.00  0.00     0.167 HD
ATOM     58  C   UNL A   1      41.087  33.604  31.427  1.00  0.00     0.074 A 
ATOM     59  C   UNL A   1      40.053  34.612  31.524  1.00  0.00     0.031 C 
ATOM     60  C   UNL A   1      42.345  33.756  31.908  1.00  0.00     0.031 A 
BRANCH  47  61
ATOM     61  C   UNL A   1      45.961  28.839  31.021  1.00  0.00    -0.014 A 
ATOM     62  C   UNL A   1      46.247  28.062  32.155  1.00  0.00     0.009 A 
ATOM     63  C   UNL A   1      46.943  28.980  30.028  1.00  0.00     0.009 A 
ATOM     64  C   UNL A   1      47.499  27.462  32.304  1.00  0.00     0.001 A 
ATOM     65  C   UNL A   1      48.185  28.358  30.167  1.00  0.00     0.001 A 
ATOM     66  C   UNL A   1      48.465  27.606  31.308  1.00  0.00     0.000 A 
ENDBRANCH  47  61
BRANCH  48  67
ATOM     67  C   UNL A   1      36.876  32.658  29.593  1.00  0.00    -0.014 A 
ATOM     68  C   UNL A   1      35.883  32.507  30.575  1.00  0.00     0.009 A 
ATOM     69  C   UNL A   1      36.561  33.341  28.409  1.00  0.00     0.009 A 
ATOM     70  C   UNL A   1      34.593  32.997  30.358  1.00  0.00     0.001 A 
ATOM     71  C   UNL A   1      35.279  33.855  28.208  1.00  0.00     0.001 A 
ATOM     72  C   UNL A   1      34.293  33.673  29.177  1.00  0.00     0.000 A 
ENDBRANCH  48  67
BRANCH  60  73
ATOM     73  C   UNL A   1      42.687  35.076  32.536  1.00  0.00    -0.014 A 
ATOM     74  C   UNL A   1      42.344  35.361  33.866  1.00  0.00     0.009 A 
ATOM     75  C   UNL A   1      43.400  36.032  31.795  1.00  0.00     0.009 A 
ATOM     76  C   UNL A   1      42.682  36.591  34.432  1.00  0.00     0.001 A 
ATOM     77  C   UNL A   1      43.758  37.251  32.372  1.00  0.00     0.001 A 
ATOM     78  C   UNL A   1      43.391  37.532  33.687  1.00  0.00     0.000 A 
ENDBRANCH  60  73
ENDBRANCH  34  35
ENDBRANCH  26  29
ENDBRANCH  24  25
ENDBRANCH  23  24
ENDBRANCH   1  23
TORSDOF 16
ENDMDL
