MODEL 1
REMARK VINA RESULT:     -12.6      0.000      0.000
REMARK SMILES C[NH+]1CCN(c2nc3c(cc2F)c(=O)c(C(=O)NCCCNC(=O)c2ccc(-c4c5nc(c(-c6ccccc6)c6ccc([nH]6)c(-c6ccccc6)c6nc(c(-c7ccccc7)c7ccc4[nH]7)C=C6)C=C5)cc2)cn3-c2ccc(F)cc2F)CC1
REMARK SMILES IDX 20 1 19 2 18 3 16 4 17 5 15 7 6 8 7 9 11 10 8 11 10 12 12 13
REMARK SMILES IDX 9 14 74 15 13 16 73 17 14 18 5 19 1 20 2 21 3 22 84 23 4 25
REMARK SMILES IDX 83 26 75 27 76 28 81 29 77 30 80 31 82 32 78 33 79 34 21 35
REMARK SMILES IDX 22 36 23 37 24 39 25 40 26 41 72 42 27 43 71 44 28 45 29 46
REMARK SMILES IDX 30 47 65 48 31 49 70 50 64 51 66 52 32 53 69 54 63 55 62 56
REMARK SMILES IDX 33 58 55 59 40 60 54 61 41 62 44 63 53 64 67 65 42 66 43 67
REMARK SMILES IDX 52 69 68 70 45 71 34 72 35 73 39 74 36 75 38 76 37 77 56 78
REMARK SMILES IDX 57 79 61 80 58 81 60 82 59 83 46 84 47 85 51 86 48 87 50 88
REMARK SMILES IDX 49 89
REMARK H PARENT 18 6 2 24 22 38 66 57 44 68
REMARK Flexibility Score: inf
ROOT
ATOM      1  C   UNL A   1      33.962  28.443  24.622  1.00  0.00     0.042 C 
ENDROOT
BRANCH   1   2
ATOM      2  C   UNL A   1      32.941  27.403  24.167  1.00  0.00     0.118 C 
BRANCH   2   3
ATOM      3  N   UNL A   1      33.075  27.119  22.747  1.00  0.00    -0.352 N 
ATOM      4  C   UNL A   1      33.283  25.963  22.063  1.00  0.00     0.256 C 
ATOM      5  O   UNL A   1      33.335  26.057  20.832  1.00  0.00    -0.269 OA
ATOM      6  H   UNL A   1      33.003  27.915  22.173  1.00  0.00     0.163 HD
BRANCH   4   7
ATOM      7  C   UNL A   1      33.363  24.629  22.714  1.00  0.00     0.104 A 
ATOM      8  C   UNL A   1      33.409  19.774  24.205  1.00  0.00     0.167 A 
ATOM      9  N   UNL A   1      34.223  20.835  24.438  1.00  0.00    -0.209 NA
ATOM     10  C   UNL A   1      32.256  19.906  23.424  1.00  0.00     0.166 A 
ATOM     11  C   UNL A   1      33.922  22.045  23.899  1.00  0.00     0.151 A 
ATOM     12  C   UNL A   1      31.895  21.144  22.933  1.00  0.00     0.059 A 
ATOM     13  F   UNL A   1      31.446  18.860  23.199  1.00  0.00    -0.203 F 
ATOM     14  C   UNL A   1      32.736  22.224  23.189  1.00  0.00     0.069 A 
ATOM     15  N   UNL A   1      34.809  23.162  24.048  1.00  0.00    -0.297 N 
ATOM     16  C   UNL A   1      32.333  23.573  22.771  1.00  0.00     0.203 A 
ATOM     17  C   UNL A   1      34.490  24.351  23.395  1.00  0.00     0.111 A 
ATOM     18  O   UNL A   1      31.146  23.760  22.541  1.00  0.00    -0.288 OA
BRANCH   8  19
ATOM     19  N   UNL A   1      33.733  18.583  24.796  1.00  0.00    -0.343 N 
ATOM     20  C   UNL A   1      32.809  14.477  25.305  1.00  0.00     0.332 C 
ATOM     21  N   UNL A   1      33.452  15.784  25.427  1.00  0.00    -0.334 N 
ATOM     22  C   UNL A   1      32.502  16.795  25.951  1.00  0.00     0.283 C 
ATOM     23  C   UNL A   1      33.970  16.228  24.112  1.00  0.00     0.283 C 
ATOM     24  H   UNL A   1      34.228  15.690  26.082  1.00  0.00     0.347 HD
ATOM     25  C   UNL A   1      33.128  18.211  26.070  1.00  0.00     0.179 C 
ATOM     26  C   UNL A   1      34.633  17.619  24.176  1.00  0.00     0.179 C 
ENDBRANCH   8  19
BRANCH  15  27
ATOM     27  C   UNL A   1      36.034  23.069  24.775  1.00  0.00     0.083 A 
ATOM     28  C   UNL A   1      36.962  22.050  24.499  1.00  0.00     0.033 A 
ATOM     29  C   UNL A   1      36.352  23.998  25.784  1.00  0.00     0.150 A 
ATOM     30  C   UNL A   1      38.164  21.973  25.206  1.00  0.00     0.041 A 
ATOM     31  C   UNL A   1      37.539  23.917  26.503  1.00  0.00     0.080 A 
ATOM     32  F   UNL A   1      35.488  24.977  26.089  1.00  0.00    -0.205 F 
ATOM     33  C   UNL A   1      38.437  22.903  26.203  1.00  0.00     0.126 A 
ATOM     34  F   UNL A   1      39.586  22.817  26.885  1.00  0.00    -0.207 F 
ENDBRANCH  15  27
ENDBRANCH   4   7
ENDBRANCH   2   3
ENDBRANCH   1   2
BRANCH   1  35
ATOM     35  C   UNL A   1      34.071  28.555  26.135  1.00  0.00     0.118 C 
BRANCH  35  36
ATOM     36  N   UNL A   1      33.793  29.904  26.603  1.00  0.00    -0.352 N 
ATOM     37  C   UNL A   1      34.457  30.643  27.549  1.00  0.00     0.251 C 
ATOM     38  H   UNL A   1      33.021  30.348  26.182  1.00  0.00     0.163 HD
ATOM     39  O   UNL A   1      33.958  31.675  27.991  1.00  0.00    -0.269 OA
BRANCH  37  40
ATOM     40  C   UNL A   1      35.773  30.191  28.044  1.00  0.00     0.039 A 
ATOM     41  C   UNL A   1      35.867  29.657  29.331  1.00  0.00     0.014 A 
ATOM     42  C   UNL A   1      36.915  30.318  27.247  1.00  0.00     0.014 A 
ATOM     43  C   UNL A   1      37.103  29.209  29.803  1.00  0.00     0.010 A 
ATOM     44  C   UNL A   1      38.131  29.808  27.689  1.00  0.00     0.010 A 
ATOM     45  C   UNL A   1      38.239  29.269  28.979  1.00  0.00    -0.014 A 
BRANCH  45  46
ATOM     46  C   UNL A   1      39.561  28.834  29.483  1.00  0.00     0.031 A 
ATOM     47  C   UNL A   1      40.248  29.636  30.551  1.00  0.00     0.074 A 
ATOM     48  C   UNL A   1      40.146  27.730  28.979  1.00  0.00     0.049 A 
ATOM     49  N   UNL A   1      41.389  29.405  31.147  1.00  0.00    -0.248 NA
ATOM     50  C   UNL A   1      39.573  30.866  31.003  1.00  0.00     0.031 C 
ATOM     51  C   UNL A   1      39.590  26.887  27.919  1.00  0.00     0.029 A 
ATOM     52  N   UNL A   1      41.332  27.123  29.302  1.00  0.00    -0.354 N 
ATOM     53  C   UNL A   1      41.565  30.454  32.038  1.00  0.00     0.074 A 
ATOM     54  C   UNL A   1      40.447  31.354  31.871  1.00  0.00     0.031 C 
ATOM     55  C   UNL A   1      40.416  25.850  27.707  1.00  0.00     0.029 A 
ATOM     56  C   UNL A   1      41.568  25.966  28.599  1.00  0.00     0.049 A 
ATOM     57  H   UNL A   1      41.956  27.481  29.974  1.00  0.00     0.167 HD
ATOM     58  C   UNL A   1      42.552  30.633  32.943  1.00  0.00     0.031 A 
ATOM     59  C   UNL A   1      42.589  25.091  28.673  1.00  0.00     0.031 A 
ATOM     60  C   UNL A   1      43.648  29.726  33.129  1.00  0.00     0.049 A 
ATOM     61  C   UNL A   1      43.691  25.325  29.668  1.00  0.00     0.074 A 
ATOM     62  C   UNL A   1      44.667  29.796  34.061  1.00  0.00     0.029 A 
ATOM     63  N   UNL A   1      43.862  28.585  32.374  1.00  0.00    -0.354 N 
ATOM     64  N   UNL A   1      43.811  26.290  30.547  1.00  0.00    -0.248 NA
ATOM     65  C   UNL A   1      44.794  24.352  29.689  1.00  0.00     0.031 C 
ATOM     66  C   UNL A   1      45.523  28.715  33.844  1.00  0.00     0.029 A 
ATOM     67  C   UNL A   1      45.012  27.953  32.804  1.00  0.00     0.049 A 
ATOM     68  H   UNL A   1      43.282  28.273  31.642  1.00  0.00     0.167 HD
ATOM     69  C   UNL A   1      44.988  26.034  31.235  1.00  0.00     0.074 A 
ATOM     70  C   UNL A   1      45.547  24.820  30.677  1.00  0.00     0.031 C 
ATOM     71  C   UNL A   1      45.550  26.742  32.242  1.00  0.00     0.031 A 
BRANCH  58  72
ATOM     72  C   UNL A   1      42.481  31.842  33.827  1.00  0.00    -0.014 A 
ATOM     73  C   UNL A   1      43.062  33.054  33.425  1.00  0.00     0.009 A 
ATOM     74  C   UNL A   1      41.759  31.793  35.028  1.00  0.00     0.009 A 
ATOM     75  C   UNL A   1      42.931  34.195  34.218  1.00  0.00     0.001 A 
ATOM     76  C   UNL A   1      41.613  32.941  35.809  1.00  0.00     0.001 A 
ATOM     77  C   UNL A   1      42.201  34.139  35.405  1.00  0.00     0.000 A 
ENDBRANCH  58  72
BRANCH  59  78
ATOM     78  C   UNL A   1      42.581  23.886  27.806  1.00  0.00    -0.014 A 
ATOM     79  C   UNL A   1      42.952  23.986  26.456  1.00  0.00     0.009 A 
ATOM     80  C   UNL A   1      42.254  22.626  28.331  1.00  0.00     0.009 A 
ATOM     81  C   UNL A   1      42.993  22.846  25.649  1.00  0.00     0.001 A 
ATOM     82  C   UNL A   1      42.313  21.487  27.525  1.00  0.00     0.001 A 
ATOM     83  C   UNL A   1      42.680  21.597  26.185  1.00  0.00     0.000 A 
ENDBRANCH  59  78
BRANCH  71  84
ATOM     84  C   UNL A   1      46.836  26.249  32.833  1.00  0.00    -0.014 A 
ATOM     85  C   UNL A   1      46.824  25.324  33.887  1.00  0.00     0.009 A 
ATOM     86  C   UNL A   1      48.053  26.568  32.211  1.00  0.00     0.009 A 
ATOM     87  C   UNL A   1      48.010  24.717  34.299  1.00  0.00     0.001 A 
ATOM     88  C   UNL A   1      49.235  25.945  32.615  1.00  0.00     0.001 A 
ATOM     89  C   UNL A   1      49.211  25.017  33.655  1.00  0.00     0.000 A 
ENDBRANCH  71  84
ENDBRANCH  45  46
ENDBRANCH  37  40
ENDBRANCH  35  36
ENDBRANCH   1  35
TORSDOF 12
ENDMDL
MODEL 2
REMARK VINA RESULT:     -12.5      0.856      5.633
REMARK SMILES C[NH+]1CCN(c2nc3c(cc2F)c(=O)c(C(=O)NCCCNC(=O)c2ccc(-c4c5nc(c(-c6ccccc6)c6ccc([nH]6)c(-c6ccccc6)c6nc(c(-c7ccccc7)c7ccc4[nH]7)C=C6)C=C5)cc2)cn3-c2ccc(F)cc2F)CC1
REMARK SMILES IDX 20 1 19 2 18 3 16 4 17 5 15 7 6 8 7 9 11 10 8 11 10 12 12 13
REMARK SMILES IDX 9 14 74 15 13 16 73 17 14 18 5 19 1 20 2 21 3 22 84 23 4 25
REMARK SMILES IDX 83 26 75 27 76 28 81 29 77 30 80 31 82 32 78 33 79 34 21 35
REMARK SMILES IDX 22 36 23 37 24 39 25 40 26 41 72 42 27 43 71 44 28 45 29 46
REMARK SMILES IDX 30 47 65 48 31 49 70 50 64 51 66 52 32 53 69 54 63 55 62 56
REMARK SMILES IDX 33 58 55 59 40 60 54 61 41 62 44 63 53 64 67 65 42 66 43 67
REMARK SMILES IDX 52 69 68 70 45 71 34 72 35 73 39 74 36 75 38 76 37 77 56 78
REMARK SMILES IDX 57 79 61 80 58 81 60 82 59 83 46 84 47 85 51 86 48 87 50 88
REMARK SMILES IDX 49 89
REMARK H PARENT 18 6 2 24 22 38 66 57 44 68
REMARK Flexibility Score: inf
ROOT
ATOM      1  C   UNL A   1      34.190  28.001  24.842  1.00  0.00     0.042 C 
ENDROOT
BRANCH   1   2
ATOM      2  C   UNL A   1      32.915  27.438  24.218  1.00  0.00     0.118 C 
BRANCH   2   3
ATOM      3  N   UNL A   1      33.094  27.176  22.799  1.00  0.00    -0.352 N 
ATOM      4  C   UNL A   1      33.329  26.032  22.104  1.00  0.00     0.256 C 
ATOM      5  O   UNL A   1      33.419  26.144  20.877  1.00  0.00    -0.269 OA
ATOM      6  H   UNL A   1      33.034  27.980  22.235  1.00  0.00     0.163 HD
BRANCH   4   7
ATOM      7  C   UNL A   1      33.398  24.688  22.738  1.00  0.00     0.104 A 
ATOM      8  C   UNL A   1      33.412  19.813  24.161  1.00  0.00     0.167 A 
ATOM      9  N   UNL A   1      34.227  20.868  24.419  1.00  0.00    -0.209 NA
ATOM     10  C   UNL A   1      32.270  19.959  23.369  1.00  0.00     0.166 A 
ATOM     11  C   UNL A   1      33.936  22.086  23.893  1.00  0.00     0.151 A 
ATOM     12  C   UNL A   1      31.918  21.205  22.891  1.00  0.00     0.059 A 
ATOM     13  F   UNL A   1      31.459  18.919  23.120  1.00  0.00    -0.203 F 
ATOM     14  C   UNL A   1      32.759  22.279  23.172  1.00  0.00     0.069 A 
ATOM     15  N   UNL A   1      34.824  23.198  24.068  1.00  0.00    -0.297 N 
ATOM     16  C   UNL A   1      32.364  23.634  22.768  1.00  0.00     0.203 A 
ATOM     17  C   UNL A   1      34.516  24.397  23.428  1.00  0.00     0.111 A 
ATOM     18  O   UNL A   1      31.181  23.829  22.527  1.00  0.00    -0.288 OA
BRANCH   8  19
ATOM     19  N   UNL A   1      33.727  18.613  24.739  1.00  0.00    -0.343 N 
ATOM     20  C   UNL A   1      32.680  14.548  25.329  1.00  0.00     0.332 C 
ATOM     21  N   UNL A   1      33.378  15.829  25.404  1.00  0.00    -0.334 N 
ATOM     22  C   UNL A   1      32.500  16.878  25.977  1.00  0.00     0.283 C 
ATOM     23  C   UNL A   1      33.832  16.248  24.057  1.00  0.00     0.283 C 
ATOM     24  H   UNL A   1      34.188  15.708  26.012  1.00  0.00     0.347 HD
ATOM     25  C   UNL A   1      33.186  18.269  26.049  1.00  0.00     0.179 C 
ATOM     26  C   UNL A   1      34.550  17.613  24.073  1.00  0.00     0.179 C 
ENDBRANCH   8  19
BRANCH  15  27
ATOM     27  C   UNL A   1      36.041  23.092  24.808  1.00  0.00     0.083 A 
ATOM     28  C   UNL A   1      36.954  22.055  24.549  1.00  0.00     0.033 A 
ATOM     29  C   UNL A   1      36.364  24.024  25.812  1.00  0.00     0.150 A 
ATOM     30  C   UNL A   1      38.147  21.964  25.269  1.00  0.00     0.041 A 
ATOM     31  C   UNL A   1      37.543  23.929  26.543  1.00  0.00     0.080 A 
ATOM     32  F   UNL A   1      35.513  25.020  26.100  1.00  0.00    -0.205 F 
ATOM     33  C   UNL A   1      38.426  22.899  26.261  1.00  0.00     0.126 A 
ATOM     34  F   UNL A   1      39.567  22.799  26.955  1.00  0.00    -0.207 F 
ENDBRANCH  15  27
ENDBRANCH   4   7
ENDBRANCH   2   3
ENDBRANCH   1   2
BRANCH   1  35
ATOM     35  C   UNL A   1      34.109  28.134  26.355  1.00  0.00     0.118 C 
BRANCH  35  36
ATOM     36  N   UNL A   1      33.759  29.486  26.764  1.00  0.00    -0.352 N 
ATOM     37  C   UNL A   1      34.421  30.326  27.623  1.00  0.00     0.251 C 
ATOM     38  H   UNL A   1      32.932  29.847  26.370  1.00  0.00     0.163 HD
ATOM     39  O   UNL A   1      33.873  31.344  28.038  1.00  0.00    -0.269 OA
BRANCH  37  40
ATOM     40  C   UNL A   1      35.794  30.001  28.057  1.00  0.00     0.039 A 
ATOM     41  C   UNL A   1      35.998  29.500  29.345  1.00  0.00     0.014 A 
ATOM     42  C   UNL A   1      36.879  30.213  27.201  1.00  0.00     0.014 A 
ATOM     43  C   UNL A   1      37.290  29.171  29.759  1.00  0.00     0.010 A 
ATOM     44  C   UNL A   1      38.156  29.819  27.589  1.00  0.00     0.010 A 
ATOM     45  C   UNL A   1      38.375  29.315  28.878  1.00  0.00    -0.014 A 
BRANCH  45  46
ATOM     46  C   UNL A   1      39.754  29.007  29.321  1.00  0.00     0.031 A 
ATOM     47  C   UNL A   1      40.391  27.710  28.912  1.00  0.00     0.074 A 
ATOM     48  C   UNL A   1      40.426  29.883  30.092  1.00  0.00     0.049 A 
ATOM     49  N   UNL A   1      41.596  27.270  29.168  1.00  0.00    -0.248 NA
ATOM     50  C   UNL A   1      39.566  26.777  28.124  1.00  0.00     0.031 C 
ATOM     51  C   UNL A   1      39.901  31.161  30.576  1.00  0.00     0.029 A 
ATOM     52  N   UNL A   1      41.702  29.835  30.592  1.00  0.00    -0.354 N 
ATOM     53  C   UNL A   1      41.671  26.018  28.573  1.00  0.00     0.074 A 
ATOM     54  C   UNL A   1      40.378  25.739  27.992  1.00  0.00     0.031 C 
ATOM     55  C   UNL A   1      40.861  31.792  31.272  1.00  0.00     0.029 A 
ATOM     56  C   UNL A   1      42.060  30.957  31.299  1.00  0.00     0.049 A 
ATOM     57  H   UNL A   1      42.306  29.068  30.457  1.00  0.00     0.167 HD
ATOM     58  C   UNL A   1      42.735  25.190  28.487  1.00  0.00     0.031 A 
ATOM     59  C   UNL A   1      43.225  31.282  31.892  1.00  0.00     0.031 A 
ATOM     60  C   UNL A   1      44.026  25.478  29.040  1.00  0.00     0.049 A 
ATOM     61  C   UNL A   1      44.386  30.333  31.807  1.00  0.00     0.074 A 
ATOM     62  C   UNL A   1      45.182  24.723  28.954  1.00  0.00     0.029 A 
ATOM     63  N   UNL A   1      44.333  26.612  29.774  1.00  0.00    -0.354 N 
ATOM     64  N   UNL A   1      44.459  29.180  31.188  1.00  0.00    -0.248 NA
ATOM     65  C   UNL A   1      45.626  30.727  32.494  1.00  0.00     0.031 C 
ATOM     66  C   UNL A   1      46.181  25.383  29.672  1.00  0.00     0.029 A 
ATOM     67  C   UNL A   1      45.656  26.566  30.169  1.00  0.00     0.049 A 
ATOM     68  H   UNL A   1      43.703  27.340  29.983  1.00  0.00     0.167 HD
ATOM     69  C   UNL A   1      45.752  28.718  31.394  1.00  0.00     0.074 A 
ATOM     70  C   UNL A   1      46.433  29.716  32.193  1.00  0.00     0.031 C 
ATOM     71  C   UNL A   1      46.320  27.571  30.957  1.00  0.00     0.031 A 
BRANCH  58  72
ATOM     72  C   UNL A   1      42.560  23.901  27.742  1.00  0.00    -0.014 A 
ATOM     73  C   UNL A   1      42.688  23.862  26.345  1.00  0.00     0.009 A 
ATOM     74  C   UNL A   1      42.350  22.705  28.444  1.00  0.00     0.009 A 
ATOM     75  C   UNL A   1      42.596  22.649  25.663  1.00  0.00     0.001 A 
ATOM     76  C   UNL A   1      42.278  21.490  27.760  1.00  0.00     0.001 A 
ATOM     77  C   UNL A   1      42.399  21.463  26.371  1.00  0.00     0.000 A 
ENDBRANCH  58  72
BRANCH  59  78
ATOM     78  C   UNL A   1      43.354  32.594  32.574  1.00  0.00    -0.014 A 
ATOM     79  C   UNL A   1      43.130  32.696  33.956  1.00  0.00     0.009 A 
ATOM     80  C   UNL A   1      43.749  33.737  31.863  1.00  0.00     0.009 A 
ATOM     81  C   UNL A   1      43.298  33.919  34.611  1.00  0.00     0.001 A 
ATOM     82  C   UNL A   1      43.933  34.954  32.524  1.00  0.00     0.001 A 
ATOM     83  C   UNL A   1      43.706  35.044  33.896  1.00  0.00     0.000 A 
ENDBRANCH  59  78
BRANCH  71  84
ATOM     84  C   UNL A   1      47.751  27.301  31.309  1.00  0.00    -0.014 A 
ATOM     85  C   UNL A   1      48.072  26.495  32.410  1.00  0.00     0.009 A 
ATOM     86  C   UNL A   1      48.770  27.702  30.429  1.00  0.00     0.009 A 
ATOM     87  C   UNL A   1      49.388  26.083  32.617  1.00  0.00     0.001 A 
ATOM     88  C   UNL A   1      50.082  27.273  30.630  1.00  0.00     0.001 A 
ATOM     89  C   UNL A   1      50.389  26.460  31.721  1.00  0.00     0.000 A 
ENDBRANCH  71  84
ENDBRANCH  45  46
ENDBRANCH  37  40
ENDBRANCH  35  36
ENDBRANCH   1  35
TORSDOF 12
ENDMDL
MODEL 3
REMARK VINA RESULT:     -12.3      5.459     11.126
REMARK SMILES C[NH+]1CCN(c2nc3c(cc2F)c(=O)c(C(=O)NCCCNC(=O)c2ccc(-c4c5nc(c(-c6ccccc6)c6ccc([nH]6)c(-c6ccccc6)c6nc(c(-c7ccccc7)c7ccc4[nH]7)C=C6)C=C5)cc2)cn3-c2ccc(F)cc2F)CC1
REMARK SMILES IDX 20 1 19 2 18 3 16 4 17 5 15 7 6 8 7 9 11 10 8 11 10 12 12 13
REMARK SMILES IDX 9 14 74 15 13 16 73 17 14 18 5 19 1 20 2 21 3 22 84 23 4 25
REMARK SMILES IDX 83 26 75 27 76 28 81 29 77 30 80 31 82 32 78 33 79 34 21 35
REMARK SMILES IDX 22 36 23 37 24 39 25 40 26 41 72 42 27 43 71 44 28 45 29 46
REMARK SMILES IDX 30 47 65 48 31 49 70 50 64 51 66 52 32 53 69 54 63 55 62 56
REMARK SMILES IDX 33 58 55 59 40 60 54 61 41 62 44 63 53 64 67 65 42 66 43 67
REMARK SMILES IDX 52 69 68 70 45 71 34 72 35 73 39 74 36 75 38 76 37 77 56 78
REMARK SMILES IDX 57 79 61 80 58 81 60 82 59 83 46 84 47 85 51 86 48 87 50 88
REMARK SMILES IDX 49 89
REMARK H PARENT 18 6 2 24 22 38 66 57 44 68
REMARK Flexibility Score: inf
ROOT
ATOM      1  C   UNL A   1      34.729  33.062  29.961  1.00  0.00     0.042 C 
ENDROOT
BRANCH   1   2
ATOM      2  C   UNL A   1      35.820  34.057  30.348  1.00  0.00     0.118 C 
BRANCH   2   3
ATOM      3  N   UNL A   1      35.458  34.796  31.547  1.00  0.00    -0.352 N 
ATOM      4  C   UNL A   1      35.855  34.685  32.843  1.00  0.00     0.256 C 
ATOM      5  O   UNL A   1      35.362  35.491  33.638  1.00  0.00    -0.269 OA
ATOM      6  H   UNL A   1      34.801  35.511  31.391  1.00  0.00     0.163 HD
BRANCH   4   7
ATOM      7  C   UNL A   1      36.885  33.716  33.304  1.00  0.00     0.104 A 
ATOM      8  C   UNL A   1      40.406  30.145  34.100  1.00  0.00     0.167 A 
ATOM      9  N   UNL A   1      40.254  31.423  34.528  1.00  0.00    -0.209 NA
ATOM     10  C   UNL A   1      39.451  29.539  33.277  1.00  0.00     0.166 A 
ATOM     11  C   UNL A   1      39.162  32.135  34.146  1.00  0.00     0.151 A 
ATOM     12  C   UNL A   1      38.298  30.221  32.944  1.00  0.00     0.059 A 
ATOM     13  F   UNL A   1      39.596  28.272  32.860  1.00  0.00    -0.203 F 
ATOM     14  C   UNL A   1      38.153  31.529  33.399  1.00  0.00     0.069 A 
ATOM     15  N   UNL A   1      39.016  33.515  34.504  1.00  0.00    -0.297 N 
ATOM     16  C   UNL A   1      36.897  32.248  33.151  1.00  0.00     0.203 A 
ATOM     17  C   UNL A   1      37.919  34.216  34.006  1.00  0.00     0.111 A 
ATOM     18  O   UNL A   1      35.909  31.580  32.878  1.00  0.00    -0.288 OA
BRANCH   8  19
ATOM     19  N   UNL A   1      41.506  29.456  34.536  1.00  0.00    -0.343 N 
ATOM     20  C   UNL A   1      43.448  25.709  34.940  1.00  0.00     0.332 C 
ATOM     21  N   UNL A   1      43.150  27.137  35.023  1.00  0.00    -0.334 N 
ATOM     22  C   UNL A   1      41.901  27.375  35.786  1.00  0.00     0.283 C 
ATOM     23  C   UNL A   1      43.015  27.714  33.665  1.00  0.00     0.283 C 
ATOM     24  H   UNL A   1      43.924  27.590  35.508  1.00  0.00     0.347 HD
ATOM     25  C   UNL A   1      41.522  28.878  35.875  1.00  0.00     0.179 C 
ATOM     26  C   UNL A   1      42.668  29.217  33.692  1.00  0.00     0.179 C 
ENDBRANCH   8  19
BRANCH  15  27
ATOM     27  C   UNL A   1      39.993  34.207  35.283  1.00  0.00     0.083 A 
ATOM     28  C   UNL A   1      39.895  34.257  36.684  1.00  0.00     0.033 A 
ATOM     29  C   UNL A   1      41.085  34.852  34.672  1.00  0.00     0.150 A 
ATOM     30  C   UNL A   1      40.861  34.926  37.440  1.00  0.00     0.041 A 
ATOM     31  C   UNL A   1      42.041  35.533  35.417  1.00  0.00     0.080 A 
ATOM     32  F   UNL A   1      41.208  34.840  33.336  1.00  0.00    -0.205 F 
ATOM     33  C   UNL A   1      41.920  35.560  36.799  1.00  0.00     0.126 A 
ATOM     34  F   UNL A   1      42.836  36.209  37.528  1.00  0.00    -0.207 F 
ENDBRANCH  15  27
ENDBRANCH   4   7
ENDBRANCH   2   3
ENDBRANCH   1   2
BRANCH   1  35
ATOM     35  C   UNL A   1      34.730  32.716  28.481  1.00  0.00     0.118 C 
BRANCH  35  36
ATOM     36  N   UNL A   1      33.948  31.522  28.200  1.00  0.00    -0.352 N 
ATOM     37  C   UNL A   1      34.381  30.240  27.971  1.00  0.00     0.251 C 
ATOM     38  H   UNL A   1      32.972  31.651  28.169  1.00  0.00     0.163 HD
ATOM     39  O   UNL A   1      33.610  29.396  27.523  1.00  0.00    -0.269 OA
BRANCH  37  40
ATOM     40  C   UNL A   1      35.784  29.877  28.256  1.00  0.00     0.039 A 
ATOM     41  C   UNL A   1      36.742  30.025  27.251  1.00  0.00     0.014 A 
ATOM     42  C   UNL A   1      36.146  29.368  29.507  1.00  0.00     0.014 A 
ATOM     43  C   UNL A   1      38.074  29.703  27.516  1.00  0.00     0.010 A 
ATOM     44  C   UNL A   1      37.484  29.113  29.793  1.00  0.00     0.010 A 
ATOM     45  C   UNL A   1      38.455  29.259  28.793  1.00  0.00    -0.014 A 
BRANCH  45  46
ATOM     46  C   UNL A   1      39.858  28.876  29.072  1.00  0.00     0.031 A 
ATOM     47  C   UNL A   1      40.337  27.499  28.710  1.00  0.00     0.074 A 
ATOM     48  C   UNL A   1      40.694  29.756  29.655  1.00  0.00     0.049 A 
ATOM     49  N   UNL A   1      41.531  26.983  28.841  1.00  0.00    -0.248 NA
ATOM     50  C   UNL A   1      39.343  26.574  28.135  1.00  0.00     0.031 C 
ATOM     51  C   UNL A   1      40.335  31.110  30.079  1.00  0.00     0.029 A 
ATOM     52  N   UNL A   1      42.022  29.644  29.980  1.00  0.00    -0.354 N 
ATOM     53  C   UNL A   1      41.432  25.683  28.367  1.00  0.00     0.074 A 
ATOM     54  C   UNL A   1      40.053  25.464  27.997  1.00  0.00     0.031 C 
ATOM     55  C   UNL A   1      41.427  31.717  30.573  1.00  0.00     0.029 A 
ATOM     56  C   UNL A   1      42.555  30.790  30.519  1.00  0.00     0.049 A 
ATOM     57  H   UNL A   1      42.544  28.821  29.840  1.00  0.00     0.167 HD
ATOM     58  C   UNL A   1      42.411  24.764  28.220  1.00  0.00     0.031 A 
ATOM     59  C   UNL A   1      43.813  31.067  30.914  1.00  0.00     0.031 A 
ATOM     60  C   UNL A   1      43.786  24.990  28.561  1.00  0.00     0.049 A 
ATOM     61  C   UNL A   1      44.880  30.019  30.766  1.00  0.00     0.074 A 
ATOM     62  C   UNL A   1      44.861  24.136  28.394  1.00  0.00     0.029 A 
ATOM     63  N   UNL A   1      44.273  26.153  29.132  1.00  0.00    -0.354 N 
ATOM     64  N   UNL A   1      44.782  28.815  30.258  1.00  0.00    -0.248 NA
ATOM     65  C   UNL A   1      46.231  30.366  31.236  1.00  0.00     0.031 C 
ATOM     66  C   UNL A   1      45.996  24.769  28.901  1.00  0.00     0.029 A 
ATOM     67  C   UNL A   1      45.633  26.031  29.346  1.00  0.00     0.049 A 
ATOM     68  H   UNL A   1      43.733  26.947  29.352  1.00  0.00     0.167 HD
ATOM     69  C   UNL A   1      46.055  28.266  30.331  1.00  0.00     0.074 A 
ATOM     70  C   UNL A   1      46.913  29.269  30.928  1.00  0.00     0.031 C 
ATOM     71  C   UNL A   1      46.472  27.041  29.935  1.00  0.00     0.031 A 
BRANCH  58  72
ATOM     72  C   UNL A   1      42.041  23.434  27.634  1.00  0.00    -0.014 A 
ATOM     73  C   UNL A   1      42.262  23.167  26.274  1.00  0.00     0.009 A 
ATOM     74  C   UNL A   1      41.548  22.415  28.462  1.00  0.00     0.009 A 
ATOM     75  C   UNL A   1      41.982  21.905  25.750  1.00  0.00     0.001 A 
ATOM     76  C   UNL A   1      41.288  21.147  27.938  1.00  0.00     0.001 A 
ATOM     77  C   UNL A   1      41.503  20.894  26.583  1.00  0.00     0.000 A 
ENDBRANCH  58  72
BRANCH  59  78
ATOM     78  C   UNL A   1      44.131  32.418  31.441  1.00  0.00    -0.014 A 
ATOM     79  C   UNL A   1      44.308  33.495  30.559  1.00  0.00     0.009 A 
ATOM     80  C   UNL A   1      44.208  32.649  32.822  1.00  0.00     0.009 A 
ATOM     81  C   UNL A   1      44.559  34.778  31.052  1.00  0.00     0.001 A 
ATOM     82  C   UNL A   1      44.442  33.936  33.313  1.00  0.00     0.001 A 
ATOM     83  C   UNL A   1      44.619  34.998  32.428  1.00  0.00     0.000 A 
ENDBRANCH  59  78
BRANCH  71  84
ATOM     84  C   UNL A   1      47.916  26.684  30.115  1.00  0.00    -0.014 A 
ATOM     85  C   UNL A   1      48.343  26.010  31.267  1.00  0.00     0.009 A 
ATOM     86  C   UNL A   1      48.812  26.859  29.048  1.00  0.00     0.009 A 
ATOM     87  C   UNL A   1      49.640  25.503  31.342  1.00  0.00     0.001 A 
ATOM     88  C   UNL A   1      50.104  26.336  29.120  1.00  0.00     0.001 A 
ATOM     89  C   UNL A   1      50.514  25.654  30.265  1.00  0.00     0.000 A 
ENDBRANCH  71  84
ENDBRANCH  45  46
ENDBRANCH  37  40
ENDBRANCH  35  36
ENDBRANCH   1  35
TORSDOF 12
ENDMDL
