MODEL 1
REMARK VINA RESULT:     -11.9      0.000      0.000
REMARK SMILES O=C(NCCCNC(=O)c1cccc(S(=O)(=O)NC[C@@H]2COc3ccccc3O2)c1)c1ccc(-c2c3nc(c(-c4ccccc4)c4ccc([nH]4)c(-c4ccccc4)c4nc(c(-c5ccccc5)c5ccc2[nH]5)C=C4)C=C3)cc1
REMARK SMILES IDX 6 1 5 2 4 3 3 4 1 5 2 6 31 8 32 9 78 10 33 11 77 12 34 13
REMARK SMILES IDX 35 14 36 15 71 16 37 17 76 18 70 19 72 20 38 21 75 22 69 23
REMARK SMILES IDX 68 24 39 26 61 27 46 28 60 29 47 30 50 31 59 32 73 33 48 34
REMARK SMILES IDX 49 35 58 37 74 38 51 39 40 40 41 41 45 42 42 43 44 44 43 45
REMARK SMILES IDX 62 46 63 47 67 48 64 49 66 50 65 51 52 52 53 53 57 54 54 55
REMARK SMILES IDX 56 56 55 57 7 58 8 59 9 61 10 62 11 63 30 64 12 65 14 66
REMARK SMILES IDX 13 67 15 68 16 69 17 70 18 71 19 73 20 74 21 75 29 76 22 77
REMARK SMILES IDX 28 78 23 79 27 80 24 81 26 82 25 83
REMARK H PARENT 3 7 72 25 50 36 7 60 18 72
REMARK Flexibility Score: inf
ROOT
ATOM      1  C   UNL A   1      31.763  30.562  26.525  1.00  0.00     0.118 C 
ENDROOT
BRANCH   1   2
ATOM      2  C   UNL A   1      31.406  32.023  26.748  1.00  0.00     0.042 C 
BRANCH   2   3
ATOM      3  C   UNL A   1      32.622  32.934  26.841  1.00  0.00     0.118 C 
BRANCH   3   4
ATOM      4  N   UNL A   1      32.390  34.095  27.690  1.00  0.00    -0.352 N 
ATOM      5  O   UNL A   1      32.577  35.437  29.486  1.00  0.00    -0.269 OA
ATOM      6  C   UNL A   1      33.062  34.540  28.804  1.00  0.00     0.251 C 
ATOM      7  H   UNL A   1      31.626  34.655  27.421  1.00  0.00     0.163 HD
BRANCH   6   8
ATOM      8  C   UNL A   1      34.351  33.932  29.203  1.00  0.00     0.039 A 
ATOM      9  C   UNL A   1      34.402  32.921  30.162  1.00  0.00     0.014 A 
ATOM     10  C   UNL A   1      35.530  34.351  28.577  1.00  0.00     0.014 A 
ATOM     11  C   UNL A   1      35.630  32.466  30.625  1.00  0.00     0.010 A 
ATOM     12  C   UNL A   1      36.760  33.805  28.962  1.00  0.00     0.010 A 
ATOM     13  C   UNL A   1      36.824  32.884  30.017  1.00  0.00    -0.014 A 
BRANCH  13  14
ATOM     14  C   UNL A   1      38.104  32.282  30.473  1.00  0.00     0.031 A 
ATOM     15  C   UNL A   1      38.870  32.853  31.633  1.00  0.00     0.074 A 
ATOM     16  C   UNL A   1      38.537  31.160  29.864  1.00  0.00     0.049 A 
ATOM     17  N   UNL A   1      39.959  32.395  32.201  1.00  0.00    -0.248 NA
ATOM     18  C   UNL A   1      38.359  34.095  32.233  1.00  0.00     0.031 C 
ATOM     19  C   UNL A   1      37.887  30.516  28.717  1.00  0.00     0.029 A 
ATOM     20  N   UNL A   1      39.598  30.339  30.145  1.00  0.00    -0.354 N 
ATOM     21  C   UNL A   1      40.270  33.295  33.211  1.00  0.00     0.074 A 
ATOM     22  C   UNL A   1      39.272  34.343  33.163  1.00  0.00     0.031 C 
ATOM     23  C   UNL A   1      38.518  29.367  28.441  1.00  0.00     0.029 A 
ATOM     24  C   UNL A   1      39.654  29.224  29.345  1.00  0.00     0.049 A 
ATOM     25  H   UNL A   1      40.256  30.530  30.852  1.00  0.00     0.167 HD
ATOM     26  C   UNL A   1      41.289  33.250  34.102  1.00  0.00     0.031 A 
ATOM     27  C   UNL A   1      40.523  28.199  29.329  1.00  0.00     0.031 A 
ATOM     28  C   UNL A   1      42.284  32.210  34.151  1.00  0.00     0.049 A 
ATOM     29  C   UNL A   1      41.646  28.182  30.321  1.00  0.00     0.074 A 
ATOM     30  C   UNL A   1      43.354  32.079  35.019  1.00  0.00     0.029 A 
ATOM     31  N   UNL A   1      42.326  31.119  33.297  1.00  0.00    -0.354 N 
ATOM     32  N   UNL A   1      41.915  29.037  31.278  1.00  0.00    -0.248 NA
ATOM     33  C   UNL A   1      42.587  27.056  30.233  1.00  0.00     0.031 C 
ATOM     34  C   UNL A   1      44.066  30.927  34.667  1.00  0.00     0.029 A 
ATOM     35  C   UNL A   1      43.411  30.317  33.609  1.00  0.00     0.049 A 
ATOM     36  H   UNL A   1      41.681  30.941  32.575  1.00  0.00     0.167 HD
ATOM     37  C   UNL A   1      43.052  28.553  31.906  1.00  0.00     0.074 A 
ATOM     38  C   UNL A   1      43.403  27.312  31.245  1.00  0.00     0.031 C 
ATOM     39  C   UNL A   1      43.750  29.092  32.934  1.00  0.00     0.031 A 
BRANCH  26  40
ATOM     40  C   UNL A   1      41.392  34.374  35.096  1.00  0.00    -0.014 A 
ATOM     41  C   UNL A   1      40.768  34.292  36.350  1.00  0.00     0.009 A 
ATOM     42  C   UNL A   1      42.164  35.507  34.793  1.00  0.00     0.009 A 
ATOM     43  C   UNL A   1      40.896  35.333  37.273  1.00  0.00     0.001 A 
ATOM     44  C   UNL A   1      42.309  36.535  35.726  1.00  0.00     0.001 A 
ATOM     45  C   UNL A   1      41.670  36.452  36.962  1.00  0.00     0.000 A 
ENDBRANCH  26  40
BRANCH  27  46
ATOM     46  C   UNL A   1      40.370  27.113  28.327  1.00  0.00    -0.014 A 
ATOM     47  C   UNL A   1      40.980  27.207  27.067  1.00  0.00     0.009 A 
ATOM     48  C   UNL A   1      39.616  25.969  28.636  1.00  0.00     0.009 A 
ATOM     49  C   UNL A   1      40.819  26.185  26.130  1.00  0.00     0.001 A 
ATOM     50  C   UNL A   1      39.483  24.937  27.707  1.00  0.00     0.001 A 
ATOM     51  C   UNL A   1      40.077  25.049  26.452  1.00  0.00     0.000 A 
ENDBRANCH  27  46
BRANCH  39  52
ATOM     52  C   UNL A   1      44.952  28.329  33.407  1.00  0.00    -0.014 A 
ATOM     53  C   UNL A   1      46.224  28.576  32.869  1.00  0.00     0.009 A 
ATOM     54  C   UNL A   1      44.810  27.356  34.408  1.00  0.00     0.009 A 
ATOM     55  C   UNL A   1      47.327  27.837  33.299  1.00  0.00     0.001 A 
ATOM     56  C   UNL A   1      45.919  26.635  34.853  1.00  0.00     0.001 A 
ATOM     57  C   UNL A   1      47.173  26.868  34.290  1.00  0.00     0.000 A 
ENDBRANCH  39  52
ENDBRANCH  13  14
ENDBRANCH   6   8
ENDBRANCH   3   4
ENDBRANCH   2   3
ENDBRANCH   1   2
BRANCH   1  58
ATOM     58  N   UNL A   1      31.307  30.094  25.221  1.00  0.00    -0.352 N 
ATOM     59  C   UNL A   1      31.647  28.986  24.489  1.00  0.00     0.251 C 
ATOM     60  H   UNL A   1      30.638  30.675  24.792  1.00  0.00     0.163 HD
ATOM     61  O   UNL A   1      31.401  28.973  23.286  1.00  0.00    -0.269 OA
BRANCH  59  62
ATOM     62  C   UNL A   1      32.219  27.776  25.123  1.00  0.00     0.041 A 
ATOM     63  C   UNL A   1      33.598  27.551  25.086  1.00  0.00     0.014 A 
ATOM     64  C   UNL A   1      31.384  26.766  25.591  1.00  0.00     0.035 A 
ATOM     65  C   UNL A   1      34.124  26.336  25.541  1.00  0.00     0.002 A 
ATOM     66  C   UNL A   1      31.898  25.542  26.005  1.00  0.00     0.083 A 
ATOM     67  C   UNL A   1      33.274  25.323  25.998  1.00  0.00     0.022 A 
BRANCH  66  68
ATOM     68  S   UNL A   1      30.784  24.253  26.503  1.00  0.00     0.240 S 
ATOM     69  O   UNL A   1      31.432  23.463  27.519  1.00  0.00    -0.207 OA
ATOM     70  O   UNL A   1      29.496  24.881  26.697  1.00  0.00    -0.207 OA
BRANCH  68  71
ATOM     71  N   UNL A   1      30.615  23.311  25.101  1.00  0.00    -0.207 NA
ATOM     72  H   UNL A   1      29.633  23.367  24.830  1.00  0.00     0.141 HD
BRANCH  71  73
ATOM     73  C   UNL A   1      31.411  23.613  23.877  1.00  0.00     0.147 C 
BRANCH  73  74
ATOM     74  C   UNL A   1      32.195  22.437  23.257  1.00  0.00     0.226 C 
ATOM     75  C   UNL A   1      32.352  21.212  24.165  1.00  0.00     0.276 C 
ATOM     76  O   UNL A   1      33.494  22.912  22.843  1.00  0.00    -0.482 OA
ATOM     77  O   UNL A   1      33.088  21.519  25.349  1.00  0.00    -0.486 OA
ATOM     78  C   UNL A   1      34.468  22.773  23.797  1.00  0.00     0.161 A 
ATOM     79  C   UNL A   1      34.275  22.109  25.011  1.00  0.00     0.161 A 
ATOM     80  C   UNL A   1      35.712  23.320  23.500  1.00  0.00     0.050 A 
ATOM     81  C   UNL A   1      35.308  22.017  25.939  1.00  0.00     0.050 A 
ATOM     82  C   UNL A   1      36.757  23.211  24.419  1.00  0.00     0.004 A 
ATOM     83  C   UNL A   1      36.555  22.564  25.639  1.00  0.00     0.004 A 
ENDBRANCH  73  74
ENDBRANCH  71  73
ENDBRANCH  68  71
ENDBRANCH  66  68
ENDBRANCH  59  62
ENDBRANCH   1  58
TORSDOF 14
ENDMDL
MODEL 2
REMARK VINA RESULT:     -11.8      3.467      8.842
REMARK SMILES O=C(NCCCNC(=O)c1cccc(S(=O)(=O)NC[C@@H]2COc3ccccc3O2)c1)c1ccc(-c2c3nc(c(-c4ccccc4)c4ccc([nH]4)c(-c4ccccc4)c4nc(c(-c5ccccc5)c5ccc2[nH]5)C=C4)C=C3)cc1
REMARK SMILES IDX 6 1 5 2 4 3 3 4 1 5 2 6 31 8 32 9 78 10 33 11 77 12 34 13
REMARK SMILES IDX 35 14 36 15 71 16 37 17 76 18 70 19 72 20 38 21 75 22 69 23
REMARK SMILES IDX 68 24 39 26 61 27 46 28 60 29 47 30 50 31 59 32 73 33 48 34
REMARK SMILES IDX 49 35 58 37 74 38 51 39 40 40 41 41 45 42 42 43 44 44 43 45
REMARK SMILES IDX 62 46 63 47 67 48 64 49 66 50 65 51 52 52 53 53 57 54 54 55
REMARK SMILES IDX 56 56 55 57 7 58 8 59 9 61 10 62 11 63 30 64 12 65 14 66
REMARK SMILES IDX 13 67 15 68 16 69 17 70 18 71 19 73 20 74 21 75 29 76 22 77
REMARK SMILES IDX 28 78 23 79 27 80 24 81 26 82 25 83
REMARK H PARENT 3 7 72 25 50 36 7 60 18 72
REMARK Flexibility Score: inf
ROOT
ATOM      1  C   UNL A   1      37.273  20.880  24.932  1.00  0.00     0.118 C 
ENDROOT
BRANCH   1   2
ATOM      2  C   UNL A   1      38.237  19.707  24.987  1.00  0.00     0.042 C 
BRANCH   2   3
ATOM      3  C   UNL A   1      39.180  19.754  26.180  1.00  0.00     0.118 C 
BRANCH   3   4
ATOM      4  N   UNL A   1      40.464  19.121  25.909  1.00  0.00    -0.352 N 
ATOM      5  O   UNL A   1      42.664  18.974  25.467  1.00  0.00    -0.269 OA
ATOM      6  C   UNL A   1      41.737  19.638  25.921  1.00  0.00     0.251 C 
ATOM      7  H   UNL A   1      40.410  18.166  25.680  1.00  0.00     0.163 HD
BRANCH   6   8
ATOM      8  C   UNL A   1      42.000  20.994  26.452  1.00  0.00     0.039 A 
ATOM      9  C   UNL A   1      42.235  22.068  25.594  1.00  0.00     0.014 A 
ATOM     10  C   UNL A   1      41.969  21.208  27.834  1.00  0.00     0.014 A 
ATOM     11  C   UNL A   1      42.621  23.298  26.111  1.00  0.00     0.010 A 
ATOM     12  C   UNL A   1      42.241  22.479  28.353  1.00  0.00     0.010 A 
ATOM     13  C   UNL A   1      42.607  23.527  27.496  1.00  0.00    -0.014 A 
BRANCH  13  14
ATOM     14  C   UNL A   1      42.917  24.892  27.995  1.00  0.00     0.031 A 
ATOM     15  C   UNL A   1      41.834  25.908  28.226  1.00  0.00     0.074 A 
ATOM     16  C   UNL A   1      44.195  25.186  28.306  1.00  0.00     0.049 A 
ATOM     17  N   UNL A   1      41.934  27.112  28.734  1.00  0.00    -0.248 NA
ATOM     18  C   UNL A   1      40.465  25.534  27.837  1.00  0.00     0.031 C 
ATOM     19  C   UNL A   1      45.339  24.288  28.115  1.00  0.00     0.029 A 
ATOM     20  N   UNL A   1      44.744  26.301  28.885  1.00  0.00    -0.354 N 
ATOM     21  C   UNL A   1      40.651  27.643  28.713  1.00  0.00     0.074 A 
ATOM     22  C   UNL A   1      39.791  26.642  28.117  1.00  0.00     0.031 C 
ATOM     23  C   UNL A   1      46.436  24.856  28.633  1.00  0.00     0.029 A 
ATOM     24  C   UNL A   1      46.090  26.181  29.132  1.00  0.00     0.049 A 
ATOM     25  H   UNL A   1      44.225  27.107  29.103  1.00  0.00     0.167 HD
ATOM     26  C   UNL A   1      40.226  28.851  29.156  1.00  0.00     0.031 A 
ATOM     27  C   UNL A   1      46.959  27.041  29.693  1.00  0.00     0.031 A 
ATOM     28  C   UNL A   1      41.080  29.848  29.747  1.00  0.00     0.049 A 
ATOM     29  C   UNL A   1      46.461  28.373  30.165  1.00  0.00     0.074 A 
ATOM     30  C   UNL A   1      40.739  31.101  30.226  1.00  0.00     0.029 A 
ATOM     31  N   UNL A   1      42.444  29.702  29.944  1.00  0.00    -0.354 N 
ATOM     32  N   UNL A   1      45.240  28.851  30.148  1.00  0.00    -0.248 NA
ATOM     33  C   UNL A   1      47.461  29.287  30.734  1.00  0.00     0.031 C 
ATOM     34  C   UNL A   1      41.905  31.729  30.681  1.00  0.00     0.029 A 
ATOM     35  C   UNL A   1      42.962  30.847  30.526  1.00  0.00     0.049 A 
ATOM     36  H   UNL A   1      42.967  28.903  29.705  1.00  0.00     0.167 HD
ATOM     37  C   UNL A   1      45.324  30.117  30.706  1.00  0.00     0.074 A 
ATOM     38  C   UNL A   1      46.708  30.321  31.082  1.00  0.00     0.031 C 
ATOM     39  C   UNL A   1      44.343  31.035  30.883  1.00  0.00     0.031 A 
BRANCH  26  40
ATOM     40  C   UNL A   1      38.765  29.171  29.003  1.00  0.00    -0.014 A 
ATOM     41  C   UNL A   1      37.875  29.024  30.077  1.00  0.00     0.009 A 
ATOM     42  C   UNL A   1      38.283  29.674  27.784  1.00  0.00     0.009 A 
ATOM     43  C   UNL A   1      36.524  29.351  29.927  1.00  0.00     0.001 A 
ATOM     44  C   UNL A   1      36.939  30.022  27.643  1.00  0.00     0.001 A 
ATOM     45  C   UNL A   1      36.059  29.855  28.712  1.00  0.00     0.000 A 
ENDBRANCH  26  40
BRANCH  27  46
ATOM     46  C   UNL A   1      48.391  26.669  29.822  1.00  0.00    -0.014 A 
ATOM     47  C   UNL A   1      49.313  27.000  28.819  1.00  0.00     0.009 A 
ATOM     48  C   UNL A   1      48.842  25.986  30.964  1.00  0.00     0.009 A 
ATOM     49  C   UNL A   1      50.654  26.635  28.947  1.00  0.00     0.001 A 
ATOM     50  C   UNL A   1      50.189  25.650  31.101  1.00  0.00     0.001 A 
ATOM     51  C   UNL A   1      51.092  25.966  30.089  1.00  0.00     0.000 A 
ENDBRANCH  27  46
BRANCH  39  52
ATOM     52  C   UNL A   1      44.742  32.332  31.524  1.00  0.00    -0.014 A 
ATOM     53  C   UNL A   1      44.712  32.488  32.918  1.00  0.00     0.009 A 
ATOM     54  C   UNL A   1      45.159  33.406  30.725  1.00  0.00     0.009 A 
ATOM     55  C   UNL A   1      45.057  33.710  33.498  1.00  0.00     0.001 A 
ATOM     56  C   UNL A   1      45.528  34.619  31.309  1.00  0.00     0.001 A 
ATOM     57  C   UNL A   1      45.466  34.773  32.692  1.00  0.00     0.000 A 
ENDBRANCH  39  52
ENDBRANCH  13  14
ENDBRANCH   6   8
ENDBRANCH   3   4
ENDBRANCH   2   3
ENDBRANCH   1   2
BRANCH   1  58
ATOM     58  N   UNL A   1      35.885  20.433  24.977  1.00  0.00    -0.352 N 
ATOM     59  C   UNL A   1      34.717  21.127  25.164  1.00  0.00     0.251 C 
ATOM     60  H   UNL A   1      35.766  19.464  24.851  1.00  0.00     0.163 HD
ATOM     61  O   UNL A   1      33.710  20.512  25.505  1.00  0.00    -0.269 OA
BRANCH  59  62
ATOM     62  C   UNL A   1      34.617  22.578  24.881  1.00  0.00     0.041 A 
ATOM     63  C   UNL A   1      34.813  23.507  25.906  1.00  0.00     0.014 A 
ATOM     64  C   UNL A   1      34.143  23.022  23.650  1.00  0.00     0.035 A 
ATOM     65  C   UNL A   1      34.562  24.865  25.680  1.00  0.00     0.002 A 
ATOM     66  C   UNL A   1      33.854  24.365  23.433  1.00  0.00     0.083 A 
ATOM     67  C   UNL A   1      34.075  25.300  24.442  1.00  0.00     0.022 A 
BRANCH  66  68
ATOM     68  S   UNL A   1      33.162  24.867  21.877  1.00  0.00     0.240 S 
ATOM     69  O   UNL A   1      33.653  26.187  21.569  1.00  0.00    -0.207 OA
ATOM     70  O   UNL A   1      33.315  23.742  20.982  1.00  0.00    -0.207 OA
BRANCH  68  71
ATOM     71  N   UNL A   1      31.497  24.961  22.195  1.00  0.00    -0.207 NA
ATOM     72  H   UNL A   1      31.052  24.243  21.624  1.00  0.00     0.141 HD
BRANCH  71  73
ATOM     73  C   UNL A   1      30.973  24.790  23.579  1.00  0.00     0.147 C 
BRANCH  73  74
ATOM     74  C   UNL A   1      30.044  25.904  24.108  1.00  0.00     0.226 C 
ATOM     75  C   UNL A   1      30.077  27.211  23.307  1.00  0.00     0.276 C 
ATOM     76  O   UNL A   1      30.372  26.166  25.489  1.00  0.00    -0.482 OA
ATOM     77  O   UNL A   1      31.371  27.813  23.328  1.00  0.00    -0.486 OA
ATOM     78  C   UNL A   1      31.300  27.158  25.663  1.00  0.00     0.161 A 
ATOM     79  C   UNL A   1      31.792  27.951  24.622  1.00  0.00     0.161 A 
ATOM     80  C   UNL A   1      31.744  27.375  26.963  1.00  0.00     0.050 A 
ATOM     81  C   UNL A   1      32.745  28.934  24.871  1.00  0.00     0.050 A 
ATOM     82  C   UNL A   1      32.683  28.375  27.221  1.00  0.00     0.004 A 
ATOM     83  C   UNL A   1      33.186  29.151  26.176  1.00  0.00     0.004 A 
ENDBRANCH  73  74
ENDBRANCH  71  73
ENDBRANCH  68  71
ENDBRANCH  66  68
ENDBRANCH  59  62
ENDBRANCH   1  58
TORSDOF 14
ENDMDL
MODEL 3
REMARK VINA RESULT:     -11.7      3.737      9.088
REMARK SMILES O=C(NCCCNC(=O)c1cccc(S(=O)(=O)NC[C@@H]2COc3ccccc3O2)c1)c1ccc(-c2c3nc(c(-c4ccccc4)c4ccc([nH]4)c(-c4ccccc4)c4nc(c(-c5ccccc5)c5ccc2[nH]5)C=C4)C=C3)cc1
REMARK SMILES IDX 6 1 5 2 4 3 3 4 1 5 2 6 31 8 32 9 78 10 33 11 77 12 34 13
REMARK SMILES IDX 35 14 36 15 71 16 37 17 76 18 70 19 72 20 38 21 75 22 69 23
REMARK SMILES IDX 68 24 39 26 61 27 46 28 60 29 47 30 50 31 59 32 73 33 48 34
REMARK SMILES IDX 49 35 58 37 74 38 51 39 40 40 41 41 45 42 42 43 44 44 43 45
REMARK SMILES IDX 62 46 63 47 67 48 64 49 66 50 65 51 52 52 53 53 57 54 54 55
REMARK SMILES IDX 56 56 55 57 7 58 8 59 9 61 10 62 11 63 30 64 12 65 14 66
REMARK SMILES IDX 13 67 15 68 16 69 17 70 18 71 19 73 20 74 21 75 29 76 22 77
REMARK SMILES IDX 28 78 23 79 27 80 24 81 26 82 25 83
REMARK H PARENT 3 7 72 25 50 36 7 60 18 72
REMARK Flexibility Score: inf
ROOT
ATOM      1  C   UNL A   1      36.592  20.482  24.598  1.00  0.00     0.118 C 
ENDROOT
BRANCH   1   2
ATOM      2  C   UNL A   1      37.739  19.507  24.814  1.00  0.00     0.042 C 
BRANCH   2   3
ATOM      3  C   UNL A   1      38.776  20.008  25.809  1.00  0.00     0.118 C 
BRANCH   3   4
ATOM      4  N   UNL A   1      40.003  19.222  25.784  1.00  0.00    -0.352 N 
ATOM      5  O   UNL A   1      42.214  18.808  25.753  1.00  0.00    -0.269 OA
ATOM      6  C   UNL A   1      41.306  19.589  26.023  1.00  0.00     0.251 C 
ATOM      7  H   UNL A   1      39.878  18.272  25.560  1.00  0.00     0.163 HD
BRANCH   6   8
ATOM      8  C   UNL A   1      41.629  20.923  26.576  1.00  0.00     0.039 A 
ATOM      9  C   UNL A   1      41.845  22.015  25.737  1.00  0.00     0.014 A 
ATOM     10  C   UNL A   1      41.676  21.096  27.964  1.00  0.00     0.014 A 
ATOM     11  C   UNL A   1      42.286  23.221  26.268  1.00  0.00     0.010 A 
ATOM     12  C   UNL A   1      42.006  22.345  28.503  1.00  0.00     0.010 A 
ATOM     13  C   UNL A   1      42.351  23.409  27.657  1.00  0.00    -0.014 A 
BRANCH  13  14
ATOM     14  C   UNL A   1      42.719  24.752  28.177  1.00  0.00     0.031 A 
ATOM     15  C   UNL A   1      44.155  25.156  28.360  1.00  0.00     0.074 A 
ATOM     16  C   UNL A   1      41.732  25.637  28.421  1.00  0.00     0.049 A 
ATOM     17  N   UNL A   1      44.640  26.317  28.726  1.00  0.00    -0.248 NA
ATOM     18  C   UNL A   1      45.181  24.133  28.105  1.00  0.00     0.031 C 
ATOM     19  C   UNL A   1      40.298  25.360  28.293  1.00  0.00     0.029 A 
ATOM     20  N   UNL A   1      41.782  26.958  28.785  1.00  0.00    -0.354 N 
ATOM     21  C   UNL A   1      46.019  26.162  28.760  1.00  0.00     0.074 A 
ATOM     22  C   UNL A   1      46.297  24.786  28.404  1.00  0.00     0.031 C 
ATOM     23  C   UNL A   1      39.610  26.491  28.502  1.00  0.00     0.029 A 
ATOM     24  C   UNL A   1      40.546  27.556  28.843  1.00  0.00     0.049 A 
ATOM     25  H   UNL A   1      42.621  27.432  28.985  1.00  0.00     0.167 HD
ATOM     26  C   UNL A   1      46.969  27.082  29.054  1.00  0.00     0.031 A 
ATOM     27  C   UNL A   1      40.196  28.819  29.142  1.00  0.00     0.031 A 
ATOM     28  C   UNL A   1      46.695  28.450  29.409  1.00  0.00     0.049 A 
ATOM     29  C   UNL A   1      41.269  29.812  29.472  1.00  0.00     0.074 A 
ATOM     30  C   UNL A   1      47.593  29.457  29.722  1.00  0.00     0.029 A 
ATOM     31  N   UNL A   1      45.428  29.005  29.494  1.00  0.00    -0.354 N 
ATOM     32  N   UNL A   1      42.570  29.648  29.485  1.00  0.00    -0.248 NA
ATOM     33  C   UNL A   1      40.826  31.167  29.828  1.00  0.00     0.031 C 
ATOM     34  C   UNL A   1      46.866  30.612  30.033  1.00  0.00     0.029 A 
ATOM     35  C   UNL A   1      45.518  30.336  29.867  1.00  0.00     0.049 A 
ATOM     36  H   UNL A   1      44.587  28.524  29.316  1.00  0.00     0.167 HD
ATOM     37  C   UNL A   1      43.100  30.877  29.847  1.00  0.00     0.074 A 
ATOM     38  C   UNL A   1      41.984  31.786  30.011  1.00  0.00     0.031 C 
ATOM     39  C   UNL A   1      44.397  31.221  30.036  1.00  0.00     0.031 A 
BRANCH  26  40
ATOM     40  C   UNL A   1      48.404  26.634  29.018  1.00  0.00    -0.014 A 
ATOM     41  C   UNL A   1      49.009  26.054  30.144  1.00  0.00     0.009 A 
ATOM     42  C   UNL A   1      49.143  26.746  27.830  1.00  0.00     0.009 A 
ATOM     43  C   UNL A   1      50.336  25.618  30.087  1.00  0.00     0.001 A 
ATOM     44  C   UNL A   1      50.460  26.289  27.769  1.00  0.00     0.001 A 
ATOM     45  C   UNL A   1      51.058  25.731  28.899  1.00  0.00     0.000 A 
ENDBRANCH  26  40
BRANCH  27  46
ATOM     46  C   UNL A   1      38.763  29.207  29.157  1.00  0.00    -0.014 A 
ATOM     47  C   UNL A   1      38.138  29.691  27.999  1.00  0.00     0.009 A 
ATOM     48  C   UNL A   1      38.010  29.082  30.336  1.00  0.00     0.009 A 
ATOM     49  C   UNL A   1      36.792  30.062  28.028  1.00  0.00     0.001 A 
ATOM     50  C   UNL A   1      36.658  29.426  30.353  1.00  0.00     0.001 A 
ATOM     51  C   UNL A   1      36.053  29.924  29.202  1.00  0.00     0.000 A 
ENDBRANCH  27  46
BRANCH  39  52
ATOM     52  C   UNL A   1      44.666  32.644  30.427  1.00  0.00    -0.014 A 
ATOM     53  C   UNL A   1      44.732  33.023  31.776  1.00  0.00     0.009 A 
ATOM     54  C   UNL A   1      44.865  33.615  29.434  1.00  0.00     0.009 A 
ATOM     55  C   UNL A   1      44.954  34.356  32.124  1.00  0.00     0.001 A 
ATOM     56  C   UNL A   1      45.112  34.943  29.785  1.00  0.00     0.001 A 
ATOM     57  C   UNL A   1      45.145  35.314  31.128  1.00  0.00     0.000 A 
ENDBRANCH  39  52
ENDBRANCH  13  14
ENDBRANCH   6   8
ENDBRANCH   3   4
ENDBRANCH   2   3
ENDBRANCH   1   2
BRANCH   1  58
ATOM     58  N   UNL A   1      35.699  20.519  25.750  1.00  0.00    -0.352 N 
ATOM     59  C   UNL A   1      34.457  21.078  25.914  1.00  0.00     0.251 C 
ATOM     60  H   UNL A   1      36.047  20.062  26.549  1.00  0.00     0.163 HD
ATOM     61  O   UNL A   1      34.046  21.284  27.053  1.00  0.00    -0.269 OA
BRANCH  59  62
ATOM     62  C   UNL A   1      33.568  21.358  24.762  1.00  0.00     0.041 A 
ATOM     63  C   UNL A   1      32.864  20.316  24.152  1.00  0.00     0.014 A 
ATOM     64  C   UNL A   1      33.571  22.613  24.161  1.00  0.00     0.035 A 
ATOM     65  C   UNL A   1      32.153  20.548  22.969  1.00  0.00     0.002 A 
ATOM     66  C   UNL A   1      32.899  22.838  22.965  1.00  0.00     0.083 A 
ATOM     67  C   UNL A   1      32.171  21.811  22.367  1.00  0.00     0.022 A 
BRANCH  66  68
ATOM     68  S   UNL A   1      33.012  24.431  22.190  1.00  0.00     0.240 S 
ATOM     69  O   UNL A   1      33.845  25.275  23.009  1.00  0.00    -0.207 OA
ATOM     70  O   UNL A   1      33.277  24.185  20.790  1.00  0.00    -0.207 OA
BRANCH  68  71
ATOM     71  N   UNL A   1      31.418  25.014  22.246  1.00  0.00    -0.207 NA
ATOM     72  H   UNL A   1      30.882  24.457  21.579  1.00  0.00     0.141 HD
BRANCH  71  73
ATOM     73  C   UNL A   1      30.647  25.008  23.521  1.00  0.00     0.147 C 
BRANCH  73  74
ATOM     74  C   UNL A   1      29.985  26.342  23.933  1.00  0.00     0.226 C 
ATOM     75  C   UNL A   1      30.388  27.554  23.086  1.00  0.00     0.276 C 
ATOM     76  O   UNL A   1      30.277  26.594  25.324  1.00  0.00    -0.482 OA
ATOM     77  O   UNL A   1      31.786  27.828  23.183  1.00  0.00    -0.486 OA
ATOM     78  C   UNL A   1      31.406  27.343  25.529  1.00  0.00     0.161 A 
ATOM     79  C   UNL A   1      32.142  27.934  24.499  1.00  0.00     0.161 A 
ATOM     80  C   UNL A   1      31.803  27.520  26.850  1.00  0.00     0.050 A 
ATOM     81  C   UNL A   1      33.288  28.672  24.782  1.00  0.00     0.050 A 
ATOM     82  C   UNL A   1      32.939  28.279  27.140  1.00  0.00     0.004 A 
ATOM     83  C   UNL A   1      33.683  28.851  26.107  1.00  0.00     0.004 A 
ENDBRANCH  73  74
ENDBRANCH  71  73
ENDBRANCH  68  71
ENDBRANCH  66  68
ENDBRANCH  59  62
ENDBRANCH   1  58
TORSDOF 14
ENDMDL
