MODEL 1
REMARK VINA RESULT:     -13.3      0.000      0.000
REMARK SMILES Cc1ccc(-c2[nH]c3ccccc3c2[C@@H]2c3ccccc3C(=O)N2[C@H](C)C(=O)NCCCNC(=O)c2ccc(-c3c4nc(c(-c5ccccc5)c5ccc([nH]5)c(-c5ccccc5)c5nc(c(-c6ccccc6)c6ccc3[nH]6)C=C5)C=C4)cc2)cc1
REMARK SMILES IDX 30 1 29 2 27 3 28 4 25 6 26 7 24 8 15 9 16 10 17 11 21 12
REMARK SMILES IDX 22 13 18 14 20 15 23 16 19 17 14 18 6 19 7 20 8 21 13 23
REMARK SMILES IDX 9 24 12 25 10 26 11 27 5 28 1 29 2 30 3 31 85 32 4 33 84 34
REMARK SMILES IDX 31 35 32 36 33 37 34 38 35 40 36 41 37 42 83 43 38 44 82 45
REMARK SMILES IDX 39 46 40 47 41 48 76 49 42 50 81 51 75 52 77 53 43 54 80 55
REMARK SMILES IDX 74 56 73 57 44 59 66 60 51 61 65 62 52 63 55 64 64 65 78 66
REMARK SMILES IDX 53 67 54 68 63 70 79 71 56 72 45 73 46 74 50 75 47 76 49 77
REMARK SMILES IDX 48 78 67 79 68 80 72 81 69 82 71 83 70 84 57 85 58 86 62 87
REMARK SMILES IDX 59 88 61 89 60 90
REMARK H PARENT 29 5 7 22 33 39 77 58 55 69
REMARK Flexibility Score: inf
ROOT
ATOM      1  C   UNL A   1      38.621  21.003  25.838  1.00  0.00     0.117 C 
ENDROOT
BRANCH   1   2
ATOM      2  N   UNL A   1      38.055  21.733  24.737  1.00  0.00    -0.354 N 
ATOM      3  C   UNL A   1      37.107  22.695  24.675  1.00  0.00     0.242 C 
ATOM      4  O   UNL A   1      37.037  23.245  23.562  1.00  0.00    -0.273 OA
ATOM      5  H   UNL A   1      38.429  21.485  23.861  1.00  0.00     0.163 HD
BRANCH   3   6
ATOM      6  C   UNL A   1      35.972  22.970  25.712  1.00  0.00     0.172 C 
ATOM      7  C   UNL A   1      36.522  24.076  26.641  1.00  0.00     0.042 C 
BRANCH   6   8
ATOM      8  N   UNL A   1      34.497  23.073  25.603  1.00  0.00    -0.316 N 
ATOM      9  C   UNL A   1      33.447  22.049  25.758  1.00  0.00     0.151 C 
ATOM     10  C   UNL A   1      32.237  22.888  26.109  1.00  0.00    -0.008 A 
ATOM     11  C   UNL A   1      31.014  22.563  26.673  1.00  0.00     0.007 A 
ATOM     12  C   UNL A   1      32.507  24.228  25.869  1.00  0.00     0.045 A 
ATOM     13  C   UNL A   1      33.934  24.358  25.613  1.00  0.00     0.255 C 
ATOM     14  C   UNL A   1      30.055  23.573  26.857  1.00  0.00     0.000 A 
ATOM     15  C   UNL A   1      31.584  25.249  26.020  1.00  0.00     0.014 A 
ATOM     16  O   UNL A   1      34.492  25.435  25.516  1.00  0.00    -0.269 OA
ATOM     17  C   UNL A   1      30.326  24.903  26.500  1.00  0.00     0.001 A 
BRANCH   9  18
ATOM     18  C   UNL A   1      33.081  21.366  24.433  1.00  0.00     0.013 A 
ATOM     19  C   UNL A   1      32.497  21.967  23.302  1.00  0.00     0.052 A 
ATOM     20  N   UNL A   1      32.201  20.968  22.401  1.00  0.00    -0.354 N 
ATOM     21  C   UNL A   1      32.481  19.733  22.916  1.00  0.00     0.046 A 
ATOM     22  H   UNL A   1      31.834  21.124  21.499  1.00  0.00     0.167 HD
ATOM     23  C   UNL A   1      33.156  19.940  24.118  1.00  0.00     0.006 A 
ATOM     24  C   UNL A   1      32.152  18.462  22.420  1.00  0.00     0.027 A 
ATOM     25  C   UNL A   1      33.644  18.787  24.774  1.00  0.00     0.011 A 
ATOM     26  C   UNL A   1      32.568  17.349  23.151  1.00  0.00     0.002 A 
ATOM     27  C   UNL A   1      33.334  17.508  24.296  1.00  0.00     0.001 A 
BRANCH  19  28
ATOM     28  C   UNL A   1      32.106  23.338  22.967  1.00  0.00    -0.002 A 
ATOM     29  C   UNL A   1      30.994  27.447  22.202  1.00  0.00     0.044 C 
ATOM     30  C   UNL A   1      31.394  26.026  22.472  1.00  0.00    -0.051 A 
ATOM     31  C   UNL A   1      30.432  25.094  22.874  1.00  0.00     0.004 A 
ATOM     32  C   UNL A   1      32.722  25.615  22.351  1.00  0.00     0.004 A 
ATOM     33  C   UNL A   1      30.794  23.769  23.145  1.00  0.00     0.010 A 
ATOM     34  C   UNL A   1      33.072  24.283  22.597  1.00  0.00     0.010 A 
ENDBRANCH  19  28
ENDBRANCH   9  18
ENDBRANCH   6   8
ENDBRANCH   3   6
ENDBRANCH   1   2
BRANCH   1  35
ATOM     35  C   UNL A   1      40.047  21.399  26.155  1.00  0.00     0.042 C 
BRANCH  35  36
ATOM     36  C   UNL A   1      40.310  22.893  26.112  1.00  0.00     0.118 C 
BRANCH  36  37
ATOM     37  N   UNL A   1      41.241  23.298  27.179  1.00  0.00    -0.352 N 
ATOM     38  C   UNL A   1      41.311  24.460  27.922  1.00  0.00     0.251 C 
ATOM     39  H   UNL A   1      41.927  22.628  27.400  1.00  0.00     0.163 HD
ATOM     40  O   UNL A   1      42.167  24.609  28.785  1.00  0.00    -0.269 OA
BRANCH  38  41
ATOM     41  C   UNL A   1      40.227  25.445  27.760  1.00  0.00     0.039 A 
ATOM     42  C   UNL A   1      40.512  26.495  26.883  1.00  0.00     0.014 A 
ATOM     43  C   UNL A   1      39.289  25.571  28.779  1.00  0.00     0.014 A 
ATOM     44  C   UNL A   1      40.115  27.774  27.235  1.00  0.00     0.010 A 
ATOM     45  C   UNL A   1      38.960  26.855  29.169  1.00  0.00     0.010 A 
ATOM     46  C   UNL A   1      39.475  27.952  28.459  1.00  0.00    -0.014 A 
BRANCH  46  47
ATOM     47  C   UNL A   1      39.504  29.228  29.167  1.00  0.00     0.031 A 
ATOM     48  C   UNL A   1      38.506  30.266  28.858  1.00  0.00     0.074 A 
ATOM     49  C   UNL A   1      40.425  29.458  30.131  1.00  0.00     0.049 A 
ATOM     50  N   UNL A   1      38.665  31.522  29.104  1.00  0.00    -0.248 NA
ATOM     51  C   UNL A   1      37.265  29.969  28.152  1.00  0.00     0.031 C 
ATOM     52  C   UNL A   1      40.420  30.524  31.131  1.00  0.00     0.029 A 
ATOM     53  N   UNL A   1      41.682  28.881  30.269  1.00  0.00    -0.354 N 
ATOM     54  C   UNL A   1      37.461  32.142  28.879  1.00  0.00     0.074 A 
ATOM     55  C   UNL A   1      36.659  31.158  28.189  1.00  0.00     0.031 C 
ATOM     56  C   UNL A   1      41.663  30.676  31.619  1.00  0.00     0.029 A 
ATOM     57  C   UNL A   1      42.545  29.820  30.846  1.00  0.00     0.049 A 
ATOM     58  H   UNL A   1      41.924  27.965  30.003  1.00  0.00     0.167 HD
ATOM     59  C   UNL A   1      37.228  33.365  29.433  1.00  0.00     0.031 A 
ATOM     60  C   UNL A   1      43.667  30.250  30.197  1.00  0.00     0.031 A 
ATOM     61  C   UNL A   1      38.433  33.918  30.053  1.00  0.00     0.049 A 
ATOM     62  C   UNL A   1      43.656  31.731  29.880  1.00  0.00     0.074 A 
ATOM     63  C   UNL A   1      38.867  34.018  31.365  1.00  0.00     0.029 A 
ATOM     64  N   UNL A   1      39.533  34.209  29.253  1.00  0.00    -0.354 N 
ATOM     65  N   UNL A   1      42.585  32.474  29.906  1.00  0.00    -0.248 NA
ATOM     66  C   UNL A   1      44.839  32.483  29.463  1.00  0.00     0.031 C 
ATOM     67  C   UNL A   1      40.258  34.306  31.347  1.00  0.00     0.029 A 
ATOM     68  C   UNL A   1      40.659  34.412  30.027  1.00  0.00     0.049 A 
ATOM     69  H   UNL A   1      39.511  34.264  28.270  1.00  0.00     0.167 HD
ATOM     70  C   UNL A   1      42.894  33.748  29.508  1.00  0.00     0.074 A 
ATOM     71  C   UNL A   1      44.323  33.707  29.257  1.00  0.00     0.031 C 
ATOM     72  C   UNL A   1      41.940  34.718  29.400  1.00  0.00     0.031 A 
BRANCH  59  73
ATOM     73  C   UNL A   1      35.841  33.922  29.660  1.00  0.00    -0.014 A 
ATOM     74  C   UNL A   1      35.123  34.459  28.574  1.00  0.00     0.009 A 
ATOM     75  C   UNL A   1      35.212  34.028  30.912  1.00  0.00     0.009 A 
ATOM     76  C   UNL A   1      33.906  35.135  28.744  1.00  0.00     0.001 A 
ATOM     77  C   UNL A   1      34.013  34.730  31.098  1.00  0.00     0.001 A 
ATOM     78  C   UNL A   1      33.364  35.294  30.012  1.00  0.00     0.000 A 
ENDBRANCH  59  73
BRANCH  60  79
ATOM     79  C   UNL A   1      44.305  29.209  29.347  1.00  0.00    -0.014 A 
ATOM     80  C   UNL A   1      44.964  28.140  29.985  1.00  0.00     0.009 A 
ATOM     81  C   UNL A   1      43.949  29.069  27.998  1.00  0.00     0.009 A 
ATOM     82  C   UNL A   1      45.156  26.923  29.325  1.00  0.00     0.001 A 
ATOM     83  C   UNL A   1      44.149  27.849  27.339  1.00  0.00     0.001 A 
ATOM     84  C   UNL A   1      44.720  26.768  28.012  1.00  0.00     0.000 A 
ENDBRANCH  60  79
BRANCH  72  85
ATOM     85  C   UNL A   1      42.112  36.070  28.747  1.00  0.00    -0.014 A 
ATOM     86  C   UNL A   1      42.624  37.202  29.392  1.00  0.00     0.009 A 
ATOM     87  C   UNL A   1      41.873  36.190  27.359  1.00  0.00     0.009 A 
ATOM     88  C   UNL A   1      42.846  38.401  28.699  1.00  0.00     0.001 A 
ATOM     89  C   UNL A   1      42.138  37.365  26.654  1.00  0.00     0.001 A 
ATOM     90  C   UNL A   1      42.615  38.479  27.328  1.00  0.00     0.000 A 
ENDBRANCH  72  85
ENDBRANCH  46  47
ENDBRANCH  38  41
ENDBRANCH  36  37
ENDBRANCH  35  36
ENDBRANCH   1  35
TORSDOF 13
ENDMDL
MODEL 2
REMARK VINA RESULT:     -13.2      1.739      3.244
REMARK SMILES Cc1ccc(-c2[nH]c3ccccc3c2[C@@H]2c3ccccc3C(=O)N2[C@H](C)C(=O)NCCCNC(=O)c2ccc(-c3c4nc(c(-c5ccccc5)c5ccc([nH]5)c(-c5ccccc5)c5nc(c(-c6ccccc6)c6ccc3[nH]6)C=C5)C=C4)cc2)cc1
REMARK SMILES IDX 30 1 29 2 27 3 28 4 25 6 26 7 24 8 15 9 16 10 17 11 21 12
REMARK SMILES IDX 22 13 18 14 20 15 23 16 19 17 14 18 6 19 7 20 8 21 13 23
REMARK SMILES IDX 9 24 12 25 10 26 11 27 5 28 1 29 2 30 3 31 85 32 4 33 84 34
REMARK SMILES IDX 31 35 32 36 33 37 34 38 35 40 36 41 37 42 83 43 38 44 82 45
REMARK SMILES IDX 39 46 40 47 41 48 76 49 42 50 81 51 75 52 77 53 43 54 80 55
REMARK SMILES IDX 74 56 73 57 44 59 66 60 51 61 65 62 52 63 55 64 64 65 78 66
REMARK SMILES IDX 53 67 54 68 63 70 79 71 56 72 45 73 46 74 50 75 47 76 49 77
REMARK SMILES IDX 48 78 67 79 68 80 72 81 69 82 71 83 70 84 57 85 58 86 62 87
REMARK SMILES IDX 59 88 61 89 60 90
REMARK H PARENT 29 5 7 22 33 39 77 58 55 69
REMARK Flexibility Score: inf
ROOT
ATOM      1  C   UNL A   1      37.939  21.576  25.341  1.00  0.00     0.117 C 
ENDROOT
BRANCH   1   2
ATOM      2  N   UNL A   1      36.756  21.365  26.129  1.00  0.00    -0.354 N 
ATOM      3  C   UNL A   1      35.567  22.007  26.173  1.00  0.00     0.242 C 
ATOM      4  O   UNL A   1      34.704  21.398  26.830  1.00  0.00    -0.273 OA
ATOM      5  H   UNL A   1      36.825  20.609  26.755  1.00  0.00     0.163 HD
BRANCH   3   6
ATOM      6  C   UNL A   1      35.273  23.480  25.747  1.00  0.00     0.172 C 
ATOM      7  C   UNL A   1      36.654  24.169  25.671  1.00  0.00     0.042 C 
BRANCH   6   8
ATOM      8  N   UNL A   1      34.336  24.091  24.773  1.00  0.00    -0.316 N 
ATOM      9  C   UNL A   1      33.710  25.426  24.748  1.00  0.00     0.151 C 
ATOM     10  C   UNL A   1      33.395  25.599  23.278  1.00  0.00    -0.008 A 
ATOM     11  C   UNL A   1      33.087  26.716  22.519  1.00  0.00     0.007 A 
ATOM     12  C   UNL A   1      33.539  24.385  22.619  1.00  0.00     0.045 A 
ATOM     13  C   UNL A   1      34.187  23.455  23.532  1.00  0.00     0.255 C 
ATOM     14  C   UNL A   1      32.807  26.559  21.151  1.00  0.00     0.000 A 
ATOM     15  C   UNL A   1      33.256  24.187  21.278  1.00  0.00     0.014 A 
ATOM     16  O   UNL A   1      34.579  22.356  23.186  1.00  0.00    -0.269 OA
ATOM     17  C   UNL A   1      32.858  25.296  20.542  1.00  0.00     0.001 A 
BRANCH   9  18
ATOM     18  C   UNL A   1      32.345  25.457  25.449  1.00  0.00     0.013 A 
ATOM     19  C   UNL A   1      31.763  26.546  26.125  1.00  0.00     0.052 A 
ATOM     20  N   UNL A   1      30.610  26.097  26.731  1.00  0.00    -0.354 N 
ATOM     21  C   UNL A   1      30.448  24.750  26.559  1.00  0.00     0.046 A 
ATOM     22  H   UNL A   1      29.981  26.674  27.224  1.00  0.00     0.167 HD
ATOM     23  C   UNL A   1      31.427  24.338  25.655  1.00  0.00     0.006 A 
ATOM     24  C   UNL A   1      29.535  23.875  27.166  1.00  0.00     0.027 A 
ATOM     25  C   UNL A   1      31.375  22.987  25.244  1.00  0.00     0.011 A 
ATOM     26  C   UNL A   1      29.583  22.529  26.805  1.00  0.00     0.002 A 
ATOM     27  C   UNL A   1      30.469  22.095  25.830  1.00  0.00     0.001 A 
BRANCH  19  28
ATOM     28  C   UNL A   1      32.166  27.935  26.350  1.00  0.00    -0.002 A 
ATOM     29  C   UNL A   1      33.218  32.043  27.204  1.00  0.00     0.044 C 
ATOM     30  C   UNL A   1      32.859  30.614  26.921  1.00  0.00    -0.051 A 
ATOM     31  C   UNL A   1      31.768  30.317  26.098  1.00  0.00     0.004 A 
ATOM     32  C   UNL A   1      33.583  29.562  27.486  1.00  0.00     0.004 A 
ATOM     33  C   UNL A   1      31.411  28.989  25.839  1.00  0.00     0.010 A 
ATOM     34  C   UNL A   1      33.237  28.236  27.201  1.00  0.00     0.010 A 
ENDBRANCH  19  28
ENDBRANCH   9  18
ENDBRANCH   6   8
ENDBRANCH   3   6
ENDBRANCH   1   2
BRANCH   1  35
ATOM     35  C   UNL A   1      39.220  21.511  26.146  1.00  0.00     0.042 C 
BRANCH  35  36
ATOM     36  C   UNL A   1      40.224  22.600  25.820  1.00  0.00     0.118 C 
BRANCH  36  37
ATOM     37  N   UNL A   1      41.094  22.880  26.974  1.00  0.00    -0.352 N 
ATOM     38  C   UNL A   1      41.176  23.990  27.795  1.00  0.00     0.251 C 
ATOM     39  H   UNL A   1      41.723  22.157  27.200  1.00  0.00     0.163 HD
ATOM     40  O   UNL A   1      41.973  24.032  28.723  1.00  0.00    -0.269 OA
BRANCH  38  41
ATOM     41  C   UNL A   1      40.166  25.048  27.620  1.00  0.00     0.039 A 
ATOM     42  C   UNL A   1      40.557  26.103  26.791  1.00  0.00     0.014 A 
ATOM     43  C   UNL A   1      39.194  25.204  28.602  1.00  0.00     0.014 A 
ATOM     44  C   UNL A   1      40.228  27.394  27.169  1.00  0.00     0.010 A 
ATOM     45  C   UNL A   1      38.931  26.494  29.020  1.00  0.00     0.010 A 
ATOM     46  C   UNL A   1      39.547  27.576  28.370  1.00  0.00    -0.014 A 
BRANCH  46  47
ATOM     47  C   UNL A   1      39.627  28.826  29.121  1.00  0.00     0.031 A 
ATOM     48  C   UNL A   1      38.663  29.907  28.858  1.00  0.00     0.074 A 
ATOM     49  C   UNL A   1      40.565  28.990  30.082  1.00  0.00     0.049 A 
ATOM     50  N   UNL A   1      38.868  31.148  29.145  1.00  0.00    -0.248 NA
ATOM     51  C   UNL A   1      37.406  29.677  28.156  1.00  0.00     0.031 C 
ATOM     52  C   UNL A   1      40.607  30.021  31.118  1.00  0.00     0.029 A 
ATOM     53  N   UNL A   1      41.803  28.366  30.186  1.00  0.00    -0.354 N 
ATOM     54  C   UNL A   1      37.683  31.816  28.955  1.00  0.00     0.074 A 
ATOM     55  C   UNL A   1      36.841  30.885  28.240  1.00  0.00     0.031 C 
ATOM     56  C   UNL A   1      41.858  30.113  31.597  1.00  0.00     0.029 A 
ATOM     57  C   UNL A   1      42.703  29.254  30.786  1.00  0.00     0.049 A 
ATOM     58  H   UNL A   1      42.011  27.452  29.887  1.00  0.00     0.167 HD
ATOM     59  C   UNL A   1      37.498  33.026  29.553  1.00  0.00     0.031 A 
ATOM     60  C   UNL A   1      43.833  29.669  30.140  1.00  0.00     0.031 A 
ATOM     61  C   UNL A   1      38.727  33.516  30.179  1.00  0.00     0.049 A 
ATOM     62  C   UNL A   1      43.870  31.159  29.874  1.00  0.00     0.074 A 
ATOM     63  C   UNL A   1      39.177  33.555  31.488  1.00  0.00     0.029 A 
ATOM     64  N   UNL A   1      39.829  33.797  29.377  1.00  0.00    -0.354 N 
ATOM     65  N   UNL A   1      42.825  31.937  29.937  1.00  0.00    -0.248 NA
ATOM     66  C   UNL A   1      45.074  31.884  29.470  1.00  0.00     0.031 C 
ATOM     67  C   UNL A   1      40.577  33.796  31.465  1.00  0.00     0.029 A 
ATOM     68  C   UNL A   1      40.969  33.934  30.145  1.00  0.00     0.049 A 
ATOM     69  H   UNL A   1      39.800  33.887  28.397  1.00  0.00     0.167 HD
ATOM     70  C   UNL A   1      43.175  33.212  29.579  1.00  0.00     0.074 A 
ATOM     71  C   UNL A   1      44.598  33.132  29.312  1.00  0.00     0.031 C 
ATOM     72  C   UNL A   1      42.253  34.218  29.515  1.00  0.00     0.031 A 
BRANCH  59  73
ATOM     73  C   UNL A   1      36.133  33.622  29.814  1.00  0.00    -0.014 A 
ATOM     74  C   UNL A   1      35.469  34.311  28.781  1.00  0.00     0.009 A 
ATOM     75  C   UNL A   1      35.480  33.619  31.058  1.00  0.00     0.009 A 
ATOM     76  C   UNL A   1      34.281  35.023  29.002  1.00  0.00     0.001 A 
ATOM     77  C   UNL A   1      34.310  34.354  31.297  1.00  0.00     0.001 A 
ATOM     78  C   UNL A   1      33.716  35.066  30.270  1.00  0.00     0.000 A 
ENDBRANCH  59  73
BRANCH  60  79
ATOM     79  C   UNL A   1      44.426  28.636  29.247  1.00  0.00    -0.014 A 
ATOM     80  C   UNL A   1      45.366  27.742  29.796  1.00  0.00     0.009 A 
ATOM     81  C   UNL A   1      43.812  28.302  28.031  1.00  0.00     0.009 A 
ATOM     82  C   UNL A   1      45.600  26.497  29.204  1.00  0.00     0.001 A 
ATOM     83  C   UNL A   1      44.054  27.055  27.440  1.00  0.00     0.001 A 
ATOM     84  C   UNL A   1      44.918  26.142  28.044  1.00  0.00     0.000 A 
ENDBRANCH  60  79
BRANCH  72  85
ATOM     85  C   UNL A   1      42.466  35.584  28.907  1.00  0.00    -0.014 A 
ATOM     86  C   UNL A   1      41.879  36.021  27.713  1.00  0.00     0.009 A 
ATOM     87  C   UNL A   1      43.192  36.550  29.642  1.00  0.00     0.009 A 
ATOM     88  C   UNL A   1      42.044  37.337  27.255  1.00  0.00     0.001 A 
ATOM     89  C   UNL A   1      43.318  37.874  29.216  1.00  0.00     0.001 A 
ATOM     90  C   UNL A   1      42.753  38.266  28.012  1.00  0.00     0.000 A 
ENDBRANCH  72  85
ENDBRANCH  46  47
ENDBRANCH  38  41
ENDBRANCH  36  37
ENDBRANCH  35  36
ENDBRANCH   1  35
TORSDOF 13
ENDMDL
MODEL 3
REMARK VINA RESULT:     -13.2      4.805     11.772
REMARK SMILES Cc1ccc(-c2[nH]c3ccccc3c2[C@@H]2c3ccccc3C(=O)N2[C@H](C)C(=O)NCCCNC(=O)c2ccc(-c3c4nc(c(-c5ccccc5)c5ccc([nH]5)c(-c5ccccc5)c5nc(c(-c6ccccc6)c6ccc3[nH]6)C=C5)C=C4)cc2)cc1
REMARK SMILES IDX 30 1 29 2 27 3 28 4 25 6 26 7 24 8 15 9 16 10 17 11 21 12
REMARK SMILES IDX 22 13 18 14 20 15 23 16 19 17 14 18 6 19 7 20 8 21 13 23
REMARK SMILES IDX 9 24 12 25 10 26 11 27 5 28 1 29 2 30 3 31 85 32 4 33 84 34
REMARK SMILES IDX 31 35 32 36 33 37 34 38 35 40 36 41 37 42 83 43 38 44 82 45
REMARK SMILES IDX 39 46 40 47 41 48 76 49 42 50 81 51 75 52 77 53 43 54 80 55
REMARK SMILES IDX 74 56 73 57 44 59 66 60 51 61 65 62 52 63 55 64 64 65 78 66
REMARK SMILES IDX 53 67 54 68 63 70 79 71 56 72 45 73 46 74 50 75 47 76 49 77
REMARK SMILES IDX 48 78 67 79 68 80 72 81 69 82 71 83 70 84 57 85 58 86 62 87
REMARK SMILES IDX 59 88 61 89 60 90
REMARK H PARENT 29 5 7 22 33 39 77 58 55 69
REMARK Flexibility Score: inf
ROOT
ATOM      1  C   UNL A   1      45.615  29.897  33.283  1.00  0.00     0.117 C 
ENDROOT
BRANCH   1   2
ATOM      2  N   UNL A   1      46.767  29.857  32.426  1.00  0.00    -0.354 N 
ATOM      3  C   UNL A   1      47.286  30.754  31.557  1.00  0.00     0.242 C 
ATOM      4  O   UNL A   1      48.422  30.449  31.155  1.00  0.00    -0.273 OA
ATOM      5  H   UNL A   1      47.277  29.017  32.482  1.00  0.00     0.163 HD
BRANCH   3   6
ATOM      6  C   UNL A   1      46.529  31.915  30.836  1.00  0.00     0.172 C 
ATOM      7  C   UNL A   1      47.463  32.365  29.690  1.00  0.00     0.042 C 
BRANCH   6   8
ATOM      8  N   UNL A   1      45.110  32.126  30.460  1.00  0.00    -0.316 N 
ATOM      9  C   UNL A   1      44.185  31.280  29.683  1.00  0.00     0.151 C 
ATOM     10  C   UNL A   1      42.835  31.757  30.173  1.00  0.00    -0.008 A 
ATOM     11  C   UNL A   1      41.569  31.201  30.093  1.00  0.00     0.007 A 
ATOM     12  C   UNL A   1      42.984  32.934  30.893  1.00  0.00     0.045 A 
ATOM     13  C   UNL A   1      44.406  33.136  31.131  1.00  0.00     0.255 C 
ATOM     14  C   UNL A   1      40.476  31.906  30.625  1.00  0.00     0.000 A 
ATOM     15  C   UNL A   1      41.932  33.666  31.417  1.00  0.00     0.014 A 
ATOM     16  O   UNL A   1      44.835  34.007  31.864  1.00  0.00    -0.269 OA
ATOM     17  C   UNL A   1      40.653  33.148  31.254  1.00  0.00     0.001 A 
BRANCH   9  18
ATOM     18  C   UNL A   1      44.197  31.605  28.183  1.00  0.00     0.013 A 
ATOM     19  C   UNL A   1      44.621  30.764  27.136  1.00  0.00     0.052 A 
ATOM     20  N   UNL A   1      44.606  31.502  25.973  1.00  0.00    -0.354 N 
ATOM     21  C   UNL A   1      44.277  32.808  26.214  1.00  0.00     0.046 A 
ATOM     22  H   UNL A   1      44.807  31.136  25.080  1.00  0.00     0.167 HD
ATOM     23  C   UNL A   1      43.882  32.884  27.549  1.00  0.00     0.006 A 
ATOM     24  C   UNL A   1      44.340  33.918  25.359  1.00  0.00     0.027 A 
ATOM     25  C   UNL A   1      43.389  34.133  27.990  1.00  0.00     0.011 A 
ATOM     26  C   UNL A   1      43.936  35.154  25.864  1.00  0.00     0.002 A 
ATOM     27  C   UNL A   1      43.435  35.255  27.154  1.00  0.00     0.001 A 
BRANCH  19  28
ATOM     28  C   UNL A   1      45.109  29.386  27.074  1.00  0.00    -0.002 A 
ATOM     29  C   UNL A   1      46.429  25.266  27.086  1.00  0.00     0.044 C 
ATOM     30  C   UNL A   1      45.956  26.690  27.081  1.00  0.00    -0.051 A 
ATOM     31  C   UNL A   1      46.694  27.675  27.746  1.00  0.00     0.004 A 
ATOM     32  C   UNL A   1      44.772  27.056  26.439  1.00  0.00     0.004 A 
ATOM     33  C   UNL A   1      46.258  29.004  27.764  1.00  0.00     0.010 A 
ATOM     34  C   UNL A   1      44.354  28.392  26.437  1.00  0.00     0.010 A 
ENDBRANCH  19  28
ENDBRANCH   9  18
ENDBRANCH   6   8
ENDBRANCH   3   6
ENDBRANCH   1   2
BRANCH   1  35
ATOM     35  C   UNL A   1      45.881  29.365  34.676  1.00  0.00     0.042 C 
BRANCH  35  36
ATOM     36  C   UNL A   1      45.393  27.947  34.912  1.00  0.00     0.118 C 
BRANCH  36  37
ATOM     37  N   UNL A   1      45.213  27.682  36.349  1.00  0.00    -0.352 N 
ATOM     38  C   UNL A   1      44.080  27.722  37.139  1.00  0.00     0.251 C 
ATOM     39  H   UNL A   1      46.036  27.434  36.827  1.00  0.00     0.163 HD
ATOM     40  O   UNL A   1      44.131  27.457  38.333  1.00  0.00    -0.269 OA
BRANCH  38  41
ATOM     41  C   UNL A   1      42.784  27.931  36.469  1.00  0.00     0.039 A 
ATOM     42  C   UNL A   1      42.164  26.766  36.011  1.00  0.00     0.014 A 
ATOM     43  C   UNL A   1      42.524  29.175  35.904  1.00  0.00     0.014 A 
ATOM     44  C   UNL A   1      41.549  26.791  34.770  1.00  0.00     0.010 A 
ATOM     45  C   UNL A   1      41.979  29.182  34.634  1.00  0.00     0.010 A 
ATOM     46  C   UNL A   1      41.603  27.970  34.031  1.00  0.00    -0.014 A 
BRANCH  46  47
ATOM     47  C   UNL A   1      41.500  27.974  32.575  1.00  0.00     0.031 A 
ATOM     48  C   UNL A   1      40.210  28.269  31.928  1.00  0.00     0.074 A 
ATOM     49  C   UNL A   1      42.589  27.737  31.808  1.00  0.00     0.049 A 
ATOM     50  N   UNL A   1      39.904  27.918  30.726  1.00  0.00    -0.248 NA
ATOM     51  C   UNL A   1      39.113  28.918  32.636  1.00  0.00     0.031 C 
ATOM     52  C   UNL A   1      42.743  27.992  30.378  1.00  0.00     0.029 A 
ATOM     53  N   UNL A   1      43.727  27.010  32.139  1.00  0.00    -0.354 N 
ATOM     54  C   UNL A   1      38.726  28.543  30.401  1.00  0.00     0.074 A 
ATOM     55  C   UNL A   1      38.223  29.061  31.652  1.00  0.00     0.031 C 
ATOM     56  C   UNL A   1      43.768  27.261  29.908  1.00  0.00     0.029 A 
ATOM     57  C   UNL A   1      44.217  26.393  30.982  1.00  0.00     0.049 A 
ATOM     58  H   UNL A   1      44.121  26.940  33.039  1.00  0.00     0.167 HD
ATOM     59  C   UNL A   1      38.383  28.678  29.089  1.00  0.00     0.031 A 
ATOM     60  C   UNL A   1      44.319  25.035  30.887  1.00  0.00     0.031 A 
ATOM     61  C   UNL A   1      39.288  27.934  28.212  1.00  0.00     0.049 A 
ATOM     62  C   UNL A   1      43.448  24.433  29.804  1.00  0.00     0.074 A 
ATOM     63  C   UNL A   1      40.350  28.307  27.404  1.00  0.00     0.029 A 
ATOM     64  N   UNL A   1      39.343  26.548  28.316  1.00  0.00    -0.354 N 
ATOM     65  N   UNL A   1      42.457  25.060  29.234  1.00  0.00    -0.248 NA
ATOM     66  C   UNL A   1      43.593  23.064  29.311  1.00  0.00     0.031 C 
ATOM     67  C   UNL A   1      41.085  27.137  27.077  1.00  0.00     0.029 A 
ATOM     68  C   UNL A   1      40.453  26.053  27.659  1.00  0.00     0.049 A 
ATOM     69  H   UNL A   1      38.682  25.995  28.792  1.00  0.00     0.167 HD
ATOM     70  C   UNL A   1      41.830  24.225  28.347  1.00  0.00     0.074 A 
ATOM     71  C   UNL A   1      42.589  22.991  28.419  1.00  0.00     0.031 C 
ATOM     72  C   UNL A   1      40.725  24.620  27.648  1.00  0.00     0.031 A 
BRANCH  59  73
ATOM     73  C   UNL A   1      37.403  29.716  28.590  1.00  0.00    -0.014 A 
ATOM     74  C   UNL A   1      37.694  31.083  28.763  1.00  0.00     0.009 A 
ATOM     75  C   UNL A   1      36.151  29.431  28.021  1.00  0.00     0.009 A 
ATOM     76  C   UNL A   1      36.759  32.088  28.472  1.00  0.00     0.001 A 
ATOM     77  C   UNL A   1      35.198  30.424  27.757  1.00  0.00     0.001 A 
ATOM     78  C   UNL A   1      35.499  31.755  27.993  1.00  0.00     0.000 A 
ENDBRANCH  59  73
BRANCH  60  79
ATOM     79  C   UNL A   1      44.647  24.366  32.175  1.00  0.00    -0.014 A 
ATOM     80  C   UNL A   1      45.774  24.817  32.891  1.00  0.00     0.009 A 
ATOM     81  C   UNL A   1      43.687  23.599  32.849  1.00  0.00     0.009 A 
ATOM     82  C   UNL A   1      45.878  24.604  34.269  1.00  0.00     0.001 A 
ATOM     83  C   UNL A   1      43.799  23.383  34.229  1.00  0.00     0.001 A 
ATOM     84  C   UNL A   1      44.874  23.915  34.943  1.00  0.00     0.000 A 
ENDBRANCH  60  79
BRANCH  72  85
ATOM     85  C   UNL A   1      39.815  23.726  26.840  1.00  0.00    -0.014 A 
ATOM     86  C   UNL A   1      40.069  22.377  26.564  1.00  0.00     0.009 A 
ATOM     87  C   UNL A   1      38.554  24.224  26.438  1.00  0.00     0.009 A 
ATOM     88  C   UNL A   1      39.134  21.579  25.887  1.00  0.00     0.001 A 
ATOM     89  C   UNL A   1      37.600  23.422  25.808  1.00  0.00     0.001 A 
ATOM     90  C   UNL A   1      37.895  22.098  25.520  1.00  0.00     0.000 A 
ENDBRANCH  72  85
ENDBRANCH  46  47
ENDBRANCH  38  41
ENDBRANCH  36  37
ENDBRANCH  35  36
ENDBRANCH   1  35
TORSDOF 13
ENDMDL
