MODEL 1
REMARK VINA RESULT:     -13.8      0.000      0.000
REMARK SMILES Cc1oc2cc3c(cc2c1C)[C@H](C)[C@@H](CC(=O)N[C@H](CC1=c2ccccc2=NC1)C(=O)NCCCNC(=O)c1ccc(-c2c4nc(c(-c5ccccc5)c5ccc([nH]5)c(-c5ccccc5)c5nc(c(-c6ccccc6)c6ccc2[nH]6)C=C5)C=C4)cc1)C(=O)O3
REMARK SMILES IDX 33 1 32 2 30 3 31 4 19 6 18 7 16 8 17 9 15 11 14 12 1 13
REMARK SMILES IDX 2 14 3 15 10 16 4 17 9 18 11 19 5 20 8 21 6 22 7 23 89 24
REMARK SMILES IDX 12 25 87 26 13 27 88 28 20 29 21 30 22 31 29 32 23 33 27 34
REMARK SMILES IDX 28 35 24 36 26 37 25 38 34 39 35 40 36 41 37 42 38 44 39 45
REMARK SMILES IDX 40 46 86 47 41 48 85 49 42 50 43 51 44 52 79 53 45 54 84 55
REMARK SMILES IDX 78 56 80 57 46 58 83 59 77 60 76 61 47 63 69 64 54 65 68 66
REMARK SMILES IDX 55 67 58 68 67 69 81 70 56 71 57 72 66 74 82 75 59 76 48 77
REMARK SMILES IDX 49 78 53 79 50 80 52 81 51 82 70 83 71 84 75 85 72 86 74 87
REMARK SMILES IDX 73 88 60 89 61 90 65 91 62 92 64 93 63 94
REMARK H PARENT 32 5 18 10 36 43 80 62 58 73
REMARK Flexibility Score: inf
ROOT
ATOM      1  C   UNL A   1      33.998  29.504  24.930  1.00  0.00     0.117 C 
ENDROOT
BRANCH   1   2
ATOM      2  N   UNL A   1      33.843  28.521  23.880  1.00  0.00    -0.354 N 
ATOM      3  C   UNL A   1      32.778  27.770  23.510  1.00  0.00     0.242 C 
ATOM      4  O   UNL A   1      32.996  26.878  22.682  1.00  0.00    -0.273 OA
ATOM      5  H   UNL A   1      34.654  28.371  23.341  1.00  0.00     0.163 HD
BRANCH   3   6
ATOM      6  C   UNL A   1      31.343  28.104  23.938  1.00  0.00     0.175 C 
BRANCH   6   7
ATOM      7  N   UNL A   1      31.273  27.907  25.401  1.00  0.00    -0.344 N 
ATOM      8  C   UNL A   1      30.747  26.903  26.154  1.00  0.00     0.221 C 
ATOM      9  O   UNL A   1      30.719  27.061  27.377  1.00  0.00    -0.275 OA
ATOM     10  H   UNL A   1      31.680  28.635  25.925  1.00  0.00     0.164 HD
BRANCH   8  11
ATOM     11  C   UNL A   1      30.202  25.621  25.540  1.00  0.00     0.116 C 
BRANCH  11  12
ATOM     12  C   UNL A   1      31.307  24.584  25.312  1.00  0.00     0.116 C 
ATOM     13  C   UNL A   1      34.502  16.788  24.374  1.00  0.00     0.088 C 
ATOM     14  C   UNL A   1      33.905  18.137  24.313  1.00  0.00     0.105 A 
ATOM     15  O   UNL A   1      34.303  18.997  25.287  1.00  0.00    -0.461 OA
ATOM     16  C   UNL A   1      32.979  18.743  23.479  1.00  0.00    -0.002 A 
ATOM     17  C   UNL A   1      33.620  20.153  25.103  1.00  0.00     0.138 A 
ATOM     18  C   UNL A   1      32.797  20.067  23.988  1.00  0.00     0.024 A 
ATOM     19  C   UNL A   1      32.277  18.139  22.322  1.00  0.00     0.049 C 
ATOM     20  C   UNL A   1      33.694  21.250  25.942  1.00  0.00     0.095 A 
ATOM     21  C   UNL A   1      31.995  21.181  23.646  1.00  0.00     0.020 A 
ATOM     22  C   UNL A   1      32.826  22.295  25.629  1.00  0.00     0.138 A 
ATOM     23  C   UNL A   1      32.009  22.318  24.473  1.00  0.00    -0.001 A 
ATOM     24  O   UNL A   1      32.750  23.272  26.620  1.00  0.00    -0.426 OA
ATOM     25  C   UNL A   1      31.050  23.499  24.239  1.00  0.00     0.035 C 
ATOM     26  C   UNL A   1      31.471  23.744  26.547  1.00  0.00     0.315 C 
ATOM     27  C   UNL A   1      31.158  24.070  22.822  1.00  0.00     0.014 C 
ATOM     28  O   UNL A   1      30.585  23.447  27.335  1.00  0.00    -0.251 OA
ENDBRANCH  11  12
ENDBRANCH   8  11
ENDBRANCH   6   7
BRANCH   6  29
ATOM     29  C   UNL A   1      30.163  27.472  23.186  1.00  0.00     0.068 C 
BRANCH  29  30
ATOM     30  C   UNL A   1      28.970  28.336  22.859  1.00  0.00    -0.037 C 
ATOM     31  C   UNL A   1      28.813  29.596  22.453  1.00  0.00     0.001 A 
ATOM     32  C   UNL A   1      27.607  27.832  23.260  1.00  0.00     0.174 C 
ATOM     33  C   UNL A   1      29.444  30.574  21.628  1.00  0.00     0.010 A 
ATOM     34  C   UNL A   1      27.637  29.975  23.278  1.00  0.00     0.065 A 
ATOM     35  N   UNL A   1      26.899  29.022  23.759  1.00  0.00    -0.280 NA
ATOM     36  C   UNL A   1      29.004  31.845  21.694  1.00  0.00     0.001 A 
ATOM     37  C   UNL A   1      27.478  31.419  23.558  1.00  0.00     0.028 A 
ATOM     38  C   UNL A   1      28.147  32.287  22.782  1.00  0.00     0.002 A 
ENDBRANCH  29  30
ENDBRANCH   6  29
ENDBRANCH   3   6
ENDBRANCH   1   2
BRANCH   1  39
ATOM     39  C   UNL A   1      34.111  28.842  26.301  1.00  0.00     0.042 C 
BRANCH  39  40
ATOM     40  C   UNL A   1      33.480  29.665  27.422  1.00  0.00     0.118 C 
BRANCH  40  41
ATOM     41  N   UNL A   1      33.634  31.092  27.221  1.00  0.00    -0.352 N 
ATOM     42  C   UNL A   1      34.626  31.922  27.698  1.00  0.00     0.251 C 
ATOM     43  H   UNL A   1      32.940  31.525  26.673  1.00  0.00     0.163 HD
ATOM     44  O   UNL A   1      34.547  33.127  27.583  1.00  0.00    -0.269 OA
BRANCH  42  45
ATOM     45  C   UNL A   1      35.771  31.306  28.402  1.00  0.00     0.039 A 
ATOM     46  C   UNL A   1      35.836  31.342  29.797  1.00  0.00     0.014 A 
ATOM     47  C   UNL A   1      36.794  30.724  27.649  1.00  0.00     0.014 A 
ATOM     48  C   UNL A   1      36.983  30.904  30.438  1.00  0.00     0.010 A 
ATOM     49  C   UNL A   1      37.927  30.236  28.299  1.00  0.00     0.010 A 
ATOM     50  C   UNL A   1      38.029  30.352  29.690  1.00  0.00    -0.014 A 
BRANCH  50  51
ATOM     51  C   UNL A   1      39.150  29.803  30.455  1.00  0.00     0.031 A 
ATOM     52  C   UNL A   1      39.470  28.382  30.134  1.00  0.00     0.074 A 
ATOM     53  C   UNL A   1      40.120  30.584  30.968  1.00  0.00     0.049 A 
ATOM     54  N   UNL A   1      40.227  28.042  29.132  1.00  0.00    -0.248 NA
ATOM     55  C   UNL A   1      38.744  27.270  30.745  1.00  0.00     0.031 C 
ATOM     56  C   UNL A   1      40.613  31.815  30.339  1.00  0.00     0.029 A 
ATOM     57  N   UNL A   1      41.014  30.333  31.976  1.00  0.00    -0.354 N 
ATOM     58  C   UNL A   1      40.037  26.687  28.930  1.00  0.00     0.074 A 
ATOM     59  C   UNL A   1      39.122  26.248  29.962  1.00  0.00     0.031 C 
ATOM     60  C   UNL A   1      41.834  32.091  30.844  1.00  0.00     0.029 A 
ATOM     61  C   UNL A   1      42.118  31.175  31.942  1.00  0.00     0.049 A 
ATOM     62  H   UNL A   1      40.886  29.630  32.653  1.00  0.00     0.167 HD
ATOM     63  C   UNL A   1      40.624  25.994  27.920  1.00  0.00     0.031 A 
ATOM     64  C   UNL A   1      43.351  30.836  32.403  1.00  0.00     0.031 A 
ATOM     65  C   UNL A   1      41.510  26.741  27.080  1.00  0.00     0.049 A 
ATOM     66  C   UNL A   1      43.794  29.865  31.331  1.00  0.00     0.074 A 
ATOM     67  C   UNL A   1      41.462  27.369  25.855  1.00  0.00     0.029 A 
ATOM     68  N   UNL A   1      42.776  26.994  27.547  1.00  0.00    -0.354 N 
ATOM     69  N   UNL A   1      44.272  30.167  30.152  1.00  0.00    -0.248 NA
ATOM     70  C   UNL A   1      43.346  28.476  31.465  1.00  0.00     0.031 C 
ATOM     71  C   UNL A   1      42.530  28.320  25.870  1.00  0.00     0.029 A 
ATOM     72  C   UNL A   1      43.122  28.253  27.130  1.00  0.00     0.049 A 
ATOM     73  H   UNL A   1      43.333  26.384  28.084  1.00  0.00     0.167 HD
ATOM     74  C   UNL A   1      43.906  29.106  29.318  1.00  0.00     0.074 A 
ATOM     75  C   UNL A   1      43.358  28.092  30.197  1.00  0.00     0.031 C 
ATOM     76  C   UNL A   1      43.886  29.169  27.953  1.00  0.00     0.031 A 
BRANCH  63  77
ATOM     77  C   UNL A   1      40.488  24.535  27.741  1.00  0.00    -0.014 A 
ATOM     78  C   UNL A   1      39.448  23.969  26.998  1.00  0.00     0.009 A 
ATOM     79  C   UNL A   1      41.520  23.710  28.214  1.00  0.00     0.009 A 
ATOM     80  C   UNL A   1      39.457  22.598  26.717  1.00  0.00     0.001 A 
ATOM     81  C   UNL A   1      41.532  22.348  27.929  1.00  0.00     0.001 A 
ATOM     82  C   UNL A   1      40.502  21.792  27.175  1.00  0.00     0.000 A 
ENDBRANCH  63  77
BRANCH  64  83
ATOM     83  C   UNL A   1      43.370  30.518  33.872  1.00  0.00    -0.014 A 
ATOM     84  C   UNL A   1      44.048  29.445  34.466  1.00  0.00     0.009 A 
ATOM     85  C   UNL A   1      42.614  31.350  34.728  1.00  0.00     0.009 A 
ATOM     86  C   UNL A   1      43.855  29.127  35.818  1.00  0.00     0.001 A 
ATOM     87  C   UNL A   1      42.444  31.053  36.084  1.00  0.00     0.001 A 
ATOM     88  C   UNL A   1      43.040  29.920  36.621  1.00  0.00     0.000 A 
ENDBRANCH  64  83
BRANCH  76  89
ATOM     89  C   UNL A   1      44.503  30.372  27.314  1.00  0.00    -0.014 A 
ATOM     90  C   UNL A   1      45.858  30.378  26.944  1.00  0.00     0.009 A 
ATOM     91  C   UNL A   1      43.762  31.553  27.182  1.00  0.00     0.009 A 
ATOM     92  C   UNL A   1      46.475  31.556  26.517  1.00  0.00     0.001 A 
ATOM     93  C   UNL A   1      44.374  32.726  26.734  1.00  0.00     0.001 A 
ATOM     94  C   UNL A   1      45.733  32.731  26.420  1.00  0.00     0.000 A 
ENDBRANCH  76  89
ENDBRANCH  50  51
ENDBRANCH  42  45
ENDBRANCH  40  41
ENDBRANCH  39  40
ENDBRANCH   1  39
TORSDOF 15
ENDMDL
MODEL 2
REMARK VINA RESULT:     -13.6      1.378      2.903
REMARK SMILES Cc1oc2cc3c(cc2c1C)[C@H](C)[C@@H](CC(=O)N[C@H](CC1=c2ccccc2=NC1)C(=O)NCCCNC(=O)c1ccc(-c2c4nc(c(-c5ccccc5)c5ccc([nH]5)c(-c5ccccc5)c5nc(c(-c6ccccc6)c6ccc2[nH]6)C=C5)C=C4)cc1)C(=O)O3
REMARK SMILES IDX 33 1 32 2 30 3 31 4 19 6 18 7 16 8 17 9 15 11 14 12 1 13
REMARK SMILES IDX 2 14 3 15 10 16 4 17 9 18 11 19 5 20 8 21 6 22 7 23 89 24
REMARK SMILES IDX 12 25 87 26 13 27 88 28 20 29 21 30 22 31 29 32 23 33 27 34
REMARK SMILES IDX 28 35 24 36 26 37 25 38 34 39 35 40 36 41 37 42 38 44 39 45
REMARK SMILES IDX 40 46 86 47 41 48 85 49 42 50 43 51 44 52 79 53 45 54 84 55
REMARK SMILES IDX 78 56 80 57 46 58 83 59 77 60 76 61 47 63 69 64 54 65 68 66
REMARK SMILES IDX 55 67 58 68 67 69 81 70 56 71 57 72 66 74 82 75 59 76 48 77
REMARK SMILES IDX 49 78 53 79 50 80 52 81 51 82 70 83 71 84 75 85 72 86 74 87
REMARK SMILES IDX 73 88 60 89 61 90 65 91 62 92 64 93 63 94
REMARK H PARENT 32 5 18 10 36 43 80 62 58 73
REMARK Flexibility Score: inf
ROOT
ATOM      1  C   UNL A   1      32.385  30.276  25.433  1.00  0.00     0.117 C 
ENDROOT
BRANCH   1   2
ATOM      2  N   UNL A   1      31.127  30.308  24.722  1.00  0.00    -0.354 N 
ATOM      3  C   UNL A   1      30.488  29.359  23.993  1.00  0.00     0.242 C 
ATOM      4  O   UNL A   1      29.503  29.735  23.348  1.00  0.00    -0.273 OA
ATOM      5  H   UNL A   1      30.651  31.168  24.775  1.00  0.00     0.163 HD
BRANCH   3   6
ATOM      6  C   UNL A   1      30.838  27.869  24.091  1.00  0.00     0.175 C 
BRANCH   6   7
ATOM      7  N   UNL A   1      31.089  27.578  25.518  1.00  0.00    -0.344 N 
ATOM      8  C   UNL A   1      30.776  26.502  26.291  1.00  0.00     0.221 C 
ATOM      9  O   UNL A   1      31.003  26.582  27.501  1.00  0.00    -0.275 OA
ATOM     10  H   UNL A   1      31.569  28.293  25.996  1.00  0.00     0.164 HD
BRANCH   8  11
ATOM     11  C   UNL A   1      30.164  25.233  25.714  1.00  0.00     0.116 C 
BRANCH  11  12
ATOM     12  C   UNL A   1      31.220  24.148  25.477  1.00  0.00     0.116 C 
ATOM     13  C   UNL A   1      34.002  16.289  23.938  1.00  0.00     0.088 C 
ATOM     14  C   UNL A   1      33.502  17.678  23.979  1.00  0.00     0.105 A 
ATOM     15  O   UNL A   1      33.842  18.389  25.086  1.00  0.00    -0.461 OA
ATOM     16  C   UNL A   1      32.714  18.444  23.134  1.00  0.00    -0.002 A 
ATOM     17  C   UNL A   1      33.258  19.607  24.974  1.00  0.00     0.138 A 
ATOM     18  C   UNL A   1      32.561  19.711  23.777  1.00  0.00     0.024 A 
ATOM     19  C   UNL A   1      32.109  18.029  21.846  1.00  0.00     0.049 C 
ATOM     20  C   UNL A   1      33.308  20.593  25.942  1.00  0.00     0.095 A 
ATOM     21  C   UNL A   1      31.874  20.913  23.492  1.00  0.00     0.020 A 
ATOM     22  C   UNL A   1      32.547  21.729  25.670  1.00  0.00     0.138 A 
ATOM     23  C   UNL A   1      31.867  21.946  24.447  1.00  0.00    -0.001 A 
ATOM     24  O   UNL A   1      32.423  22.590  26.759  1.00  0.00    -0.426 OA
ATOM     25  C   UNL A   1      31.016  23.214  24.260  1.00  0.00     0.035 C 
ATOM     26  C   UNL A   1      31.192  23.163  26.612  1.00  0.00     0.315 C 
ATOM     27  C   UNL A   1      31.317  23.932  22.942  1.00  0.00     0.014 C 
ATOM     28  O   UNL A   1      30.207  22.846  27.263  1.00  0.00    -0.251 OA
ENDBRANCH  11  12
ENDBRANCH   8  11
ENDBRANCH   6   7
BRANCH   6  29
ATOM     29  C   UNL A   1      31.907  27.280  23.158  1.00  0.00     0.068 C 
BRANCH  29  30
ATOM     30  C   UNL A   1      33.256  26.933  23.736  1.00  0.00    -0.037 C 
ATOM     31  C   UNL A   1      34.017  25.839  23.742  1.00  0.00     0.001 A 
ATOM     32  C   UNL A   1      33.860  27.891  24.731  1.00  0.00     0.174 C 
ATOM     33  C   UNL A   1      34.356  24.729  22.911  1.00  0.00     0.010 A 
ATOM     34  C   UNL A   1      34.512  25.890  25.141  1.00  0.00     0.065 A 
ATOM     35  N   UNL A   1      34.464  27.030  25.761  1.00  0.00    -0.280 NA
ATOM     36  C   UNL A   1      35.046  23.711  23.457  1.00  0.00     0.001 A 
ATOM     37  C   UNL A   1      34.924  24.599  25.733  1.00  0.00     0.028 A 
ATOM     38  C   UNL A   1      35.171  23.576  24.899  1.00  0.00     0.002 A 
ENDBRANCH  29  30
ENDBRANCH   6  29
ENDBRANCH   3   6
ENDBRANCH   1   2
BRANCH   1  39
ATOM     39  C   UNL A   1      32.186  30.498  26.931  1.00  0.00     0.042 C 
BRANCH  39  40
ATOM     40  C   UNL A   1      33.466  30.907  27.656  1.00  0.00     0.118 C 
BRANCH  40  41
ATOM     41  N   UNL A   1      33.707  32.335  27.600  1.00  0.00    -0.352 N 
ATOM     42  C   UNL A   1      34.736  33.053  28.171  1.00  0.00     0.251 C 
ATOM     43  H   UNL A   1      33.051  32.861  27.087  1.00  0.00     0.163 HD
ATOM     44  O   UNL A   1      34.730  34.266  28.175  1.00  0.00    -0.269 OA
BRANCH  42  45
ATOM     45  C   UNL A   1      35.829  32.303  28.827  1.00  0.00     0.039 A 
ATOM     46  C   UNL A   1      36.011  32.398  30.208  1.00  0.00     0.014 A 
ATOM     47  C   UNL A   1      36.688  31.532  28.039  1.00  0.00     0.014 A 
ATOM     48  C   UNL A   1      37.128  31.821  30.790  1.00  0.00     0.010 A 
ATOM     49  C   UNL A   1      37.783  30.908  28.634  1.00  0.00     0.010 A 
ATOM     50  C   UNL A   1      38.014  31.076  30.003  1.00  0.00    -0.014 A 
BRANCH  50  51
ATOM     51  C   UNL A   1      39.099  30.400  30.718  1.00  0.00     0.031 A 
ATOM     52  C   UNL A   1      39.309  28.982  30.304  1.00  0.00     0.074 A 
ATOM     53  C   UNL A   1      40.128  31.073  31.265  1.00  0.00     0.049 A 
ATOM     54  N   UNL A   1      40.030  28.651  29.273  1.00  0.00    -0.248 NA
ATOM     55  C   UNL A   1      38.509  27.890  30.854  1.00  0.00     0.031 C 
ATOM     56  C   UNL A   1      40.705  32.302  30.709  1.00  0.00     0.029 A 
ATOM     57  N   UNL A   1      41.009  30.694  32.243  1.00  0.00    -0.354 N 
ATOM     58  C   UNL A   1      39.739  27.330  28.988  1.00  0.00     0.074 A 
ATOM     59  C   UNL A   1      38.803  26.894  30.004  1.00  0.00     0.031 C 
ATOM     60  C   UNL A   1      41.947  32.455  31.214  1.00  0.00     0.029 A 
ATOM     61  C   UNL A   1      42.172  31.454  32.248  1.00  0.00     0.049 A 
ATOM     62  H   UNL A   1      40.836  29.961  32.877  1.00  0.00     0.167 HD
ATOM     63  C   UNL A   1      40.264  26.661  27.929  1.00  0.00     0.031 A 
ATOM     64  C   UNL A   1      43.381  30.996  32.670  1.00  0.00     0.031 A 
ATOM     65  C   UNL A   1      41.195  27.393  27.126  1.00  0.00     0.049 A 
ATOM     66  C   UNL A   1      43.741  30.065  31.533  1.00  0.00     0.074 A 
ATOM     67  C   UNL A   1      41.183  28.100  25.944  1.00  0.00     0.029 A 
ATOM     68  N   UNL A   1      42.481  27.522  27.591  1.00  0.00    -0.354 N 
ATOM     69  N   UNL A   1      44.230  30.406  30.369  1.00  0.00    -0.248 NA
ATOM     70  C   UNL A   1      43.193  28.708  31.586  1.00  0.00     0.031 C 
ATOM     71  C   UNL A   1      42.319  28.967  26.004  1.00  0.00     0.029 A 
ATOM     72  C   UNL A   1      42.915  28.777  27.249  1.00  0.00     0.049 A 
ATOM     73  H   UNL A   1      42.996  26.840  28.081  1.00  0.00     0.167 HD
ATOM     74  C   UNL A   1      43.780  29.430  29.476  1.00  0.00     0.074 A 
ATOM     75  C   UNL A   1      43.166  28.405  30.296  1.00  0.00     0.031 C 
ATOM     76  C   UNL A   1      43.752  29.580  28.118  1.00  0.00     0.031 A 
BRANCH  63  77
ATOM     77  C   UNL A   1      40.020  25.230  27.662  1.00  0.00    -0.014 A 
ATOM     78  C   UNL A   1      38.922  24.789  26.916  1.00  0.00     0.009 A 
ATOM     79  C   UNL A   1      41.002  24.306  28.048  1.00  0.00     0.009 A 
ATOM     80  C   UNL A   1      38.825  23.442  26.547  1.00  0.00     0.001 A 
ATOM     81  C   UNL A   1      40.908  22.968  27.676  1.00  0.00     0.001 A 
ATOM     82  C   UNL A   1      39.822  22.537  26.920  1.00  0.00     0.000 A 
ENDBRANCH  63  77
BRANCH  64  83
ATOM     83  C   UNL A   1      43.390  30.585  34.116  1.00  0.00    -0.014 A 
ATOM     84  C   UNL A   1      44.042  29.462  34.641  1.00  0.00     0.009 A 
ATOM     85  C   UNL A   1      42.650  31.378  35.023  1.00  0.00     0.009 A 
ATOM     86  C   UNL A   1      43.839  29.062  35.970  1.00  0.00     0.001 A 
ATOM     87  C   UNL A   1      42.470  30.999  36.356  1.00  0.00     0.001 A 
ATOM     88  C   UNL A   1      43.039  29.821  36.821  1.00  0.00     0.000 A 
ENDBRANCH  64  83
BRANCH  76  89
ATOM     89  C   UNL A   1      44.451  30.772  27.547  1.00  0.00    -0.014 A 
ATOM     90  C   UNL A   1      43.728  31.908  27.143  1.00  0.00     0.009 A 
ATOM     91  C   UNL A   1      45.828  30.726  27.299  1.00  0.00     0.009 A 
ATOM     92  C   UNL A   1      44.357  32.942  26.447  1.00  0.00     0.001 A 
ATOM     93  C   UNL A   1      46.461  31.771  26.622  1.00  0.00     0.001 A 
ATOM     94  C   UNL A   1      45.723  32.868  26.180  1.00  0.00     0.000 A 
ENDBRANCH  76  89
ENDBRANCH  50  51
ENDBRANCH  42  45
ENDBRANCH  40  41
ENDBRANCH  39  40
ENDBRANCH   1  39
TORSDOF 15
ENDMDL
MODEL 3
REMARK VINA RESULT:     -13.5      6.447     11.215
REMARK SMILES Cc1oc2cc3c(cc2c1C)[C@H](C)[C@@H](CC(=O)N[C@H](CC1=c2ccccc2=NC1)C(=O)NCCCNC(=O)c1ccc(-c2c4nc(c(-c5ccccc5)c5ccc([nH]5)c(-c5ccccc5)c5nc(c(-c6ccccc6)c6ccc2[nH]6)C=C5)C=C4)cc1)C(=O)O3
REMARK SMILES IDX 33 1 32 2 30 3 31 4 19 6 18 7 16 8 17 9 15 11 14 12 1 13
REMARK SMILES IDX 2 14 3 15 10 16 4 17 9 18 11 19 5 20 8 21 6 22 7 23 89 24
REMARK SMILES IDX 12 25 87 26 13 27 88 28 20 29 21 30 22 31 29 32 23 33 27 34
REMARK SMILES IDX 28 35 24 36 26 37 25 38 34 39 35 40 36 41 37 42 38 44 39 45
REMARK SMILES IDX 40 46 86 47 41 48 85 49 42 50 43 51 44 52 79 53 45 54 84 55
REMARK SMILES IDX 78 56 80 57 46 58 83 59 77 60 76 61 47 63 69 64 54 65 68 66
REMARK SMILES IDX 55 67 58 68 67 69 81 70 56 71 57 72 66 74 82 75 59 76 48 77
REMARK SMILES IDX 49 78 53 79 50 80 52 81 51 82 70 83 71 84 75 85 72 86 74 87
REMARK SMILES IDX 73 88 60 89 61 90 65 91 62 92 64 93 63 94
REMARK H PARENT 32 5 18 10 36 43 80 62 58 73
REMARK Flexibility Score: inf
ROOT
ATOM      1  C   UNL A   1      44.947  32.505  26.064  1.00  0.00     0.117 C 
ENDROOT
BRANCH   1   2
ATOM      2  N   UNL A   1      46.344  32.464  26.436  1.00  0.00    -0.354 N 
ATOM      3  C   UNL A   1      47.110  31.457  26.924  1.00  0.00     0.242 C 
ATOM      4  O   UNL A   1      48.237  31.769  27.321  1.00  0.00    -0.273 OA
ATOM      5  H   UNL A   1      46.822  33.317  26.317  1.00  0.00     0.163 HD
BRANCH   3   6
ATOM      6  C   UNL A   1      46.693  29.984  26.828  1.00  0.00     0.175 C 
BRANCH   6   7
ATOM      7  N   UNL A   1      46.433  29.701  25.401  1.00  0.00    -0.344 N 
ATOM      8  C   UNL A   1      46.669  28.598  24.639  1.00  0.00     0.221 C 
ATOM      9  O   UNL A   1      46.459  28.686  23.427  1.00  0.00    -0.275 OA
ATOM     10  H   UNL A   1      46.013  30.447  24.913  1.00  0.00     0.164 HD
BRANCH   8  11
ATOM     11  C   UNL A   1      47.177  27.291  25.231  1.00  0.00     0.116 C 
BRANCH  11  12
ATOM     12  C   UNL A   1      46.291  26.104  24.837  1.00  0.00     0.116 C 
ATOM     13  C   UNL A   1      41.736  19.085  26.196  1.00  0.00     0.088 C 
ATOM     14  C   UNL A   1      42.338  20.421  26.011  1.00  0.00     0.105 A 
ATOM     15  O   UNL A   1      43.406  20.469  25.172  1.00  0.00    -0.461 OA
ATOM     16  C   UNL A   1      42.074  21.677  26.534  1.00  0.00    -0.002 A 
ATOM     17  C   UNL A   1      43.852  21.749  25.167  1.00  0.00     0.138 A 
ATOM     18  C   UNL A   1      43.058  22.551  25.976  1.00  0.00     0.024 A 
ATOM     19  C   UNL A   1      41.020  22.043  27.509  1.00  0.00     0.049 C 
ATOM     20  C   UNL A   1      44.976  22.185  24.490  1.00  0.00     0.095 A 
ATOM     21  C   UNL A   1      43.381  23.922  26.102  1.00  0.00     0.020 A 
ATOM     22  C   UNL A   1      45.319  23.518  24.708  1.00  0.00     0.138 A 
ATOM     23  C   UNL A   1      44.526  24.421  25.456  1.00  0.00    -0.001 A 
ATOM     24  O   UNL A   1      46.577  23.858  24.212  1.00  0.00    -0.426 OA
ATOM     25  C   UNL A   1      45.013  25.865  25.677  1.00  0.00     0.035 C 
ATOM     26  C   UNL A   1      47.038  24.820  25.064  1.00  0.00     0.315 C 
ATOM     27  C   UNL A   1      43.931  26.902  25.367  1.00  0.00     0.014 C 
ATOM     28  O   UNL A   1      47.877  24.623  25.932  1.00  0.00    -0.251 OA
ENDBRANCH  11  12
ENDBRANCH   8  11
ENDBRANCH   6   7
BRANCH   6  29
ATOM     29  C   UNL A   1      45.597  29.446  27.760  1.00  0.00     0.068 C 
BRANCH  29  30
ATOM     30  C   UNL A   1      45.830  28.133  28.463  1.00  0.00    -0.037 C 
ATOM     31  C   UNL A   1      45.038  27.225  29.034  1.00  0.00     0.001 A 
ATOM     32  C   UNL A   1      47.244  27.789  28.858  1.00  0.00     0.174 C 
ATOM     33  C   UNL A   1      43.747  26.636  28.879  1.00  0.00     0.010 A 
ATOM     34  C   UNL A   1      45.857  26.900  30.230  1.00  0.00     0.065 A 
ATOM     35  N   UNL A   1      47.124  27.182  30.194  1.00  0.00    -0.280 NA
ATOM     36  C   UNL A   1      43.272  25.868  29.877  1.00  0.00     0.001 A 
ATOM     37  C   UNL A   1      45.121  26.370  31.398  1.00  0.00     0.028 A 
ATOM     38  C   UNL A   1      43.886  25.885  31.195  1.00  0.00     0.002 A 
ENDBRANCH  29  30
ENDBRANCH   6  29
ENDBRANCH   3   6
ENDBRANCH   1   2
BRANCH   1  39
ATOM     39  C   UNL A   1      44.669  33.626  25.064  1.00  0.00     0.042 C 
BRANCH  39  40
ATOM     40  C   UNL A   1      43.396  34.410  25.376  1.00  0.00     0.118 C 
BRANCH  40  41
ATOM     41  N   UNL A   1      43.664  35.783  25.751  1.00  0.00    -0.352 N 
ATOM     42  C   UNL A   1      43.469  36.391  26.973  1.00  0.00     0.251 C 
ATOM     43  H   UNL A   1      44.035  36.357  25.042  1.00  0.00     0.163 HD
ATOM     44  O   UNL A   1      43.591  37.590  27.106  1.00  0.00    -0.269 OA
BRANCH  42  45
ATOM     45  C   UNL A   1      43.054  35.545  28.114  1.00  0.00     0.039 A 
ATOM     46  C   UNL A   1      43.999  34.772  28.792  1.00  0.00     0.014 A 
ATOM     47  C   UNL A   1      41.703  35.509  28.471  1.00  0.00     0.014 A 
ATOM     48  C   UNL A   1      43.577  33.867  29.752  1.00  0.00     0.010 A 
ATOM     49  C   UNL A   1      41.287  34.635  29.474  1.00  0.00     0.010 A 
ATOM     50  C   UNL A   1      42.222  33.797  30.093  1.00  0.00    -0.014 A 
BRANCH  50  51
ATOM     51  C   UNL A   1      41.881  32.903  31.202  1.00  0.00     0.031 A 
ATOM     52  C   UNL A   1      40.461  33.001  31.649  1.00  0.00     0.074 A 
ATOM     53  C   UNL A   1      42.556  31.762  31.438  1.00  0.00     0.049 A 
ATOM     54  N   UNL A   1      39.496  32.350  31.068  1.00  0.00    -0.248 NA
ATOM     55  C   UNL A   1      40.014  34.034  32.582  1.00  0.00     0.031 C 
ATOM     56  C   UNL A   1      43.148  30.918  30.394  1.00  0.00     0.029 A 
ATOM     57  N   UNL A   1      42.638  31.007  32.578  1.00  0.00    -0.354 N 
ATOM     58  C   UNL A   1      38.312  32.918  31.502  1.00  0.00     0.074 A 
ATOM     59  C   UNL A   1      38.682  33.948  32.450  1.00  0.00     0.031 C 
ATOM     60  C   UNL A   1      43.340  29.683  30.904  1.00  0.00     0.029 A 
ATOM     61  C   UNL A   1      43.059  29.705  32.334  1.00  0.00     0.049 A 
ATOM     62  H   UNL A   1      42.423  31.349  33.475  1.00  0.00     0.167 HD
ATOM     63  C   UNL A   1      37.090  32.532  31.053  1.00  0.00     0.031 A 
ATOM     64  C   UNL A   1      42.713  28.636  33.099  1.00  0.00     0.031 A 
ATOM     65  C   UNL A   1      37.081  31.446  30.121  1.00  0.00     0.049 A 
ATOM     66  C   UNL A   1      41.263  28.466  32.703  1.00  0.00     0.074 A 
ATOM     67  C   UNL A   1      37.002  31.278  28.755  1.00  0.00     0.029 A 
ATOM     68  N   UNL A   1      37.223  30.173  30.616  1.00  0.00    -0.354 N 
ATOM     69  N   UNL A   1      40.811  27.890  31.620  1.00  0.00    -0.248 NA
ATOM     70  C   UNL A   1      40.281  29.300  33.401  1.00  0.00     0.031 C 
ATOM     71  C   UNL A   1      37.546  29.980  28.497  1.00  0.00     0.029 A 
ATOM     72  C   UNL A   1      37.980  29.467  29.718  1.00  0.00     0.049 A 
ATOM     73  H   UNL A   1      36.851  29.831  31.462  1.00  0.00     0.167 HD
ATOM     74  C   UNL A   1      39.598  28.526  31.339  1.00  0.00     0.074 A 
ATOM     75  C   UNL A   1      39.324  29.367  32.487  1.00  0.00     0.031 C 
ATOM     76  C   UNL A   1      38.972  28.492  30.124  1.00  0.00     0.031 A 
BRANCH  63  77
ATOM     77  C   UNL A   1      35.819  33.079  31.565  1.00  0.00    -0.014 A 
ATOM     78  C   UNL A   1      35.335  32.772  32.841  1.00  0.00     0.009 A 
ATOM     79  C   UNL A   1      35.157  34.050  30.797  1.00  0.00     0.009 A 
ATOM     80  C   UNL A   1      34.217  33.445  33.344  1.00  0.00     0.001 A 
ATOM     81  C   UNL A   1      34.048  34.724  31.301  1.00  0.00     0.001 A 
ATOM     82  C   UNL A   1      33.582  34.425  32.578  1.00  0.00     0.000 A 
ENDBRANCH  63  77
BRANCH  64  83
ATOM     83  C   UNL A   1      43.179  28.747  34.524  1.00  0.00    -0.014 A 
ATOM     84  C   UNL A   1      43.781  29.874  35.099  1.00  0.00     0.009 A 
ATOM     85  C   UNL A   1      43.033  27.608  35.347  1.00  0.00     0.009 A 
ATOM     86  C   UNL A   1      44.347  29.817  36.381  1.00  0.00     0.001 A 
ATOM     87  C   UNL A   1      43.570  27.557  36.637  1.00  0.00     0.001 A 
ATOM     88  C   UNL A   1      44.257  28.653  37.142  1.00  0.00     0.000 A 
ENDBRANCH  64  83
BRANCH  76  89
ATOM     89  C   UNL A   1      39.506  27.537  29.106  1.00  0.00    -0.014 A 
ATOM     90  C   UNL A   1      40.301  27.988  28.038  1.00  0.00     0.009 A 
ATOM     91  C   UNL A   1      39.122  26.190  29.138  1.00  0.00     0.009 A 
ATOM     92  C   UNL A   1      40.645  27.129  26.993  1.00  0.00     0.001 A 
ATOM     93  C   UNL A   1      39.486  25.325  28.103  1.00  0.00     0.001 A 
ATOM     94  C   UNL A   1      40.230  25.799  27.024  1.00  0.00     0.000 A 
ENDBRANCH  76  89
ENDBRANCH  50  51
ENDBRANCH  42  45
ENDBRANCH  40  41
ENDBRANCH  39  40
ENDBRANCH   1  39
TORSDOF 15
ENDMDL
