MODEL 1
REMARK VINA RESULT:      -8.9      0.000      0.000
REMARK SMILES CCCS[C@@H]1CC[C@@]([NH2+]CC)(C(=O)NCCCNC(=O)c2ccc(-c3c4nc(c(-c5ccccc5)c5ccc([nH]5)c(-c5ccccc5)c5nc(c(-c6ccccc6)c6ccc3[nH]6)C=C5)C=C4)cc2)C1
REMARK SMILES IDX 15 1 14 2 12 3 13 4 8 6 5 7 6 8 69 9 7 10 4 11 3 12 2 13
REMARK SMILES IDX 1 14 9 15 10 18 11 19 16 20 17 21 18 22 19 23 20 25 21 26
REMARK SMILES IDX 22 27 68 28 23 29 67 30 24 31 25 32 26 33 61 34 27 35 66 36
REMARK SMILES IDX 60 37 62 38 28 39 65 40 59 41 58 42 29 44 51 45 36 46 50 47
REMARK SMILES IDX 37 48 40 49 49 50 63 51 38 52 39 53 48 55 64 56 41 57 30 58
REMARK SMILES IDX 31 59 35 60 32 61 34 62 33 63 52 64 53 65 57 66 54 67 56 68
REMARK SMILES IDX 55 69 42 70 43 71 47 72 44 73 46 74 45 75
REMARK H PARENT 14 5 9 16 9 17 18 24 62 43 40 54
REMARK Flexibility Score: inf
ROOT
ATOM      1  C   UNL A   1      34.292  34.899  29.655  1.00  0.00     0.118 C 
ENDROOT
BRANCH   1   2
ATOM      2  N   UNL A   1      33.805  33.947  30.637  1.00  0.00    -0.351 N 
ATOM      3  C   UNL A   1      34.321  33.602  31.855  1.00  0.00     0.281 C 
ATOM      4  O   UNL A   1      33.702  32.752  32.500  1.00  0.00    -0.268 OA
ATOM      5  H   UNL A   1      32.976  33.479  30.388  1.00  0.00     0.163 HD
BRANCH   3   6
ATOM      6  C   UNL A   1      35.641  34.249  32.382  1.00  0.00     0.176 C 
ATOM      7  C   UNL A   1      36.900  32.406  33.322  1.00  0.00     0.053 C 
ATOM      8  C   UNL A   1      37.754  32.963  32.194  1.00  0.00     0.022 C 
ATOM      9  C   UNL A   1      36.075  33.625  33.727  1.00  0.00     0.093 C 
ATOM     10  C   UNL A   1      36.801  33.871  31.417  1.00  0.00     0.080 C 
BRANCH   7  11
ATOM     11  S   UNL A   1      37.835  31.776  34.749  1.00  0.00    -0.158 SA
BRANCH  11  12
ATOM     12  C   UNL A   1      39.394  31.233  33.973  1.00  0.00     0.069 C 
BRANCH  12  13
ATOM     13  C   UNL A   1      39.411  29.781  33.494  1.00  0.00     0.007 C 
ATOM     14  C   UNL A   1      38.044  29.203  33.160  1.00  0.00     0.005 C 
ENDBRANCH  12  13
ENDBRANCH  11  12
ENDBRANCH   7  11
BRANCH   6  15
ATOM     15  N   UNL A   1      35.514  35.724  32.478  1.00  0.00    -0.334 N 
ATOM     16  H   UNL A   1      35.547  36.098  31.529  1.00  0.00     0.347 HD
ATOM     17  H   UNL A   1      36.280  36.019  33.082  1.00  0.00     0.347 HD
BRANCH  15  18
ATOM     18  C   UNL A   1      34.303  36.247  33.115  1.00  0.00     0.257 C 
ATOM     19  C   UNL A   1      33.892  37.641  32.669  1.00  0.00     0.071 C 
ENDBRANCH  15  18
ENDBRANCH   6  15
ENDBRANCH   3   6
ENDBRANCH   1   2
BRANCH   1  20
ATOM     20  C   UNL A   1      34.210  34.346  28.238  1.00  0.00     0.042 C 
BRANCH  20  21
ATOM     21  C   UNL A   1      34.999  33.061  28.028  1.00  0.00     0.118 C 
BRANCH  21  22
ATOM     22  N   UNL A   1      34.142  31.901  27.832  1.00  0.00    -0.352 N 
ATOM     23  C   UNL A   1      34.465  30.572  27.762  1.00  0.00     0.251 C 
ATOM     24  H   UNL A   1      33.183  32.102  27.737  1.00  0.00     0.163 HD
ATOM     25  O   UNL A   1      33.607  29.756  27.417  1.00  0.00    -0.269 OA
BRANCH  23  26
ATOM     26  C   UNL A   1      35.831  30.104  28.079  1.00  0.00     0.039 A 
ATOM     27  C   UNL A   1      36.088  29.590  29.354  1.00  0.00     0.014 A 
ATOM     28  C   UNL A   1      36.869  30.203  27.149  1.00  0.00     0.014 A 
ATOM     29  C   UNL A   1      37.370  29.147  29.681  1.00  0.00     0.010 A 
ATOM     30  C   UNL A   1      38.123  29.675  27.443  1.00  0.00     0.010 A 
ATOM     31  C   UNL A   1      38.396  29.168  28.722  1.00  0.00    -0.014 A 
BRANCH  31  32
ATOM     32  C   UNL A   1      39.770  28.715  29.059  1.00  0.00     0.031 A 
ATOM     33  C   UNL A   1      40.697  29.626  29.822  1.00  0.00     0.074 A 
ATOM     34  C   UNL A   1      40.199  27.506  28.651  1.00  0.00     0.049 A 
ATOM     35  N   UNL A   1      41.936  29.422  30.194  1.00  0.00    -0.248 NA
ATOM     36  C   UNL A   1      40.172  30.951  30.192  1.00  0.00     0.031 C 
ATOM     37  C   UNL A   1      39.418  26.545  27.871  1.00  0.00     0.029 A 
ATOM     38  N   UNL A   1      41.404  26.878  28.841  1.00  0.00    -0.354 N 
ATOM     39  C   UNL A   1      42.340  30.594  30.821  1.00  0.00     0.074 A 
ATOM     40  C   UNL A   1      41.239  31.526  30.726  1.00  0.00     0.031 C 
ATOM     41  C   UNL A   1      40.149  25.434  27.681  1.00  0.00     0.029 A 
ATOM     42  C   UNL A   1      41.461  25.619  28.294  1.00  0.00     0.049 A 
ATOM     43  H   UNL A   1      42.156  27.288  29.325  1.00  0.00     0.167 HD
ATOM     44  C   UNL A   1      43.511  30.866  31.444  1.00  0.00     0.031 A 
ATOM     45  C   UNL A   1      42.456  24.713  28.290  1.00  0.00     0.031 A 
ATOM     46  C   UNL A   1      44.603  29.935  31.554  1.00  0.00     0.049 A 
ATOM     47  C   UNL A   1      43.746  25.037  28.992  1.00  0.00     0.074 A 
ATOM     48  C   UNL A   1      45.812  30.096  32.207  1.00  0.00     0.029 A 
ATOM     49  N   UNL A   1      44.613  28.666  30.996  1.00  0.00    -0.354 N 
ATOM     50  N   UNL A   1      44.088  26.125  29.636  1.00  0.00    -0.248 NA
ATOM     51  C   UNL A   1      44.780  23.992  28.983  1.00  0.00     0.031 C 
ATOM     52  C   UNL A   1      46.574  28.940  32.005  1.00  0.00     0.029 A 
ATOM     53  C   UNL A   1      45.814  28.037  31.279  1.00  0.00     0.049 A 
ATOM     54  H   UNL A   1      43.876  28.270  30.478  1.00  0.00     0.167 HD
ATOM     55  C   UNL A   1      45.360  25.883  30.142  1.00  0.00     0.074 A 
ATOM     56  C   UNL A   1      45.720  24.538  29.740  1.00  0.00     0.031 C 
ATOM     57  C   UNL A   1      46.156  26.698  30.876  1.00  0.00     0.031 A 
BRANCH  44  58
ATOM     58  C   UNL A   1      43.669  32.234  32.052  1.00  0.00    -0.014 A 
ATOM     59  C   UNL A   1      43.286  32.491  33.379  1.00  0.00     0.009 A 
ATOM     60  C   UNL A   1      44.225  33.276  31.294  1.00  0.00     0.009 A 
ATOM     61  C   UNL A   1      43.418  33.771  33.919  1.00  0.00     0.001 A 
ATOM     62  C   UNL A   1      44.386  34.548  31.848  1.00  0.00     0.001 A 
ATOM     63  C   UNL A   1      43.971  34.797  33.155  1.00  0.00     0.000 A 
ENDBRANCH  44  58
BRANCH  45  64
ATOM     64  C   UNL A   1      42.265  23.396  27.628  1.00  0.00    -0.014 A 
ATOM     65  C   UNL A   1      41.657  22.334  28.317  1.00  0.00     0.009 A 
ATOM     66  C   UNL A   1      42.701  23.187  26.311  1.00  0.00     0.009 A 
ATOM     67  C   UNL A   1      41.520  21.082  27.713  1.00  0.00     0.001 A 
ATOM     68  C   UNL A   1      42.535  21.943  25.698  1.00  0.00     0.001 A 
ATOM     69  C   UNL A   1      41.956  20.889  26.403  1.00  0.00     0.000 A 
ENDBRANCH  45  64
BRANCH  57  70
ATOM     70  C   UNL A   1      47.471  26.136  31.340  1.00  0.00    -0.014 A 
ATOM     71  C   UNL A   1      48.609  26.150  30.519  1.00  0.00     0.009 A 
ATOM     72  C   UNL A   1      47.574  25.602  32.635  1.00  0.00     0.009 A 
ATOM     73  C   UNL A   1      49.811  25.600  30.968  1.00  0.00     0.001 A 
ATOM     74  C   UNL A   1      48.785  25.084  33.094  1.00  0.00     0.001 A 
ATOM     75  C   UNL A   1      49.899  25.071  32.255  1.00  0.00     0.000 A 
ENDBRANCH  57  70
ENDBRANCH  31  32
ENDBRANCH  23  26
ENDBRANCH  21  22
ENDBRANCH  20  21
ENDBRANCH   1  20
TORSDOF 15
ENDMDL
MODEL 2
REMARK VINA RESULT:      -8.8      3.513      8.762
REMARK SMILES CCCS[C@@H]1CC[C@@]([NH2+]CC)(C(=O)NCCCNC(=O)c2ccc(-c3c4nc(c(-c5ccccc5)c5ccc([nH]5)c(-c5ccccc5)c5nc(c(-c6ccccc6)c6ccc3[nH]6)C=C5)C=C4)cc2)C1
REMARK SMILES IDX 15 1 14 2 12 3 13 4 8 6 5 7 6 8 69 9 7 10 4 11 3 12 2 13
REMARK SMILES IDX 1 14 9 15 10 18 11 19 16 20 17 21 18 22 19 23 20 25 21 26
REMARK SMILES IDX 22 27 68 28 23 29 67 30 24 31 25 32 26 33 61 34 27 35 66 36
REMARK SMILES IDX 60 37 62 38 28 39 65 40 59 41 58 42 29 44 51 45 36 46 50 47
REMARK SMILES IDX 37 48 40 49 49 50 63 51 38 52 39 53 48 55 64 56 41 57 30 58
REMARK SMILES IDX 31 59 35 60 32 61 34 62 33 63 52 64 53 65 57 66 54 67 56 68
REMARK SMILES IDX 55 69 42 70 43 71 47 72 44 73 46 74 45 75
REMARK H PARENT 14 5 9 16 9 17 18 24 62 43 40 54
REMARK Flexibility Score: inf
ROOT
ATOM      1  C   UNL A   1      31.194  30.341  25.801  1.00  0.00     0.118 C 
ENDROOT
BRANCH   1   2
ATOM      2  N   UNL A   1      30.917  30.116  24.394  1.00  0.00    -0.351 N 
ATOM      3  C   UNL A   1      31.550  29.304  23.495  1.00  0.00     0.281 C 
ATOM      4  O   UNL A   1      31.108  29.299  22.343  1.00  0.00    -0.268 OA
ATOM      5  H   UNL A   1      30.156  30.625  24.031  1.00  0.00     0.163 HD
BRANCH   3   6
ATOM      6  C   UNL A   1      32.784  28.444  23.917  1.00  0.00     0.176 C 
ATOM      7  C   UNL A   1      32.130  26.158  23.454  1.00  0.00     0.053 C 
ATOM      8  C   UNL A   1      33.343  26.430  22.579  1.00  0.00     0.022 C 
ATOM      9  C   UNL A   1      32.345  27.134  24.608  1.00  0.00     0.093 C 
ATOM     10  C   UNL A   1      33.508  27.950  22.632  1.00  0.00     0.080 C 
BRANCH   7  11
ATOM     11  S   UNL A   1      32.008  24.456  24.083  1.00  0.00    -0.158 SA
BRANCH  11  12
ATOM     12  C   UNL A   1      32.527  24.652  25.820  1.00  0.00     0.069 C 
BRANCH  12  13
ATOM     13  C   UNL A   1      33.886  24.043  26.165  1.00  0.00     0.007 C 
ATOM     14  C   UNL A   1      35.064  24.641  25.410  1.00  0.00     0.005 C 
ENDBRANCH  12  13
ENDBRANCH  11  12
ENDBRANCH   7  11
BRANCH   6  15
ATOM     15  N   UNL A   1      33.717  29.225  24.764  1.00  0.00    -0.334 N 
ATOM     16  H   UNL A   1      33.180  29.970  25.209  1.00  0.00     0.347 HD
ATOM     17  H   UNL A   1      34.449  29.544  24.129  1.00  0.00     0.347 HD
BRANCH  15  18
ATOM     18  C   UNL A   1      34.422  28.498  25.822  1.00  0.00     0.257 C 
ATOM     19  C   UNL A   1      34.182  29.020  27.230  1.00  0.00     0.071 C 
ENDBRANCH  15  18
ENDBRANCH   6  15
ENDBRANCH   3   6
ENDBRANCH   1   2
BRANCH   1  20
ATOM     20  C   UNL A   1      31.214  31.825  26.146  1.00  0.00     0.042 C 
BRANCH  20  21
ATOM     21  C   UNL A   1      32.383  32.242  27.025  1.00  0.00     0.118 C 
BRANCH  21  22
ATOM     22  N   UNL A   1      32.277  33.619  27.486  1.00  0.00    -0.352 N 
ATOM     23  C   UNL A   1      33.080  34.323  28.343  1.00  0.00     0.251 C 
ATOM     24  H   UNL A   1      31.511  34.122  27.125  1.00  0.00     0.163 HD
ATOM     25  O   UNL A   1      32.718  35.433  28.741  1.00  0.00    -0.269 OA
BRANCH  23  26
ATOM     26  C   UNL A   1      34.368  33.765  28.810  1.00  0.00     0.039 A 
ATOM     27  C   UNL A   1      34.377  32.961  29.954  1.00  0.00     0.014 A 
ATOM     28  C   UNL A   1      35.568  34.059  28.158  1.00  0.00     0.014 A 
ATOM     29  C   UNL A   1      35.580  32.427  30.420  1.00  0.00     0.010 A 
ATOM     30  C   UNL A   1      36.751  33.451  28.566  1.00  0.00     0.010 A 
ATOM     31  C   UNL A   1      36.776  32.652  29.719  1.00  0.00    -0.014 A 
BRANCH  31  32
ATOM     32  C   UNL A   1      38.066  32.105  30.210  1.00  0.00     0.031 A 
ATOM     33  C   UNL A   1      38.583  30.795  29.672  1.00  0.00     0.074 A 
ATOM     34  C   UNL A   1      38.758  32.761  31.161  1.00  0.00     0.049 A 
ATOM     35  N   UNL A   1      39.675  30.145  29.987  1.00  0.00    -0.248 NA
ATOM     36  C   UNL A   1      37.749  30.113  28.668  1.00  0.00     0.031 C 
ATOM     37  C   UNL A   1      38.350  34.016  31.795  1.00  0.00     0.029 A 
ATOM     38  N   UNL A   1      39.955  32.460  31.760  1.00  0.00    -0.354 N 
ATOM     39  C   UNL A   1      39.648  28.975  29.238  1.00  0.00     0.074 A 
ATOM     40  C   UNL A   1      38.404  28.974  28.499  1.00  0.00     0.031 C 
ATOM     41  C   UNL A   1      39.299  34.396  32.666  1.00  0.00     0.029 A 
ATOM     42  C   UNL A   1      40.361  33.397  32.678  1.00  0.00     0.049 A 
ATOM     43  H   UNL A   1      40.475  31.651  31.550  1.00  0.00     0.167 HD
ATOM     44  C   UNL A   1      40.582  27.999  29.147  1.00  0.00     0.031 A 
ATOM     45  C   UNL A   1      41.469  33.448  33.442  1.00  0.00     0.031 A 
ATOM     46  C   UNL A   1      41.827  28.004  29.868  1.00  0.00     0.049 A 
ATOM     47  C   UNL A   1      42.494  32.354  33.321  1.00  0.00     0.074 A 
ATOM     48  C   UNL A   1      42.862  27.088  29.810  1.00  0.00     0.029 A 
ATOM     49  N   UNL A   1      42.205  28.979  30.779  1.00  0.00    -0.354 N 
ATOM     50  N   UNL A   1      42.483  31.288  32.560  1.00  0.00    -0.248 NA
ATOM     51  C   UNL A   1      43.698  32.486  34.155  1.00  0.00     0.031 C 
ATOM     52  C   UNL A   1      43.847  27.484  30.721  1.00  0.00     0.029 A 
ATOM     53  C   UNL A   1      43.452  28.680  31.299  1.00  0.00     0.049 A 
ATOM     54  H   UNL A   1      41.666  29.768  31.018  1.00  0.00     0.167 HD
ATOM     55  C   UNL A   1      43.691  30.643  32.792  1.00  0.00     0.074 A 
ATOM     56  C   UNL A   1      44.416  31.447  33.756  1.00  0.00     0.031 C 
ATOM     57  C   UNL A   1      44.162  29.491  32.253  1.00  0.00     0.031 A 
BRANCH  44  58
ATOM     58  C   UNL A   1      40.283  26.839  28.236  1.00  0.00    -0.014 A 
ATOM     59  C   UNL A   1      40.745  26.817  26.909  1.00  0.00     0.009 A 
ATOM     60  C   UNL A   1      39.549  25.743  28.715  1.00  0.00     0.009 A 
ATOM     61  C   UNL A   1      40.439  25.744  26.070  1.00  0.00     0.001 A 
ATOM     62  C   UNL A   1      39.273  24.656  27.883  1.00  0.00     0.001 A 
ATOM     63  C   UNL A   1      39.708  24.663  26.560  1.00  0.00     0.000 A 
ENDBRANCH  44  58
BRANCH  45  64
ATOM     64  C   UNL A   1      41.689  34.592  34.365  1.00  0.00    -0.014 A 
ATOM     65  C   UNL A   1      42.344  35.751  33.920  1.00  0.00     0.009 A 
ATOM     66  C   UNL A   1      41.258  34.527  35.699  1.00  0.00     0.009 A 
ATOM     67  C   UNL A   1      42.593  36.807  34.800  1.00  0.00     0.001 A 
ATOM     68  C   UNL A   1      41.480  35.597  36.568  1.00  0.00     0.001 A 
ATOM     69  C   UNL A   1      42.158  36.731  36.122  1.00  0.00     0.000 A 
ENDBRANCH  45  64
BRANCH  57  70
ATOM     70  C   UNL A   1      45.547  29.063  32.652  1.00  0.00    -0.014 A 
ATOM     71  C   UNL A   1      46.681  29.487  31.943  1.00  0.00     0.009 A 
ATOM     72  C   UNL A   1      45.716  28.236  33.774  1.00  0.00     0.009 A 
ATOM     73  C   UNL A   1      47.953  29.054  32.324  1.00  0.00     0.001 A 
ATOM     74  C   UNL A   1      46.991  27.832  34.172  1.00  0.00     0.001 A 
ATOM     75  C   UNL A   1      48.107  28.230  33.438  1.00  0.00     0.000 A 
ENDBRANCH  57  70
ENDBRANCH  31  32
ENDBRANCH  23  26
ENDBRANCH  21  22
ENDBRANCH  20  21
ENDBRANCH   1  20
TORSDOF 15
ENDMDL
MODEL 3
REMARK VINA RESULT:      -8.8      3.490      6.375
REMARK SMILES CCCS[C@@H]1CC[C@@]([NH2+]CC)(C(=O)NCCCNC(=O)c2ccc(-c3c4nc(c(-c5ccccc5)c5ccc([nH]5)c(-c5ccccc5)c5nc(c(-c6ccccc6)c6ccc3[nH]6)C=C5)C=C4)cc2)C1
REMARK SMILES IDX 15 1 14 2 12 3 13 4 8 6 5 7 6 8 69 9 7 10 4 11 3 12 2 13
REMARK SMILES IDX 1 14 9 15 10 18 11 19 16 20 17 21 18 22 19 23 20 25 21 26
REMARK SMILES IDX 22 27 68 28 23 29 67 30 24 31 25 32 26 33 61 34 27 35 66 36
REMARK SMILES IDX 60 37 62 38 28 39 65 40 59 41 58 42 29 44 51 45 36 46 50 47
REMARK SMILES IDX 37 48 40 49 49 50 63 51 38 52 39 53 48 55 64 56 41 57 30 58
REMARK SMILES IDX 31 59 35 60 32 61 34 62 33 63 52 64 53 65 57 66 54 67 56 68
REMARK SMILES IDX 55 69 42 70 43 71 47 72 44 73 46 74 45 75
REMARK H PARENT 14 5 9 16 9 17 18 24 62 43 40 54
REMARK Flexibility Score: inf
ROOT
ATOM      1  C   UNL A   1      31.501  30.905  26.382  1.00  0.00     0.118 C 
ENDROOT
BRANCH   1   2
ATOM      2  N   UNL A   1      32.599  30.311  27.124  1.00  0.00    -0.351 N 
ATOM      3  C   UNL A   1      33.405  29.256  26.801  1.00  0.00     0.281 C 
ATOM      4  O   UNL A   1      34.275  28.950  27.621  1.00  0.00    -0.268 OA
ATOM      5  H   UNL A   1      32.793  30.734  27.991  1.00  0.00     0.163 HD
BRANCH   3   6
ATOM      6  C   UNL A   1      33.211  28.474  25.463  1.00  0.00     0.176 C 
ATOM      7  C   UNL A   1      32.877  26.171  26.136  1.00  0.00     0.053 C 
ATOM      8  C   UNL A   1      31.605  26.583  25.413  1.00  0.00     0.022 C 
ATOM      9  C   UNL A   1      33.914  27.099  25.508  1.00  0.00     0.093 C 
ATOM     10  C   UNL A   1      31.707  28.106  25.316  1.00  0.00     0.080 C 
BRANCH   7  11
ATOM     11  S   UNL A   1      33.361  24.434  25.901  1.00  0.00    -0.158 SA
BRANCH  11  12
ATOM     12  C   UNL A   1      32.464  23.991  24.376  1.00  0.00     0.069 C 
BRANCH  12  13
ATOM     13  C   UNL A   1      33.318  23.945  23.109  1.00  0.00     0.007 C 
ATOM     14  C   UNL A   1      32.835  24.843  21.980  1.00  0.00     0.005 C 
ENDBRANCH  12  13
ENDBRANCH  11  12
ENDBRANCH   7  11
BRANCH   6  15
ATOM     15  N   UNL A   1      33.658  29.281  24.301  1.00  0.00    -0.334 N 
ATOM     16  H   UNL A   1      34.670  29.175  24.224  1.00  0.00     0.347 HD
ATOM     17  H   UNL A   1      33.339  30.229  24.498  1.00  0.00     0.347 HD
BRANCH  15  18
ATOM     18  C   UNL A   1      33.079  28.947  22.998  1.00  0.00     0.257 C 
ATOM     19  C   UNL A   1      34.025  28.250  22.034  1.00  0.00     0.071 C 
ENDBRANCH  15  18
ENDBRANCH   6  15
ENDBRANCH   3   6
ENDBRANCH   1   2
BRANCH   1  20
ATOM     20  C   UNL A   1      31.407  32.407  26.612  1.00  0.00     0.042 C 
BRANCH  20  21
ATOM     21  C   UNL A   1      32.710  33.047  27.069  1.00  0.00     0.118 C 
BRANCH  21  22
ATOM     22  N   UNL A   1      32.498  34.236  27.883  1.00  0.00    -0.352 N 
ATOM     23  C   UNL A   1      33.165  34.667  28.998  1.00  0.00     0.251 C 
ATOM     24  H   UNL A   1      31.762  34.819  27.585  1.00  0.00     0.163 HD
ATOM     25  O   UNL A   1      32.716  35.617  29.645  1.00  0.00    -0.269 OA
BRANCH  23  26
ATOM     26  C   UNL A   1      34.406  34.001  29.447  1.00  0.00     0.039 A 
ATOM     27  C   UNL A   1      35.595  34.261  28.759  1.00  0.00     0.014 A 
ATOM     28  C   UNL A   1      34.404  33.095  30.511  1.00  0.00     0.014 A 
ATOM     29  C   UNL A   1      36.781  33.640  29.158  1.00  0.00     0.010 A 
ATOM     30  C   UNL A   1      35.600  32.551  30.967  1.00  0.00     0.010 A 
ATOM     31  C   UNL A   1      36.797  32.794  30.278  1.00  0.00    -0.014 A 
BRANCH  31  32
ATOM     32  C   UNL A   1      38.046  32.114  30.706  1.00  0.00     0.031 A 
ATOM     33  C   UNL A   1      38.874  32.692  31.825  1.00  0.00     0.074 A 
ATOM     34  C   UNL A   1      38.458  31.000  30.070  1.00  0.00     0.049 A 
ATOM     35  N   UNL A   1      40.001  32.257  32.330  1.00  0.00    -0.248 NA
ATOM     36  C   UNL A   1      38.384  33.936  32.440  1.00  0.00     0.031 C 
ATOM     37  C   UNL A   1      37.773  30.361  28.946  1.00  0.00     0.029 A 
ATOM     38  N   UNL A   1      39.557  30.207  30.284  1.00  0.00    -0.354 N 
ATOM     39  C   UNL A   1      40.362  33.182  33.302  1.00  0.00     0.074 A 
ATOM     40  C   UNL A   1      39.367  34.232  33.276  1.00  0.00     0.031 C 
ATOM     41  C   UNL A   1      38.447  29.253  28.594  1.00  0.00     0.029 A 
ATOM     42  C   UNL A   1      39.627  29.125  29.441  1.00  0.00     0.049 A 
ATOM     43  H   UNL A   1      40.231  30.394  30.978  1.00  0.00     0.167 HD
ATOM     44  C   UNL A   1      41.408  33.152  34.161  1.00  0.00     0.031 A 
ATOM     45  C   UNL A   1      40.538  28.137  29.363  1.00  0.00     0.031 A 
ATOM     46  C   UNL A   1      42.390  32.101  34.200  1.00  0.00     0.049 A 
ATOM     47  C   UNL A   1      41.690  28.122  30.329  1.00  0.00     0.074 A 
ATOM     48  C   UNL A   1      43.461  31.952  35.063  1.00  0.00     0.029 A 
ATOM     49  N   UNL A   1      42.416  31.016  33.336  1.00  0.00    -0.354 N 
ATOM     50  N   UNL A   1      41.980  28.971  31.285  1.00  0.00    -0.248 NA
ATOM     51  C   UNL A   1      42.630  26.998  30.216  1.00  0.00     0.031 C 
ATOM     52  C   UNL A   1      44.163  30.800  34.691  1.00  0.00     0.029 A 
ATOM     53  C   UNL A   1      43.493  30.200  33.638  1.00  0.00     0.049 A 
ATOM     54  H   UNL A   1      41.765  30.851  32.617  1.00  0.00     0.167 HD
ATOM     55  C   UNL A   1      43.111  28.463  31.913  1.00  0.00     0.074 A 
ATOM     56  C   UNL A   1      43.445  27.226  31.235  1.00  0.00     0.031 C 
ATOM     57  C   UNL A   1      43.809  28.971  32.958  1.00  0.00     0.031 A 
BRANCH  44  58
ATOM     58  C   UNL A   1      41.545  34.299  35.125  1.00  0.00    -0.014 A 
ATOM     59  C   UNL A   1      40.939  34.262  36.392  1.00  0.00     0.009 A 
ATOM     60  C   UNL A   1      42.304  35.424  34.771  1.00  0.00     0.009 A 
ATOM     61  C   UNL A   1      41.056  35.344  37.266  1.00  0.00     0.001 A 
ATOM     62  C   UNL A   1      42.447  36.492  35.660  1.00  0.00     0.001 A 
ATOM     63  C   UNL A   1      41.813  36.456  36.900  1.00  0.00     0.000 A 
ENDBRANCH  44  58
BRANCH  45  64
ATOM     64  C   UNL A   1      40.383  27.055  28.355  1.00  0.00    -0.014 A 
ATOM     65  C   UNL A   1      40.965  27.178  27.083  1.00  0.00     0.009 A 
ATOM     66  C   UNL A   1      39.644  25.901  28.653  1.00  0.00     0.009 A 
ATOM     67  C   UNL A   1      40.780  26.184  26.119  1.00  0.00     0.001 A 
ATOM     68  C   UNL A   1      39.488  24.893  27.698  1.00  0.00     0.001 A 
ATOM     69  C   UNL A   1      40.045  25.041  26.429  1.00  0.00     0.000 A 
ENDBRANCH  45  64
BRANCH  57  70
ATOM     70  C   UNL A   1      44.969  28.161  33.468  1.00  0.00    -0.014 A 
ATOM     71  C   UNL A   1      46.273  28.359  32.989  1.00  0.00     0.009 A 
ATOM     72  C   UNL A   1      44.750  27.196  34.464  1.00  0.00     0.009 A 
ATOM     73  C   UNL A   1      47.326  27.575  33.465  1.00  0.00     0.001 A 
ATOM     74  C   UNL A   1      45.809  26.437  34.962  1.00  0.00     0.001 A 
ATOM     75  C   UNL A   1      47.094  26.618  34.452  1.00  0.00     0.000 A 
ENDBRANCH  57  70
ENDBRANCH  31  32
ENDBRANCH  23  26
ENDBRANCH  21  22
ENDBRANCH  20  21
ENDBRANCH   1  20
TORSDOF 15
ENDMDL
