MODEL 1
REMARK VINA RESULT:     -11.1      0.000      0.000
REMARK SMILES O=C(NCCCNC(=O)c1cc(F)c(OCc2ccc(Br)cc2)c(F)c1)c1ccc(-c2c3nc(c(-c4ccccc4)c4ccc([nH]4)c(-c4ccccc4)c4nc(c(-c5ccccc5)c5ccc2[nH]5)C=C4)C=C3)cc1
REMARK SMILES IDX 5 1 4 2 3 3 1 4 2 5 27 7 28 8 74 9 29 10 73 11 30 12 31 13
REMARK SMILES IDX 32 14 67 15 33 16 72 17 66 18 68 19 34 20 71 21 65 22 64 23
REMARK SMILES IDX 35 25 57 26 42 27 56 28 43 29 46 30 55 31 69 32 44 33 45 34
REMARK SMILES IDX 54 36 70 37 47 38 36 39 37 40 41 41 38 42 40 43 39 44 58 45
REMARK SMILES IDX 59 46 63 47 60 48 62 49 61 50 48 51 49 52 53 53 50 54 52 55
REMARK SMILES IDX 51 56 6 57 7 58 8 59 9 61 10 62 11 63 26 64 12 65 24 66
REMARK SMILES IDX 13 67 14 68 25 69 15 70 16 71 17 72 18 73 23 74 19 75 22 76
REMARK SMILES IDX 20 77 21 78
REMARK H PARENT 3 6 68 24 46 35 7 60
REMARK Flexibility Score: inf
ROOT
ATOM      1  C   UNL A   1      30.745  31.657  26.155  1.00  0.00     0.042 C 
ENDROOT
BRANCH   1   2
ATOM      2  C   UNL A   1      32.084  32.150  26.687  1.00  0.00     0.118 C 
BRANCH   2   3
ATOM      3  N   UNL A   1      32.034  33.511  27.205  1.00  0.00    -0.352 N 
ATOM      4  O   UNL A   1      32.575  35.280  28.488  1.00  0.00    -0.269 OA
ATOM      5  C   UNL A   1      32.880  34.170  28.067  1.00  0.00     0.251 C 
ATOM      6  H   UNL A   1      31.270  34.045  26.888  1.00  0.00     0.163 HD
BRANCH   5   7
ATOM      7  C   UNL A   1      34.138  33.532  28.515  1.00  0.00     0.039 A 
ATOM      8  C   UNL A   1      34.130  32.550  29.504  1.00  0.00     0.014 A 
ATOM      9  C   UNL A   1      35.347  33.922  27.931  1.00  0.00     0.014 A 
ATOM     10  C   UNL A   1      35.330  32.108  30.047  1.00  0.00     0.010 A 
ATOM     11  C   UNL A   1      36.551  33.386  28.399  1.00  0.00     0.010 A 
ATOM     12  C   UNL A   1      36.557  32.508  29.494  1.00  0.00    -0.014 A 
BRANCH  12  13
ATOM     13  C   UNL A   1      37.816  31.953  30.054  1.00  0.00     0.031 A 
ATOM     14  C   UNL A   1      38.473  32.562  31.264  1.00  0.00     0.074 A 
ATOM     15  C   UNL A   1      38.345  30.851  29.486  1.00  0.00     0.049 A 
ATOM     16  N   UNL A   1      39.537  32.156  31.913  1.00  0.00    -0.248 NA
ATOM     17  C   UNL A   1      37.869  33.786  31.812  1.00  0.00     0.031 C 
ATOM     18  C   UNL A   1      37.802  30.166  28.309  1.00  0.00     0.029 A 
ATOM     19  N   UNL A   1      39.431  30.092  29.839  1.00  0.00    -0.354 N 
ATOM     20  C   UNL A   1      39.743  33.083  32.928  1.00  0.00     0.074 A 
ATOM     21  C   UNL A   1      38.711  34.089  32.791  1.00  0.00     0.031 C 
ATOM     22  C   UNL A   1      38.513  29.053  28.082  1.00  0.00     0.029 A 
ATOM     23  C   UNL A   1      39.604  28.984  29.045  1.00  0.00     0.049 A 
ATOM     24  H   UNL A   1      40.028  30.318  30.587  1.00  0.00     0.167 HD
ATOM     25  C   UNL A   1      40.701  33.095  33.887  1.00  0.00     0.031 A 
ATOM     26  C   UNL A   1      40.543  28.021  29.077  1.00  0.00     0.031 A 
ATOM     27  C   UNL A   1      41.730  32.094  34.019  1.00  0.00     0.049 A 
ATOM     28  C   UNL A   1      41.617  28.085  30.122  1.00  0.00     0.074 A 
ATOM     29  C   UNL A   1      42.721  31.999  34.981  1.00  0.00     0.029 A 
ATOM     30  N   UNL A   1      41.906  31.022  33.157  1.00  0.00    -0.354 N 
ATOM     31  N   UNL A   1      41.769  28.945  31.100  1.00  0.00    -0.248 NA
ATOM     32  C   UNL A   1      42.649  27.043  30.065  1.00  0.00     0.031 C 
ATOM     33  C   UNL A   1      43.536  30.907  34.663  1.00  0.00     0.029 A 
ATOM     34  C   UNL A   1      43.011  30.280  33.544  1.00  0.00     0.049 A 
ATOM     35  H   UNL A   1      41.332  30.819  32.384  1.00  0.00     0.167 HD
ATOM     36  C   UNL A   1      42.898  28.532  31.792  1.00  0.00     0.074 A 
ATOM     37  C   UNL A   1      43.378  27.333  31.133  1.00  0.00     0.031 C 
ATOM     38  C   UNL A   1      43.483  29.094  32.877  1.00  0.00     0.031 A 
BRANCH  25  39
ATOM     39  C   UNL A   1      40.710  34.254  34.849  1.00  0.00    -0.014 A 
ATOM     40  C   UNL A   1      41.367  35.458  34.550  1.00  0.00     0.009 A 
ATOM     41  C   UNL A   1      40.014  34.149  36.065  1.00  0.00     0.009 A 
ATOM     42  C   UNL A   1      41.363  36.515  35.464  1.00  0.00     0.001 A 
ATOM     43  C   UNL A   1      39.985  35.217  36.964  1.00  0.00     0.001 A 
ATOM     44  C   UNL A   1      40.669  36.396  36.668  1.00  0.00     0.000 A 
ENDBRANCH  25  39
BRANCH  26  45
ATOM     45  C   UNL A   1      40.509  26.918  28.082  1.00  0.00    -0.014 A 
ATOM     46  C   UNL A   1      39.802  25.736  28.351  1.00  0.00     0.009 A 
ATOM     47  C   UNL A   1      41.179  27.043  26.855  1.00  0.00     0.009 A 
ATOM     48  C   UNL A   1      39.790  24.693  27.423  1.00  0.00     0.001 A 
ATOM     49  C   UNL A   1      41.136  26.012  25.915  1.00  0.00     0.001 A 
ATOM     50  C   UNL A   1      40.452  24.833  26.204  1.00  0.00     0.000 A 
ENDBRANCH  26  45
BRANCH  38  51
ATOM     51  C   UNL A   1      44.687  28.390  33.443  1.00  0.00    -0.014 A 
ATOM     52  C   UNL A   1      45.990  28.729  33.046  1.00  0.00     0.009 A 
ATOM     53  C   UNL A   1      44.509  27.379  34.400  1.00  0.00     0.009 A 
ATOM     54  C   UNL A   1      47.087  28.039  33.564  1.00  0.00     0.001 A 
ATOM     55  C   UNL A   1      45.610  26.714  34.942  1.00  0.00     0.001 A 
ATOM     56  C   UNL A   1      46.897  27.035  34.514  1.00  0.00     0.000 A 
ENDBRANCH  38  51
ENDBRANCH  12  13
ENDBRANCH   5   7
ENDBRANCH   2   3
ENDBRANCH   1   2
BRANCH   1  57
ATOM     57  C   UNL A   1      30.858  30.714  24.965  1.00  0.00     0.118 C 
BRANCH  57  58
ATOM     58  N   UNL A   1      29.994  31.108  23.858  1.00  0.00    -0.352 N 
ATOM     59  C   UNL A   1      29.436  30.348  22.863  1.00  0.00     0.251 C 
ATOM     60  H   UNL A   1      29.779  32.068  23.820  1.00  0.00     0.163 HD
ATOM     61  O   UNL A   1      28.889  30.877  21.901  1.00  0.00    -0.269 OA
BRANCH  59  62
ATOM     62  C   UNL A   1      29.523  28.881  22.935  1.00  0.00     0.045 A 
ATOM     63  C   UNL A   1      28.485  28.136  23.498  1.00  0.00     0.057 A 
ATOM     64  C   UNL A   1      30.671  28.251  22.463  1.00  0.00     0.057 A 
ATOM     65  C   UNL A   1      28.665  26.776  23.724  1.00  0.00     0.168 A 
ATOM     66  C   UNL A   1      30.826  26.888  22.690  1.00  0.00     0.168 A 
ATOM     67  F   UNL A   1      27.673  26.121  24.341  1.00  0.00    -0.203 F 
ATOM     68  C   UNL A   1      29.863  26.147  23.386  1.00  0.00     0.191 A 
ATOM     69  F   UNL A   1      31.972  26.305  22.306  1.00  0.00    -0.203 F 
BRANCH  68  70
ATOM     70  O   UNL A   1      30.258  24.890  23.752  1.00  0.00    -0.483 OA
BRANCH  70  71
ATOM     71  C   UNL A   1      30.762  24.667  25.072  1.00  0.00     0.265 C 
BRANCH  71  72
ATOM     72  C   UNL A   1      31.707  25.713  25.654  1.00  0.00    -0.011 A 
ATOM     73  C   UNL A   1      31.153  26.727  26.456  1.00  0.00     0.008 A 
ATOM     74  C   UNL A   1      33.087  25.755  25.404  1.00  0.00     0.008 A 
ATOM     75  C   UNL A   1      31.944  27.760  26.966  1.00  0.00     0.016 A 
ATOM     76  C   UNL A   1      33.878  26.801  25.890  1.00  0.00     0.016 A 
ATOM     77  C   UNL A   1      33.303  27.801  26.666  1.00  0.00     0.017 A 
ATOM     78  Br  UNL A   1      34.371  29.218  27.312  1.00  0.00    -0.051 Br
ENDBRANCH  71  72
ENDBRANCH  70  71
ENDBRANCH  68  70
ENDBRANCH  59  62
ENDBRANCH  57  58
ENDBRANCH   1  57
TORSDOF 13
ENDMDL
MODEL 2
REMARK VINA RESULT:     -11.0      1.982      2.625
REMARK SMILES O=C(NCCCNC(=O)c1cc(F)c(OCc2ccc(Br)cc2)c(F)c1)c1ccc(-c2c3nc(c(-c4ccccc4)c4ccc([nH]4)c(-c4ccccc4)c4nc(c(-c5ccccc5)c5ccc2[nH]5)C=C4)C=C3)cc1
REMARK SMILES IDX 5 1 4 2 3 3 1 4 2 5 27 7 28 8 74 9 29 10 73 11 30 12 31 13
REMARK SMILES IDX 32 14 67 15 33 16 72 17 66 18 68 19 34 20 71 21 65 22 64 23
REMARK SMILES IDX 35 25 57 26 42 27 56 28 43 29 46 30 55 31 69 32 44 33 45 34
REMARK SMILES IDX 54 36 70 37 47 38 36 39 37 40 41 41 38 42 40 43 39 44 58 45
REMARK SMILES IDX 59 46 63 47 60 48 62 49 61 50 48 51 49 52 53 53 50 54 52 55
REMARK SMILES IDX 51 56 6 57 7 58 8 59 9 61 10 62 11 63 26 64 12 65 24 66
REMARK SMILES IDX 13 67 14 68 25 69 15 70 16 71 17 72 18 73 23 74 19 75 22 76
REMARK SMILES IDX 20 77 21 78
REMARK H PARENT 3 6 68 24 46 35 7 60
REMARK Flexibility Score: inf
ROOT
ATOM      1  C   UNL A   1      31.388  31.763  26.550  1.00  0.00     0.042 C 
ENDROOT
BRANCH   1   2
ATOM      2  C   UNL A   1      32.654  32.446  27.048  1.00  0.00     0.118 C 
BRANCH   2   3
ATOM      3  N   UNL A   1      32.417  33.779  27.584  1.00  0.00    -0.352 N 
ATOM      4  O   UNL A   1      32.661  35.560  28.942  1.00  0.00    -0.269 OA
ATOM      5  C   UNL A   1      33.115  34.499  28.528  1.00  0.00     0.251 C 
ATOM      6  H   UNL A   1      31.631  34.240  27.213  1.00  0.00     0.163 HD
BRANCH   5   7
ATOM      7  C   UNL A   1      34.392  33.984  29.069  1.00  0.00     0.039 A 
ATOM      8  C   UNL A   1      35.609  34.325  28.481  1.00  0.00     0.014 A 
ATOM      9  C   UNL A   1      34.371  33.146  30.189  1.00  0.00     0.014 A 
ATOM     10  C   UNL A   1      36.773  33.679  28.878  1.00  0.00     0.010 A 
ATOM     11  C   UNL A   1      35.563  32.588  30.663  1.00  0.00     0.010 A 
ATOM     12  C   UNL A   1      36.769  32.812  29.983  1.00  0.00    -0.014 A 
BRANCH  12  13
ATOM     13  C   UNL A   1      38.050  32.201  30.424  1.00  0.00     0.031 A 
ATOM     14  C   UNL A   1      38.857  32.794  31.547  1.00  0.00     0.074 A 
ATOM     15  C   UNL A   1      38.461  31.064  29.828  1.00  0.00     0.049 A 
ATOM     16  N   UNL A   1      39.960  32.343  32.094  1.00  0.00    -0.248 NA
ATOM     17  C   UNL A   1      38.375  34.056  32.129  1.00  0.00     0.031 C 
ATOM     18  C   UNL A   1      37.767  30.390  28.726  1.00  0.00     0.029 A 
ATOM     19  N   UNL A   1      39.539  30.255  30.085  1.00  0.00    -0.354 N 
ATOM     20  C   UNL A   1      40.315  33.274  33.063  1.00  0.00     0.074 A 
ATOM     21  C   UNL A   1      39.326  34.330  33.011  1.00  0.00     0.031 C 
ATOM     22  C   UNL A   1      38.394  29.238  28.451  1.00  0.00     0.029 A 
ATOM     23  C   UNL A   1      39.574  29.128  29.300  1.00  0.00     0.049 A 
ATOM     24  H   UNL A   1      40.220  30.462  30.763  1.00  0.00     0.167 HD
ATOM     25  C   UNL A   1      41.366  33.251  33.919  1.00  0.00     0.031 A 
ATOM     26  C   UNL A   1      40.461  28.117  29.257  1.00  0.00     0.031 A 
ATOM     27  C   UNL A   1      42.351  32.200  33.968  1.00  0.00     0.049 A 
ATOM     28  C   UNL A   1      41.638  28.142  30.186  1.00  0.00     0.074 A 
ATOM     29  C   UNL A   1      43.429  32.068  34.825  1.00  0.00     0.029 A 
ATOM     30  N   UNL A   1      42.384  31.107  33.114  1.00  0.00    -0.354 N 
ATOM     31  N   UNL A   1      41.932  29.007  31.125  1.00  0.00    -0.248 NA
ATOM     32  C   UNL A   1      42.606  27.047  30.047  1.00  0.00     0.031 C 
ATOM     33  C   UNL A   1      44.152  30.931  34.449  1.00  0.00     0.029 A 
ATOM     34  C   UNL A   1      43.484  30.315  33.403  1.00  0.00     0.049 A 
ATOM     35  H   UNL A   1      41.724  30.922  32.408  1.00  0.00     0.167 HD
ATOM     36  C   UNL A   1      43.104  28.547  31.708  1.00  0.00     0.074 A 
ATOM     37  C   UNL A   1      43.454  27.315  31.029  1.00  0.00     0.031 C 
ATOM     38  C   UNL A   1      43.825  29.095  32.716  1.00  0.00     0.031 A 
BRANCH  25  39
ATOM     39  C   UNL A   1      41.531  34.422  34.852  1.00  0.00    -0.014 A 
ATOM     40  C   UNL A   1      40.961  34.430  36.135  1.00  0.00     0.009 A 
ATOM     41  C   UNL A   1      42.303  35.524  34.449  1.00  0.00     0.009 A 
ATOM     42  C   UNL A   1      41.126  35.533  36.978  1.00  0.00     0.001 A 
ATOM     43  C   UNL A   1      42.493  36.612  35.304  1.00  0.00     0.001 A 
ATOM     44  C   UNL A   1      41.895  36.621  36.564  1.00  0.00     0.000 A 
ENDBRANCH  25  39
BRANCH  26  45
ATOM     45  C   UNL A   1      40.270  27.002  28.293  1.00  0.00    -0.014 A 
ATOM     46  C   UNL A   1      40.821  27.071  27.005  1.00  0.00     0.009 A 
ATOM     47  C   UNL A   1      39.540  25.861  28.658  1.00  0.00     0.009 A 
ATOM     48  C   UNL A   1      40.622  26.031  26.094  1.00  0.00     0.001 A 
ATOM     49  C   UNL A   1      39.372  24.808  27.758  1.00  0.00     0.001 A 
ATOM     50  C   UNL A   1      39.903  24.899  26.473  1.00  0.00     0.000 A 
ENDBRANCH  26  45
BRANCH  38  51
ATOM     51  C   UNL A   1      45.043  28.339  33.172  1.00  0.00    -0.014 A 
ATOM     52  C   UNL A   1      44.965  27.352  34.167  1.00  0.00     0.009 A 
ATOM     53  C   UNL A   1      46.288  28.614  32.584  1.00  0.00     0.009 A 
ATOM     54  C   UNL A   1      46.116  26.687  34.594  1.00  0.00     0.001 A 
ATOM     55  C   UNL A   1      47.431  27.923  32.989  1.00  0.00     0.001 A 
ATOM     56  C   UNL A   1      47.347  26.970  34.002  1.00  0.00     0.000 A 
ENDBRANCH  38  51
ENDBRANCH  12  13
ENDBRANCH   5   7
ENDBRANCH   2   3
ENDBRANCH   1   2
BRANCH   1  57
ATOM     57  C   UNL A   1      31.582  30.305  26.154  1.00  0.00     0.118 C 
BRANCH  57  58
ATOM     58  N   UNL A   1      31.645  30.125  24.708  1.00  0.00    -0.352 N 
ATOM     59  C   UNL A   1      31.747  28.976  23.968  1.00  0.00     0.251 C 
ATOM     60  H   UNL A   1      31.609  30.957  24.183  1.00  0.00     0.163 HD
ATOM     61  O   UNL A   1      31.980  29.022  22.765  1.00  0.00    -0.269 OA
BRANCH  59  62
ATOM     62  C   UNL A   1      31.607  27.670  24.632  1.00  0.00     0.045 A 
ATOM     63  C   UNL A   1      30.345  27.112  24.840  1.00  0.00     0.057 A 
ATOM     64  C   UNL A   1      32.752  27.016  25.079  1.00  0.00     0.057 A 
ATOM     65  C   UNL A   1      30.222  25.974  25.629  1.00  0.00     0.168 A 
ATOM     66  C   UNL A   1      32.607  25.874  25.858  1.00  0.00     0.168 A 
ATOM     67  F   UNL A   1      28.984  25.524  25.868  1.00  0.00    -0.203 F 
ATOM     68  C   UNL A   1      31.345  25.378  26.205  1.00  0.00     0.191 A 
ATOM     69  F   UNL A   1      33.713  25.297  26.353  1.00  0.00    -0.203 F 
BRANCH  68  70
ATOM     70  O   UNL A   1      31.352  24.410  27.171  1.00  0.00    -0.483 OA
BRANCH  70  71
ATOM     71  C   UNL A   1      31.265  23.034  26.788  1.00  0.00     0.265 C 
BRANCH  71  72
ATOM     72  C   UNL A   1      32.538  22.356  26.294  1.00  0.00    -0.011 A 
ATOM     73  C   UNL A   1      33.611  22.234  27.195  1.00  0.00     0.008 A 
ATOM     74  C   UNL A   1      32.723  21.887  24.985  1.00  0.00     0.008 A 
ATOM     75  C   UNL A   1      34.834  21.688  26.794  1.00  0.00     0.016 A 
ATOM     76  C   UNL A   1      33.954  21.366  24.572  1.00  0.00     0.016 A 
ATOM     77  C   UNL A   1      35.004  21.271  25.477  1.00  0.00     0.017 A 
ATOM     78  Br  UNL A   1      36.668  20.576  24.914  1.00  0.00    -0.051 Br
ENDBRANCH  71  72
ENDBRANCH  70  71
ENDBRANCH  68  70
ENDBRANCH  59  62
ENDBRANCH  57  58
ENDBRANCH   1  57
TORSDOF 13
ENDMDL
MODEL 3
REMARK VINA RESULT:     -11.0      0.502      5.953
REMARK SMILES O=C(NCCCNC(=O)c1cc(F)c(OCc2ccc(Br)cc2)c(F)c1)c1ccc(-c2c3nc(c(-c4ccccc4)c4ccc([nH]4)c(-c4ccccc4)c4nc(c(-c5ccccc5)c5ccc2[nH]5)C=C4)C=C3)cc1
REMARK SMILES IDX 5 1 4 2 3 3 1 4 2 5 27 7 28 8 74 9 29 10 73 11 30 12 31 13
REMARK SMILES IDX 32 14 67 15 33 16 72 17 66 18 68 19 34 20 71 21 65 22 64 23
REMARK SMILES IDX 35 25 57 26 42 27 56 28 43 29 46 30 55 31 69 32 44 33 45 34
REMARK SMILES IDX 54 36 70 37 47 38 36 39 37 40 41 41 38 42 40 43 39 44 58 45
REMARK SMILES IDX 59 46 63 47 60 48 62 49 61 50 48 51 49 52 53 53 50 54 52 55
REMARK SMILES IDX 51 56 6 57 7 58 8 59 9 61 10 62 11 63 26 64 12 65 24 66
REMARK SMILES IDX 13 67 14 68 25 69 15 70 16 71 17 72 18 73 23 74 19 75 22 76
REMARK SMILES IDX 20 77 21 78
REMARK H PARENT 3 6 68 24 46 35 7 60
REMARK Flexibility Score: inf
ROOT
ATOM      1  C   UNL A   1      30.824  31.949  26.422  1.00  0.00     0.042 C 
ENDROOT
BRANCH   1   2
ATOM      2  C   UNL A   1      32.212  32.461  26.780  1.00  0.00     0.118 C 
BRANCH   2   3
ATOM      3  N   UNL A   1      32.203  33.802  27.349  1.00  0.00    -0.352 N 
ATOM      4  O   UNL A   1      32.785  35.499  28.712  1.00  0.00    -0.269 OA
ATOM      5  C   UNL A   1      33.055  34.394  28.254  1.00  0.00     0.251 C 
ATOM      6  H   UNL A   1      31.468  34.378  27.038  1.00  0.00     0.163 HD
BRANCH   5   7
ATOM      7  C   UNL A   1      34.277  33.690  28.702  1.00  0.00     0.039 A 
ATOM      8  C   UNL A   1      34.226  32.752  29.732  1.00  0.00     0.014 A 
ATOM      9  C   UNL A   1      35.496  33.972  28.078  1.00  0.00     0.014 A 
ATOM     10  C   UNL A   1      35.406  32.251  30.269  1.00  0.00     0.010 A 
ATOM     11  C   UNL A   1      36.672  33.374  28.543  1.00  0.00     0.010 A 
ATOM     12  C   UNL A   1      36.644  32.544  29.674  1.00  0.00    -0.014 A 
BRANCH  12  13
ATOM     13  C   UNL A   1      37.875  31.927  30.231  1.00  0.00     0.031 A 
ATOM     14  C   UNL A   1      38.446  30.657  29.658  1.00  0.00     0.074 A 
ATOM     15  C   UNL A   1      38.512  32.553  31.241  1.00  0.00     0.049 A 
ATOM     16  N   UNL A   1      39.548  30.029  29.987  1.00  0.00    -0.248 NA
ATOM     17  C   UNL A   1      37.683  30.002  28.585  1.00  0.00     0.031 C 
ATOM     18  C   UNL A   1      38.060  33.791  31.884  1.00  0.00     0.029 A 
ATOM     19  N   UNL A   1      39.690  32.260  31.879  1.00  0.00    -0.354 N 
ATOM     20  C   UNL A   1      39.598  28.897  29.183  1.00  0.00     0.074 A 
ATOM     21  C   UNL A   1      38.402  28.909  28.369  1.00  0.00     0.031 C 
ATOM     22  C   UNL A   1      38.982  34.187  32.772  1.00  0.00     0.029 A 
ATOM     23  C   UNL A   1      40.050  33.196  32.817  1.00  0.00     0.049 A 
ATOM     24  H   UNL A   1      40.224  31.457  31.685  1.00  0.00     0.167 HD
ATOM     25  C   UNL A   1      40.554  27.937  29.126  1.00  0.00     0.031 A 
ATOM     26  C   UNL A   1      41.116  33.252  33.635  1.00  0.00     0.031 A 
ATOM     27  C   UNL A   1      41.743  27.926  29.939  1.00  0.00     0.049 A 
ATOM     28  C   UNL A   1      42.134  32.152  33.580  1.00  0.00     0.074 A 
ATOM     29  C   UNL A   1      42.788  27.018  29.926  1.00  0.00     0.029 A 
ATOM     30  N   UNL A   1      42.040  28.860  30.920  1.00  0.00    -0.354 N 
ATOM     31  N   UNL A   1      42.188  31.114  32.782  1.00  0.00    -0.248 NA
ATOM     32  C   UNL A   1      43.241  32.235  34.542  1.00  0.00     0.031 C 
ATOM     33  C   UNL A   1      43.684  27.365  30.943  1.00  0.00     0.029 A 
ATOM     34  C   UNL A   1      43.234  28.531  31.543  1.00  0.00     0.049 A 
ATOM     35  H   UNL A   1      41.484  29.642  31.142  1.00  0.00     0.167 HD
ATOM     36  C   UNL A   1      43.347  30.434  33.126  1.00  0.00     0.074 A 
ATOM     37  C   UNL A   1      43.976  31.189  34.191  1.00  0.00     0.031 C 
ATOM     38  C   UNL A   1      43.846  29.287  32.605  1.00  0.00     0.031 A 
BRANCH  25  39
ATOM     39  C   UNL A   1      40.333  26.790  28.174  1.00  0.00    -0.014 A 
ATOM     40  C   UNL A   1      40.860  26.798  26.872  1.00  0.00     0.009 A 
ATOM     41  C   UNL A   1      39.614  25.663  28.604  1.00  0.00     0.009 A 
ATOM     42  C   UNL A   1      40.635  25.722  26.009  1.00  0.00     0.001 A 
ATOM     43  C   UNL A   1      39.417  24.575  27.751  1.00  0.00     0.001 A 
ATOM     44  C   UNL A   1      39.918  24.610  26.450  1.00  0.00     0.000 A 
ENDBRANCH  25  39
BRANCH  26  45
ATOM     45  C   UNL A   1      41.269  34.389  34.580  1.00  0.00    -0.014 A 
ATOM     46  C   UNL A   1      40.704  34.331  35.863  1.00  0.00     0.009 A 
ATOM     47  C   UNL A   1      41.985  35.537  34.206  1.00  0.00     0.009 A 
ATOM     48  C   UNL A   1      40.831  35.409  36.741  1.00  0.00     0.001 A 
ATOM     49  C   UNL A   1      42.140  36.599  35.098  1.00  0.00     0.001 A 
ATOM     50  C   UNL A   1      41.553  36.539  36.360  1.00  0.00     0.000 A 
ENDBRANCH  26  45
BRANCH  38  51
ATOM     51  C   UNL A   1      45.161  28.804  33.155  1.00  0.00    -0.014 A 
ATOM     52  C   UNL A   1      45.222  27.914  34.239  1.00  0.00     0.009 A 
ATOM     53  C   UNL A   1      46.358  29.241  32.567  1.00  0.00     0.009 A 
ATOM     54  C   UNL A   1      46.456  27.507  34.750  1.00  0.00     0.001 A 
ATOM     55  C   UNL A   1      47.590  28.806  33.058  1.00  0.00     0.001 A 
ATOM     56  C   UNL A   1      47.637  27.949  34.157  1.00  0.00     0.000 A 
ENDBRANCH  38  51
ENDBRANCH  12  13
ENDBRANCH   5   7
ENDBRANCH   2   3
ENDBRANCH   1   2
BRANCH   1  57
ATOM     57  C   UNL A   1      30.793  31.033  25.207  1.00  0.00     0.118 C 
BRANCH  57  58
ATOM     58  N   UNL A   1      29.867  31.499  24.181  1.00  0.00    -0.352 N 
ATOM     59  C   UNL A   1      29.292  30.819  23.138  1.00  0.00     0.251 C 
ATOM     60  H   UNL A   1      29.616  32.449  24.248  1.00  0.00     0.163 HD
ATOM     61  O   UNL A   1      28.684  31.418  22.258  1.00  0.00    -0.269 OA
BRANCH  59  62
ATOM     62  C   UNL A   1      29.436  29.357  23.059  1.00  0.00     0.045 A 
ATOM     63  C   UNL A   1      28.435  28.519  23.554  1.00  0.00     0.057 A 
ATOM     64  C   UNL A   1      30.600  28.823  22.514  1.00  0.00     0.057 A 
ATOM     65  C   UNL A   1      28.669  27.151  23.638  1.00  0.00     0.168 A 
ATOM     66  C   UNL A   1      30.809  27.451  22.599  1.00  0.00     0.168 A 
ATOM     67  F   UNL A   1      27.712  26.398  24.196  1.00  0.00    -0.203 F 
ATOM     68  C   UNL A   1      29.885  26.606  23.225  1.00  0.00     0.191 A 
ATOM     69  F   UNL A   1      31.970  26.955  22.145  1.00  0.00    -0.203 F 
BRANCH  68  70
ATOM     70  O   UNL A   1      30.333  25.335  23.458  1.00  0.00    -0.483 OA
BRANCH  70  71
ATOM     71  C   UNL A   1      30.816  24.985  24.757  1.00  0.00     0.265 C 
BRANCH  71  72
ATOM     72  C   UNL A   1      31.723  25.985  25.467  1.00  0.00    -0.011 A 
ATOM     73  C   UNL A   1      31.135  26.861  26.397  1.00  0.00     0.008 A 
ATOM     74  C   UNL A   1      33.097  26.116  25.218  1.00  0.00     0.008 A 
ATOM     75  C   UNL A   1      31.889  27.851  27.034  1.00  0.00     0.016 A 
ATOM     76  C   UNL A   1      33.850  27.123  25.834  1.00  0.00     0.016 A 
ATOM     77  C   UNL A   1      33.242  27.987  26.736  1.00  0.00     0.017 A 
ATOM     78  Br  UNL A   1      34.257  29.352  27.558  1.00  0.00    -0.051 Br
ENDBRANCH  71  72
ENDBRANCH  70  71
ENDBRANCH  68  70
ENDBRANCH  59  62
ENDBRANCH  57  58
ENDBRANCH   1  57
TORSDOF 13
ENDMDL
