MODEL 1
REMARK VINA RESULT:     -11.6      0.000      0.000
REMARK SMILES O=C(NCCCNC(=O)c1ccc2c(c1)=N[C@H](C(F)(F)F)N=2)c1ccc(-c2c3nc(c(-c4ccccc4)c4ccc([nH]4)c(-c4ccccc4)c4nc(c(-c5ccccc5)c5ccc2[nH]5)C=C4)C=C3)cc1
REMARK SMILES IDX 4 1 3 2 1 3 2 4 23 6 24 7 70 8 25 9 69 10 26 11 27 12 28 13
REMARK SMILES IDX 63 14 29 15 68 16 62 17 64 18 30 19 67 20 61 21 60 22 31 24
REMARK SMILES IDX 53 25 38 26 52 27 39 28 42 29 51 30 65 31 40 32 41 33 50 35
REMARK SMILES IDX 66 36 43 37 32 38 33 39 37 40 34 41 36 42 35 43 54 44 55 45
REMARK SMILES IDX 59 46 56 47 58 48 57 49 44 50 45 51 49 52 46 53 48 54 47 55
REMARK SMILES IDX 5 56 6 57 7 58 8 59 9 61 10 62 11 63 15 64 12 65 14 66 13 67
REMARK SMILES IDX 16 68 22 69 17 70 18 71 19 72 20 73 21 74
REMARK H PARENT 3 5 64 23 42 34 7 60
REMARK Flexibility Score: inf
ROOT
ATOM      1  C   UNL A   1      33.454  28.578  27.292  1.00  0.00     0.118 C 
ENDROOT
BRANCH   1   2
ATOM      2  N   UNL A   1      33.540  29.999  27.591  1.00  0.00    -0.352 N 
ATOM      3  O   UNL A   1      34.313  31.894  28.502  1.00  0.00    -0.269 OA
ATOM      4  C   UNL A   1      34.546  30.736  28.160  1.00  0.00     0.251 C 
ATOM      5  H   UNL A   1      32.741  30.519  27.342  1.00  0.00     0.163 HD
BRANCH   4   6
ATOM      6  C   UNL A   1      35.898  30.172  28.366  1.00  0.00     0.039 A 
ATOM      7  C   UNL A   1      36.217  29.648  29.625  1.00  0.00     0.014 A 
ATOM      8  C   UNL A   1      36.878  30.233  27.373  1.00  0.00     0.014 A 
ATOM      9  C   UNL A   1      37.503  29.163  29.875  1.00  0.00     0.010 A 
ATOM     10  C   UNL A   1      38.137  29.681  27.599  1.00  0.00     0.010 A 
ATOM     11  C   UNL A   1      38.470  29.165  28.860  1.00  0.00    -0.014 A 
BRANCH  11  12
ATOM     12  C   UNL A   1      39.852  28.690  29.110  1.00  0.00     0.031 A 
ATOM     13  C   UNL A   1      40.850  29.601  29.773  1.00  0.00     0.074 A 
ATOM     14  C   UNL A   1      40.229  27.464  28.702  1.00  0.00     0.049 A 
ATOM     15  N   UNL A   1      42.120  29.399  30.010  1.00  0.00    -0.248 NA
ATOM     16  C   UNL A   1      40.360  30.920  30.204  1.00  0.00     0.031 C 
ATOM     17  C   UNL A   1      39.363  26.491  28.037  1.00  0.00     0.029 A 
ATOM     18  N   UNL A   1      41.443  26.830  28.786  1.00  0.00    -0.354 N 
ATOM     19  C   UNL A   1      42.585  30.572  30.592  1.00  0.00     0.074 A 
ATOM     20  C   UNL A   1      41.473  31.495  30.635  1.00  0.00     0.031 C 
ATOM     21  C   UNL A   1      40.066  25.372  27.800  1.00  0.00     0.029 A 
ATOM     22  C   UNL A   1      41.440  25.564  28.257  1.00  0.00     0.049 A 
ATOM     23  H   UNL A   1      42.241  27.243  29.189  1.00  0.00     0.167 HD
ATOM     24  C   UNL A   1      43.822  30.849  31.065  1.00  0.00     0.031 A 
ATOM     25  C   UNL A   1      42.430  24.658  28.142  1.00  0.00     0.031 A 
ATOM     26  C   UNL A   1      44.918  29.919  31.054  1.00  0.00     0.049 A 
ATOM     27  C   UNL A   1      43.802  24.993  28.654  1.00  0.00     0.074 A 
ATOM     28  C   UNL A   1      46.185  30.081  31.586  1.00  0.00     0.029 A 
ATOM     29  N   UNL A   1      44.878  28.657  30.482  1.00  0.00    -0.354 N 
ATOM     30  N   UNL A   1      44.214  26.088  29.245  1.00  0.00    -0.248 NA
ATOM     31  C   UNL A   1      44.846  23.972  28.483  1.00  0.00     0.031 C 
ATOM     32  C   UNL A   1      46.930  28.937  31.287  1.00  0.00     0.029 A 
ATOM     33  C   UNL A   1      46.111  28.042  30.617  1.00  0.00     0.049 A 
ATOM     34  H   UNL A   1      44.090  28.259  30.045  1.00  0.00     0.167 HD
ATOM     35  C   UNL A   1      45.559  25.885  29.527  1.00  0.00     0.074 A 
ATOM     36  C   UNL A   1      45.892  24.557  29.054  1.00  0.00     0.031 C 
ATOM     37  C   UNL A   1      46.435  26.727  30.127  1.00  0.00     0.031 A 
BRANCH  24  38
ATOM     38  C   UNL A   1      44.062  32.218  31.635  1.00  0.00    -0.014 A 
ATOM     39  C   UNL A   1      44.537  33.245  30.803  1.00  0.00     0.009 A 
ATOM     40  C   UNL A   1      43.876  32.482  33.001  1.00  0.00     0.009 A 
ATOM     41  C   UNL A   1      44.818  34.507  31.327  1.00  0.00     0.001 A 
ATOM     42  C   UNL A   1      44.131  33.755  33.517  1.00  0.00     0.001 A 
ATOM     43  C   UNL A   1      44.608  34.764  32.681  1.00  0.00     0.000 A 
ENDBRANCH  24  38
BRANCH  25  44
ATOM     44  C   UNL A   1      42.133  23.335  27.538  1.00  0.00    -0.014 A 
ATOM     45  C   UNL A   1      41.619  22.288  28.320  1.00  0.00     0.009 A 
ATOM     46  C   UNL A   1      42.434  23.092  26.190  1.00  0.00     0.009 A 
ATOM     47  C   UNL A   1      41.441  21.017  27.772  1.00  0.00     0.001 A 
ATOM     48  C   UNL A   1      42.234  21.825  25.639  1.00  0.00     0.001 A 
ATOM     49  C   UNL A   1      41.748  20.787  26.431  1.00  0.00     0.000 A 
ENDBRANCH  25  44
BRANCH  37  50
ATOM     50  C   UNL A   1      47.849  26.257  30.311  1.00  0.00    -0.014 A 
ATOM     51  C   UNL A   1      48.252  25.720  31.545  1.00  0.00     0.009 A 
ATOM     52  C   UNL A   1      48.808  26.454  29.307  1.00  0.00     0.009 A 
ATOM     53  C   UNL A   1      49.592  25.409  31.777  1.00  0.00     0.001 A 
ATOM     54  C   UNL A   1      50.144  26.119  29.533  1.00  0.00     0.001 A 
ATOM     55  C   UNL A   1      50.537  25.608  30.771  1.00  0.00     0.000 A 
ENDBRANCH  37  50
ENDBRANCH  11  12
ENDBRANCH   4   6
ENDBRANCH   1   2
BRANCH   1  56
ATOM     56  C   UNL A   1      33.804  28.264  25.841  1.00  0.00     0.042 C 
BRANCH  56  57
ATOM     57  C   UNL A   1      33.642  26.799  25.457  1.00  0.00     0.118 C 
BRANCH  57  58
ATOM     58  N   UNL A   1      34.021  26.540  24.075  1.00  0.00    -0.352 N 
ATOM     59  C   UNL A   1      33.279  26.630  22.935  1.00  0.00     0.251 C 
ATOM     60  H   UNL A   1      34.955  26.258  23.944  1.00  0.00     0.163 HD
ATOM     61  O   UNL A   1      33.744  26.248  21.863  1.00  0.00    -0.269 OA
BRANCH  59  62
ATOM     62  C   UNL A   1      31.897  27.173  23.025  1.00  0.00     0.042 A 
ATOM     63  C   UNL A   1      30.858  26.455  23.749  1.00  0.00     0.016 A 
ATOM     64  C   UNL A   1      31.695  28.359  22.429  1.00  0.00     0.044 A 
ATOM     65  C   UNL A   1      29.579  26.854  23.780  1.00  0.00     0.031 A 
ATOM     66  C   UNL A   1      30.329  28.886  22.448  1.00  0.00     0.087 A 
ATOM     67  C   UNL A   1      29.252  28.107  23.097  1.00  0.00     0.086 A 
ATOM     68  N   UNL A   1      29.887  29.971  21.913  1.00  0.00    -0.247 NA
ATOM     69  N   UNL A   1      28.098  28.658  22.964  1.00  0.00    -0.247 NA
ATOM     70  C   UNL A   1      28.419  29.943  22.249  1.00  0.00     0.326 C 
BRANCH  70  71
ATOM     71  C   UNL A   1      27.986  31.181  23.086  1.00  0.00     0.431 C 
ATOM     72  F   UNL A   1      28.982  31.610  23.897  1.00  0.00    -0.167 F 
ATOM     73  F   UNL A   1      27.649  32.223  22.287  1.00  0.00    -0.167 F 
ATOM     74  F   UNL A   1      26.913  30.903  23.866  1.00  0.00    -0.167 F 
ENDBRANCH  70  71
ENDBRANCH  59  62
ENDBRANCH  57  58
ENDBRANCH  56  57
ENDBRANCH   1  56
TORSDOF 11
ENDMDL
MODEL 2
REMARK VINA RESULT:     -11.5      0.300      6.151
REMARK SMILES O=C(NCCCNC(=O)c1ccc2c(c1)=N[C@H](C(F)(F)F)N=2)c1ccc(-c2c3nc(c(-c4ccccc4)c4ccc([nH]4)c(-c4ccccc4)c4nc(c(-c5ccccc5)c5ccc2[nH]5)C=C4)C=C3)cc1
REMARK SMILES IDX 4 1 3 2 1 3 2 4 23 6 24 7 70 8 25 9 69 10 26 11 27 12 28 13
REMARK SMILES IDX 63 14 29 15 68 16 62 17 64 18 30 19 67 20 61 21 60 22 31 24
REMARK SMILES IDX 53 25 38 26 52 27 39 28 42 29 51 30 65 31 40 32 41 33 50 35
REMARK SMILES IDX 66 36 43 37 32 38 33 39 37 40 34 41 36 42 35 43 54 44 55 45
REMARK SMILES IDX 59 46 56 47 58 48 57 49 44 50 45 51 49 52 46 53 48 54 47 55
REMARK SMILES IDX 5 56 6 57 7 58 8 59 9 61 10 62 11 63 15 64 12 65 14 66 13 67
REMARK SMILES IDX 16 68 22 69 17 70 18 71 19 72 20 73 21 74
REMARK H PARENT 3 5 64 23 42 34 7 60
REMARK Flexibility Score: inf
ROOT
ATOM      1  C   UNL A   1      33.551  28.413  27.267  1.00  0.00     0.118 C 
ENDROOT
BRANCH   1   2
ATOM      2  N   UNL A   1      33.563  29.842  27.541  1.00  0.00    -0.352 N 
ATOM      3  O   UNL A   1      34.232  31.790  28.423  1.00  0.00    -0.269 OA
ATOM      4  C   UNL A   1      34.526  30.639  28.103  1.00  0.00     0.251 C 
ATOM      5  H   UNL A   1      32.740  30.316  27.278  1.00  0.00     0.163 HD
BRANCH   4   6
ATOM      6  C   UNL A   1      35.903  30.149  28.328  1.00  0.00     0.039 A 
ATOM      7  C   UNL A   1      36.243  29.675  29.602  1.00  0.00     0.014 A 
ATOM      8  C   UNL A   1      36.883  30.230  27.336  1.00  0.00     0.014 A 
ATOM      9  C   UNL A   1      37.550  29.262  29.868  1.00  0.00     0.010 A 
ATOM     10  C   UNL A   1      38.166  29.747  27.580  1.00  0.00     0.010 A 
ATOM     11  C   UNL A   1      38.520  29.283  28.856  1.00  0.00    -0.014 A 
BRANCH  11  12
ATOM     12  C   UNL A   1      39.923  28.883  29.123  1.00  0.00     0.031 A 
ATOM     13  C   UNL A   1      40.410  27.526  28.691  1.00  0.00     0.074 A 
ATOM     14  C   UNL A   1      40.745  29.711  29.792  1.00  0.00     0.049 A 
ATOM     15  N   UNL A   1      41.573  26.964  28.898  1.00  0.00    -0.248 NA
ATOM     16  C   UNL A   1      39.458  26.683  27.951  1.00  0.00     0.031 C 
ATOM     17  C   UNL A   1      40.391  31.045  30.275  1.00  0.00     0.029 A 
ATOM     18  N   UNL A   1      42.050  29.548  30.184  1.00  0.00    -0.354 N 
ATOM     19  C   UNL A   1      41.482  25.696  28.338  1.00  0.00     0.074 A 
ATOM     20  C   UNL A   1      40.140  25.555  27.820  1.00  0.00     0.031 C 
ATOM     21  C   UNL A   1      41.462  31.592  30.874  1.00  0.00     0.029 A 
ATOM     22  C   UNL A   1      42.563  30.631  30.853  1.00  0.00     0.049 A 
ATOM     23  H   UNL A   1      42.570  28.732  30.001  1.00  0.00     0.167 HD
ATOM     24  C   UNL A   1      42.438  24.742  28.247  1.00  0.00     0.031 A 
ATOM     25  C   UNL A   1      43.778  30.831  31.397  1.00  0.00     0.031 A 
ATOM     26  C   UNL A   1      43.782  24.895  28.731  1.00  0.00     0.049 A 
ATOM     27  C   UNL A   1      44.818  29.751  31.304  1.00  0.00     0.074 A 
ATOM     28  C   UNL A   1      44.843  24.015  28.610  1.00  0.00     0.029 A 
ATOM     29  N   UNL A   1      44.250  25.998  29.428  1.00  0.00    -0.354 N 
ATOM     30  N   UNL A   1      44.732  28.575  30.730  1.00  0.00    -0.248 NA
ATOM     31  C   UNL A   1      46.119  30.020  31.934  1.00  0.00     0.031 C 
ATOM     32  C   UNL A   1      45.938  24.562  29.282  1.00  0.00     0.029 A 
ATOM     33  C   UNL A   1      45.576  25.805  29.774  1.00  0.00     0.049 A 
ATOM     34  H   UNL A   1      43.718  26.798  29.643  1.00  0.00     0.167 HD
ATOM     35  C   UNL A   1      45.968  27.970  30.918  1.00  0.00     0.074 A 
ATOM     36  C   UNL A   1      46.791  28.911  31.649  1.00  0.00     0.031 C 
ATOM     37  C   UNL A   1      46.379  26.742  30.516  1.00  0.00     0.031 A 
BRANCH  24  38
ATOM     38  C   UNL A   1      42.063  23.438  27.600  1.00  0.00    -0.014 A 
ATOM     39  C   UNL A   1      41.483  22.419  28.374  1.00  0.00     0.009 A 
ATOM     40  C   UNL A   1      42.333  23.192  26.245  1.00  0.00     0.009 A 
ATOM     41  C   UNL A   1      41.180  21.182  27.803  1.00  0.00     0.001 A 
ATOM     42  C   UNL A   1      42.002  21.963  25.670  1.00  0.00     0.001 A 
ATOM     43  C   UNL A   1      41.433  20.958  26.450  1.00  0.00     0.000 A 
ENDBRANCH  24  38
BRANCH  25  44
ATOM     44  C   UNL A   1      44.072  32.132  32.051  1.00  0.00    -0.014 A 
ATOM     45  C   UNL A   1      43.784  32.331  33.411  1.00  0.00     0.009 A 
ATOM     46  C   UNL A   1      44.570  33.204  31.297  1.00  0.00     0.009 A 
ATOM     47  C   UNL A   1      43.964  33.586  33.995  1.00  0.00     0.001 A 
ATOM     48  C   UNL A   1      44.768  34.452  31.889  1.00  0.00     0.001 A 
ATOM     49  C   UNL A   1      44.456  34.645  33.234  1.00  0.00     0.000 A 
ENDBRANCH  25  44
BRANCH  37  50
ATOM     50  C   UNL A   1      47.782  26.325  30.855  1.00  0.00    -0.014 A 
ATOM     51  C   UNL A   1      48.797  26.441  29.891  1.00  0.00     0.009 A 
ATOM     52  C   UNL A   1      48.072  25.710  32.082  1.00  0.00     0.009 A 
ATOM     53  C   UNL A   1      50.070  25.929  30.141  1.00  0.00     0.001 A 
ATOM     54  C   UNL A   1      49.354  25.221  32.338  1.00  0.00     0.001 A 
ATOM     55  C   UNL A   1      50.348  25.321  31.365  1.00  0.00     0.000 A 
ENDBRANCH  37  50
ENDBRANCH  11  12
ENDBRANCH   4   6
ENDBRANCH   1   2
BRANCH   1  56
ATOM     56  C   UNL A   1      33.820  28.097  25.800  1.00  0.00     0.042 C 
BRANCH  56  57
ATOM     57  C   UNL A   1      33.636  26.632  25.427  1.00  0.00     0.118 C 
BRANCH  57  58
ATOM     58  N   UNL A   1      33.996  26.360  24.043  1.00  0.00    -0.352 N 
ATOM     59  C   UNL A   1      33.245  26.455  22.910  1.00  0.00     0.251 C 
ATOM     60  H   UNL A   1      34.924  26.061  23.904  1.00  0.00     0.163 HD
ATOM     61  O   UNL A   1      33.693  26.060  21.835  1.00  0.00    -0.269 OA
BRANCH  59  62
ATOM     62  C   UNL A   1      31.873  27.022  23.010  1.00  0.00     0.042 A 
ATOM     63  C   UNL A   1      30.824  26.315  23.732  1.00  0.00     0.016 A 
ATOM     64  C   UNL A   1      31.689  28.217  22.425  1.00  0.00     0.044 A 
ATOM     65  C   UNL A   1      29.552  26.736  23.772  1.00  0.00     0.031 A 
ATOM     66  C   UNL A   1      30.333  28.766  22.454  1.00  0.00     0.087 A 
ATOM     67  C   UNL A   1      29.245  28.001  23.101  1.00  0.00     0.086 A 
ATOM     68  N   UNL A   1      29.908  29.864  21.931  1.00  0.00    -0.247 NA
ATOM     69  N   UNL A   1      28.100  28.573  22.978  1.00  0.00    -0.247 NA
ATOM     70  C   UNL A   1      28.441  29.859  22.273  1.00  0.00     0.326 C 
BRANCH  70  71
ATOM     71  C   UNL A   1      28.032  31.096  23.123  1.00  0.00     0.431 C 
ATOM     72  F   UNL A   1      27.027  30.803  23.981  1.00  0.00    -0.167 F 
ATOM     73  F   UNL A   1      29.071  31.546  23.869  1.00  0.00    -0.167 F 
ATOM     74  F   UNL A   1      27.617  32.122  22.341  1.00  0.00    -0.167 F 
ENDBRANCH  70  71
ENDBRANCH  59  62
ENDBRANCH  57  58
ENDBRANCH  56  57
ENDBRANCH   1  56
TORSDOF 11
ENDMDL
MODEL 3
REMARK VINA RESULT:     -11.5      4.849      8.871
REMARK SMILES O=C(NCCCNC(=O)c1ccc2c(c1)=N[C@H](C(F)(F)F)N=2)c1ccc(-c2c3nc(c(-c4ccccc4)c4ccc([nH]4)c(-c4ccccc4)c4nc(c(-c5ccccc5)c5ccc2[nH]5)C=C4)C=C3)cc1
REMARK SMILES IDX 4 1 3 2 1 3 2 4 23 6 24 7 70 8 25 9 69 10 26 11 27 12 28 13
REMARK SMILES IDX 63 14 29 15 68 16 62 17 64 18 30 19 67 20 61 21 60 22 31 24
REMARK SMILES IDX 53 25 38 26 52 27 39 28 42 29 51 30 65 31 40 32 41 33 50 35
REMARK SMILES IDX 66 36 43 37 32 38 33 39 37 40 34 41 36 42 35 43 54 44 55 45
REMARK SMILES IDX 59 46 56 47 58 48 57 49 44 50 45 51 49 52 46 53 48 54 47 55
REMARK SMILES IDX 5 56 6 57 7 58 8 59 9 61 10 62 11 63 15 64 12 65 14 66 13 67
REMARK SMILES IDX 16 68 22 69 17 70 18 71 19 72 20 73 21 74
REMARK H PARENT 3 5 64 23 42 34 7 60
REMARK Flexibility Score: inf
ROOT
ATOM      1  C   UNL A   1      37.098  23.568  24.985  1.00  0.00     0.118 C 
ENDROOT
BRANCH   1   2
ATOM      2  N   UNL A   1      38.147  22.668  25.441  1.00  0.00    -0.352 N 
ATOM      3  O   UNL A   1      40.134  22.024  26.249  1.00  0.00    -0.269 OA
ATOM      4  C   UNL A   1      39.290  22.913  26.155  1.00  0.00     0.251 C 
ATOM      5  H   UNL A   1      38.011  21.724  25.196  1.00  0.00     0.163 HD
BRANCH   4   6
ATOM      6  C   UNL A   1      39.528  24.217  26.813  1.00  0.00     0.039 A 
ATOM      7  C   UNL A   1      40.234  25.201  26.109  1.00  0.00     0.014 A 
ATOM      8  C   UNL A   1      39.147  24.452  28.136  1.00  0.00     0.014 A 
ATOM      9  C   UNL A   1      40.531  26.421  26.721  1.00  0.00     0.010 A 
ATOM     10  C   UNL A   1      39.377  25.696  28.719  1.00  0.00     0.010 A 
ATOM     11  C   UNL A   1      40.094  26.683  28.027  1.00  0.00    -0.014 A 
BRANCH  11  12
ATOM     12  C   UNL A   1      40.427  27.956  28.711  1.00  0.00     0.031 A 
ATOM     13  C   UNL A   1      41.789  28.144  29.323  1.00  0.00     0.074 A 
ATOM     14  C   UNL A   1      39.498  28.922  28.829  1.00  0.00     0.049 A 
ATOM     15  N   UNL A   1      42.246  29.148  30.025  1.00  0.00    -0.248 NA
ATOM     16  C   UNL A   1      42.756  27.048  29.141  1.00  0.00     0.031 C 
ATOM     17  C   UNL A   1      38.139  28.858  28.292  1.00  0.00     0.029 A 
ATOM     18  N   UNL A   1      39.559  30.149  29.442  1.00  0.00    -0.354 N 
ATOM     19  C   UNL A   1      43.539  28.795  30.389  1.00  0.00     0.074 A 
ATOM     20  C   UNL A   1      43.781  27.468  29.867  1.00  0.00     0.031 C 
ATOM     21  C   UNL A   1      37.504  30.007  28.574  1.00  0.00     0.029 A 
ATOM     22  C   UNL A   1      38.395  30.869  29.346  1.00  0.00     0.049 A 
ATOM     23  H   UNL A   1      40.362  30.481  29.905  1.00  0.00     0.167 HD
ATOM     24  C   UNL A   1      44.450  29.519  31.080  1.00  0.00     0.031 A 
ATOM     25  C   UNL A   1      38.074  32.084  29.830  1.00  0.00     0.031 A 
ATOM     26  C   UNL A   1      44.222  30.851  31.569  1.00  0.00     0.049 A 
ATOM     27  C   UNL A   1      39.092  32.862  30.614  1.00  0.00     0.074 A 
ATOM     28  C   UNL A   1      45.113  31.694  32.208  1.00  0.00     0.029 A 
ATOM     29  N   UNL A   1      43.018  31.532  31.476  1.00  0.00    -0.354 N 
ATOM     30  N   UNL A   1      40.327  32.535  30.909  1.00  0.00    -0.248 NA
ATOM     31  C   UNL A   1      38.676  34.173  31.133  1.00  0.00     0.031 C 
ATOM     32  C   UNL A   1      44.433  32.865  32.550  1.00  0.00     0.029 A 
ATOM     33  C   UNL A   1      43.134  32.773  32.076  1.00  0.00     0.049 A 
ATOM     34  H   UNL A   1      42.204  31.183  31.045  1.00  0.00     0.167 HD
ATOM     35  C   UNL A   1      40.839  33.601  31.636  1.00  0.00     0.074 A 
ATOM     36  C   UNL A   1      39.786  34.592  31.728  1.00  0.00     0.031 C 
ATOM     37  C   UNL A   1      42.074  33.743  32.176  1.00  0.00     0.031 A 
BRANCH  24  38
ATOM     38  C   UNL A   1      45.784  28.883  31.355  1.00  0.00    -0.014 A 
ATOM     39  C   UNL A   1      46.823  29.013  30.419  1.00  0.00     0.009 A 
ATOM     40  C   UNL A   1      45.999  28.109  32.506  1.00  0.00     0.009 A 
ATOM     41  C   UNL A   1      48.050  28.384  30.631  1.00  0.00     0.001 A 
ATOM     42  C   UNL A   1      47.238  27.503  32.729  1.00  0.00     0.001 A 
ATOM     43  C   UNL A   1      48.259  27.636  31.789  1.00  0.00     0.000 A 
ENDBRANCH  24  38
BRANCH  25  44
ATOM     44  C   UNL A   1      36.725  32.640  29.550  1.00  0.00    -0.014 A 
ATOM     45  C   UNL A   1      36.467  33.327  28.353  1.00  0.00     0.009 A 
ATOM     46  C   UNL A   1      35.713  32.550  30.516  1.00  0.00     0.009 A 
ATOM     47  C   UNL A   1      35.230  33.937  28.142  1.00  0.00     0.001 A 
ATOM     48  C   UNL A   1      34.469  33.144  30.292  1.00  0.00     0.001 A 
ATOM     49  C   UNL A   1      34.232  33.845  29.110  1.00  0.00     0.000 A 
ENDBRANCH  25  44
BRANCH  37  50
ATOM     50  C   UNL A   1      42.373  35.010  32.926  1.00  0.00    -0.014 A 
ATOM     51  C   UNL A   1      43.137  36.018  32.316  1.00  0.00     0.009 A 
ATOM     52  C   UNL A   1      42.001  35.153  34.271  1.00  0.00     0.009 A 
ATOM     53  C   UNL A   1      43.541  37.137  33.045  1.00  0.00     0.001 A 
ATOM     54  C   UNL A   1      42.387  36.285  34.991  1.00  0.00     0.001 A 
ATOM     55  C   UNL A   1      43.165  37.270  34.382  1.00  0.00     0.000 A 
ENDBRANCH  37  50
ENDBRANCH  11  12
ENDBRANCH   4   6
ENDBRANCH   1   2
BRANCH   1  56
ATOM     56  C   UNL A   1      35.902  23.598  25.931  1.00  0.00     0.042 C 
BRANCH  56  57
ATOM     57  C   UNL A   1      34.753  24.483  25.465  1.00  0.00     0.118 C 
BRANCH  57  58
ATOM     58  N   UNL A   1      33.614  24.441  26.373  1.00  0.00    -0.352 N 
ATOM     59  C   UNL A   1      32.545  23.596  26.393  1.00  0.00     0.251 C 
ATOM     60  H   UNL A   1      33.618  25.127  27.079  1.00  0.00     0.163 HD
ATOM     61  O   UNL A   1      31.613  23.797  27.169  1.00  0.00    -0.269 OA
BRANCH  59  62
ATOM     62  C   UNL A   1      32.523  22.451  25.444  1.00  0.00     0.042 A 
ATOM     63  C   UNL A   1      32.366  22.668  24.013  1.00  0.00     0.016 A 
ATOM     64  C   UNL A   1      32.686  21.235  25.991  1.00  0.00     0.044 A 
ATOM     65  C   UNL A   1      32.247  21.668  23.130  1.00  0.00     0.031 A 
ATOM     66  C   UNL A   1      32.605  20.086  25.088  1.00  0.00     0.087 A 
ATOM     67  C   UNL A   1      32.345  20.302  23.648  1.00  0.00     0.086 A 
ATOM     68  N   UNL A   1      32.687  18.835  25.383  1.00  0.00    -0.247 NA
ATOM     69  N   UNL A   1      32.223  19.199  22.999  1.00  0.00    -0.247 NA
ATOM     70  C   UNL A   1      32.503  18.158  24.050  1.00  0.00     0.326 C 
BRANCH  70  71
ATOM     71  C   UNL A   1      33.727  17.279  23.664  1.00  0.00     0.431 C 
ATOM     72  F   UNL A   1      33.563  15.994  24.059  1.00  0.00    -0.167 F 
ATOM     73  F   UNL A   1      33.915  17.259  22.322  1.00  0.00    -0.167 F 
ATOM     74  F   UNL A   1      34.869  17.740  24.229  1.00  0.00    -0.167 F 
ENDBRANCH  70  71
ENDBRANCH  59  62
ENDBRANCH  57  58
ENDBRANCH  56  57
ENDBRANCH   1  56
TORSDOF 11
ENDMDL
