MODEL 1
REMARK VINA RESULT:     -11.8      0.000      0.000
REMARK SMILES CC(C)(C)OC(=O)N1CCC2(CC1)CNc1ccc(C(=O)NCCCNC(=O)c3ccc(-c4c5nc(c(-c6ccccc6)c6ccc([nH]6)c(-c6ccccc6)c6nc(c(-c7ccccc7)c7ccc4[nH]7)C=C6)C=C5)cc3)cc12
REMARK SMILES IDX 24 1 23 2 22 3 20 4 21 5 19 7 6 8 7 9 8 10 9 11 13 12 10 13
REMARK SMILES IDX 12 14 11 15 14 16 78 17 15 18 16 19 77 20 17 22 18 23 5 24
REMARK SMILES IDX 2 25 1 26 3 27 4 28 25 29 26 30 27 31 28 33 29 34 30 35
REMARK SMILES IDX 76 36 31 37 75 38 32 39 33 40 34 41 69 42 35 43 74 44 68 45
REMARK SMILES IDX 70 46 36 47 73 48 67 49 66 50 37 52 59 53 44 54 58 55 45 56
REMARK SMILES IDX 48 57 57 58 71 59 46 60 47 61 56 63 72 64 49 65 38 66 39 67
REMARK SMILES IDX 43 68 40 69 42 70 41 71 60 72 61 73 65 74 62 75 64 76 63 77
REMARK SMILES IDX 50 78 51 79 55 80 52 81 54 82 53 83
REMARK H PARENT 22 6 15 21 26 32 70 51 48 62
REMARK Flexibility Score: inf
ROOT
ATOM      1  C   UNL A   1      38.042  20.119  24.901  1.00  0.00     0.042 C 
ENDROOT
BRANCH   1   2
ATOM      2  C   UNL A   1      37.081  21.304  24.828  1.00  0.00     0.118 C 
BRANCH   2   3
ATOM      3  N   UNL A   1      36.347  21.453  26.070  1.00  0.00    -0.352 N 
ATOM      4  C   UNL A   1      35.028  21.684  26.362  1.00  0.00     0.251 C 
ATOM      5  O   UNL A   1      34.731  21.735  27.558  1.00  0.00    -0.269 OA
ATOM      6  H   UNL A   1      36.914  21.372  26.871  1.00  0.00     0.163 HD
BRANCH   4   7
ATOM      7  C   UNL A   1      33.946  21.831  25.344  1.00  0.00     0.040 A 
ATOM      8  C   UNL A   1      31.600  28.798  24.417  1.00  0.00     0.410 C 
ATOM      9  O   UNL A   1      32.049  29.579  23.595  1.00  0.00    -0.224 OA
ATOM     10  N   UNL A   1      31.309  27.477  24.122  1.00  0.00    -0.308 N 
ATOM     11  C   UNL A   1      31.866  26.895  22.914  1.00  0.00     0.124 C 
ATOM     12  C   UNL A   1      30.400  26.643  24.900  1.00  0.00     0.124 C 
ATOM     13  C   UNL A   1      32.571  25.583  23.251  1.00  0.00     0.035 C 
ATOM     14  C   UNL A   1      31.007  25.276  25.212  1.00  0.00     0.035 C 
ATOM     15  C   UNL A   1      31.619  24.602  23.967  1.00  0.00     0.018 C 
ATOM     16  C   UNL A   1      30.530  24.069  22.968  1.00  0.00     0.124 C 
ATOM     17  C   UNL A   1      32.343  23.321  24.314  1.00  0.00    -0.016 A 
ATOM     18  N   UNL A   1      30.775  22.648  22.759  1.00  0.00    -0.384 N 
ATOM     19  C   UNL A   1      31.870  22.283  23.519  1.00  0.00     0.038 A 
ATOM     20  C   UNL A   1      33.367  23.109  25.231  1.00  0.00     0.020 A 
ATOM     21  H   UNL A   1      30.252  22.051  22.176  1.00  0.00     0.160 HD
ATOM     22  C   UNL A   1      32.437  21.028  23.596  1.00  0.00     0.027 A 
ATOM     23  C   UNL A   1      33.502  20.816  24.482  1.00  0.00     0.016 A 
BRANCH   8  24
ATOM     24  O   UNL A   1      31.397  29.089  25.728  1.00  0.00    -0.444 OA
BRANCH  24  25
ATOM     25  C   UNL A   1      32.495  29.009  26.676  1.00  0.00     0.106 C 
ATOM     26  C   UNL A   1      31.946  28.177  27.845  1.00  0.00     0.056 C 
ATOM     27  C   UNL A   1      32.846  30.412  27.175  1.00  0.00     0.056 C 
ATOM     28  C   UNL A   1      33.727  28.277  26.120  1.00  0.00     0.056 C 
ENDBRANCH  24  25
ENDBRANCH   8  24
ENDBRANCH   4   7
ENDBRANCH   2   3
ENDBRANCH   1   2
BRANCH   1  29
ATOM     29  C   UNL A   1      39.063  20.245  26.030  1.00  0.00     0.118 C 
BRANCH  29  30
ATOM     30  N   UNL A   1      40.212  19.368  25.841  1.00  0.00    -0.352 N 
ATOM     31  C   UNL A   1      41.556  19.626  25.971  1.00  0.00     0.251 C 
ATOM     32  H   UNL A   1      39.990  18.445  25.579  1.00  0.00     0.163 HD
ATOM     33  O   UNL A   1      42.376  18.800  25.583  1.00  0.00    -0.269 OA
BRANCH  31  34
ATOM     34  C   UNL A   1      42.019  20.905  26.552  1.00  0.00     0.039 A 
ATOM     35  C   UNL A   1      42.091  21.081  27.934  1.00  0.00     0.014 A 
ATOM     36  C   UNL A   1      42.397  21.943  25.695  1.00  0.00     0.014 A 
ATOM     37  C   UNL A   1      42.369  22.340  28.455  1.00  0.00     0.010 A 
ATOM     38  C   UNL A   1      42.763  23.185  26.222  1.00  0.00     0.010 A 
ATOM     39  C   UNL A   1      42.701  23.408  27.606  1.00  0.00    -0.014 A 
BRANCH  39  40
ATOM     40  C   UNL A   1      42.962  24.750  28.188  1.00  0.00     0.031 A 
ATOM     41  C   UNL A   1      44.368  25.205  28.470  1.00  0.00     0.074 A 
ATOM     42  C   UNL A   1      41.931  25.593  28.393  1.00  0.00     0.049 A 
ATOM     43  N   UNL A   1      44.786  26.362  28.920  1.00  0.00    -0.248 NA
ATOM     44  C   UNL A   1      45.449  24.239  28.210  1.00  0.00     0.031 C 
ATOM     45  C   UNL A   1      40.527  25.279  28.127  1.00  0.00     0.029 A 
ATOM     46  N   UNL A   1      41.907  26.893  28.828  1.00  0.00    -0.354 N 
ATOM     47  C   UNL A   1      46.168  26.262  29.002  1.00  0.00     0.074 A 
ATOM     48  C   UNL A   1      46.519  24.919  28.599  1.00  0.00     0.031 C 
ATOM     49  C   UNL A   1      39.787  26.378  28.334  1.00  0.00     0.029 A 
ATOM     50  C   UNL A   1      40.652  27.451  28.814  1.00  0.00     0.049 A 
ATOM     51  H   UNL A   1      42.711  27.380  29.124  1.00  0.00     0.167 HD
ATOM     52  C   UNL A   1      47.067  27.209  29.365  1.00  0.00     0.031 A 
ATOM     53  C   UNL A   1      40.235  28.687  29.150  1.00  0.00     0.031 A 
ATOM     54  C   UNL A   1      46.714  28.543  29.775  1.00  0.00     0.049 A 
ATOM     55  C   UNL A   1      41.239  29.696  29.627  1.00  0.00     0.074 A 
ATOM     56  C   UNL A   1      47.553  29.570  30.171  1.00  0.00     0.029 A 
ATOM     57  N   UNL A   1      45.420  29.036  29.841  1.00  0.00    -0.354 N 
ATOM     58  N   UNL A   1      42.542  29.580  29.713  1.00  0.00    -0.248 NA
ATOM     59  C   UNL A   1      40.718  31.001  30.058  1.00  0.00     0.031 C 
ATOM     60  C   UNL A   1      46.764  30.663  30.535  1.00  0.00     0.029 A 
ATOM     61  C   UNL A   1      45.436  30.343  30.296  1.00  0.00     0.049 A 
ATOM     62  H   UNL A   1      44.610  28.531  29.600  1.00  0.00     0.167 HD
ATOM     63  C   UNL A   1      43.000  30.798  30.198  1.00  0.00     0.074 A 
ATOM     64  C   UNL A   1      41.837  31.646  30.368  1.00  0.00     0.031 C 
ATOM     65  C   UNL A   1      44.271  31.174  30.476  1.00  0.00     0.031 A 
BRANCH  52  66
ATOM     66  C   UNL A   1      48.525  26.834  29.348  1.00  0.00    -0.014 A 
ATOM     67  C   UNL A   1      49.121  26.285  30.495  1.00  0.00     0.009 A 
ATOM     68  C   UNL A   1      49.326  27.082  28.223  1.00  0.00     0.009 A 
ATOM     69  C   UNL A   1      50.487  25.998  30.518  1.00  0.00     0.001 A 
ATOM     70  C   UNL A   1      50.687  26.764  28.237  1.00  0.00     0.001 A 
ATOM     71  C   UNL A   1      51.268  26.229  29.385  1.00  0.00     0.000 A 
ENDBRANCH  52  66
BRANCH  53  72
ATOM     72  C   UNL A   1      38.793  29.023  29.016  1.00  0.00    -0.014 A 
ATOM     73  C   UNL A   1      38.286  29.526  27.806  1.00  0.00     0.009 A 
ATOM     74  C   UNL A   1      37.937  28.930  30.123  1.00  0.00     0.009 A 
ATOM     75  C   UNL A   1      36.965  29.969  27.719  1.00  0.00     0.001 A 
ATOM     76  C   UNL A   1      36.606  29.345  30.024  1.00  0.00     0.001 A 
ATOM     77  C   UNL A   1      36.126  29.877  28.828  1.00  0.00     0.000 A 
ENDBRANCH  53  72
BRANCH  65  78
ATOM     78  C   UNL A   1      44.494  32.568  30.995  1.00  0.00    -0.014 A 
ATOM     79  C   UNL A   1      44.443  32.814  32.376  1.00  0.00     0.009 A 
ATOM     80  C   UNL A   1      44.645  33.652  30.117  1.00  0.00     0.009 A 
ATOM     81  C   UNL A   1      44.518  34.119  32.868  1.00  0.00     0.001 A 
ATOM     82  C   UNL A   1      44.749  34.953  30.613  1.00  0.00     0.001 A 
ATOM     83  C   UNL A   1      44.675  35.186  31.986  1.00  0.00     0.000 A 
ENDBRANCH  65  78
ENDBRANCH  39  40
ENDBRANCH  31  34
ENDBRANCH  29  30
ENDBRANCH   1  29
TORSDOF 12
ENDMDL
MODEL 2
REMARK VINA RESULT:     -11.8      3.017      8.936
REMARK SMILES CC(C)(C)OC(=O)N1CCC2(CC1)CNc1ccc(C(=O)NCCCNC(=O)c3ccc(-c4c5nc(c(-c6ccccc6)c6ccc([nH]6)c(-c6ccccc6)c6nc(c(-c7ccccc7)c7ccc4[nH]7)C=C6)C=C5)cc3)cc12
REMARK SMILES IDX 24 1 23 2 22 3 20 4 21 5 19 7 6 8 7 9 8 10 9 11 13 12 10 13
REMARK SMILES IDX 12 14 11 15 14 16 78 17 15 18 16 19 77 20 17 22 18 23 5 24
REMARK SMILES IDX 2 25 1 26 3 27 4 28 25 29 26 30 27 31 28 33 29 34 30 35
REMARK SMILES IDX 76 36 31 37 75 38 32 39 33 40 34 41 69 42 35 43 74 44 68 45
REMARK SMILES IDX 70 46 36 47 73 48 67 49 66 50 37 52 59 53 44 54 58 55 45 56
REMARK SMILES IDX 48 57 57 58 71 59 46 60 47 61 56 63 72 64 49 65 38 66 39 67
REMARK SMILES IDX 43 68 40 69 42 70 41 71 60 72 61 73 65 74 62 75 64 76 63 77
REMARK SMILES IDX 50 78 51 79 55 80 52 81 54 82 53 83
REMARK H PARENT 22 6 15 21 26 32 70 51 48 62
REMARK Flexibility Score: inf
ROOT
ATOM      1  C   UNL A   1      31.572  31.753  26.679  1.00  0.00     0.042 C 
ENDROOT
BRANCH   1   2
ATOM      2  C   UNL A   1      31.826  30.272  26.403  1.00  0.00     0.118 C 
BRANCH   2   3
ATOM      3  N   UNL A   1      32.775  30.102  25.318  1.00  0.00    -0.352 N 
ATOM      4  C   UNL A   1      32.877  29.203  24.289  1.00  0.00     0.251 C 
ATOM      5  O   UNL A   1      33.821  29.363  23.511  1.00  0.00    -0.269 OA
ATOM      6  H   UNL A   1      33.496  30.772  25.322  1.00  0.00     0.163 HD
BRANCH   4   7
ATOM      7  C   UNL A   1      31.912  28.093  24.033  1.00  0.00     0.040 A 
ATOM      8  C   UNL A   1      34.636  21.343  25.415  1.00  0.00     0.410 C 
ATOM      9  O   UNL A   1      34.541  20.759  26.483  1.00  0.00    -0.224 OA
ATOM     10  N   UNL A   1      33.581  22.018  24.827  1.00  0.00    -0.308 N 
ATOM     11  C   UNL A   1      32.425  22.347  25.642  1.00  0.00     0.124 C 
ATOM     12  C   UNL A   1      33.505  22.349  23.409  1.00  0.00     0.124 C 
ATOM     13  C   UNL A   1      32.099  23.832  25.502  1.00  0.00     0.035 C 
ATOM     14  C   UNL A   1      33.107  23.807  23.184  1.00  0.00     0.035 C 
ATOM     15  C   UNL A   1      31.882  24.222  24.024  1.00  0.00     0.018 C 
ATOM     16  C   UNL A   1      30.541  23.605  23.488  1.00  0.00     0.124 C 
ATOM     17  C   UNL A   1      31.587  25.700  23.905  1.00  0.00    -0.016 A 
ATOM     18  N   UNL A   1      29.618  24.702  23.229  1.00  0.00    -0.384 N 
ATOM     19  C   UNL A   1      30.258  25.886  23.542  1.00  0.00     0.038 A 
ATOM     20  C   UNL A   1      32.422  26.786  24.144  1.00  0.00     0.020 A 
ATOM     21  H   UNL A   1      28.697  24.616  22.890  1.00  0.00     0.160 HD
ATOM     22  C   UNL A   1      29.730  27.156  23.450  1.00  0.00     0.027 A 
ATOM     23  C   UNL A   1      30.550  28.257  23.734  1.00  0.00     0.016 A 
BRANCH   8  24
ATOM     24  O   UNL A   1      35.788  21.471  24.706  1.00  0.00    -0.444 OA
BRANCH  24  25
ATOM     25  C   UNL A   1      36.749  22.505  25.050  1.00  0.00     0.106 C 
ATOM     26  C   UNL A   1      36.989  23.271  23.740  1.00  0.00     0.056 C 
ATOM     27  C   UNL A   1      38.059  21.858  25.505  1.00  0.00     0.056 C 
ATOM     28  C   UNL A   1      36.220  23.509  26.088  1.00  0.00     0.056 C 
ENDBRANCH  24  25
ENDBRANCH   8  24
ENDBRANCH   4   7
ENDBRANCH   2   3
ENDBRANCH   1   2
BRANCH   1  29
ATOM     29  C   UNL A   1      32.833  32.510  27.089  1.00  0.00     0.118 C 
BRANCH  29  30
ATOM     30  N   UNL A   1      32.534  33.808  27.683  1.00  0.00    -0.352 N 
ATOM     31  C   UNL A   1      33.181  34.497  28.681  1.00  0.00     0.251 C 
ATOM     32  H   UNL A   1      31.744  34.262  27.309  1.00  0.00     0.163 HD
ATOM     33  O   UNL A   1      32.660  35.494  29.171  1.00  0.00    -0.269 OA
BRANCH  31  34
ATOM     34  C   UNL A   1      34.489  34.028  29.187  1.00  0.00     0.039 A 
ATOM     35  C   UNL A   1      35.679  34.427  28.578  1.00  0.00     0.014 A 
ATOM     36  C   UNL A   1      34.524  33.180  30.299  1.00  0.00     0.014 A 
ATOM     37  C   UNL A   1      36.882  33.845  28.965  1.00  0.00     0.010 A 
ATOM     38  C   UNL A   1      35.744  32.663  30.744  1.00  0.00     0.010 A 
ATOM     39  C   UNL A   1      36.928  32.951  30.047  1.00  0.00    -0.014 A 
BRANCH  39  40
ATOM     40  C   UNL A   1      38.220  32.320  30.418  1.00  0.00     0.031 A 
ATOM     41  C   UNL A   1      39.064  32.891  31.525  1.00  0.00     0.074 A 
ATOM     42  C   UNL A   1      38.598  31.180  29.807  1.00  0.00     0.049 A 
ATOM     43  N   UNL A   1      40.189  32.438  32.021  1.00  0.00    -0.248 NA
ATOM     44  C   UNL A   1      38.586  34.130  32.161  1.00  0.00     0.031 C 
ATOM     45  C   UNL A   1      37.848  30.511  28.743  1.00  0.00     0.029 A 
ATOM     46  N   UNL A   1      39.680  30.363  30.018  1.00  0.00    -0.354 N 
ATOM     47  C   UNL A   1      40.553  33.334  33.018  1.00  0.00     0.074 A 
ATOM     48  C   UNL A   1      39.556  34.382  33.029  1.00  0.00     0.031 C 
ATOM     49  C   UNL A   1      38.451  29.351  28.447  1.00  0.00     0.029 A 
ATOM     50  C   UNL A   1      39.666  29.227  29.246  1.00  0.00     0.049 A 
ATOM     51  H   UNL A   1      40.397  30.571  30.660  1.00  0.00     0.167 HD
ATOM     52  C   UNL A   1      41.612  33.281  33.860  1.00  0.00     0.031 A 
ATOM     53  C   UNL A   1      40.531  28.198  29.181  1.00  0.00     0.031 A 
ATOM     54  C   UNL A   1      42.608  32.242  33.841  1.00  0.00     0.049 A 
ATOM     55  C   UNL A   1      41.742  28.200  30.068  1.00  0.00     0.074 A 
ATOM     56  C   UNL A   1      43.725  32.107  34.648  1.00  0.00     0.029 A 
ATOM     57  N   UNL A   1      42.609  31.160  32.974  1.00  0.00    -0.354 N 
ATOM     58  N   UNL A   1      42.079  29.063  30.995  1.00  0.00    -0.248 NA
ATOM     59  C   UNL A   1      42.694  27.093  29.897  1.00  0.00     0.031 C 
ATOM     60  C   UNL A   1      44.433  30.979  34.230  1.00  0.00     0.029 A 
ATOM     61  C   UNL A   1      43.720  30.368  33.210  1.00  0.00     0.049 A 
ATOM     62  H   UNL A   1      41.921  30.982  32.293  1.00  0.00     0.167 HD
ATOM     63  C   UNL A   1      43.276  28.601  31.527  1.00  0.00     0.074 A 
ATOM     64  C   UNL A   1      43.596  27.370  30.832  1.00  0.00     0.031 C 
ATOM     65  C   UNL A   1      44.037  29.152  32.503  1.00  0.00     0.031 A 
BRANCH  52  66
ATOM     66  C   UNL A   1      41.761  34.387  34.871  1.00  0.00    -0.014 A 
ATOM     67  C   UNL A   1      41.155  34.270  36.132  1.00  0.00     0.009 A 
ATOM     68  C   UNL A   1      42.444  35.572  34.556  1.00  0.00     0.009 A 
ATOM     69  C   UNL A   1      41.225  35.316  37.054  1.00  0.00     0.001 A 
ATOM     70  C   UNL A   1      42.540  36.605  35.493  1.00  0.00     0.001 A 
ATOM     71  C   UNL A   1      41.925  36.480  36.737  1.00  0.00     0.000 A 
ENDBRANCH  52  66
BRANCH  53  72
ATOM     72  C   UNL A   1      40.248  27.075  28.248  1.00  0.00    -0.014 A 
ATOM     73  C   UNL A   1      39.490  25.970  28.670  1.00  0.00     0.009 A 
ATOM     74  C   UNL A   1      40.811  27.061  26.964  1.00  0.00     0.009 A 
ATOM     75  C   UNL A   1      39.338  24.856  27.842  1.00  0.00     0.001 A 
ATOM     76  C   UNL A   1      40.631  25.957  26.126  1.00  0.00     0.001 A 
ATOM     77  C   UNL A   1      39.907  24.851  26.571  1.00  0.00     0.000 A 
ENDBRANCH  53  72
BRANCH  65  78
ATOM     78  C   UNL A   1      45.301  28.437  32.895  1.00  0.00    -0.014 A 
ATOM     79  C   UNL A   1      45.271  27.483  33.925  1.00  0.00     0.009 A 
ATOM     80  C   UNL A   1      46.535  28.784  32.325  1.00  0.00     0.009 A 
ATOM     81  C   UNL A   1      46.454  26.904  34.389  1.00  0.00     0.001 A 
ATOM     82  C   UNL A   1      47.713  28.182  32.772  1.00  0.00     0.001 A 
ATOM     83  C   UNL A   1      47.673  27.251  33.810  1.00  0.00     0.000 A 
ENDBRANCH  65  78
ENDBRANCH  39  40
ENDBRANCH  31  34
ENDBRANCH  29  30
ENDBRANCH   1  29
TORSDOF 12
ENDMDL
MODEL 3
REMARK VINA RESULT:     -11.7      0.311      5.790
REMARK SMILES CC(C)(C)OC(=O)N1CCC2(CC1)CNc1ccc(C(=O)NCCCNC(=O)c3ccc(-c4c5nc(c(-c6ccccc6)c6ccc([nH]6)c(-c6ccccc6)c6nc(c(-c7ccccc7)c7ccc4[nH]7)C=C6)C=C5)cc3)cc12
REMARK SMILES IDX 24 1 23 2 22 3 20 4 21 5 19 7 6 8 7 9 8 10 9 11 13 12 10 13
REMARK SMILES IDX 12 14 11 15 14 16 78 17 15 18 16 19 77 20 17 22 18 23 5 24
REMARK SMILES IDX 2 25 1 26 3 27 4 28 25 29 26 30 27 31 28 33 29 34 30 35
REMARK SMILES IDX 76 36 31 37 75 38 32 39 33 40 34 41 69 42 35 43 74 44 68 45
REMARK SMILES IDX 70 46 36 47 73 48 67 49 66 50 37 52 59 53 44 54 58 55 45 56
REMARK SMILES IDX 48 57 57 58 71 59 46 60 47 61 56 63 72 64 49 65 38 66 39 67
REMARK SMILES IDX 43 68 40 69 42 70 41 71 60 72 61 73 65 74 62 75 64 76 63 77
REMARK SMILES IDX 50 78 51 79 55 80 52 81 54 82 53 83
REMARK H PARENT 22 6 15 21 26 32 70 51 48 62
REMARK Flexibility Score: inf
ROOT
ATOM      1  C   UNL A   1      38.116  20.255  24.957  1.00  0.00     0.042 C 
ENDROOT
BRANCH   1   2
ATOM      2  C   UNL A   1      37.109  21.403  24.900  1.00  0.00     0.118 C 
BRANCH   2   3
ATOM      3  N   UNL A   1      36.361  21.499  26.138  1.00  0.00    -0.352 N 
ATOM      4  C   UNL A   1      35.034  21.688  26.425  1.00  0.00     0.251 C 
ATOM      5  O   UNL A   1      34.726  21.698  27.619  1.00  0.00    -0.269 OA
ATOM      6  H   UNL A   1      36.923  21.410  26.942  1.00  0.00     0.163 HD
BRANCH   4   7
ATOM      7  C   UNL A   1      33.957  21.836  25.401  1.00  0.00     0.040 A 
ATOM      8  C   UNL A   1      31.669  28.812  24.409  1.00  0.00     0.410 C 
ATOM      9  O   UNL A   1      32.128  29.583  23.582  1.00  0.00    -0.224 OA
ATOM     10  N   UNL A   1      31.370  27.491  24.123  1.00  0.00    -0.308 N 
ATOM     11  C   UNL A   1      31.927  26.896  22.922  1.00  0.00     0.124 C 
ATOM     12  C   UNL A   1      30.451  26.670  24.904  1.00  0.00     0.124 C 
ATOM     13  C   UNL A   1      32.621  25.580  23.272  1.00  0.00     0.035 C 
ATOM     14  C   UNL A   1      31.046  25.302  25.230  1.00  0.00     0.035 C 
ATOM     15  C   UNL A   1      31.657  24.613  23.993  1.00  0.00     0.018 C 
ATOM     16  C   UNL A   1      30.569  24.081  22.994  1.00  0.00     0.124 C 
ATOM     17  C   UNL A   1      32.370  23.329  24.353  1.00  0.00    -0.016 A 
ATOM     18  N   UNL A   1      30.803  22.656  22.796  1.00  0.00    -0.384 N 
ATOM     19  C   UNL A   1      31.892  22.289  23.564  1.00  0.00     0.038 A 
ATOM     20  C   UNL A   1      33.389  23.117  25.275  1.00  0.00     0.020 A 
ATOM     21  H   UNL A   1      30.278  22.058  22.217  1.00  0.00     0.160 HD
ATOM     22  C   UNL A   1      32.449  21.030  23.653  1.00  0.00     0.027 A 
ATOM     23  C   UNL A   1      33.509  20.816  24.546  1.00  0.00     0.016 A 
BRANCH   8  24
ATOM     24  O   UNL A   1      31.463  29.116  25.716  1.00  0.00    -0.444 OA
BRANCH  24  25
ATOM     25  C   UNL A   1      32.547  28.993  26.677  1.00  0.00     0.106 C 
ATOM     26  C   UNL A   1      31.967  28.144  27.818  1.00  0.00     0.056 C 
ATOM     27  C   UNL A   1      32.916  30.378  27.214  1.00  0.00     0.056 C 
ATOM     28  C   UNL A   1      33.774  28.253  26.121  1.00  0.00     0.056 C 
ENDBRANCH  24  25
ENDBRANCH   8  24
ENDBRANCH   4   7
ENDBRANCH   2   3
ENDBRANCH   1   2
BRANCH   1  29
ATOM     29  C   UNL A   1      39.150  20.421  26.068  1.00  0.00     0.118 C 
BRANCH  29  30
ATOM     30  N   UNL A   1      40.274  19.504  25.923  1.00  0.00    -0.352 N 
ATOM     31  C   UNL A   1      41.625  19.733  26.029  1.00  0.00     0.251 C 
ATOM     32  H   UNL A   1      40.025  18.573  25.717  1.00  0.00     0.163 HD
ATOM     33  O   UNL A   1      42.420  18.863  25.684  1.00  0.00    -0.269 OA
BRANCH  31  34
ATOM     34  C   UNL A   1      42.127  21.030  26.530  1.00  0.00     0.039 A 
ATOM     35  C   UNL A   1      42.219  21.284  27.899  1.00  0.00     0.014 A 
ATOM     36  C   UNL A   1      42.522  22.008  25.611  1.00  0.00     0.014 A 
ATOM     37  C   UNL A   1      42.534  22.563  28.344  1.00  0.00     0.010 A 
ATOM     38  C   UNL A   1      42.925  23.267  26.062  1.00  0.00     0.010 A 
ATOM     39  C   UNL A   1      42.884  23.572  27.431  1.00  0.00    -0.014 A 
BRANCH  39  40
ATOM     40  C   UNL A   1      43.186  24.938  27.932  1.00  0.00     0.031 A 
ATOM     41  C   UNL A   1      42.081  25.935  28.158  1.00  0.00     0.074 A 
ATOM     42  C   UNL A   1      44.453  25.256  28.258  1.00  0.00     0.049 A 
ATOM     43  N   UNL A   1      42.154  27.149  28.645  1.00  0.00    -0.248 NA
ATOM     44  C   UNL A   1      40.717  25.518  27.794  1.00  0.00     0.031 C 
ATOM     45  C   UNL A   1      45.604  24.363  28.117  1.00  0.00     0.029 A 
ATOM     46  N   UNL A   1      44.980  26.395  28.813  1.00  0.00    -0.354 N 
ATOM     47  C   UNL A   1      40.855  27.639  28.641  1.00  0.00     0.074 A 
ATOM     48  C   UNL A   1      40.018  26.611  28.062  1.00  0.00     0.031 C 
ATOM     49  C   UNL A   1      46.686  24.959  28.639  1.00  0.00     0.029 A 
ATOM     50  C   UNL A   1      46.322  26.299  29.088  1.00  0.00     0.049 A 
ATOM     51  H   UNL A   1      44.447  27.203  28.997  1.00  0.00     0.167 HD
ATOM     52  C   UNL A   1      40.397  28.831  29.093  1.00  0.00     0.031 A 
ATOM     53  C   UNL A   1      47.172  27.187  29.637  1.00  0.00     0.031 A 
ATOM     54  C   UNL A   1      41.234  29.856  29.660  1.00  0.00     0.049 A 
ATOM     55  C   UNL A   1      46.658  28.533  30.057  1.00  0.00     0.074 A 
ATOM     56  C   UNL A   1      40.863  31.101  30.137  1.00  0.00     0.029 A 
ATOM     57  N   UNL A   1      42.606  29.755  29.828  1.00  0.00    -0.354 N 
ATOM     58  N   UNL A   1      45.428  28.986  30.033  1.00  0.00    -0.248 NA
ATOM     59  C   UNL A   1      47.645  29.491  30.574  1.00  0.00     0.031 C 
ATOM     60  C   UNL A   1      42.018  31.777  30.536  1.00  0.00     0.029 A 
ATOM     61  C   UNL A   1      43.101  30.926  30.378  1.00  0.00     0.049 A 
ATOM     62  H   UNL A   1      43.149  28.968  29.592  1.00  0.00     0.167 HD
ATOM     63  C   UNL A   1      45.489  30.278  30.539  1.00  0.00     0.074 A 
ATOM     64  C   UNL A   1      46.875  30.528  30.882  1.00  0.00     0.031 C 
ATOM     65  C   UNL A   1      44.484  31.172  30.702  1.00  0.00     0.031 A 
BRANCH  52  66
ATOM     66  C   UNL A   1      38.920  29.101  28.983  1.00  0.00    -0.014 A 
ATOM     67  C   UNL A   1      38.384  29.586  27.779  1.00  0.00     0.009 A 
ATOM     68  C   UNL A   1      38.067  28.939  30.086  1.00  0.00     0.009 A 
ATOM     69  C   UNL A   1      37.028  29.907  27.683  1.00  0.00     0.001 A 
ATOM     70  C   UNL A   1      36.705  29.232  29.978  1.00  0.00     0.001 A 
ATOM     71  C   UNL A   1      36.188  29.722  28.781  1.00  0.00     0.000 A 
ENDBRANCH  52  66
BRANCH  53  72
ATOM     72  C   UNL A   1      48.594  26.798  29.834  1.00  0.00    -0.014 A 
ATOM     73  C   UNL A   1      49.544  27.028  28.825  1.00  0.00     0.009 A 
ATOM     74  C   UNL A   1      48.987  26.112  30.992  1.00  0.00     0.009 A 
ATOM     75  C   UNL A   1      50.847  26.542  28.953  1.00  0.00     0.001 A 
ATOM     76  C   UNL A   1      50.300  25.654  31.130  1.00  0.00     0.001 A 
ATOM     77  C   UNL A   1      51.224  25.856  30.105  1.00  0.00     0.000 A 
ENDBRANCH  53  72
BRANCH  65  78
ATOM     78  C   UNL A   1      44.827  32.516  31.281  1.00  0.00    -0.014 A 
ATOM     79  C   UNL A   1      44.746  32.720  32.668  1.00  0.00     0.009 A 
ATOM     80  C   UNL A   1      45.125  33.607  30.450  1.00  0.00     0.009 A 
ATOM     81  C   UNL A   1      44.934  33.993  33.210  1.00  0.00     0.001 A 
ATOM     82  C   UNL A   1      45.343  34.873  30.998  1.00  0.00     0.001 A 
ATOM     83  C   UNL A   1      45.237  35.066  32.375  1.00  0.00     0.000 A 
ENDBRANCH  65  78
ENDBRANCH  39  40
ENDBRANCH  31  34
ENDBRANCH  29  30
ENDBRANCH   1  29
TORSDOF 12
ENDMDL
