MODEL 1
REMARK VINA RESULT:     -11.5      0.000      0.000
REMARK SMILES O=C(NCCCNC(=O)C1(NC(=O)c2c[nH]c(=O)c(Cl)c2)CCCCC1)c1ccc(-c2c3nc(c(-c4ccccc4)c4ccc([nH]4)c(-c4ccccc4)c4nc(c(-c5ccccc5)c5ccc2[nH]5)C=C4)C=C3)cc1
REMARK SMILES IDX 5 1 4 2 3 3 1 4 2 5 27 7 28 8 74 9 29 10 73 11 30 12 31 13
REMARK SMILES IDX 32 14 67 15 33 16 72 17 66 18 68 19 34 20 71 21 65 22 64 23
REMARK SMILES IDX 35 25 57 26 42 27 56 28 43 29 46 30 55 31 69 32 44 33 45 34
REMARK SMILES IDX 54 36 70 37 47 38 36 39 37 40 41 41 38 42 40 43 39 44 58 45
REMARK SMILES IDX 59 46 63 47 60 48 62 49 61 50 48 51 49 52 53 53 50 54 52 55
REMARK SMILES IDX 51 56 6 57 7 58 8 59 9 61 10 62 22 63 26 64 23 65 25 66
REMARK SMILES IDX 24 67 11 68 12 69 13 71 14 72 15 73 21 74 16 75 19 76 17 77
REMARK SMILES IDX 20 79 18 80
REMARK H PARENT 3 6 68 24 46 35 7 60 11 70 16 78
REMARK Flexibility Score: inf
ROOT
ATOM      1  C   UNL A   1      34.095  28.054  26.239  1.00  0.00     0.042 C 
ENDROOT
BRANCH   1   2
ATOM      2  C   UNL A   1      33.433  28.561  27.516  1.00  0.00     0.118 C 
BRANCH   2   3
ATOM      3  N   UNL A   1      33.522  30.005  27.645  1.00  0.00    -0.352 N 
ATOM      4  O   UNL A   1      34.297  31.968  28.413  1.00  0.00    -0.269 OA
ATOM      5  C   UNL A   1      34.526  30.792  28.151  1.00  0.00     0.251 C 
ATOM      6  H   UNL A   1      32.736  30.499  27.317  1.00  0.00     0.163 HD
BRANCH   5   7
ATOM      7  C   UNL A   1      35.878  30.238  28.382  1.00  0.00     0.039 A 
ATOM      8  C   UNL A   1      36.863  30.304  27.393  1.00  0.00     0.014 A 
ATOM      9  C   UNL A   1      36.190  29.722  29.644  1.00  0.00     0.014 A 
ATOM     10  C   UNL A   1      38.118  29.751  27.624  1.00  0.00     0.010 A 
ATOM     11  C   UNL A   1      37.477  29.244  29.902  1.00  0.00     0.010 A 
ATOM     12  C   UNL A   1      38.446  29.240  28.889  1.00  0.00    -0.014 A 
BRANCH  12  13
ATOM     13  C   UNL A   1      39.833  28.792  29.161  1.00  0.00     0.031 A 
ATOM     14  C   UNL A   1      40.827  29.701  29.824  1.00  0.00     0.074 A 
ATOM     15  C   UNL A   1      40.197  27.549  28.788  1.00  0.00     0.049 A 
ATOM     16  N   UNL A   1      42.081  29.472  30.121  1.00  0.00    -0.248 NA
ATOM     17  C   UNL A   1      40.356  31.045  30.193  1.00  0.00     0.031 C 
ATOM     18  C   UNL A   1      39.324  26.582  28.118  1.00  0.00     0.029 A 
ATOM     19  N   UNL A   1      41.390  26.887  28.918  1.00  0.00    -0.354 N 
ATOM     20  C   UNL A   1      42.556  30.645  30.692  1.00  0.00     0.074 A 
ATOM     21  C   UNL A   1      41.462  31.593  30.677  1.00  0.00     0.031 C 
ATOM     22  C   UNL A   1      40.001  25.443  27.920  1.00  0.00     0.029 A 
ATOM     23  C   UNL A   1      41.370  25.619  28.390  1.00  0.00     0.049 A 
ATOM     24  H   UNL A   1      42.184  27.282  29.347  1.00  0.00     0.167 HD
ATOM     25  C   UNL A   1      43.792  30.906  31.184  1.00  0.00     0.031 A 
ATOM     26  C   UNL A   1      42.350  24.706  28.269  1.00  0.00     0.031 A 
ATOM     27  C   UNL A   1      44.879  29.961  31.183  1.00  0.00     0.049 A 
ATOM     28  C   UNL A   1      43.717  25.030  28.790  1.00  0.00     0.074 A 
ATOM     29  C   UNL A   1      46.154  30.115  31.699  1.00  0.00     0.029 A 
ATOM     30  N   UNL A   1      44.823  28.693  30.625  1.00  0.00    -0.354 N 
ATOM     31  N   UNL A   1      44.134  26.123  29.381  1.00  0.00    -0.248 NA
ATOM     32  C   UNL A   1      44.748  23.995  28.633  1.00  0.00     0.031 C 
ATOM     33  C   UNL A   1      46.888  28.962  31.399  1.00  0.00     0.029 A 
ATOM     34  C   UNL A   1      46.052  28.066  30.752  1.00  0.00     0.049 A 
ATOM     35  H   UNL A   1      44.028  28.296  30.201  1.00  0.00     0.167 HD
ATOM     36  C   UNL A   1      45.472  25.905  29.680  1.00  0.00     0.074 A 
ATOM     37  C   UNL A   1      45.789  24.566  29.222  1.00  0.00     0.031 C 
ATOM     38  C   UNL A   1      46.355  26.738  30.281  1.00  0.00     0.031 A 
BRANCH  25  39
ATOM     39  C   UNL A   1      44.043  32.287  31.726  1.00  0.00    -0.014 A 
ATOM     40  C   UNL A   1      44.507  33.326  30.904  1.00  0.00     0.009 A 
ATOM     41  C   UNL A   1      43.787  32.557  33.080  1.00  0.00     0.009 A 
ATOM     42  C   UNL A   1      44.751  34.595  31.437  1.00  0.00     0.001 A 
ATOM     43  C   UNL A   1      44.004  33.833  33.604  1.00  0.00     0.001 A 
ATOM     44  C   UNL A   1      44.496  34.848  32.785  1.00  0.00     0.000 A 
ENDBRANCH  25  39
BRANCH  26  45
ATOM     45  C   UNL A   1      42.061  23.411  27.599  1.00  0.00    -0.014 A 
ATOM     46  C   UNL A   1      42.391  23.210  26.251  1.00  0.00     0.009 A 
ATOM     47  C   UNL A   1      41.492  22.352  28.325  1.00  0.00     0.009 A 
ATOM     48  C   UNL A   1      42.146  21.977  25.641  1.00  0.00     0.001 A 
ATOM     49  C   UNL A   1      41.276  21.113  27.722  1.00  0.00     0.001 A 
ATOM     50  C   UNL A   1      41.596  20.928  26.379  1.00  0.00     0.000 A 
ENDBRANCH  26  45
BRANCH  38  51
ATOM     51  C   UNL A   1      47.748  26.217  30.497  1.00  0.00    -0.014 A 
ATOM     52  C   UNL A   1      48.705  26.251  29.471  1.00  0.00     0.009 A 
ATOM     53  C   UNL A   1      48.118  25.726  31.758  1.00  0.00     0.009 A 
ATOM     54  C   UNL A   1      49.999  25.777  29.699  1.00  0.00     0.001 A 
ATOM     55  C   UNL A   1      49.419  25.280  31.991  1.00  0.00     0.001 A 
ATOM     56  C   UNL A   1      50.356  25.298  30.959  1.00  0.00     0.000 A 
ENDBRANCH  38  51
ENDBRANCH  12  13
ENDBRANCH   5   7
ENDBRANCH   2   3
ENDBRANCH   1   2
BRANCH   1  57
ATOM     57  C   UNL A   1      33.122  27.421  25.246  1.00  0.00     0.117 C 
BRANCH  57  58
ATOM     58  N   UNL A   1      32.211  26.482  25.875  1.00  0.00    -0.354 N 
ATOM     59  C   UNL A   1      32.291  25.151  26.140  1.00  0.00     0.245 C 
ATOM     60  H   UNL A   1      31.365  26.891  26.167  1.00  0.00     0.163 HD
ATOM     61  O   UNL A   1      31.521  24.766  27.029  1.00  0.00    -0.272 OA
BRANCH  59  62
ATOM     62  C   UNL A   1      33.357  24.175  25.522  1.00  0.00     0.119 C 
ATOM     63  C   UNL A   1      34.526  24.810  24.732  1.00  0.00     0.038 C 
ATOM     64  C   UNL A   1      33.844  23.409  26.786  1.00  0.00     0.038 C 
ATOM     65  C   UNL A   1      35.779  23.934  24.629  1.00  0.00     0.003 C 
ATOM     66  C   UNL A   1      35.104  22.576  26.600  1.00  0.00     0.003 C 
ATOM     67  C   UNL A   1      36.214  23.412  25.990  1.00  0.00     0.000 C 
BRANCH  62  68
ATOM     68  N   UNL A   1      32.727  23.179  24.593  1.00  0.00    -0.338 N 
ATOM     69  C   UNL A   1      32.327  23.301  23.288  1.00  0.00     0.253 C 
ATOM     70  H   UNL A   1      32.575  22.290  24.987  1.00  0.00     0.164 HD
ATOM     71  O   UNL A   1      32.329  22.319  22.550  1.00  0.00    -0.269 OA
BRANCH  69  72
ATOM     72  C   UNL A   1      31.717  24.576  22.834  1.00  0.00     0.057 A 
ATOM     73  C   UNL A   1      32.360  25.408  21.999  1.00  0.00     0.099 A 
ATOM     74  C   UNL A   1      30.421  24.957  23.368  1.00  0.00     0.041 A 
ATOM     75  N   UNL A   1      31.854  26.665  21.755  1.00  0.00    -0.327 N 
ATOM     76  C   UNL A   1      29.925  26.186  23.168  1.00  0.00     0.106 A 
ATOM     77  C   UNL A   1      30.702  27.164  22.339  1.00  0.00     0.266 A 
ATOM     78  H   UNL A   1      32.342  27.246  21.128  1.00  0.00     0.169 HD
ATOM     79  Cl  UNL A   1      28.421  26.680  23.835  1.00  0.00    -0.078 Cl
ATOM     80  O   UNL A   1      30.364  28.329  22.162  1.00  0.00    -0.268 OA
ENDBRANCH  69  72
ENDBRANCH  62  68
ENDBRANCH  59  62
ENDBRANCH  57  58
ENDBRANCH   1  57
TORSDOF 12
ENDMDL
MODEL 2
REMARK VINA RESULT:     -11.4      2.507      7.499
REMARK SMILES O=C(NCCCNC(=O)C1(NC(=O)c2c[nH]c(=O)c(Cl)c2)CCCCC1)c1ccc(-c2c3nc(c(-c4ccccc4)c4ccc([nH]4)c(-c4ccccc4)c4nc(c(-c5ccccc5)c5ccc2[nH]5)C=C4)C=C3)cc1
REMARK SMILES IDX 5 1 4 2 3 3 1 4 2 5 27 7 28 8 74 9 29 10 73 11 30 12 31 13
REMARK SMILES IDX 32 14 67 15 33 16 72 17 66 18 68 19 34 20 71 21 65 22 64 23
REMARK SMILES IDX 35 25 57 26 42 27 56 28 43 29 46 30 55 31 69 32 44 33 45 34
REMARK SMILES IDX 54 36 70 37 47 38 36 39 37 40 41 41 38 42 40 43 39 44 58 45
REMARK SMILES IDX 59 46 63 47 60 48 62 49 61 50 48 51 49 52 53 53 50 54 52 55
REMARK SMILES IDX 51 56 6 57 7 58 8 59 9 61 10 62 22 63 26 64 23 65 25 66
REMARK SMILES IDX 24 67 11 68 12 69 13 71 14 72 15 73 21 74 16 75 19 76 17 77
REMARK SMILES IDX 20 79 18 80
REMARK H PARENT 3 6 68 24 46 35 7 60 11 70 16 78
REMARK Flexibility Score: inf
ROOT
ATOM      1  C   UNL A   1      36.134  23.969  26.102  1.00  0.00     0.042 C 
ENDROOT
BRANCH   1   2
ATOM      2  C   UNL A   1      37.135  23.646  24.998  1.00  0.00     0.118 C 
BRANCH   2   3
ATOM      3  N   UNL A   1      38.156  22.710  25.439  1.00  0.00    -0.352 N 
ATOM      4  O   UNL A   1      40.175  22.040  26.156  1.00  0.00    -0.269 OA
ATOM      5  C   UNL A   1      39.329  22.927  26.114  1.00  0.00     0.251 C 
ATOM      6  H   UNL A   1      37.976  21.768  25.217  1.00  0.00     0.163 HD
BRANCH   5   7
ATOM      7  C   UNL A   1      39.586  24.218  26.790  1.00  0.00     0.039 A 
ATOM      8  C   UNL A   1      39.209  24.424  28.119  1.00  0.00     0.014 A 
ATOM      9  C   UNL A   1      40.295  25.210  26.105  1.00  0.00     0.014 A 
ATOM     10  C   UNL A   1      39.434  25.655  28.724  1.00  0.00     0.010 A 
ATOM     11  C   UNL A   1      40.597  26.416  26.742  1.00  0.00     0.010 A 
ATOM     12  C   UNL A   1      40.154  26.654  28.052  1.00  0.00    -0.014 A 
BRANCH  12  13
ATOM     13  C   UNL A   1      40.515  27.903  28.765  1.00  0.00     0.031 A 
ATOM     14  C   UNL A   1      41.859  28.065  29.416  1.00  0.00     0.074 A 
ATOM     15  C   UNL A   1      39.607  28.896  28.832  1.00  0.00     0.049 A 
ATOM     16  N   UNL A   1      42.328  29.084  30.089  1.00  0.00    -0.248 NA
ATOM     17  C   UNL A   1      42.792  26.934  29.305  1.00  0.00     0.031 C 
ATOM     18  C   UNL A   1      38.261  28.845  28.254  1.00  0.00     0.029 A 
ATOM     19  N   UNL A   1      39.674  30.135  29.413  1.00  0.00    -0.354 N 
ATOM     20  C   UNL A   1      43.601  28.713  30.501  1.00  0.00     0.074 A 
ATOM     21  C   UNL A   1      43.821  27.364  30.022  1.00  0.00     0.031 C 
ATOM     22  C   UNL A   1      37.640  30.010  28.485  1.00  0.00     0.029 A 
ATOM     23  C   UNL A   1      38.516  30.863  29.280  1.00  0.00     0.049 A 
ATOM     24  H   UNL A   1      40.473  30.471  29.880  1.00  0.00     0.167 HD
ATOM     25  C   UNL A   1      44.503  29.431  31.213  1.00  0.00     0.031 A 
ATOM     26  C   UNL A   1      38.182  32.072  29.765  1.00  0.00     0.031 A 
ATOM     27  C   UNL A   1      44.272  30.768  31.697  1.00  0.00     0.049 A 
ATOM     28  C   UNL A   1      39.185  32.834  30.578  1.00  0.00     0.074 A 
ATOM     29  C   UNL A   1      45.139  31.597  32.387  1.00  0.00     0.029 A 
ATOM     30  N   UNL A   1      43.080  31.465  31.554  1.00  0.00    -0.354 N 
ATOM     31  N   UNL A   1      40.406  32.492  30.909  1.00  0.00    -0.248 NA
ATOM     32  C   UNL A   1      38.766  34.149  31.081  1.00  0.00     0.031 C 
ATOM     33  C   UNL A   1      44.453  32.771  32.715  1.00  0.00     0.029 A 
ATOM     34  C   UNL A   1      43.178  32.700  32.175  1.00  0.00     0.049 A 
ATOM     35  H   UNL A   1      42.283  31.132  31.082  1.00  0.00     0.167 HD
ATOM     36  C   UNL A   1      40.910  33.554  31.646  1.00  0.00     0.074 A 
ATOM     37  C   UNL A   1      39.866  34.560  31.697  1.00  0.00     0.031 C 
ATOM     38  C   UNL A   1      42.127  33.684  32.227  1.00  0.00     0.031 A 
BRANCH  25  39
ATOM     39  C   UNL A   1      45.810  28.765  31.545  1.00  0.00    -0.014 A 
ATOM     40  C   UNL A   1      46.927  28.876  30.701  1.00  0.00     0.009 A 
ATOM     41  C   UNL A   1      45.933  28.034  32.737  1.00  0.00     0.009 A 
ATOM     42  C   UNL A   1      48.124  28.232  31.024  1.00  0.00     0.001 A 
ATOM     43  C   UNL A   1      47.139  27.415  33.072  1.00  0.00     0.001 A 
ATOM     44  C   UNL A   1      48.230  27.505  32.209  1.00  0.00     0.000 A 
ENDBRANCH  25  39
BRANCH  26  45
ATOM     45  C   UNL A   1      36.821  32.609  29.508  1.00  0.00    -0.014 A 
ATOM     46  C   UNL A   1      36.529  33.284  28.314  1.00  0.00     0.009 A 
ATOM     47  C   UNL A   1      35.793  32.405  30.443  1.00  0.00     0.009 A 
ATOM     48  C   UNL A   1      35.236  33.755  28.069  1.00  0.00     0.001 A 
ATOM     49  C   UNL A   1      34.497  32.849  30.181  1.00  0.00     0.001 A 
ATOM     50  C   UNL A   1      34.221  33.530  28.999  1.00  0.00     0.000 A 
ENDBRANCH  26  45
BRANCH  38  51
ATOM     51  C   UNL A   1      42.405  34.970  32.953  1.00  0.00    -0.014 A 
ATOM     52  C   UNL A   1      41.925  35.192  34.253  1.00  0.00     0.009 A 
ATOM     53  C   UNL A   1      43.194  35.956  32.341  1.00  0.00     0.009 A 
ATOM     54  C   UNL A   1      42.209  36.388  34.915  1.00  0.00     0.001 A 
ATOM     55  C   UNL A   1      43.500  37.138  33.016  1.00  0.00     0.001 A 
ATOM     56  C   UNL A   1      43.001  37.356  34.299  1.00  0.00     0.000 A 
ENDBRANCH  38  51
ENDBRANCH  12  13
ENDBRANCH   5   7
ENDBRANCH   2   3
ENDBRANCH   1   2
BRANCH   1  57
ATOM     57  C   UNL A   1      34.679  23.709  25.714  1.00  0.00     0.117 C 
BRANCH  57  58
ATOM     58  N   UNL A   1      34.404  24.026  24.325  1.00  0.00    -0.354 N 
ATOM     59  C   UNL A   1      33.894  25.126  23.710  1.00  0.00     0.245 C 
ATOM     60  H   UNL A   1      34.632  23.298  23.704  1.00  0.00     0.163 HD
ATOM     61  O   UNL A   1      34.170  25.204  22.506  1.00  0.00    -0.272 OA
BRANCH  59  62
ATOM     62  C   UNL A   1      33.154  26.303  24.443  1.00  0.00     0.119 C 
ATOM     63  C   UNL A   1      33.205  26.317  25.990  1.00  0.00     0.038 C 
ATOM     64  C   UNL A   1      33.851  27.545  23.817  1.00  0.00     0.038 C 
ATOM     65  C   UNL A   1      32.976  27.694  26.624  1.00  0.00     0.003 C 
ATOM     66  C   UNL A   1      33.583  28.868  24.518  1.00  0.00     0.003 C 
ATOM     67  C   UNL A   1      33.871  28.755  26.004  1.00  0.00     0.000 C 
BRANCH  62  68
ATOM     68  N   UNL A   1      31.699  26.358  24.080  1.00  0.00    -0.338 N 
ATOM     69  C   UNL A   1      30.648  25.572  24.474  1.00  0.00     0.253 C 
ATOM     70  H   UNL A   1      31.460  27.078  23.453  1.00  0.00     0.164 HD
ATOM     71  O   UNL A   1      29.513  26.040  24.516  1.00  0.00    -0.269 OA
BRANCH  69  72
ATOM     72  C   UNL A   1      30.865  24.115  24.664  1.00  0.00     0.057 A 
ATOM     73  C   UNL A   1      30.875  23.556  25.883  1.00  0.00     0.099 A 
ATOM     74  C   UNL A   1      31.141  23.295  23.496  1.00  0.00     0.041 A 
ATOM     75  N   UNL A   1      31.271  22.247  26.038  1.00  0.00    -0.327 N 
ATOM     76  C   UNL A   1      31.558  22.028  23.626  1.00  0.00     0.106 A 
ATOM     77  C   UNL A   1      31.693  21.437  24.997  1.00  0.00     0.266 A 
ATOM     78  H   UNL A   1      31.255  21.862  26.944  1.00  0.00     0.169 HD
ATOM     79  Cl  UNL A   1      31.945  21.054  22.265  1.00  0.00    -0.078 Cl
ATOM     80  O   UNL A   1      32.134  20.314  25.216  1.00  0.00    -0.268 OA
ENDBRANCH  69  72
ENDBRANCH  62  68
ENDBRANCH  59  62
ENDBRANCH  57  58
ENDBRANCH   1  57
TORSDOF 12
ENDMDL
MODEL 3
REMARK VINA RESULT:     -11.3      2.368      7.290
REMARK SMILES O=C(NCCCNC(=O)C1(NC(=O)c2c[nH]c(=O)c(Cl)c2)CCCCC1)c1ccc(-c2c3nc(c(-c4ccccc4)c4ccc([nH]4)c(-c4ccccc4)c4nc(c(-c5ccccc5)c5ccc2[nH]5)C=C4)C=C3)cc1
REMARK SMILES IDX 5 1 4 2 3 3 1 4 2 5 27 7 28 8 74 9 29 10 73 11 30 12 31 13
REMARK SMILES IDX 32 14 67 15 33 16 72 17 66 18 68 19 34 20 71 21 65 22 64 23
REMARK SMILES IDX 35 25 57 26 42 27 56 28 43 29 46 30 55 31 69 32 44 33 45 34
REMARK SMILES IDX 54 36 70 37 47 38 36 39 37 40 41 41 38 42 40 43 39 44 58 45
REMARK SMILES IDX 59 46 63 47 60 48 62 49 61 50 48 51 49 52 53 53 50 54 52 55
REMARK SMILES IDX 51 56 6 57 7 58 8 59 9 61 10 62 22 63 26 64 23 65 25 66
REMARK SMILES IDX 24 67 11 68 12 69 13 71 14 72 15 73 21 74 16 75 19 76 17 77
REMARK SMILES IDX 20 79 18 80
REMARK H PARENT 3 6 68 24 46 35 7 60 11 70 16 78
REMARK Flexibility Score: inf
ROOT
ATOM      1  C   UNL A   1      35.141  24.000  25.763  1.00  0.00     0.042 C 
ENDROOT
BRANCH   1   2
ATOM      2  C   UNL A   1      36.506  24.011  25.082  1.00  0.00     0.118 C 
BRANCH   2   3
ATOM      3  N   UNL A   1      37.335  22.890  25.493  1.00  0.00    -0.352 N 
ATOM      4  O   UNL A   1      39.207  21.830  26.134  1.00  0.00    -0.269 OA
ATOM      5  C   UNL A   1      38.558  22.870  26.113  1.00  0.00     0.251 C 
ATOM      6  H   UNL A   1      36.958  22.003  25.296  1.00  0.00     0.163 HD
BRANCH   5   7
ATOM      7  C   UNL A   1      39.102  24.087  26.755  1.00  0.00     0.039 A 
ATOM      8  C   UNL A   1      39.869  25.003  26.030  1.00  0.00     0.014 A 
ATOM      9  C   UNL A   1      38.764  24.358  28.085  1.00  0.00     0.014 A 
ATOM     10  C   UNL A   1      40.393  26.125  26.663  1.00  0.00     0.010 A 
ATOM     11  C   UNL A   1      39.221  25.529  28.695  1.00  0.00     0.010 A 
ATOM     12  C   UNL A   1      40.053  26.414  27.993  1.00  0.00    -0.014 A 
BRANCH  12  13
ATOM     13  C   UNL A   1      40.499  27.689  28.603  1.00  0.00     0.031 A 
ATOM     14  C   UNL A   1      41.901  27.860  29.110  1.00  0.00     0.074 A 
ATOM     15  C   UNL A   1      39.613  28.700  28.709  1.00  0.00     0.049 A 
ATOM     16  N   UNL A   1      42.447  28.903  29.682  1.00  0.00    -0.248 NA
ATOM     17  C   UNL A   1      42.805  26.709  28.966  1.00  0.00     0.031 C 
ATOM     18  C   UNL A   1      38.217  28.644  28.268  1.00  0.00     0.029 A 
ATOM     19  N   UNL A   1      39.752  29.965  29.217  1.00  0.00    -0.354 N 
ATOM     20  C   UNL A   1      43.750  28.530  29.986  1.00  0.00     0.074 A 
ATOM     21  C   UNL A   1      43.905  27.156  29.556  1.00  0.00     0.031 C 
ATOM     22  C   UNL A   1      37.636  29.830  28.500  1.00  0.00     0.029 A 
ATOM     23  C   UNL A   1      38.597  30.705  29.161  1.00  0.00     0.049 A 
ATOM     24  H   UNL A   1      40.598  30.309  29.586  1.00  0.00     0.167 HD
ATOM     25  C   UNL A   1      44.727  29.267  30.568  1.00  0.00     0.031 A 
ATOM     26  C   UNL A   1      38.327  31.942  29.615  1.00  0.00     0.031 A 
ATOM     27  C   UNL A   1      44.561  30.630  31.004  1.00  0.00     0.049 A 
ATOM     28  C   UNL A   1      39.414  32.726  30.286  1.00  0.00     0.074 A 
ATOM     29  C   UNL A   1      45.502  31.477  31.563  1.00  0.00     0.029 A 
ATOM     30  N   UNL A   1      43.370  31.339  30.944  1.00  0.00    -0.354 N 
ATOM     31  N   UNL A   1      40.658  32.380  30.512  1.00  0.00    -0.248 NA
ATOM     32  C   UNL A   1      39.063  34.071  30.761  1.00  0.00     0.031 C 
ATOM     33  C   UNL A   1      44.866  32.678  31.897  1.00  0.00     0.029 A 
ATOM     34  C   UNL A   1      43.544  32.601  31.489  1.00  0.00     0.049 A 
ATOM     35  H   UNL A   1      42.526  30.997  30.570  1.00  0.00     0.167 HD
ATOM     36  C   UNL A   1      41.245  33.468  31.142  1.00  0.00     0.074 A 
ATOM     37  C   UNL A   1      40.224  34.493  31.244  1.00  0.00     0.031 C 
ATOM     38  C   UNL A   1      42.515  33.605  31.594  1.00  0.00     0.031 A 
BRANCH  25  39
ATOM     39  C   UNL A   1      46.052  28.596  30.805  1.00  0.00    -0.014 A 
ATOM     40  C   UNL A   1      47.092  28.672  29.864  1.00  0.00     0.009 A 
ATOM     41  C   UNL A   1      46.271  27.895  32.000  1.00  0.00     0.009 A 
ATOM     42  C   UNL A   1      48.308  28.024  30.099  1.00  0.00     0.001 A 
ATOM     43  C   UNL A   1      47.496  27.272  32.246  1.00  0.00     0.001 A 
ATOM     44  C   UNL A   1      48.509  27.327  31.290  1.00  0.00     0.000 A 
ENDBRANCH  25  39
BRANCH  26  45
ATOM     45  C   UNL A   1      36.954  32.490  29.465  1.00  0.00    -0.014 A 
ATOM     46  C   UNL A   1      36.575  33.171  28.300  1.00  0.00     0.009 A 
ATOM     47  C   UNL A   1      36.000  32.288  30.476  1.00  0.00     0.009 A 
ATOM     48  C   UNL A   1      35.271  33.652  28.156  1.00  0.00     0.001 A 
ATOM     49  C   UNL A   1      34.690  32.742  30.317  1.00  0.00     0.001 A 
ATOM     50  C   UNL A   1      34.329  33.430  29.161  1.00  0.00     0.000 A 
ENDBRANCH  26  45
BRANCH  38  51
ATOM     51  C   UNL A   1      42.879  34.920  32.223  1.00  0.00    -0.014 A 
ATOM     52  C   UNL A   1      43.492  35.940  31.477  1.00  0.00     0.009 A 
ATOM     53  C   UNL A   1      42.564  35.157  33.569  1.00  0.00     0.009 A 
ATOM     54  C   UNL A   1      43.806  37.161  32.078  1.00  0.00     0.001 A 
ATOM     55  C   UNL A   1      42.853  36.388  34.159  1.00  0.00     0.001 A 
ATOM     56  C   UNL A   1      43.481  37.385  33.415  1.00  0.00     0.000 A 
ENDBRANCH  38  51
ENDBRANCH  12  13
ENDBRANCH   5   7
ENDBRANCH   2   3
ENDBRANCH   1   2
BRANCH   1  57
ATOM     57  C   UNL A   1      34.123  24.942  25.124  1.00  0.00     0.117 C 
BRANCH  57  58
ATOM     58  N   UNL A   1      32.973  25.184  25.975  1.00  0.00    -0.354 N 
ATOM     59  C   UNL A   1      32.237  26.295  26.243  1.00  0.00     0.245 C 
ATOM     60  H   UNL A   1      32.663  24.382  26.455  1.00  0.00     0.163 HD
ATOM     61  O   UNL A   1      31.107  26.057  26.690  1.00  0.00    -0.272 OA
BRANCH  59  62
ATOM     62  C   UNL A   1      32.667  27.764  25.888  1.00  0.00     0.119 C 
ATOM     63  C   UNL A   1      31.705  28.904  26.301  1.00  0.00     0.038 C 
ATOM     64  C   UNL A   1      34.045  27.865  26.604  1.00  0.00     0.038 C 
ATOM     65  C   UNL A   1      32.366  30.279  26.444  1.00  0.00     0.003 C 
ATOM     66  C   UNL A   1      34.622  29.268  26.717  1.00  0.00     0.003 C 
ATOM     67  C   UNL A   1      33.606  30.218  27.324  1.00  0.00     0.000 C 
BRANCH  62  68
ATOM     68  N   UNL A   1      32.898  27.936  24.415  1.00  0.00    -0.338 N 
ATOM     69  C   UNL A   1      32.172  28.610  23.469  1.00  0.00     0.253 C 
ATOM     70  H   UNL A   1      33.705  27.489  24.072  1.00  0.00     0.164 HD
ATOM     71  O   UNL A   1      32.735  29.081  22.483  1.00  0.00    -0.269 OA
BRANCH  69  72
ATOM     72  C   UNL A   1      30.690  28.601  23.550  1.00  0.00     0.057 A 
ATOM     73  C   UNL A   1      29.990  27.456  23.537  1.00  0.00     0.099 A 
ATOM     74  C   UNL A   1      29.986  29.872  23.574  1.00  0.00     0.041 A 
ATOM     75  N   UNL A   1      28.619  27.489  23.415  1.00  0.00    -0.327 N 
ATOM     76  C   UNL A   1      28.655  29.927  23.426  1.00  0.00     0.106 A 
ATOM     77  C   UNL A   1      27.880  28.652  23.283  1.00  0.00     0.266 A 
ATOM     78  H   UNL A   1      28.133  26.633  23.422  1.00  0.00     0.169 HD
ATOM     79  Cl  UNL A   1      27.806  31.419  23.395  1.00  0.00    -0.078 Cl
ATOM     80  O   UNL A   1      26.673  28.608  23.072  1.00  0.00    -0.268 OA
ENDBRANCH  69  72
ENDBRANCH  62  68
ENDBRANCH  59  62
ENDBRANCH  57  58
ENDBRANCH   1  57
TORSDOF 12
ENDMDL
