MODEL 1
REMARK VINA RESULT:     -10.3      0.000      0.000
REMARK SMILES CC[NH2+][C@@]1(C(=O)NCCCNC(=O)c2ccc(-c3c4nc(c(-c5ccccc5)c5ccc([nH]5)c(-c5ccccc5)c5nc(c(-c6ccccc6)c6ccc3[nH]6)C=C5)C=C4)cc2)CCC[C@H]1CCSc1cnn(C)c1
REMARK SMILES IDX 8 1 7 2 5 3 6 4 4 6 62 7 65 8 63 9 64 10 3 11 2 14 1 15
REMARK SMILES IDX 66 16 67 17 68 18 69 19 70 20 74 21 71 22 72 23 73 24 9 25
REMARK SMILES IDX 10 26 11 27 12 28 13 30 14 31 15 32 61 33 16 34 60 35 17 36
REMARK SMILES IDX 18 37 19 38 54 39 20 40 59 41 53 42 55 43 21 44 58 45 52 46
REMARK SMILES IDX 51 47 22 49 44 50 29 51 43 52 30 53 33 54 42 55 56 56 31 57
REMARK SMILES IDX 32 58 41 60 57 61 34 62 23 63 24 64 28 65 25 66 27 67 26 68
REMARK SMILES IDX 45 69 46 70 50 71 47 72 49 73 48 74 35 75 36 76 40 77 37 78
REMARK SMILES IDX 39 79 38 80
REMARK H PARENT 7 5 3 12 3 13 11 29 55 48 33 59
REMARK Flexibility Score: inf
ROOT
ATOM      1  C   UNL A   1      31.532  30.474  26.002  1.00  0.00     0.118 C 
ENDROOT
BRANCH   1   2
ATOM      2  N   UNL A   1      31.000  30.321  24.669  1.00  0.00    -0.351 N 
ATOM      3  C   UNL A   1      30.506  29.232  24.034  1.00  0.00     0.281 C 
ATOM      4  O   UNL A   1      29.485  29.480  23.371  1.00  0.00    -0.268 OA
ATOM      5  H   UNL A   1      30.998  31.147  24.132  1.00  0.00     0.163 HD
BRANCH   3   6
ATOM      6  C   UNL A   1      31.098  27.752  24.097  1.00  0.00     0.178 C 
ATOM      7  C   UNL A   1      30.113  26.798  23.381  1.00  0.00     0.079 C 
ATOM      8  C   UNL A   1      31.293  27.110  25.516  1.00  0.00     0.061 C 
ATOM      9  C   UNL A   1      29.267  26.114  24.434  1.00  0.00     0.008 C 
ATOM     10  C   UNL A   1      30.020  26.241  25.748  1.00  0.00     0.011 C 
BRANCH   6  11
ATOM     11  N   UNL A   1      32.330  27.718  23.235  1.00  0.00    -0.334 N 
ATOM     12  H   UNL A   1      32.476  28.659  22.869  1.00  0.00     0.347 HD
ATOM     13  H   UNL A   1      33.074  27.379  23.845  1.00  0.00     0.347 HD
BRANCH  11  14
ATOM     14  C   UNL A   1      32.313  26.796  22.098  1.00  0.00     0.257 C 
ATOM     15  C   UNL A   1      33.529  25.883  22.176  1.00  0.00     0.071 C 
ENDBRANCH  11  14
ENDBRANCH   6  11
BRANCH   8  16
ATOM     16  C   UNL A   1      32.491  26.148  25.773  1.00  0.00     0.022 C 
BRANCH  16  17
ATOM     17  C   UNL A   1      32.402  24.641  25.502  1.00  0.00     0.075 C 
BRANCH  17  18
ATOM     18  S   UNL A   1      33.801  23.608  26.044  1.00  0.00    -0.123 SA
BRANCH  18  19
ATOM     19  C   UNL A   1      33.393  22.002  25.533  1.00  0.00     0.045 A 
ATOM     20  C   UNL A   1      32.088  21.530  25.318  1.00  0.00     0.150 A 
ATOM     21  C   UNL A   1      34.207  20.961  25.160  1.00  0.00     0.123 A 
ATOM     22  N   UNL A   1      32.060  20.246  24.946  1.00  0.00    -0.181 NA
ATOM     23  N   UNL A   1      33.367  19.926  24.852  1.00  0.00    -0.275 N 
ATOM     24  C   UNL A   1      33.738  18.585  24.464  1.00  0.00     0.173 C 
ENDBRANCH  18  19
ENDBRANCH  17  18
ENDBRANCH  16  17
ENDBRANCH   8  16
ENDBRANCH   3   6
ENDBRANCH   1   2
BRANCH   1  25
ATOM     25  C   UNL A   1      31.361  31.869  26.571  1.00  0.00     0.042 C 
BRANCH  25  26
ATOM     26  C   UNL A   1      32.647  32.434  27.156  1.00  0.00     0.118 C 
BRANCH  26  27
ATOM     27  N   UNL A   1      32.476  33.816  27.603  1.00  0.00    -0.352 N 
ATOM     28  C   UNL A   1      33.137  34.522  28.578  1.00  0.00     0.251 C 
ATOM     29  H   UNL A   1      31.776  34.321  27.129  1.00  0.00     0.163 HD
ATOM     30  O   UNL A   1      32.666  35.576  28.993  1.00  0.00    -0.269 OA
BRANCH  28  31
ATOM     31  C   UNL A   1      34.411  34.017  29.130  1.00  0.00     0.039 A 
ATOM     32  C   UNL A   1      34.393  33.231  30.285  1.00  0.00     0.014 A 
ATOM     33  C   UNL A   1      35.627  34.353  28.531  1.00  0.00     0.014 A 
ATOM     34  C   UNL A   1      35.592  32.736  30.804  1.00  0.00     0.010 A 
ATOM     35  C   UNL A   1      36.806  33.780  28.989  1.00  0.00     0.010 A 
ATOM     36  C   UNL A   1      36.804  32.982  30.140  1.00  0.00    -0.014 A 
BRANCH  36  37
ATOM     37  C   UNL A   1      38.090  32.440  30.643  1.00  0.00     0.031 A 
ATOM     38  C   UNL A   1      38.675  31.199  30.027  1.00  0.00     0.074 A 
ATOM     39  C   UNL A   1      38.690  33.018  31.700  1.00  0.00     0.049 A 
ATOM     40  N   UNL A   1      39.750  30.534  30.368  1.00  0.00    -0.248 NA
ATOM     41  C   UNL A   1      37.938  30.610  28.896  1.00  0.00     0.031 C 
ATOM     42  C   UNL A   1      38.201  34.201  32.413  1.00  0.00     0.029 A 
ATOM     43  N   UNL A   1      39.844  32.684  32.362  1.00  0.00    -0.354 N 
ATOM     44  C   UNL A   1      39.799  29.439  29.514  1.00  0.00     0.074 A 
ATOM     45  C   UNL A   1      38.619  29.496  28.681  1.00  0.00     0.031 C 
ATOM     46  C   UNL A   1      39.071  34.517  33.385  1.00  0.00     0.029 A 
ATOM     47  C   UNL A   1      40.151  33.536  33.394  1.00  0.00     0.049 A 
ATOM     48  H   UNL A   1      40.398  31.907  32.121  1.00  0.00     0.167 HD
ATOM     49  C   UNL A   1      40.752  28.481  29.415  1.00  0.00     0.031 A 
ATOM     50  C   UNL A   1      41.189  33.527  34.251  1.00  0.00     0.031 A 
ATOM     51  C   UNL A   1      41.930  28.431  30.238  1.00  0.00     0.049 A 
ATOM     52  C   UNL A   1      42.227  32.449  34.134  1.00  0.00     0.074 A 
ATOM     53  C   UNL A   1      42.988  27.540  30.181  1.00  0.00     0.029 A 
ATOM     54  N   UNL A   1      42.202  29.311  31.274  1.00  0.00    -0.354 N 
ATOM     55  N   UNL A   1      42.297  31.457  33.279  1.00  0.00    -0.248 NA
ATOM     56  C   UNL A   1      43.336  32.495  35.098  1.00  0.00     0.031 C 
ATOM     57  C   UNL A   1      43.875  27.851  31.217  1.00  0.00     0.029 A 
ATOM     58  C   UNL A   1      43.400  28.970  31.882  1.00  0.00     0.049 A 
ATOM     59  H   UNL A   1      41.630  30.067  31.539  1.00  0.00     0.167 HD
ATOM     60  C   UNL A   1      43.469  30.777  33.581  1.00  0.00     0.074 A 
ATOM     61  C   UNL A   1      44.084  31.478  34.691  1.00  0.00     0.031 C 
ATOM     62  C   UNL A   1      43.992  29.675  32.991  1.00  0.00     0.031 A 
BRANCH  49  63
ATOM     63  C   UNL A   1      40.538  27.407  28.382  1.00  0.00    -0.014 A 
ATOM     64  C   UNL A   1      39.838  26.229  28.687  1.00  0.00     0.009 A 
ATOM     65  C   UNL A   1      41.050  27.572  27.086  1.00  0.00     0.009 A 
ATOM     66  C   UNL A   1      39.705  25.215  27.735  1.00  0.00     0.001 A 
ATOM     67  C   UNL A   1      40.886  26.572  26.125  1.00  0.00     0.001 A 
ATOM     68  C   UNL A   1      40.228  25.389  26.455  1.00  0.00     0.000 A 
ENDBRANCH  49  63
BRANCH  50  69
ATOM     69  C   UNL A   1      41.316  34.605  35.266  1.00  0.00    -0.014 A 
ATOM     70  C   UNL A   1      40.752  34.442  36.539  1.00  0.00     0.009 A 
ATOM     71  C   UNL A   1      42.018  35.786  34.979  1.00  0.00     0.009 A 
ATOM     72  C   UNL A   1      40.872  35.446  37.502  1.00  0.00     0.001 A 
ATOM     73  C   UNL A   1      42.160  36.777  35.953  1.00  0.00     0.001 A 
ATOM     74  C   UNL A   1      41.582  36.611  37.210  1.00  0.00     0.000 A 
ENDBRANCH  50  69
BRANCH  62  75
ATOM     75  C   UNL A   1      45.310  29.178  33.513  1.00  0.00    -0.014 A 
ATOM     76  C   UNL A   1      46.526  29.664  33.009  1.00  0.00     0.009 A 
ATOM     77  C   UNL A   1      45.332  28.236  34.554  1.00  0.00     0.009 A 
ATOM     78  C   UNL A   1      47.738  29.191  33.515  1.00  0.00     0.001 A 
ATOM     79  C   UNL A   1      46.544  27.786  35.077  1.00  0.00     0.001 A 
ATOM     80  C   UNL A   1      47.747  28.257  34.551  1.00  0.00     0.000 A 
ENDBRANCH  62  75
ENDBRANCH  36  37
ENDBRANCH  28  31
ENDBRANCH  26  27
ENDBRANCH  25  26
ENDBRANCH   1  25
TORSDOF 16
ENDMDL
MODEL 2
REMARK VINA RESULT:     -10.3      4.053      9.365
REMARK SMILES CC[NH2+][C@@]1(C(=O)NCCCNC(=O)c2ccc(-c3c4nc(c(-c5ccccc5)c5ccc([nH]5)c(-c5ccccc5)c5nc(c(-c6ccccc6)c6ccc3[nH]6)C=C5)C=C4)cc2)CCC[C@H]1CCSc1cnn(C)c1
REMARK SMILES IDX 8 1 7 2 5 3 6 4 4 6 62 7 65 8 63 9 64 10 3 11 2 14 1 15
REMARK SMILES IDX 66 16 67 17 68 18 69 19 70 20 74 21 71 22 72 23 73 24 9 25
REMARK SMILES IDX 10 26 11 27 12 28 13 30 14 31 15 32 61 33 16 34 60 35 17 36
REMARK SMILES IDX 18 37 19 38 54 39 20 40 59 41 53 42 55 43 21 44 58 45 52 46
REMARK SMILES IDX 51 47 22 49 44 50 29 51 43 52 30 53 33 54 42 55 56 56 31 57
REMARK SMILES IDX 32 58 41 60 57 61 34 62 23 63 24 64 28 65 25 66 27 67 26 68
REMARK SMILES IDX 45 69 46 70 50 71 47 72 49 73 48 74 35 75 36 76 40 77 37 78
REMARK SMILES IDX 39 79 38 80
REMARK H PARENT 7 5 3 12 3 13 11 29 55 48 33 59
REMARK Flexibility Score: inf
ROOT
ATOM      1  C   UNL A   1      36.115  20.183  25.014  1.00  0.00     0.118 C 
ENDROOT
BRANCH   1   2
ATOM      2  N   UNL A   1      35.918  21.313  25.891  1.00  0.00    -0.351 N 
ATOM      3  C   UNL A   1      34.805  22.035  26.166  1.00  0.00     0.281 C 
ATOM      4  O   UNL A   1      34.691  22.308  27.373  1.00  0.00    -0.268 OA
ATOM      5  H   UNL A   1      36.728  21.608  26.367  1.00  0.00     0.163 HD
BRANCH   3   6
ATOM      6  C   UNL A   1      33.700  22.504  25.116  1.00  0.00     0.178 C 
ATOM      7  C   UNL A   1      34.349  22.562  23.713  1.00  0.00     0.079 C 
ATOM      8  C   UNL A   1      33.074  23.930  25.311  1.00  0.00     0.061 C 
ATOM      9  C   UNL A   1      34.714  24.002  23.420  1.00  0.00     0.008 C 
ATOM     10  C   UNL A   1      33.881  24.862  24.356  1.00  0.00     0.011 C 
BRANCH   6  11
ATOM     11  N   UNL A   1      32.684  21.400  25.003  1.00  0.00    -0.334 N 
ATOM     12  H   UNL A   1      32.908  20.701  25.711  1.00  0.00     0.347 HD
ATOM     13  H   UNL A   1      31.779  21.855  25.125  1.00  0.00     0.347 HD
BRANCH  11  14
ATOM     14  C   UNL A   1      32.600  20.714  23.712  1.00  0.00     0.257 C 
ATOM     15  C   UNL A   1      32.595  19.208  23.945  1.00  0.00     0.071 C 
ENDBRANCH  11  14
ENDBRANCH   6  11
BRANCH   8  16
ATOM     16  C   UNL A   1      31.580  24.177  24.948  1.00  0.00     0.022 C 
BRANCH  16  17
ATOM     17  C   UNL A   1      31.134  25.357  24.074  1.00  0.00     0.075 C 
BRANCH  17  18
ATOM     18  S   UNL A   1      29.607  26.225  24.556  1.00  0.00    -0.123 SA
BRANCH  18  19
ATOM     19  C   UNL A   1      29.485  27.556  23.451  1.00  0.00     0.045 A 
ATOM     20  C   UNL A   1      30.511  27.995  22.598  1.00  0.00     0.150 A 
ATOM     21  C   UNL A   1      28.404  28.340  23.129  1.00  0.00     0.123 A 
ATOM     22  N   UNL A   1      30.153  29.054  21.865  1.00  0.00    -0.181 NA
ATOM     23  N   UNL A   1      28.861  29.240  22.205  1.00  0.00    -0.275 N 
ATOM     24  C   UNL A   1      28.122  30.322  21.600  1.00  0.00     0.173 C 
ENDBRANCH  18  19
ENDBRANCH  17  18
ENDBRANCH  16  17
ENDBRANCH   8  16
ENDBRANCH   3   6
ENDBRANCH   1   2
BRANCH   1  25
ATOM     25  C   UNL A   1      37.563  19.958  24.624  1.00  0.00     0.042 C 
BRANCH  25  26
ATOM     26  C   UNL A   1      38.544  20.390  25.703  1.00  0.00     0.118 C 
BRANCH  26  27
ATOM     27  N   UNL A   1      39.627  19.421  25.869  1.00  0.00    -0.352 N 
ATOM     28  C   UNL A   1      40.958  19.615  26.138  1.00  0.00     0.251 C 
ATOM     29  H   UNL A   1      39.357  18.479  25.773  1.00  0.00     0.163 HD
ATOM     30  O   UNL A   1      41.756  18.699  25.966  1.00  0.00    -0.269 OA
BRANCH  28  31
ATOM     31  C   UNL A   1      41.436  20.923  26.633  1.00  0.00     0.039 A 
ATOM     32  C   UNL A   1      41.845  21.894  25.714  1.00  0.00     0.014 A 
ATOM     33  C   UNL A   1      41.520  21.178  28.003  1.00  0.00     0.014 A 
ATOM     34  C   UNL A   1      42.282  23.140  26.173  1.00  0.00     0.010 A 
ATOM     35  C   UNL A   1      41.859  22.446  28.453  1.00  0.00     0.010 A 
ATOM     36  C   UNL A   1      42.262  23.434  27.545  1.00  0.00    -0.014 A 
BRANCH  36  37
ATOM     37  C   UNL A   1      42.684  24.758  28.063  1.00  0.00     0.031 A 
ATOM     38  C   UNL A   1      41.658  25.829  28.315  1.00  0.00     0.074 A 
ATOM     39  C   UNL A   1      43.993  25.023  28.234  1.00  0.00     0.049 A 
ATOM     40  N   UNL A   1      41.832  27.068  28.700  1.00  0.00    -0.248 NA
ATOM     41  C   UNL A   1      40.251  25.468  28.071  1.00  0.00     0.031 C 
ATOM     42  C   UNL A   1      45.088  24.083  27.985  1.00  0.00     0.029 A 
ATOM     43  N   UNL A   1      44.623  26.166  28.656  1.00  0.00    -0.354 N 
ATOM     44  C   UNL A   1      40.564  27.637  28.717  1.00  0.00     0.074 A 
ATOM     45  C   UNL A   1      39.640  26.629  28.248  1.00  0.00     0.031 C 
ATOM     46  C   UNL A   1      46.251  24.674  28.299  1.00  0.00     0.029 A 
ATOM     47  C   UNL A   1      45.989  26.045  28.724  1.00  0.00     0.049 A 
ATOM     48  H   UNL A   1      44.142  26.993  28.885  1.00  0.00     0.167 HD
ATOM     49  C   UNL A   1      40.196  28.880  29.109  1.00  0.00     0.031 A 
ATOM     50  C   UNL A   1      46.925  26.940  29.093  1.00  0.00     0.031 A 
ATOM     51  C   UNL A   1      41.115  29.878  29.585  1.00  0.00     0.049 A 
ATOM     52  C   UNL A   1      46.497  28.317  29.510  1.00  0.00     0.074 A 
ATOM     53  C   UNL A   1      40.842  31.148  30.063  1.00  0.00     0.029 A 
ATOM     54  N   UNL A   1      42.492  29.717  29.636  1.00  0.00    -0.354 N 
ATOM     55  N   UNL A   1      45.289  28.822  29.585  1.00  0.00    -0.248 NA
ATOM     56  C   UNL A   1      47.566  29.248  29.901  1.00  0.00     0.031 C 
ATOM     57  C   UNL A   1      42.059  31.773  30.356  1.00  0.00     0.029 A 
ATOM     58  C   UNL A   1      43.085  30.874  30.115  1.00  0.00     0.049 A 
ATOM     59  H   UNL A   1      42.976  28.902  29.373  1.00  0.00     0.167 HD
ATOM     60  C   UNL A   1      45.447  30.117  30.059  1.00  0.00     0.074 A 
ATOM     61  C   UNL A   1      46.869  30.316  30.264  1.00  0.00     0.031 C 
ATOM     62  C   UNL A   1      44.502  31.056  30.306  1.00  0.00     0.031 A 
BRANCH  49  63
ATOM     63  C   UNL A   1      38.732  29.220  29.022  1.00  0.00    -0.014 A 
ATOM     64  C   UNL A   1      38.171  29.737  27.843  1.00  0.00     0.009 A 
ATOM     65  C   UNL A   1      37.902  29.027  30.137  1.00  0.00     0.009 A 
ATOM     66  C   UNL A   1      36.825  30.107  27.800  1.00  0.00     0.001 A 
ATOM     67  C   UNL A   1      36.548  29.366  30.081  1.00  0.00     0.001 A 
ATOM     68  C   UNL A   1      36.015  29.919  28.918  1.00  0.00     0.000 A 
ENDBRANCH  49  63
BRANCH  50  69
ATOM     69  C   UNL A   1      48.355  26.539  29.124  1.00  0.00    -0.014 A 
ATOM     70  C   UNL A   1      49.177  26.779  28.013  1.00  0.00     0.009 A 
ATOM     71  C   UNL A   1      48.912  25.942  30.265  1.00  0.00     0.009 A 
ATOM     72  C   UNL A   1      50.524  26.413  28.036  1.00  0.00     0.001 A 
ATOM     73  C   UNL A   1      50.266  25.601  30.295  1.00  0.00     0.001 A 
ATOM     74  C   UNL A   1      51.069  25.830  29.179  1.00  0.00     0.000 A 
ENDBRANCH  50  69
BRANCH  62  75
ATOM     75  C   UNL A   1      44.971  32.373  30.856  1.00  0.00    -0.014 A 
ATOM     76  C   UNL A   1      45.294  33.445  30.010  1.00  0.00     0.009 A 
ATOM     77  C   UNL A   1      45.055  32.553  32.246  1.00  0.00     0.009 A 
ATOM     78  C   UNL A   1      45.723  34.661  30.545  1.00  0.00     0.001 A 
ATOM     79  C   UNL A   1      45.456  33.777  32.779  1.00  0.00     0.001 A 
ATOM     80  C   UNL A   1      45.798  34.828  31.929  1.00  0.00     0.000 A 
ENDBRANCH  62  75
ENDBRANCH  36  37
ENDBRANCH  28  31
ENDBRANCH  26  27
ENDBRANCH  25  26
ENDBRANCH   1  25
TORSDOF 16
ENDMDL
MODEL 3
REMARK VINA RESULT:     -10.2      2.986      7.846
REMARK SMILES CC[NH2+][C@@]1(C(=O)NCCCNC(=O)c2ccc(-c3c4nc(c(-c5ccccc5)c5ccc([nH]5)c(-c5ccccc5)c5nc(c(-c6ccccc6)c6ccc3[nH]6)C=C5)C=C4)cc2)CCC[C@H]1CCSc1cnn(C)c1
REMARK SMILES IDX 8 1 7 2 5 3 6 4 4 6 62 7 65 8 63 9 64 10 3 11 2 14 1 15
REMARK SMILES IDX 66 16 67 17 68 18 69 19 70 20 74 21 71 22 72 23 73 24 9 25
REMARK SMILES IDX 10 26 11 27 12 28 13 30 14 31 15 32 61 33 16 34 60 35 17 36
REMARK SMILES IDX 18 37 19 38 54 39 20 40 59 41 53 42 55 43 21 44 58 45 52 46
REMARK SMILES IDX 51 47 22 49 44 50 29 51 43 52 30 53 33 54 42 55 56 56 31 57
REMARK SMILES IDX 32 58 41 60 57 61 34 62 23 63 24 64 28 65 25 66 27 67 26 68
REMARK SMILES IDX 45 69 46 70 50 71 47 72 49 73 48 74 35 75 36 76 40 77 37 78
REMARK SMILES IDX 39 79 38 80
REMARK H PARENT 7 5 3 12 3 13 11 29 55 48 33 59
REMARK Flexibility Score: inf
ROOT
ATOM      1  C   UNL A   1      34.645  22.779  24.526  1.00  0.00     0.118 C 
ENDROOT
BRANCH   1   2
ATOM      2  N   UNL A   1      33.951  23.210  25.716  1.00  0.00    -0.351 N 
ATOM      3  C   UNL A   1      32.862  24.001  25.867  1.00  0.00     0.281 C 
ATOM      4  O   UNL A   1      32.071  23.576  26.726  1.00  0.00    -0.268 OA
ATOM      5  H   UNL A   1      34.335  22.874  26.558  1.00  0.00     0.163 HD
BRANCH   3   6
ATOM      6  C   UNL A   1      32.543  25.335  25.052  1.00  0.00     0.178 C 
ATOM      7  C   UNL A   1      33.782  26.257  25.117  1.00  0.00     0.079 C 
ATOM      8  C   UNL A   1      31.364  26.234  25.568  1.00  0.00     0.061 C 
ATOM      9  C   UNL A   1      33.544  27.294  26.194  1.00  0.00     0.008 C 
ATOM     10  C   UNL A   1      32.044  27.337  26.434  1.00  0.00     0.011 C 
BRANCH   6  11
ATOM     11  N   UNL A   1      32.439  24.964  23.597  1.00  0.00    -0.334 N 
ATOM     12  H   UNL A   1      32.561  23.954  23.527  1.00  0.00     0.347 HD
ATOM     13  H   UNL A   1      31.524  25.303  23.299  1.00  0.00     0.347 HD
BRANCH  11  14
ATOM     14  C   UNL A   1      33.398  25.593  22.689  1.00  0.00     0.257 C 
ATOM     15  C   UNL A   1      32.729  25.833  21.341  1.00  0.00     0.071 C 
ENDBRANCH  11  14
ENDBRANCH   6  11
BRANCH   8  16
ATOM     16  C   UNL A   1      30.479  27.011  24.548  1.00  0.00     0.022 C 
BRANCH  16  17
ATOM     17  C   UNL A   1      31.014  28.199  23.740  1.00  0.00     0.075 C 
BRANCH  17  18
ATOM     18  S   UNL A   1      30.427  29.860  24.202  1.00  0.00    -0.123 SA
BRANCH  18  19
ATOM     19  C   UNL A   1      29.448  30.375  22.867  1.00  0.00     0.045 A 
ATOM     20  C   UNL A   1      28.705  29.522  22.034  1.00  0.00     0.150 A 
ATOM     21  C   UNL A   1      29.136  31.641  22.437  1.00  0.00     0.123 A 
ATOM     22  N   UNL A   1      28.056  30.182  21.070  1.00  0.00    -0.181 NA
ATOM     23  N   UNL A   1      28.332  31.474  21.343  1.00  0.00    -0.275 N 
ATOM     24  C   UNL A   1      27.788  32.506  20.492  1.00  0.00     0.173 C 
ENDBRANCH  18  19
ENDBRANCH  17  18
ENDBRANCH  16  17
ENDBRANCH   8  16
ENDBRANCH   3   6
ENDBRANCH   1   2
BRANCH   1  25
ATOM     25  C   UNL A   1      35.988  23.454  24.323  1.00  0.00     0.042 C 
BRANCH  25  26
ATOM     26  C   UNL A   1      36.720  23.728  25.629  1.00  0.00     0.118 C 
BRANCH  26  27
ATOM     27  N   UNL A   1      37.754  22.728  25.889  1.00  0.00    -0.352 N 
ATOM     28  C   UNL A   1      39.048  22.881  26.322  1.00  0.00     0.251 C 
ATOM     29  H   UNL A   1      37.479  21.796  25.728  1.00  0.00     0.163 HD
ATOM     30  O   UNL A   1      39.842  21.952  26.215  1.00  0.00    -0.269 OA
BRANCH  28  31
ATOM     31  C   UNL A   1      39.488  24.160  26.917  1.00  0.00     0.039 A 
ATOM     32  C   UNL A   1      40.157  25.092  26.118  1.00  0.00     0.014 A 
ATOM     33  C   UNL A   1      39.278  24.424  28.272  1.00  0.00     0.014 A 
ATOM     34  C   UNL A   1      40.561  26.311  26.668  1.00  0.00     0.010 A 
ATOM     35  C   UNL A   1      39.592  25.672  28.792  1.00  0.00     0.010 A 
ATOM     36  C   UNL A   1      40.253  26.622  28.002  1.00  0.00    -0.014 A 
BRANCH  36  37
ATOM     37  C   UNL A   1      40.635  27.921  28.607  1.00  0.00     0.031 A 
ATOM     38  C   UNL A   1      42.043  28.140  29.091  1.00  0.00     0.074 A 
ATOM     39  C   UNL A   1      39.701  28.872  28.791  1.00  0.00     0.049 A 
ATOM     40  N   UNL A   1      42.554  29.176  29.706  1.00  0.00    -0.248 NA
ATOM     41  C   UNL A   1      42.994  27.036  28.881  1.00  0.00     0.031 C 
ATOM     42  C   UNL A   1      38.292  28.765  28.405  1.00  0.00     0.029 A 
ATOM     43  N   UNL A   1      39.798  30.119  29.356  1.00  0.00    -0.354 N 
ATOM     44  C   UNL A   1      43.873  28.835  29.980  1.00  0.00     0.074 A 
ATOM     45  C   UNL A   1      44.066  27.480  29.518  1.00  0.00     0.031 C 
ATOM     46  C   UNL A   1      37.668  29.914  28.705  1.00  0.00     0.029 A 
ATOM     47  C   UNL A   1      38.617  30.818  29.346  1.00  0.00     0.049 A 
ATOM     48  H   UNL A   1      40.634  30.476  29.733  1.00  0.00     0.167 HD
ATOM     49  C   UNL A   1      44.845  29.590  30.545  1.00  0.00     0.031 A 
ATOM     50  C   UNL A   1      38.332  32.053  29.800  1.00  0.00     0.031 A 
ATOM     51  C   UNL A   1      44.654  30.942  30.996  1.00  0.00     0.049 A 
ATOM     52  C   UNL A   1      39.420  32.868  30.437  1.00  0.00     0.074 A 
ATOM     53  C   UNL A   1      45.585  31.817  31.527  1.00  0.00     0.029 A 
ATOM     54  N   UNL A   1      43.441  31.614  30.970  1.00  0.00    -0.354 N 
ATOM     55  N   UNL A   1      40.680  32.560  30.629  1.00  0.00    -0.248 NA
ATOM     56  C   UNL A   1      39.047  34.208  30.912  1.00  0.00     0.031 C 
ATOM     57  C   UNL A   1      44.924  33.001  31.871  1.00  0.00     0.029 A 
ATOM     58  C   UNL A   1      43.594  32.885  31.500  1.00  0.00     0.049 A 
ATOM     59  H   UNL A   1      42.597  31.244  30.627  1.00  0.00     0.167 HD
ATOM     60  C   UNL A   1      41.258  33.675  31.222  1.00  0.00     0.074 A 
ATOM     61  C   UNL A   1      40.212  34.671  31.345  1.00  0.00     0.031 C 
ATOM     62  C   UNL A   1      42.540  33.860  31.623  1.00  0.00     0.031 A 
BRANCH  49  63
ATOM     63  C   UNL A   1      46.197  28.951  30.714  1.00  0.00    -0.014 A 
ATOM     64  C   UNL A   1      46.536  28.256  31.886  1.00  0.00     0.009 A 
ATOM     65  C   UNL A   1      47.150  29.050  29.688  1.00  0.00     0.009 A 
ATOM     66  C   UNL A   1      47.818  27.724  32.052  1.00  0.00     0.001 A 
ATOM     67  C   UNL A   1      48.419  28.487  29.841  1.00  0.00     0.001 A 
ATOM     68  C   UNL A   1      48.756  27.839  31.028  1.00  0.00     0.000 A 
ENDBRANCH  49  63
BRANCH  50  69
ATOM     69  C   UNL A   1      36.964  32.605  29.626  1.00  0.00    -0.014 A 
ATOM     70  C   UNL A   1      36.012  32.461  30.646  1.00  0.00     0.009 A 
ATOM     71  C   UNL A   1      36.609  33.297  28.458  1.00  0.00     0.009 A 
ATOM     72  C   UNL A   1      34.726  32.984  30.494  1.00  0.00     0.001 A 
ATOM     73  C   UNL A   1      35.330  33.842  28.320  1.00  0.00     0.001 A 
ATOM     74  C   UNL A   1      34.388  33.679  29.334  1.00  0.00     0.000 A 
ENDBRANCH  50  69
BRANCH  62  75
ATOM     75  C   UNL A   1      42.888  35.201  32.204  1.00  0.00    -0.014 A 
ATOM     76  C   UNL A   1      43.543  36.179  31.441  1.00  0.00     0.009 A 
ATOM     77  C   UNL A   1      42.521  35.501  33.525  1.00  0.00     0.009 A 
ATOM     78  C   UNL A   1      43.852  37.420  32.000  1.00  0.00     0.001 A 
ATOM     79  C   UNL A   1      42.805  36.751  34.073  1.00  0.00     0.001 A 
ATOM     80  C   UNL A   1      43.478  37.707  33.314  1.00  0.00     0.000 A 
ENDBRANCH  62  75
ENDBRANCH  36  37
ENDBRANCH  28  31
ENDBRANCH  26  27
ENDBRANCH  25  26
ENDBRANCH   1  25
TORSDOF 16
ENDMDL
