MODEL 1
REMARK VINA RESULT:     -12.2      0.000      0.000
REMARK SMILES O=C(C/C(=C/c1ccc(N2CCOCC2)c(F)c1)c1nc2ccccc2s1)NCCCNC(=O)c1ccc(-c2c3nc(c(-c4ccccc4)c4ccc([nH]4)c(-c4ccccc4)c4nc(c(-c5ccccc5)c5ccc2[nH]5)C=C4)C=C3)cc1
REMARK SMILES IDX 29 1 28 2 1 3 2 4 3 6 4 7 5 8 19 9 20 10 27 11 21 12 26 13
REMARK SMILES IDX 22 14 25 15 23 16 24 17 6 18 7 19 18 20 8 21 16 22 9 23
REMARK SMILES IDX 17 24 10 25 11 26 15 27 12 28 14 29 13 30 30 31 31 32 32 33
REMARK SMILES IDX 33 34 34 36 35 37 36 38 82 39 37 40 81 41 38 42 39 43 40 44
REMARK SMILES IDX 75 45 41 46 80 47 74 48 76 49 42 50 79 51 73 52 72 53 43 55
REMARK SMILES IDX 65 56 50 57 64 58 51 59 54 60 63 61 77 62 52 63 53 64 62 66
REMARK SMILES IDX 78 67 55 68 44 69 45 70 49 71 46 72 48 73 47 74 66 75 67 76
REMARK SMILES IDX 71 77 68 78 70 79 69 80 56 81 57 82 61 83 58 84 60 85 59 86
REMARK H PARENT 28 5 32 35 76 54 54 65
REMARK Flexibility Score: inf
ROOT
ATOM      1  C   UNL A   1      33.183  28.413  24.780  1.00  0.00     0.117 C 
ENDROOT
BRANCH   1   2
ATOM      2  N   UNL A   1      33.184  27.236  23.935  1.00  0.00    -0.356 N 
ATOM      3  O   UNL A   1      31.467  26.184  25.030  1.00  0.00    -0.275 OA
ATOM      4  C   UNL A   1      32.239  26.242  24.076  1.00  0.00     0.224 C 
ATOM      5  H   UNL A   1      33.877  27.144  23.242  1.00  0.00     0.163 HD
BRANCH   4   6
ATOM      6  C   UNL A   1      32.243  25.182  22.983  1.00  0.00     0.138 C 
BRANCH   6   7
ATOM      7  C   UNL A   1      32.702  23.804  23.448  1.00  0.00    -0.002 C 
ATOM      8  C   UNL A   1      31.850  22.765  23.262  1.00  0.00     0.015 C 
BRANCH   7   9
ATOM      9  C   UNL A   1      34.019  23.546  23.981  1.00  0.00     0.121 A 
ATOM     10  N   UNL A   1      34.867  22.631  23.553  1.00  0.00    -0.236 NA
ATOM     11  S   UNL A   1      34.599  24.450  25.339  1.00  0.00    -0.114 S 
ATOM     12  C   UNL A   1      36.007  22.599  24.340  1.00  0.00     0.082 A 
ATOM     13  C   UNL A   1      36.044  23.534  25.370  1.00  0.00     0.055 A 
ATOM     14  C   UNL A   1      37.098  21.720  24.188  1.00  0.00     0.030 A 
ATOM     15  C   UNL A   1      37.134  23.635  26.251  1.00  0.00     0.021 A 
ATOM     16  C   UNL A   1      38.189  21.807  25.061  1.00  0.00     0.002 A 
ATOM     17  C   UNL A   1      38.205  22.756  26.078  1.00  0.00     0.002 A 
ENDBRANCH   7   9
BRANCH   8  18
ATOM     18  C   UNL A   1      32.096  21.343  23.542  1.00  0.00    -0.022 A 
ATOM     19  C   UNL A   1      32.311  20.860  24.835  1.00  0.00     0.010 A 
ATOM     20  C   UNL A   1      32.121  20.448  22.474  1.00  0.00     0.049 A 
ATOM     21  C   UNL A   1      32.591  19.502  25.048  1.00  0.00     0.029 A 
ATOM     22  C   UNL A   1      32.414  19.105  22.698  1.00  0.00     0.147 A 
ATOM     23  C   UNL A   1      32.674  18.594  23.982  1.00  0.00     0.073 A 
ATOM     24  F   UNL A   1      32.410  18.282  21.635  1.00  0.00    -0.205 F 
BRANCH  23  25
ATOM     25  N   UNL A   1      33.004  17.273  24.194  1.00  0.00    -0.365 N 
ATOM     26  C   UNL A   1      32.100  16.358  24.903  1.00  0.00     0.145 C 
ATOM     27  C   UNL A   1      34.253  16.673  23.720  1.00  0.00     0.145 C 
ATOM     28  C   UNL A   1      32.868  15.639  26.018  1.00  0.00     0.181 C 
ATOM     29  C   UNL A   1      34.925  15.931  24.892  1.00  0.00     0.181 C 
ATOM     30  O   UNL A   1      34.039  14.976  25.504  1.00  0.00    -0.378 OA
ENDBRANCH  23  25
ENDBRANCH   8  18
ENDBRANCH   6   7
ENDBRANCH   4   6
ENDBRANCH   1   2
BRANCH   1  31
ATOM     31  C   UNL A   1      34.116  28.288  25.975  1.00  0.00     0.042 C 
BRANCH  31  32
ATOM     32  C   UNL A   1      33.458  28.566  27.322  1.00  0.00     0.118 C 
BRANCH  32  33
ATOM     33  N   UNL A   1      33.406  29.981  27.657  1.00  0.00    -0.352 N 
ATOM     34  C   UNL A   1      34.361  30.803  28.197  1.00  0.00     0.251 C 
ATOM     35  H   UNL A   1      32.546  30.420  27.465  1.00  0.00     0.163 HD
ATOM     36  O   UNL A   1      34.055  31.956  28.505  1.00  0.00    -0.269 OA
BRANCH  34  37
ATOM     37  C   UNL A   1      35.743  30.329  28.436  1.00  0.00     0.039 A 
ATOM     38  C   UNL A   1      36.071  29.852  29.710  1.00  0.00     0.014 A 
ATOM     39  C   UNL A   1      36.727  30.395  27.447  1.00  0.00     0.014 A 
ATOM     40  C   UNL A   1      37.366  29.403  29.978  1.00  0.00     0.010 A 
ATOM     41  C   UNL A   1      38.000  29.879  27.693  1.00  0.00     0.010 A 
ATOM     42  C   UNL A   1      38.338  29.392  28.965  1.00  0.00    -0.014 A 
BRANCH  42  43
ATOM     43  C   UNL A   1      39.715  28.907  29.231  1.00  0.00     0.031 A 
ATOM     44  C   UNL A   1      40.707  29.794  29.933  1.00  0.00     0.074 A 
ATOM     45  C   UNL A   1      40.091  27.685  28.807  1.00  0.00     0.049 A 
ATOM     46  N   UNL A   1      41.963  29.560  30.224  1.00  0.00    -0.248 NA
ATOM     47  C   UNL A   1      40.234  31.126  30.341  1.00  0.00     0.031 C 
ATOM     48  C   UNL A   1      39.242  26.738  28.084  1.00  0.00     0.029 A 
ATOM     49  N   UNL A   1      41.293  27.032  28.925  1.00  0.00    -0.354 N 
ATOM     50  C   UNL A   1      42.433  30.720  30.827  1.00  0.00     0.074 A 
ATOM     51  C   UNL A   1      41.342  31.672  30.821  1.00  0.00     0.031 C 
ATOM     52  C   UNL A   1      39.939  25.615  27.846  1.00  0.00     0.029 A 
ATOM     53  C   UNL A   1      41.292  25.775  28.371  1.00  0.00     0.049 A 
ATOM     54  H   UNL A   1      42.081  27.427  29.363  1.00  0.00     0.167 HD
ATOM     55  C   UNL A   1      43.654  30.969  31.356  1.00  0.00     0.031 A 
ATOM     56  C   UNL A   1      42.270  24.852  28.298  1.00  0.00     0.031 A 
ATOM     57  C   UNL A   1      44.736  30.022  31.386  1.00  0.00     0.049 A 
ATOM     58  C   UNL A   1      43.612  25.146  28.905  1.00  0.00     0.074 A 
ATOM     59  C   UNL A   1      45.993  30.165  31.948  1.00  0.00     0.029 A 
ATOM     60  N   UNL A   1      44.685  28.752  30.834  1.00  0.00    -0.354 N 
ATOM     61  N   UNL A   1      44.021  26.227  29.524  1.00  0.00    -0.248 NA
ATOM     62  C   UNL A   1      44.624  24.084  28.817  1.00  0.00     0.031 C 
ATOM     63  C   UNL A   1      46.716  28.992  31.704  1.00  0.00     0.029 A 
ATOM     64  C   UNL A   1      45.893  28.105  31.031  1.00  0.00     0.049 A 
ATOM     65  H   UNL A   1      43.907  28.368  30.371  1.00  0.00     0.167 HD
ATOM     66  C   UNL A   1      45.324  25.963  29.926  1.00  0.00     0.074 A 
ATOM     67  C   UNL A   1      45.634  24.617  29.490  1.00  0.00     0.031 C 
ATOM     68  C   UNL A   1      46.185  26.764  30.599  1.00  0.00     0.031 A 
BRANCH  55  69
ATOM     69  C   UNL A   1      43.883  32.332  31.949  1.00  0.00    -0.014 A 
ATOM     70  C   UNL A   1      44.378  33.389  31.168  1.00  0.00     0.009 A 
ATOM     71  C   UNL A   1      43.578  32.567  33.297  1.00  0.00     0.009 A 
ATOM     72  C   UNL A   1      44.597  34.645  31.738  1.00  0.00     0.001 A 
ATOM     73  C   UNL A   1      43.774  33.832  33.857  1.00  0.00     0.001 A 
ATOM     74  C   UNL A   1      44.292  34.866  33.079  1.00  0.00     0.000 A 
ENDBRANCH  55  69
BRANCH  56  75
ATOM     75  C   UNL A   1      42.006  23.541  27.651  1.00  0.00    -0.014 A 
ATOM     76  C   UNL A   1      41.533  22.459  28.408  1.00  0.00     0.009 A 
ATOM     77  C   UNL A   1      42.234  23.363  26.278  1.00  0.00     0.009 A 
ATOM     78  C   UNL A   1      41.318  21.216  27.809  1.00  0.00     0.001 A 
ATOM     79  C   UNL A   1      41.994  22.126  25.677  1.00  0.00     0.001 A 
ATOM     80  C   UNL A   1      41.545  21.052  26.443  1.00  0.00     0.000 A 
ENDBRANCH  56  75
BRANCH  68  81
ATOM     81  C   UNL A   1      47.529  26.189  30.943  1.00  0.00    -0.014 A 
ATOM     82  C   UNL A   1      47.782  25.630  32.204  1.00  0.00     0.009 A 
ATOM     83  C   UNL A   1      48.544  26.176  29.974  1.00  0.00     0.009 A 
ATOM     84  C   UNL A   1      49.039  25.098  32.499  1.00  0.00     0.001 A 
ATOM     85  C   UNL A   1      49.792  25.622  30.264  1.00  0.00     0.001 A 
ATOM     86  C   UNL A   1      50.041  25.092  31.528  1.00  0.00     0.000 A 
ENDBRANCH  68  81
ENDBRANCH  42  43
ENDBRANCH  34  37
ENDBRANCH  32  33
ENDBRANCH  31  32
ENDBRANCH   1  31
TORSDOF 14
ENDMDL
MODEL 2
REMARK VINA RESULT:     -11.6      5.585     11.961
REMARK SMILES O=C(C/C(=C/c1ccc(N2CCOCC2)c(F)c1)c1nc2ccccc2s1)NCCCNC(=O)c1ccc(-c2c3nc(c(-c4ccccc4)c4ccc([nH]4)c(-c4ccccc4)c4nc(c(-c5ccccc5)c5ccc2[nH]5)C=C4)C=C3)cc1
REMARK SMILES IDX 29 1 28 2 1 3 2 4 3 6 4 7 5 8 19 9 20 10 27 11 21 12 26 13
REMARK SMILES IDX 22 14 25 15 23 16 24 17 6 18 7 19 18 20 8 21 16 22 9 23
REMARK SMILES IDX 17 24 10 25 11 26 15 27 12 28 14 29 13 30 30 31 31 32 32 33
REMARK SMILES IDX 33 34 34 36 35 37 36 38 82 39 37 40 81 41 38 42 39 43 40 44
REMARK SMILES IDX 75 45 41 46 80 47 74 48 76 49 42 50 79 51 73 52 72 53 43 55
REMARK SMILES IDX 65 56 50 57 64 58 51 59 54 60 63 61 77 62 52 63 53 64 62 66
REMARK SMILES IDX 78 67 55 68 44 69 45 70 49 71 46 72 48 73 47 74 66 75 67 76
REMARK SMILES IDX 71 77 68 78 70 79 69 80 56 81 57 82 61 83 58 84 60 85 59 86
REMARK H PARENT 28 5 32 35 76 54 54 65
REMARK Flexibility Score: inf
ROOT
ATOM      1  C   UNL A   1      45.664  19.921  24.476  1.00  0.00     0.117 C 
ENDROOT
BRANCH   1   2
ATOM      2  N   UNL A   1      45.108  21.245  24.287  1.00  0.00    -0.356 N 
ATOM      3  O   UNL A   1      46.034  22.140  26.183  1.00  0.00    -0.275 OA
ATOM      4  C   UNL A   1      45.428  22.292  25.125  1.00  0.00     0.224 C 
ATOM      5  H   UNL A   1      44.486  21.403  23.539  1.00  0.00     0.163 HD
BRANCH   4   6
ATOM      6  C   UNL A   1      44.937  23.660  24.673  1.00  0.00     0.138 C 
BRANCH   6   7
ATOM      7  C   UNL A   1      45.918  24.797  24.939  1.00  0.00    -0.002 C 
ATOM      8  C   UNL A   1      47.220  24.588  24.621  1.00  0.00     0.015 C 
BRANCH   7   9
ATOM      9  C   UNL A   1      45.512  26.098  25.417  1.00  0.00     0.121 A 
ATOM     10  N   UNL A   1      46.300  27.018  25.940  1.00  0.00    -0.236 NA
ATOM     11  S   UNL A   1      43.843  26.556  25.376  1.00  0.00    -0.114 S 
ATOM     12  C   UNL A   1      45.573  28.116  26.368  1.00  0.00     0.082 A 
ATOM     13  C   UNL A   1      44.203  28.048  26.135  1.00  0.00     0.055 A 
ATOM     14  C   UNL A   1      46.093  29.261  27.004  1.00  0.00     0.030 A 
ATOM     15  C   UNL A   1      43.328  29.084  26.503  1.00  0.00     0.021 A 
ATOM     16  C   UNL A   1      45.232  30.300  27.378  1.00  0.00     0.002 A 
ATOM     17  C   UNL A   1      43.867  30.211  27.127  1.00  0.00     0.002 A 
ENDBRANCH   7   9
BRANCH   8  18
ATOM     18  C   UNL A   1      48.328  25.552  24.700  1.00  0.00    -0.022 A 
ATOM     19  C   UNL A   1      49.156  25.651  25.821  1.00  0.00     0.010 A 
ATOM     20  C   UNL A   1      48.553  26.399  23.616  1.00  0.00     0.049 A 
ATOM     21  C   UNL A   1      50.170  26.620  25.870  1.00  0.00     0.029 A 
ATOM     22  C   UNL A   1      49.553  27.365  23.684  1.00  0.00     0.147 A 
ATOM     23  C   UNL A   1      50.378  27.518  24.813  1.00  0.00     0.073 A 
ATOM     24  F   UNL A   1      49.738  28.146  22.606  1.00  0.00    -0.205 F 
BRANCH  23  25
ATOM     25  N   UNL A   1      51.340  28.502  24.892  1.00  0.00    -0.365 N 
ATOM     26  C   UNL A   1      51.402  29.427  26.031  1.00  0.00     0.145 C 
ATOM     27  C   UNL A   1      52.376  28.694  23.877  1.00  0.00     0.145 C 
ATOM     28  C   UNL A   1      51.464  30.871  25.519  1.00  0.00     0.181 C 
ATOM     29  C   UNL A   1      52.400  30.178  23.462  1.00  0.00     0.181 C 
ATOM     30  O   UNL A   1      52.555  31.052  24.595  1.00  0.00    -0.378 OA
ENDBRANCH  23  25
ENDBRANCH   8  18
ENDBRANCH   6   7
ENDBRANCH   4   6
ENDBRANCH   1   2
BRANCH   1  31
ATOM     31  C   UNL A   1      44.600  18.839  24.580  1.00  0.00     0.042 C 
BRANCH  31  32
ATOM     32  C   UNL A   1      43.792  18.871  25.873  1.00  0.00     0.118 C 
BRANCH  32  33
ATOM     33  N   UNL A   1      42.356  18.764  25.659  1.00  0.00    -0.352 N 
ATOM     34  C   UNL A   1      41.340  19.618  26.003  1.00  0.00     0.251 C 
ATOM     35  H   UNL A   1      42.067  17.948  25.191  1.00  0.00     0.163 HD
ATOM     36  O   UNL A   1      40.173  19.265  25.820  1.00  0.00    -0.269 OA
BRANCH  34  37
ATOM     37  C   UNL A   1      41.613  20.942  26.607  1.00  0.00     0.039 A 
ATOM     38  C   UNL A   1      41.807  22.033  25.753  1.00  0.00     0.014 A 
ATOM     39  C   UNL A   1      41.730  21.113  27.988  1.00  0.00     0.014 A 
ATOM     40  C   UNL A   1      42.074  23.298  26.283  1.00  0.00     0.010 A 
ATOM     41  C   UNL A   1      41.924  22.389  28.519  1.00  0.00     0.010 A 
ATOM     42  C   UNL A   1      42.113  23.491  27.673  1.00  0.00    -0.014 A 
BRANCH  42  43
ATOM     43  C   UNL A   1      42.383  24.832  28.252  1.00  0.00     0.031 A 
ATOM     44  C   UNL A   1      43.763  25.180  28.740  1.00  0.00     0.074 A 
ATOM     45  C   UNL A   1      41.382  25.724  28.378  1.00  0.00     0.049 A 
ATOM     46  N   UNL A   1      44.185  26.284  29.306  1.00  0.00    -0.248 NA
ATOM     47  C   UNL A   1      44.800  24.145  28.597  1.00  0.00     0.031 C 
ATOM     48  C   UNL A   1      39.992  25.503  27.978  1.00  0.00     0.029 A 
ATOM     49  N   UNL A   1      41.386  27.001  28.882  1.00  0.00    -0.354 N 
ATOM     50  C   UNL A   1      45.525  26.068  29.603  1.00  0.00     0.074 A 
ATOM     51  C   UNL A   1      45.835  24.714  29.197  1.00  0.00     0.031 C 
ATOM     52  C   UNL A   1      39.282  26.615  28.228  1.00  0.00     0.029 A 
ATOM     53  C   UNL A   1      40.158  27.615  28.832  1.00  0.00     0.049 A 
ATOM     54  H   UNL A   1      42.190  27.435  29.247  1.00  0.00     0.167 HD
ATOM     55  C   UNL A   1      46.424  26.922  30.147  1.00  0.00     0.031 A 
ATOM     56  C   UNL A   1      39.781  28.846  29.224  1.00  0.00     0.031 A 
ATOM     57  C   UNL A   1      46.130  28.276  30.531  1.00  0.00     0.049 A 
ATOM     58  C   UNL A   1      40.799  29.780  29.812  1.00  0.00     0.074 A 
ATOM     59  C   UNL A   1      46.988  29.234  31.042  1.00  0.00     0.029 A 
ATOM     60  N   UNL A   1      44.879  28.865  30.442  1.00  0.00    -0.354 N 
ATOM     61  N   UNL A   1      42.076  29.580  30.032  1.00  0.00    -0.248 NA
ATOM     62  C   UNL A   1      40.327  31.120  30.191  1.00  0.00     0.031 C 
ATOM     63  C   UNL A   1      46.248  30.394  31.296  1.00  0.00     0.029 A 
ATOM     64  C   UNL A   1      44.940  30.170  30.900  1.00  0.00     0.049 A 
ATOM     65  H   UNL A   1      44.068  28.422  30.105  1.00  0.00     0.167 HD
ATOM     66  C   UNL A   1      42.564  30.774  30.544  1.00  0.00     0.074 A 
ATOM     67  C   UNL A   1      41.450  31.698  30.593  1.00  0.00     0.031 C 
ATOM     68  C   UNL A   1      43.825  31.080  30.936  1.00  0.00     0.031 A 
BRANCH  55  69
ATOM     69  C   UNL A   1      47.821  26.408  30.358  1.00  0.00    -0.014 A 
ATOM     70  C   UNL A   1      48.201  25.820  31.575  1.00  0.00     0.009 A 
ATOM     71  C   UNL A   1      48.760  26.492  29.320  1.00  0.00     0.009 A 
ATOM     72  C   UNL A   1      49.507  25.360  31.759  1.00  0.00     0.001 A 
ATOM     73  C   UNL A   1      50.058  26.006  29.499  1.00  0.00     0.001 A 
ATOM     74  C   UNL A   1      50.432  25.451  30.721  1.00  0.00     0.000 A 
ENDBRANCH  55  69
BRANCH  56  75
ATOM     75  C   UNL A   1      38.372  29.284  29.043  1.00  0.00    -0.014 A 
ATOM     76  C   UNL A   1      37.482  29.273  30.128  1.00  0.00     0.009 A 
ATOM     77  C   UNL A   1      37.910  29.703  27.787  1.00  0.00     0.009 A 
ATOM     78  C   UNL A   1      36.148  29.650  29.953  1.00  0.00     0.001 A 
ATOM     79  C   UNL A   1      36.583  30.104  27.621  1.00  0.00     0.001 A 
ATOM     80  C   UNL A   1      35.701  30.068  28.700  1.00  0.00     0.000 A 
ENDBRANCH  56  75
BRANCH  68  81
ATOM     81  C   UNL A   1      44.075  32.482  31.410  1.00  0.00    -0.014 A 
ATOM     82  C   UNL A   1      43.962  32.826  32.765  1.00  0.00     0.009 A 
ATOM     83  C   UNL A   1      44.465  33.465  30.487  1.00  0.00     0.009 A 
ATOM     84  C   UNL A   1      44.203  34.137  33.182  1.00  0.00     0.001 A 
ATOM     85  C   UNL A   1      44.728  34.769  30.910  1.00  0.00     0.001 A 
ATOM     86  C   UNL A   1      44.589  35.105  32.255  1.00  0.00     0.000 A 
ENDBRANCH  68  81
ENDBRANCH  42  43
ENDBRANCH  34  37
ENDBRANCH  32  33
ENDBRANCH  31  32
ENDBRANCH   1  31
TORSDOF 14
ENDMDL
MODEL 3
REMARK VINA RESULT:     -11.5      5.160     11.150
REMARK SMILES O=C(C/C(=C/c1ccc(N2CCOCC2)c(F)c1)c1nc2ccccc2s1)NCCCNC(=O)c1ccc(-c2c3nc(c(-c4ccccc4)c4ccc([nH]4)c(-c4ccccc4)c4nc(c(-c5ccccc5)c5ccc2[nH]5)C=C4)C=C3)cc1
REMARK SMILES IDX 29 1 28 2 1 3 2 4 3 6 4 7 5 8 19 9 20 10 27 11 21 12 26 13
REMARK SMILES IDX 22 14 25 15 23 16 24 17 6 18 7 19 18 20 8 21 16 22 9 23
REMARK SMILES IDX 17 24 10 25 11 26 15 27 12 28 14 29 13 30 30 31 31 32 32 33
REMARK SMILES IDX 33 34 34 36 35 37 36 38 82 39 37 40 81 41 38 42 39 43 40 44
REMARK SMILES IDX 75 45 41 46 80 47 74 48 76 49 42 50 79 51 73 52 72 53 43 55
REMARK SMILES IDX 65 56 50 57 64 58 51 59 54 60 63 61 77 62 52 63 53 64 62 66
REMARK SMILES IDX 78 67 55 68 44 69 45 70 49 71 46 72 48 73 47 74 66 75 67 76
REMARK SMILES IDX 71 77 68 78 70 79 69 80 56 81 57 82 61 83 58 84 60 85 59 86
REMARK H PARENT 28 5 32 35 76 54 54 65
REMARK Flexibility Score: inf
ROOT
ATOM      1  C   UNL A   1      43.245  20.366  25.538  1.00  0.00     0.117 C 
ENDROOT
BRANCH   1   2
ATOM      2  N   UNL A   1      44.534  21.028  25.561  1.00  0.00    -0.356 N 
ATOM      3  O   UNL A   1      44.208  22.198  23.617  1.00  0.00    -0.275 OA
ATOM      4  C   UNL A   1      44.873  21.985  24.628  1.00  0.00     0.224 C 
ATOM      5  H   UNL A   1      45.183  20.790  26.262  1.00  0.00     0.163 HD
BRANCH   4   6
ATOM      6  C   UNL A   1      46.167  22.737  24.909  1.00  0.00     0.138 C 
BRANCH   6   7
ATOM      7  C   UNL A   1      45.980  24.036  25.686  1.00  0.00    -0.002 C 
ATOM      8  C   UNL A   1      45.936  25.190  24.973  1.00  0.00     0.015 C 
BRANCH   7   9
ATOM      9  C   UNL A   1      45.756  24.082  27.112  1.00  0.00     0.121 A 
ATOM     10  N   UNL A   1      44.771  23.497  27.765  1.00  0.00    -0.236 NA
ATOM     11  S   UNL A   1      46.811  25.006  28.126  1.00  0.00    -0.114 S 
ATOM     12  C   UNL A   1      44.810  23.813  29.114  1.00  0.00     0.082 A 
ATOM     13  C   UNL A   1      45.868  24.628  29.503  1.00  0.00     0.055 A 
ATOM     14  C   UNL A   1      43.889  23.390  30.093  1.00  0.00     0.030 A 
ATOM     15  C   UNL A   1      46.051  25.031  30.837  1.00  0.00     0.021 A 
ATOM     16  C   UNL A   1      44.058  23.786  31.425  1.00  0.00     0.002 A 
ATOM     17  C   UNL A   1      45.129  24.595  31.790  1.00  0.00     0.002 A 
ENDBRANCH   7   9
BRANCH   8  18
ATOM     18  C   UNL A   1      45.678  26.547  25.480  1.00  0.00    -0.022 A 
ATOM     19  C   UNL A   1      46.684  27.509  25.589  1.00  0.00     0.010 A 
ATOM     20  C   UNL A   1      44.381  26.877  25.869  1.00  0.00     0.049 A 
ATOM     21  C   UNL A   1      46.400  28.775  26.124  1.00  0.00     0.029 A 
ATOM     22  C   UNL A   1      44.116  28.132  26.411  1.00  0.00     0.147 A 
ATOM     23  C   UNL A   1      45.114  29.110  26.572  1.00  0.00     0.073 A 
ATOM     24  F   UNL A   1      42.846  28.405  26.756  1.00  0.00    -0.205 F 
BRANCH  23  25
ATOM     25  N   UNL A   1      44.856  30.335  27.147  1.00  0.00    -0.365 N 
ATOM     26  C   UNL A   1      44.259  31.435  26.379  1.00  0.00     0.145 C 
ATOM     27  C   UNL A   1      45.130  30.634  28.554  1.00  0.00     0.145 C 
ATOM     28  C   UNL A   1      45.101  32.704  26.559  1.00  0.00     0.181 C 
ATOM     29  C   UNL A   1      45.932  31.948  28.638  1.00  0.00     0.181 C 
ATOM     30  O   UNL A   1      45.271  33.027  27.953  1.00  0.00    -0.378 OA
ENDBRANCH  23  25
ENDBRANCH   8  18
ENDBRANCH   6   7
ENDBRANCH   4   6
ENDBRANCH   1   2
BRANCH   1  31
ATOM     31  C   UNL A   1      42.250  20.968  26.519  1.00  0.00     0.042 C 
BRANCH  31  32
ATOM     32  C   UNL A   1      41.709  22.334  26.110  1.00  0.00     0.118 C 
BRANCH  32  33
ATOM     33  N   UNL A   1      40.291  22.317  25.780  1.00  0.00    -0.352 N 
ATOM     34  C   UNL A   1      39.281  23.165  26.156  1.00  0.00     0.251 C 
ATOM     35  H   UNL A   1      40.012  21.579  25.192  1.00  0.00     0.163 HD
ATOM     36  O   UNL A   1      38.121  22.888  25.845  1.00  0.00    -0.269 OA
BRANCH  34  37
ATOM     37  C   UNL A   1      39.551  24.389  26.942  1.00  0.00     0.039 A 
ATOM     38  C   UNL A   1      40.211  25.450  26.313  1.00  0.00     0.014 A 
ATOM     39  C   UNL A   1      39.212  24.488  28.294  1.00  0.00     0.014 A 
ATOM     40  C   UNL A   1      40.490  26.621  27.022  1.00  0.00     0.010 A 
ATOM     41  C   UNL A   1      39.425  25.684  28.981  1.00  0.00     0.010 A 
ATOM     42  C   UNL A   1      40.080  26.756  28.358  1.00  0.00    -0.014 A 
BRANCH  42  43
ATOM     43  C   UNL A   1      40.359  27.999  29.122  1.00  0.00     0.031 A 
ATOM     44  C   UNL A   1      41.652  28.147  29.878  1.00  0.00     0.074 A 
ATOM     45  C   UNL A   1      39.436  28.979  29.172  1.00  0.00     0.049 A 
ATOM     46  N   UNL A   1      42.060  29.141  30.629  1.00  0.00    -0.248 NA
ATOM     47  C   UNL A   1      42.599  27.024  29.801  1.00  0.00     0.031 C 
ATOM     48  C   UNL A   1      38.129  28.949  28.515  1.00  0.00     0.029 A 
ATOM     49  N   UNL A   1      39.462  30.194  29.810  1.00  0.00    -0.354 N 
ATOM     50  C   UNL A   1      43.297  28.753  31.128  1.00  0.00     0.074 A 
ATOM     51  C   UNL A   1      43.554  27.418  30.631  1.00  0.00     0.031 C 
ATOM     52  C   UNL A   1      37.488  30.103  28.761  1.00  0.00     0.029 A 
ATOM     53  C   UNL A   1      38.325  30.940  29.616  1.00  0.00     0.049 A 
ATOM     54  H   UNL A   1      40.222  30.502  30.355  1.00  0.00     0.167 HD
ATOM     55  C   UNL A   1      44.155  29.449  31.911  1.00  0.00     0.031 A 
ATOM     56  C   UNL A   1      37.994  32.163  30.074  1.00  0.00     0.031 A 
ATOM     57  C   UNL A   1      43.918  30.784  32.389  1.00  0.00     0.049 A 
ATOM     58  C   UNL A   1      38.967  32.921  30.930  1.00  0.00     0.074 A 
ATOM     59  C   UNL A   1      44.750  31.591  33.145  1.00  0.00     0.029 A 
ATOM     60  N   UNL A   1      42.762  31.512  32.151  1.00  0.00    -0.354 N 
ATOM     61  N   UNL A   1      40.159  32.563  31.344  1.00  0.00    -0.248 NA
ATOM     62  C   UNL A   1      38.555  34.262  31.370  1.00  0.00     0.031 C 
ATOM     63  C   UNL A   1      44.083  32.795  33.396  1.00  0.00     0.029 A 
ATOM     64  C   UNL A   1      42.855  32.754  32.756  1.00  0.00     0.049 A 
ATOM     65  H   UNL A   1      41.991  31.193  31.631  1.00  0.00     0.167 HD
ATOM     66  C   UNL A   1      40.650  33.643  32.065  1.00  0.00     0.074 A 
ATOM     67  C   UNL A   1      39.633  34.674  32.022  1.00  0.00     0.031 C 
ATOM     68  C   UNL A   1      41.840  33.772  32.701  1.00  0.00     0.031 A 
BRANCH  55  69
ATOM     69  C   UNL A   1      45.437  28.769  32.303  1.00  0.00    -0.014 A 
ATOM     70  C   UNL A   1      45.514  27.977  33.460  1.00  0.00     0.009 A 
ATOM     71  C   UNL A   1      46.573  28.902  31.492  1.00  0.00     0.009 A 
ATOM     72  C   UNL A   1      46.717  27.363  33.816  1.00  0.00     0.001 A 
ATOM     73  C   UNL A   1      47.767  28.265  31.837  1.00  0.00     0.001 A 
ATOM     74  C   UNL A   1      47.840  27.505  33.003  1.00  0.00     0.000 A 
ENDBRANCH  55  69
BRANCH  56  75
ATOM     75  C   UNL A   1      36.688  32.766  29.702  1.00  0.00    -0.014 A 
ATOM     76  C   UNL A   1      36.524  33.387  28.454  1.00  0.00     0.009 A 
ATOM     77  C   UNL A   1      35.605  32.732  30.593  1.00  0.00     0.009 A 
ATOM     78  C   UNL A   1      35.308  33.985  28.116  1.00  0.00     0.001 A 
ATOM     79  C   UNL A   1      34.383  33.309  30.242  1.00  0.00     0.001 A 
ATOM     80  C   UNL A   1      34.238  33.943  29.009  1.00  0.00     0.000 A 
ENDBRANCH  56  75
BRANCH  68  81
ATOM     81  C   UNL A   1      42.123  35.088  33.365  1.00  0.00    -0.014 A 
ATOM     82  C   UNL A   1      41.604  35.392  34.632  1.00  0.00     0.009 A 
ATOM     83  C   UNL A   1      42.954  36.021  32.726  1.00  0.00     0.009 A 
ATOM     84  C   UNL A   1      41.885  36.622  35.231  1.00  0.00     0.001 A 
ATOM     85  C   UNL A   1      43.253  37.239  33.338  1.00  0.00     0.001 A 
ATOM     86  C   UNL A   1      42.712  37.542  34.585  1.00  0.00     0.000 A 
ENDBRANCH  68  81
ENDBRANCH  42  43
ENDBRANCH  34  37
ENDBRANCH  32  33
ENDBRANCH  31  32
ENDBRANCH   1  31
TORSDOF 14
ENDMDL
