MODEL 1
REMARK VINA RESULT:     -12.9      0.000      0.000
REMARK SMILES CS(=O)(=O)c1ccc(-n2nc(C(F)(F)F)cc2-c2ccc(CC(=O)NCCCNC(=O)c3ccc(-c4c5nc(c(-c6ccccc6)c6ccc([nH]6)c(-c6ccccc6)c6nc(c(-c7ccccc7)c7ccc4[nH]7)C=C6)C=C5)cc3)cc2)cc1
REMARK SMILES IDX 26 1 25 2 23 3 24 4 22 6 21 7 18 8 19 9 81 10 20 11 80 12
REMARK SMILES IDX 17 13 9 14 10 15 11 16 16 17 8 18 5 19 6 20 83 21 7 22 82 23
REMARK SMILES IDX 2 24 1 25 3 26 4 27 12 28 13 29 14 30 15 31 27 32 28 33
REMARK SMILES IDX 29 34 30 35 31 37 32 38 33 39 79 40 34 41 78 42 35 43 36 44
REMARK SMILES IDX 37 45 72 46 38 47 77 48 71 49 73 50 39 51 76 52 70 53 69 54
REMARK SMILES IDX 40 56 62 57 47 58 61 59 48 60 51 61 60 62 74 63 49 64 50 65
REMARK SMILES IDX 59 67 75 68 52 69 41 70 42 71 46 72 43 73 45 74 44 75 63 76
REMARK SMILES IDX 64 77 68 78 65 79 67 80 66 81 53 82 54 83 58 84 55 85 57 86
REMARK SMILES IDX 56 87
REMARK H PARENT 25 5 29 36 73 55 51 66
REMARK Flexibility Score: inf
ROOT
ATOM      1  C   UNL A   1      34.961  33.079  28.188  1.00  0.00     0.117 C 
ENDROOT
BRANCH   1   2
ATOM      2  N   UNL A   1      35.768  31.897  27.921  1.00  0.00    -0.356 N 
ATOM      3  C   UNL A   1      35.369  30.618  27.652  1.00  0.00     0.224 C 
ATOM      4  O   UNL A   1      36.235  29.751  27.530  1.00  0.00    -0.275 OA
ATOM      5  H   UNL A   1      36.742  32.040  27.938  1.00  0.00     0.163 HD
BRANCH   3   6
ATOM      6  C   UNL A   1      33.891  30.295  27.493  1.00  0.00     0.135 C 
BRANCH   6   7
ATOM      7  C   UNL A   1      33.627  28.988  26.786  1.00  0.00    -0.039 A 
ATOM      8  C   UNL A   1      33.074  26.579  25.423  1.00  0.00     0.000 A 
ATOM      9  C   UNL A   1      32.476  26.860  26.663  1.00  0.00     0.010 A 
ATOM     10  C   UNL A   1      33.994  27.490  24.901  1.00  0.00     0.010 A 
ATOM     11  C   UNL A   1      32.738  28.057  27.331  1.00  0.00     0.005 A 
ATOM     12  C   UNL A   1      34.274  28.680  25.580  1.00  0.00     0.005 A 
BRANCH   8  13
ATOM     13  C   UNL A   1      32.690  25.382  24.666  1.00  0.00     0.075 A 
ATOM     14  N   UNL A   1      31.510  25.254  23.942  1.00  0.00    -0.233 N 
ATOM     15  N   UNL A   1      31.273  23.980  23.560  1.00  0.00    -0.163 NA
ATOM     16  C   UNL A   1      32.432  23.336  23.795  1.00  0.00     0.167 A 
ATOM     17  C   UNL A   1      33.332  24.168  24.513  1.00  0.00     0.064 A 
BRANCH  14  18
ATOM     18  C   UNL A   1      30.626  26.290  23.566  1.00  0.00     0.065 A 
ATOM     19  C   UNL A   1      28.984  28.430  23.008  1.00  0.00     0.067 A 
ATOM     20  C   UNL A   1      30.281  28.409  22.490  1.00  0.00     0.022 A 
ATOM     21  C   UNL A   1      28.476  27.365  23.751  1.00  0.00     0.022 A 
ATOM     22  C   UNL A   1      31.110  27.342  22.779  1.00  0.00     0.030 A 
ATOM     23  C   UNL A   1      29.299  26.270  24.013  1.00  0.00     0.030 A 
BRANCH  19  24
ATOM     24  S   UNL A   1      27.949  29.775  22.536  1.00  0.00     0.175 S 
ATOM     25  C   UNL A   1      28.626  31.187  23.374  1.00  0.00     0.163 C 
ATOM     26  O   UNL A   1      26.619  29.541  23.029  1.00  0.00    -0.224 OA
ATOM     27  O   UNL A   1      28.218  29.923  21.110  1.00  0.00    -0.224 OA
ENDBRANCH  19  24
ENDBRANCH  14  18
BRANCH  16  28
ATOM     28  C   UNL A   1      32.680  21.923  23.342  1.00  0.00     0.435 C 
ATOM     29  F   UNL A   1      32.520  21.757  22.004  1.00  0.00    -0.164 F 
ATOM     30  F   UNL A   1      33.937  21.506  23.650  1.00  0.00    -0.164 F 
ATOM     31  F   UNL A   1      31.830  21.047  23.946  1.00  0.00    -0.164 F 
ENDBRANCH  16  28
ENDBRANCH   8  13
ENDBRANCH   6   7
ENDBRANCH   3   6
ENDBRANCH   1   2
BRANCH   1  32
ATOM     32  C   UNL A   1      34.764  33.331  29.688  1.00  0.00     0.042 C 
BRANCH  32  33
ATOM     33  C   UNL A   1      35.673  32.471  30.556  1.00  0.00     0.118 C 
BRANCH  33  34
ATOM     34  N   UNL A   1      35.693  32.858  31.970  1.00  0.00    -0.352 N 
ATOM     35  C   UNL A   1      36.298  32.205  33.037  1.00  0.00     0.251 C 
ATOM     36  H   UNL A   1      35.216  33.688  32.193  1.00  0.00     0.163 HD
ATOM     37  O   UNL A   1      35.967  32.456  34.189  1.00  0.00    -0.269 OA
BRANCH  35  38
ATOM     38  C   UNL A   1      37.349  31.199  32.767  1.00  0.00     0.039 A 
ATOM     39  C   UNL A   1      37.081  29.833  32.613  1.00  0.00     0.014 A 
ATOM     40  C   UNL A   1      38.645  31.660  32.639  1.00  0.00     0.014 A 
ATOM     41  C   UNL A   1      38.118  28.962  32.239  1.00  0.00     0.010 A 
ATOM     42  C   UNL A   1      39.586  30.860  32.050  1.00  0.00     0.010 A 
ATOM     43  C   UNL A   1      39.379  29.485  31.926  1.00  0.00    -0.014 A 
BRANCH  43  44
ATOM     44  C   UNL A   1      40.500  28.684  31.390  1.00  0.00     0.031 A 
ATOM     45  C   UNL A   1      41.531  28.149  32.355  1.00  0.00     0.074 A 
ATOM     46  C   UNL A   1      40.394  28.148  30.144  1.00  0.00     0.049 A 
ATOM     47  N   UNL A   1      42.751  27.780  32.115  1.00  0.00    -0.248 NA
ATOM     48  C   UNL A   1      41.145  27.933  33.755  1.00  0.00     0.031 C 
ATOM     49  C   UNL A   1      39.321  28.347  29.149  1.00  0.00     0.029 A 
ATOM     50  N   UNL A   1      41.129  27.154  29.569  1.00  0.00    -0.354 N 
ATOM     51  C   UNL A   1      43.218  27.154  33.277  1.00  0.00     0.074 A 
ATOM     52  C   UNL A   1      42.160  27.218  34.244  1.00  0.00     0.031 C 
ATOM     53  C   UNL A   1      39.320  27.329  28.261  1.00  0.00     0.029 A 
ATOM     54  C   UNL A   1      40.508  26.534  28.485  1.00  0.00     0.049 A 
ATOM     55  H   UNL A   1      42.022  26.895  29.892  1.00  0.00     0.167 HD
ATOM     56  C   UNL A   1      44.443  26.573  33.374  1.00  0.00     0.031 A 
ATOM     57  C   UNL A   1      40.925  25.444  27.800  1.00  0.00     0.031 A 
ATOM     58  C   UNL A   1      45.389  27.193  32.496  1.00  0.00     0.049 A 
ATOM     59  C   UNL A   1      42.359  25.270  28.097  1.00  0.00     0.074 A 
ATOM     60  C   UNL A   1      45.858  28.486  32.375  1.00  0.00     0.029 A 
ATOM     61  N   UNL A   1      45.700  26.575  31.313  1.00  0.00    -0.354 N 
ATOM     62  N   UNL A   1      43.276  26.115  27.725  1.00  0.00    -0.248 NA
ATOM     63  C   UNL A   1      42.728  24.361  29.166  1.00  0.00     0.031 C 
ATOM     64  C   UNL A   1      45.884  28.718  30.970  1.00  0.00     0.029 A 
ATOM     65  C   UNL A   1      45.515  27.527  30.342  1.00  0.00     0.049 A 
ATOM     66  H   UNL A   1      45.994  25.644  31.186  1.00  0.00     0.167 HD
ATOM     67  C   UNL A   1      44.168  26.144  28.784  1.00  0.00     0.074 A 
ATOM     68  C   UNL A   1      43.838  24.967  29.590  1.00  0.00     0.031 C 
ATOM     69  C   UNL A   1      44.903  27.262  29.062  1.00  0.00     0.031 A 
BRANCH  56  70
ATOM     70  C   UNL A   1      44.693  25.247  34.038  1.00  0.00    -0.014 A 
ATOM     71  C   UNL A   1      43.897  24.142  33.670  1.00  0.00     0.009 A 
ATOM     72  C   UNL A   1      45.451  25.123  35.216  1.00  0.00     0.009 A 
ATOM     73  C   UNL A   1      43.785  23.016  34.494  1.00  0.00     0.001 A 
ATOM     74  C   UNL A   1      45.362  23.983  36.026  1.00  0.00     0.001 A 
ATOM     75  C   UNL A   1      44.505  22.945  35.681  1.00  0.00     0.000 A 
ENDBRANCH  56  70
BRANCH  57  76
ATOM     76  C   UNL A   1      40.161  24.446  27.023  1.00  0.00    -0.014 A 
ATOM     77  C   UNL A   1      40.617  23.122  26.915  1.00  0.00     0.009 A 
ATOM     78  C   UNL A   1      38.848  24.725  26.605  1.00  0.00     0.009 A 
ATOM     79  C   UNL A   1      39.775  22.106  26.445  1.00  0.00     0.001 A 
ATOM     80  C   UNL A   1      38.007  23.710  26.134  1.00  0.00     0.001 A 
ATOM     81  C   UNL A   1      38.466  22.398  26.069  1.00  0.00     0.000 A 
ENDBRANCH  57  76
BRANCH  69  82
ATOM     82  C   UNL A   1      44.830  28.433  28.108  1.00  0.00    -0.014 A 
ATOM     83  C   UNL A   1      43.774  29.362  28.121  1.00  0.00     0.009 A 
ATOM     84  C   UNL A   1      45.950  28.723  27.317  1.00  0.00     0.009 A 
ATOM     85  C   UNL A   1      43.828  30.531  27.354  1.00  0.00     0.001 A 
ATOM     86  C   UNL A   1      46.016  29.901  26.568  1.00  0.00     0.001 A 
ATOM     87  C   UNL A   1      44.953  30.803  26.583  1.00  0.00     0.000 A 
ENDBRANCH  69  82
ENDBRANCH  43  44
ENDBRANCH  35  38
ENDBRANCH  33  34
ENDBRANCH  32  33
ENDBRANCH   1  32
TORSDOF 15
ENDMDL
MODEL 2
REMARK VINA RESULT:     -12.7      3.020      4.012
REMARK SMILES CS(=O)(=O)c1ccc(-n2nc(C(F)(F)F)cc2-c2ccc(CC(=O)NCCCNC(=O)c3ccc(-c4c5nc(c(-c6ccccc6)c6ccc([nH]6)c(-c6ccccc6)c6nc(c(-c7ccccc7)c7ccc4[nH]7)C=C6)C=C5)cc3)cc2)cc1
REMARK SMILES IDX 26 1 25 2 23 3 24 4 22 6 21 7 18 8 19 9 81 10 20 11 80 12
REMARK SMILES IDX 17 13 9 14 10 15 11 16 16 17 8 18 5 19 6 20 83 21 7 22 82 23
REMARK SMILES IDX 2 24 1 25 3 26 4 27 12 28 13 29 14 30 15 31 27 32 28 33
REMARK SMILES IDX 29 34 30 35 31 37 32 38 33 39 79 40 34 41 78 42 35 43 36 44
REMARK SMILES IDX 37 45 72 46 38 47 77 48 71 49 73 50 39 51 76 52 70 53 69 54
REMARK SMILES IDX 40 56 62 57 47 58 61 59 48 60 51 61 60 62 74 63 49 64 50 65
REMARK SMILES IDX 59 67 75 68 52 69 41 70 42 71 46 72 43 73 45 74 44 75 63 76
REMARK SMILES IDX 64 77 68 78 65 79 67 80 66 81 53 82 54 83 58 84 55 85 57 86
REMARK SMILES IDX 56 87
REMARK H PARENT 25 5 29 36 73 55 51 66
REMARK Flexibility Score: inf
ROOT
ATOM      1  C   UNL A   1      34.844  32.044  28.181  1.00  0.00     0.117 C 
ENDROOT
BRANCH   1   2
ATOM      2  N   UNL A   1      36.077  31.403  27.748  1.00  0.00    -0.356 N 
ATOM      3  C   UNL A   1      36.361  30.072  27.614  1.00  0.00     0.224 C 
ATOM      4  O   UNL A   1      37.508  29.750  27.299  1.00  0.00    -0.275 OA
ATOM      5  H   UNL A   1      36.812  32.016  27.519  1.00  0.00     0.163 HD
BRANCH   3   6
ATOM      6  C   UNL A   1      35.275  29.032  27.835  1.00  0.00     0.135 C 
BRANCH   6   7
ATOM      7  C   UNL A   1      34.127  29.135  26.861  1.00  0.00    -0.039 A 
ATOM      8  C   UNL A   1      31.977  29.249  25.035  1.00  0.00     0.000 A 
ATOM      9  C   UNL A   1      33.308  29.313  24.588  1.00  0.00     0.010 A 
ATOM     10  C   UNL A   1      31.734  29.184  26.408  1.00  0.00     0.010 A 
ATOM     11  C   UNL A   1      34.372  29.243  25.489  1.00  0.00     0.005 A 
ATOM     12  C   UNL A   1      32.799  29.136  27.313  1.00  0.00     0.005 A 
BRANCH   8  13
ATOM     13  C   UNL A   1      30.871  29.188  24.072  1.00  0.00     0.075 A 
ATOM     14  N   UNL A   1      30.726  28.202  23.103  1.00  0.00    -0.233 N 
ATOM     15  N   UNL A   1      29.785  28.514  22.185  1.00  0.00    -0.163 NA
ATOM     16  C   UNL A   1      29.131  29.565  22.715  1.00  0.00     0.167 A 
ATOM     17  C   UNL A   1      29.798  30.036  23.879  1.00  0.00     0.064 A 
BRANCH  14  18
ATOM     18  C   UNL A   1      31.409  26.968  23.035  1.00  0.00     0.065 A 
ATOM     19  C   UNL A   1      32.877  24.637  23.070  1.00  0.00     0.067 A 
ATOM     20  C   UNL A   1      31.805  24.784  23.954  1.00  0.00     0.022 A 
ATOM     21  C   UNL A   1      33.186  25.616  22.126  1.00  0.00     0.022 A 
ATOM     22  C   UNL A   1      31.076  25.958  23.945  1.00  0.00     0.030 A 
ATOM     23  C   UNL A   1      32.428  26.786  22.093  1.00  0.00     0.030 A 
BRANCH  19  24
ATOM     24  S   UNL A   1      33.716  23.087  23.070  1.00  0.00     0.175 S 
ATOM     25  C   UNL A   1      34.048  22.750  24.782  1.00  0.00     0.163 C 
ATOM     26  O   UNL A   1      34.966  23.229  22.377  1.00  0.00    -0.224 OA
ATOM     27  O   UNL A   1      32.693  22.152  22.614  1.00  0.00    -0.224 OA
ENDBRANCH  19  24
ENDBRANCH  14  18
BRANCH  16  28
ATOM     28  C   UNL A   1      27.875  30.128  22.109  1.00  0.00     0.435 C 
ATOM     29  F   UNL A   1      27.549  31.352  22.600  1.00  0.00    -0.164 F 
ATOM     30  F   UNL A   1      27.977  30.253  20.759  1.00  0.00    -0.164 F 
ATOM     31  F   UNL A   1      26.803  29.321  22.337  1.00  0.00    -0.164 F 
ENDBRANCH  16  28
ENDBRANCH   8  13
ENDBRANCH   6   7
ENDBRANCH   3   6
ENDBRANCH   1   2
BRANCH   1  32
ATOM     32  C   UNL A   1      34.960  32.658  29.582  1.00  0.00     0.042 C 
BRANCH  32  33
ATOM     33  C   UNL A   1      35.973  31.935  30.461  1.00  0.00     0.118 C 
BRANCH  33  34
ATOM     34  N   UNL A   1      36.793  32.826  31.288  1.00  0.00    -0.352 N 
ATOM     35  C   UNL A   1      38.076  32.614  31.777  1.00  0.00     0.251 C 
ATOM     36  H   UNL A   1      36.381  33.686  31.528  1.00  0.00     0.163 HD
ATOM     37  O   UNL A   1      38.506  33.286  32.706  1.00  0.00    -0.269 OA
BRANCH  35  38
ATOM     38  C   UNL A   1      38.920  31.565  31.164  1.00  0.00     0.039 A 
ATOM     39  C   UNL A   1      40.065  31.847  30.409  1.00  0.00     0.014 A 
ATOM     40  C   UNL A   1      38.555  30.252  31.388  1.00  0.00     0.014 A 
ATOM     41  C   UNL A   1      40.878  30.791  29.964  1.00  0.00     0.010 A 
ATOM     42  C   UNL A   1      39.464  29.255  31.162  1.00  0.00     0.010 A 
ATOM     43  C   UNL A   1      40.591  29.481  30.368  1.00  0.00    -0.014 A 
BRANCH  43  44
ATOM     44  C   UNL A   1      41.451  28.315  30.079  1.00  0.00     0.031 A 
ATOM     45  C   UNL A   1      42.372  27.811  31.166  1.00  0.00     0.074 A 
ATOM     46  C   UNL A   1      41.150  27.515  29.021  1.00  0.00     0.049 A 
ATOM     47  N   UNL A   1      43.450  27.099  31.049  1.00  0.00    -0.248 NA
ATOM     48  C   UNL A   1      42.022  28.072  32.567  1.00  0.00     0.031 C 
ATOM     49  C   UNL A   1      40.105  27.708  27.995  1.00  0.00     0.029 A 
ATOM     50  N   UNL A   1      41.587  26.254  28.742  1.00  0.00    -0.354 N 
ATOM     51  C   UNL A   1      43.813  26.704  32.341  1.00  0.00     0.074 A 
ATOM     52  C   UNL A   1      42.857  27.281  33.243  1.00  0.00     0.031 C 
ATOM     53  C   UNL A   1      39.807  26.528  27.411  1.00  0.00     0.029 A 
ATOM     54  C   UNL A   1      40.775  25.549  27.855  1.00  0.00     0.049 A 
ATOM     55  H   UNL A   1      42.407  25.875  29.133  1.00  0.00     0.167 HD
ATOM     56  C   UNL A   1      44.863  25.881  32.606  1.00  0.00     0.031 A 
ATOM     57  C   UNL A   1      40.876  24.249  27.491  1.00  0.00     0.031 A 
ATOM     58  C   UNL A   1      45.881  25.994  31.606  1.00  0.00     0.049 A 
ATOM     59  C   UNL A   1      42.238  23.806  27.842  1.00  0.00     0.074 A 
ATOM     60  C   UNL A   1      46.644  27.050  31.151  1.00  0.00     0.029 A 
ATOM     61  N   UNL A   1      45.968  25.030  30.635  1.00  0.00    -0.354 N 
ATOM     62  N   UNL A   1      43.312  24.267  27.270  1.00  0.00    -0.248 NA
ATOM     63  C   UNL A   1      42.432  23.146  29.120  1.00  0.00     0.031 C 
ATOM     64  C   UNL A   1      46.650  26.892  29.736  1.00  0.00     0.029 A 
ATOM     65  C   UNL A   1      45.968  25.709  29.444  1.00  0.00     0.049 A 
ATOM     66  H   UNL A   1      46.018  24.056  30.766  1.00  0.00     0.167 HD
ATOM     67  C   UNL A   1      44.240  24.349  28.294  1.00  0.00     0.074 A 
ATOM     68  C   UNL A   1      43.678  23.545  29.381  1.00  0.00     0.031 C 
ATOM     69  C   UNL A   1      45.240  25.280  28.273  1.00  0.00     0.031 A 
BRANCH  56  70
ATOM     70  C   UNL A   1      44.817  24.756  33.603  1.00  0.00    -0.014 A 
ATOM     71  C   UNL A   1      45.986  24.440  34.325  1.00  0.00     0.009 A 
ATOM     72  C   UNL A   1      43.777  23.809  33.625  1.00  0.00     0.009 A 
ATOM     73  C   UNL A   1      46.146  23.196  34.948  1.00  0.00     0.001 A 
ATOM     74  C   UNL A   1      43.925  22.576  34.273  1.00  0.00     0.001 A 
ATOM     75  C   UNL A   1      45.121  22.257  34.906  1.00  0.00     0.000 A 
ENDBRANCH  56  70
BRANCH  57  76
ATOM     76  C   UNL A   1      39.850  23.306  26.999  1.00  0.00    -0.014 A 
ATOM     77  C   UNL A   1      38.629  23.777  26.490  1.00  0.00     0.009 A 
ATOM     78  C   UNL A   1      40.172  21.954  26.786  1.00  0.00     0.009 A 
ATOM     79  C   UNL A   1      37.781  22.937  25.757  1.00  0.00     0.001 A 
ATOM     80  C   UNL A   1      39.324  21.114  26.055  1.00  0.00     0.001 A 
ATOM     81  C   UNL A   1      38.136  21.610  25.527  1.00  0.00     0.000 A 
ENDBRANCH  57  76
BRANCH  69  82
ATOM     82  C   UNL A   1      45.403  26.140  27.040  1.00  0.00    -0.014 A 
ATOM     83  C   UNL A   1      44.608  27.273  26.790  1.00  0.00     0.009 A 
ATOM     84  C   UNL A   1      46.515  25.925  26.216  1.00  0.00     0.009 A 
ATOM     85  C   UNL A   1      44.903  28.149  25.740  1.00  0.00     0.001 A 
ATOM     86  C   UNL A   1      46.826  26.811  25.180  1.00  0.00     0.001 A 
ATOM     87  C   UNL A   1      46.017  27.920  24.939  1.00  0.00     0.000 A 
ENDBRANCH  69  82
ENDBRANCH  43  44
ENDBRANCH  35  38
ENDBRANCH  33  34
ENDBRANCH  32  33
ENDBRANCH   1  32
TORSDOF 15
ENDMDL
MODEL 3
REMARK VINA RESULT:     -12.7      4.186      8.887
REMARK SMILES CS(=O)(=O)c1ccc(-n2nc(C(F)(F)F)cc2-c2ccc(CC(=O)NCCCNC(=O)c3ccc(-c4c5nc(c(-c6ccccc6)c6ccc([nH]6)c(-c6ccccc6)c6nc(c(-c7ccccc7)c7ccc4[nH]7)C=C6)C=C5)cc3)cc2)cc1
REMARK SMILES IDX 26 1 25 2 23 3 24 4 22 6 21 7 18 8 19 9 81 10 20 11 80 12
REMARK SMILES IDX 17 13 9 14 10 15 11 16 16 17 8 18 5 19 6 20 83 21 7 22 82 23
REMARK SMILES IDX 2 24 1 25 3 26 4 27 12 28 13 29 14 30 15 31 27 32 28 33
REMARK SMILES IDX 29 34 30 35 31 37 32 38 33 39 79 40 34 41 78 42 35 43 36 44
REMARK SMILES IDX 37 45 72 46 38 47 77 48 71 49 73 50 39 51 76 52 70 53 69 54
REMARK SMILES IDX 40 56 62 57 47 58 61 59 48 60 51 61 60 62 74 63 49 64 50 65
REMARK SMILES IDX 59 67 75 68 52 69 41 70 42 71 46 72 43 73 45 74 44 75 63 76
REMARK SMILES IDX 64 77 68 78 65 79 67 80 66 81 53 82 54 83 58 84 55 85 57 86
REMARK SMILES IDX 56 87
REMARK H PARENT 25 5 29 36 73 55 51 66
REMARK Flexibility Score: inf
ROOT
ATOM      1  C   UNL A   1      40.695  22.181  27.838  1.00  0.00     0.117 C 
ENDROOT
BRANCH   1   2
ATOM      2  N   UNL A   1      40.170  23.538  27.782  1.00  0.00    -0.356 N 
ATOM      3  C   UNL A   1      39.369  24.119  26.839  1.00  0.00     0.224 C 
ATOM      4  O   UNL A   1      39.105  25.317  26.957  1.00  0.00    -0.275 OA
ATOM      5  H   UNL A   1      40.431  24.122  28.531  1.00  0.00     0.163 HD
BRANCH   3   6
ATOM      6  C   UNL A   1      38.813  23.291  25.692  1.00  0.00     0.135 C 
BRANCH   6   7
ATOM      7  C   UNL A   1      37.323  23.437  25.502  1.00  0.00    -0.039 A 
ATOM      8  C   UNL A   1      34.545  23.789  25.145  1.00  0.00     0.000 A 
ATOM      9  C   UNL A   1      35.098  23.665  26.432  1.00  0.00     0.010 A 
ATOM     10  C   UNL A   1      35.390  23.678  24.040  1.00  0.00     0.010 A 
ATOM     11  C   UNL A   1      36.473  23.505  26.610  1.00  0.00     0.005 A 
ATOM     12  C   UNL A   1      36.765  23.495  24.216  1.00  0.00     0.005 A 
BRANCH   8  13
ATOM     13  C   UNL A   1      33.119  24.091  24.974  1.00  0.00     0.075 A 
ATOM     14  N   UNL A   1      32.175  23.185  24.505  1.00  0.00    -0.233 N 
ATOM     15  N   UNL A   1      31.001  23.776  24.191  1.00  0.00    -0.163 NA
ATOM     16  C   UNL A   1      31.095  25.013  24.717  1.00  0.00     0.167 A 
ATOM     17  C   UNL A   1      32.413  25.259  25.187  1.00  0.00     0.064 A 
BRANCH  14  18
ATOM     18  C   UNL A   1      32.325  21.786  24.382  1.00  0.00     0.065 A 
ATOM     19  C   UNL A   1      32.844  19.092  24.130  1.00  0.00     0.067 A 
ATOM     20  C   UNL A   1      32.885  19.681  25.396  1.00  0.00     0.022 A 
ATOM     21  C   UNL A   1      32.485  19.820  22.995  1.00  0.00     0.022 A 
ATOM     22  C   UNL A   1      32.637  21.035  25.522  1.00  0.00     0.030 A 
ATOM     23  C   UNL A   1      32.200  21.178  23.127  1.00  0.00     0.030 A 
BRANCH  19  24
ATOM     24  S   UNL A   1      33.086  17.349  24.044  1.00  0.00     0.175 S 
ATOM     25  C   UNL A   1      34.739  17.089  24.638  1.00  0.00     0.163 C 
ATOM     26  O   UNL A   1      33.019  16.932  22.670  1.00  0.00    -0.224 OA
ATOM     27  O   UNL A   1      32.159  16.830  25.043  1.00  0.00    -0.224 OA
ENDBRANCH  19  24
ENDBRANCH  14  18
BRANCH  16  28
ATOM     28  C   UNL A   1      29.931  25.964  24.764  1.00  0.00     0.435 C 
ATOM     29  F   UNL A   1      30.311  27.268  24.800  1.00  0.00    -0.164 F 
ATOM     30  F   UNL A   1      29.113  25.815  23.688  1.00  0.00    -0.164 F 
ATOM     31  F   UNL A   1      29.157  25.755  25.864  1.00  0.00    -0.164 F 
ENDBRANCH  16  28
ENDBRANCH   8  13
ENDBRANCH   6   7
ENDBRANCH   3   6
ENDBRANCH   1   2
BRANCH   1  32
ATOM     32  C   UNL A   1      42.227  22.140  27.796  1.00  0.00     0.042 C 
BRANCH  32  33
ATOM     33  C   UNL A   1      42.871  22.960  28.907  1.00  0.00     0.118 C 
BRANCH  33  34
ATOM     34  N   UNL A   1      44.193  23.496  28.568  1.00  0.00    -0.352 N 
ATOM     35  C   UNL A   1      44.569  24.821  28.389  1.00  0.00     0.251 C 
ATOM     36  H   UNL A   1      44.907  22.830  28.451  1.00  0.00     0.163 HD
ATOM     37  O   UNL A   1      45.606  25.099  27.799  1.00  0.00    -0.269 OA
BRANCH  35  38
ATOM     38  C   UNL A   1      43.703  25.897  28.918  1.00  0.00     0.039 A 
ATOM     39  C   UNL A   1      43.746  26.331  30.249  1.00  0.00     0.014 A 
ATOM     40  C   UNL A   1      42.839  26.505  28.029  1.00  0.00     0.014 A 
ATOM     41  C   UNL A   1      42.977  27.440  30.641  1.00  0.00     0.010 A 
ATOM     42  C   UNL A   1      42.283  27.713  28.352  1.00  0.00     0.010 A 
ATOM     43  C   UNL A   1      42.258  28.157  29.676  1.00  0.00    -0.014 A 
BRANCH  43  44
ATOM     44  C   UNL A   1      41.530  29.414  29.947  1.00  0.00     0.031 A 
ATOM     45  C   UNL A   1      42.275  30.722  29.815  1.00  0.00     0.074 A 
ATOM     46  C   UNL A   1      40.170  29.406  29.946  1.00  0.00     0.049 A 
ATOM     47  N   UNL A   1      41.997  31.870  30.349  1.00  0.00    -0.248 NA
ATOM     48  C   UNL A   1      43.442  30.784  28.927  1.00  0.00     0.031 C 
ATOM     49  C   UNL A   1      39.261  28.248  29.820  1.00  0.00     0.029 A 
ATOM     50  N   UNL A   1      39.302  30.454  29.864  1.00  0.00    -0.354 N 
ATOM     51  C   UNL A   1      42.845  32.808  29.750  1.00  0.00     0.074 A 
ATOM     52  C   UNL A   1      43.679  32.094  28.827  1.00  0.00     0.031 C 
ATOM     53  C   UNL A   1      38.045  28.659  29.403  1.00  0.00     0.029 A 
ATOM     54  C   UNL A   1      38.019  30.105  29.442  1.00  0.00     0.049 A 
ATOM     55  H   UNL A   1      39.559  31.378  30.084  1.00  0.00     0.167 HD
ATOM     56  C   UNL A   1      42.792  34.141  30.012  1.00  0.00     0.031 A 
ATOM     57  C   UNL A   1      36.989  30.931  29.144  1.00  0.00     0.031 A 
ATOM     58  C   UNL A   1      42.303  34.397  31.334  1.00  0.00     0.049 A 
ATOM     59  C   UNL A   1      37.295  32.240  29.751  1.00  0.00     0.074 A 
ATOM     60  C   UNL A   1      42.740  34.026  32.589  1.00  0.00     0.029 A 
ATOM     61  N   UNL A   1      40.998  34.782  31.496  1.00  0.00    -0.354 N 
ATOM     62  N   UNL A   1      37.357  32.438  31.036  1.00  0.00    -0.248 NA
ATOM     63  C   UNL A   1      37.939  33.242  28.922  1.00  0.00     0.031 C 
ATOM     64  C   UNL A   1      41.549  33.663  33.281  1.00  0.00     0.029 A 
ATOM     65  C   UNL A   1      40.474  33.922  32.427  1.00  0.00     0.049 A 
ATOM     66  H   UNL A   1      40.533  35.520  31.039  1.00  0.00     0.167 HD
ATOM     67  C   UNL A   1      38.402  33.332  31.198  1.00  0.00     0.074 A 
ATOM     68  C   UNL A   1      38.648  33.873  29.860  1.00  0.00     0.031 C 
ATOM     69  C   UNL A   1      39.154  33.346  32.338  1.00  0.00     0.031 A 
BRANCH  56  70
ATOM     70  C   UNL A   1      42.890  35.209  28.957  1.00  0.00    -0.014 A 
ATOM     71  C   UNL A   1      43.960  36.124  29.014  1.00  0.00     0.009 A 
ATOM     72  C   UNL A   1      41.814  35.537  28.112  1.00  0.00     0.009 A 
ATOM     73  C   UNL A   1      43.908  37.353  28.344  1.00  0.00     0.001 A 
ATOM     74  C   UNL A   1      41.774  36.752  27.418  1.00  0.00     0.001 A 
ATOM     75  C   UNL A   1      42.805  37.674  27.560  1.00  0.00     0.000 A 
ENDBRANCH  56  70
BRANCH  57  76
ATOM     76  C   UNL A   1      35.827  30.736  28.253  1.00  0.00    -0.014 A 
ATOM     77  C   UNL A   1      35.623  29.510  27.601  1.00  0.00     0.009 A 
ATOM     78  C   UNL A   1      34.773  31.667  28.246  1.00  0.00     0.009 A 
ATOM     79  C   UNL A   1      34.394  29.208  27.000  1.00  0.00     0.001 A 
ATOM     80  C   UNL A   1      33.546  31.366  27.645  1.00  0.00     0.001 A 
ATOM     81  C   UNL A   1      33.351  30.131  27.035  1.00  0.00     0.000 A 
ENDBRANCH  57  76
BRANCH  69  82
ATOM     82  C   UNL A   1      38.741  32.456  33.490  1.00  0.00    -0.014 A 
ATOM     83  C   UNL A   1      39.162  31.120  33.609  1.00  0.00     0.009 A 
ATOM     84  C   UNL A   1      38.082  33.037  34.582  1.00  0.00     0.009 A 
ATOM     85  C   UNL A   1      38.915  30.383  34.772  1.00  0.00     0.001 A 
ATOM     86  C   UNL A   1      37.855  32.310  35.754  1.00  0.00     0.001 A 
ATOM     87  C   UNL A   1      38.267  30.982  35.847  1.00  0.00     0.000 A 
ENDBRANCH  69  82
ENDBRANCH  43  44
ENDBRANCH  35  38
ENDBRANCH  33  34
ENDBRANCH  32  33
ENDBRANCH   1  32
TORSDOF 15
ENDMDL
