MODEL 1
REMARK VINA RESULT:     -11.7      0.000      0.000
REMARK SMILES O=C(Cc1ccccc1Nc1c(Cl)cccc1C(F)(F)F)NCCCNC(=O)c1ccc(-c2c3nc(c(-c4ccccc4)c4ccc([nH]4)c(-c4ccccc4)c4nc(c(-c5ccccc5)c5ccc2[nH]5)C=C4)C=C3)cc1
REMARK SMILES IDX 23 1 22 2 1 3 2 4 3 6 4 7 5 8 9 9 6 10 8 11 7 12 10 13 11 15
REMARK SMILES IDX 12 16 17 17 13 18 14 19 16 20 15 21 18 22 19 23 20 24 21 25
REMARK SMILES IDX 24 26 25 27 26 28 27 29 28 31 29 32 30 33 76 34 31 35 75 36
REMARK SMILES IDX 32 37 33 38 34 39 69 40 35 41 74 42 68 43 70 44 36 45 73 46
REMARK SMILES IDX 67 47 66 48 37 50 59 51 44 52 58 53 45 54 48 55 57 56 71 57
REMARK SMILES IDX 46 58 47 59 56 61 72 62 49 63 38 64 39 65 43 66 40 67 42 68
REMARK SMILES IDX 41 69 60 70 61 71 65 72 62 73 64 74 63 75 50 76 51 77 55 78
REMARK SMILES IDX 52 79 54 80 53 81
REMARK H PARENT 22 5 10 14 26 30 70 49 48 60
REMARK Flexibility Score: inf
ROOT
ATOM      1  C   UNL A   1      37.310  20.926  24.844  1.00  0.00     0.117 C 
ENDROOT
BRANCH   1   2
ATOM      2  N   UNL A   1      35.955  20.562  25.204  1.00  0.00    -0.356 N 
ATOM      3  O   UNL A   1      35.470  22.393  26.513  1.00  0.00    -0.275 OA
ATOM      4  C   UNL A   1      35.116  21.358  25.958  1.00  0.00     0.224 C 
ATOM      5  H   UNL A   1      35.611  19.694  24.892  1.00  0.00     0.163 HD
BRANCH   4   6
ATOM      6  C   UNL A   1      33.682  20.837  26.022  1.00  0.00     0.137 C 
BRANCH   6   7
ATOM      7  C   UNL A   1      32.996  20.924  24.672  1.00  0.00    -0.015 A 
ATOM      8  C   UNL A   1      32.641  19.722  24.023  1.00  0.00     0.006 A 
ATOM      9  C   UNL A   1      32.724  22.149  24.030  1.00  0.00     0.042 A 
ATOM     10  C   UNL A   1      32.100  19.719  22.741  1.00  0.00     0.000 A 
ATOM     11  C   UNL A   1      32.197  22.121  22.727  1.00  0.00     0.026 A 
ATOM     12  C   UNL A   1      31.896  20.921  22.083  1.00  0.00     0.002 A 
BRANCH   9  13
ATOM     13  N   UNL A   1      32.900  23.378  24.700  1.00  0.00    -0.354 N 
ATOM     14  H   UNL A   1      33.782  23.505  25.118  1.00  0.00     0.167 HD
BRANCH  13  15
ATOM     15  C   UNL A   1      31.997  24.459  24.859  1.00  0.00     0.070 A 
ATOM     16  C   UNL A   1      32.224  25.641  24.112  1.00  0.00     0.065 A 
ATOM     17  C   UNL A   1      30.828  24.390  25.648  1.00  0.00     0.080 A 
ATOM     18  Cl  UNL A   1      33.667  25.827  23.171  1.00  0.00    -0.082 Cl
ATOM     19  C   UNL A   1      31.301  26.689  24.091  1.00  0.00     0.023 A 
ATOM     20  C   UNL A   1      29.892  25.450  25.590  1.00  0.00     0.015 A 
ATOM     21  C   UNL A   1      30.121  26.584  24.815  1.00  0.00     0.002 A 
BRANCH  17  22
ATOM     22  C   UNL A   1      30.507  23.257  26.599  1.00  0.00     0.418 C 
ATOM     23  F   UNL A   1      29.399  23.537  27.356  1.00  0.00    -0.166 F 
ATOM     24  F   UNL A   1      30.195  22.098  25.952  1.00  0.00    -0.166 F 
ATOM     25  F   UNL A   1      31.469  22.954  27.510  1.00  0.00    -0.166 F 
ENDBRANCH  17  22
ENDBRANCH  13  15
ENDBRANCH   9  13
ENDBRANCH   6   7
ENDBRANCH   4   6
ENDBRANCH   1   2
BRANCH   1  26
ATOM     26  C   UNL A   1      38.277  19.756  24.993  1.00  0.00     0.042 C 
BRANCH  26  27
ATOM     27  C   UNL A   1      39.400  19.963  26.007  1.00  0.00     0.118 C 
BRANCH  27  28
ATOM     28  N   UNL A   1      40.437  18.943  25.956  1.00  0.00    -0.352 N 
ATOM     29  C   UNL A   1      41.797  19.070  26.119  1.00  0.00     0.251 C 
ATOM     30  H   UNL A   1      40.119  18.027  25.780  1.00  0.00     0.163 HD
ATOM     31  O   UNL A   1      42.531  18.103  25.938  1.00  0.00    -0.269 OA
BRANCH  29  32
ATOM     32  C   UNL A   1      42.387  20.381  26.470  1.00  0.00     0.039 A 
ATOM     33  C   UNL A   1      42.963  21.151  25.455  1.00  0.00     0.014 A 
ATOM     34  C   UNL A   1      42.359  20.862  27.782  1.00  0.00     0.014 A 
ATOM     35  C   UNL A   1      43.422  22.440  25.737  1.00  0.00     0.010 A 
ATOM     36  C   UNL A   1      42.754  22.172  28.047  1.00  0.00     0.010 A 
ATOM     37  C   UNL A   1      43.274  22.981  27.024  1.00  0.00    -0.014 A 
BRANCH  37  38
ATOM     38  C   UNL A   1      43.607  24.402  27.306  1.00  0.00     0.031 A 
ATOM     39  C   UNL A   1      45.031  24.880  27.263  1.00  0.00     0.074 A 
ATOM     40  C   UNL A   1      42.627  25.251  27.676  1.00  0.00     0.049 A 
ATOM     41  N   UNL A   1      45.513  26.062  27.555  1.00  0.00    -0.248 NA
ATOM     42  C   UNL A   1      46.048  23.898  26.858  1.00  0.00     0.031 C 
ATOM     43  C   UNL A   1      41.207  24.910  27.789  1.00  0.00     0.029 A 
ATOM     44  N   UNL A   1      42.678  26.575  28.039  1.00  0.00    -0.354 N 
ATOM     45  C   UNL A   1      46.888  25.963  27.382  1.00  0.00     0.074 A 
ATOM     46  C   UNL A   1      47.167  24.594  27.003  1.00  0.00     0.031 C 
ATOM     47  C   UNL A   1      40.521  25.999  28.170  1.00  0.00     0.029 A 
ATOM     48  C   UNL A   1      41.454  27.101  28.377  1.00  0.00     0.049 A 
ATOM     49  H   UNL A   1      43.513  27.097  28.054  1.00  0.00     0.167 HD
ATOM     50  C   UNL A   1      47.832  26.926  27.513  1.00  0.00     0.031 A 
ATOM     51  C   UNL A   1      41.120  28.327  28.821  1.00  0.00     0.031 A 
ATOM     52  C   UNL A   1      47.558  28.287  27.894  1.00  0.00     0.049 A 
ATOM     53  C   UNL A   1      42.192  29.364  29.002  1.00  0.00     0.074 A 
ATOM     54  C   UNL A   1      48.443  29.346  28.001  1.00  0.00     0.029 A 
ATOM     55  N   UNL A   1      46.308  28.776  28.239  1.00  0.00    -0.354 N 
ATOM     56  N   UNL A   1      43.479  29.272  28.768  1.00  0.00    -0.248 NA
ATOM     57  C   UNL A   1      41.764  30.678  29.504  1.00  0.00     0.031 C 
ATOM     58  C   UNL A   1      47.739  30.460  28.471  1.00  0.00     0.029 A 
ATOM     59  C   UNL A   1      46.405  30.112  28.596  1.00  0.00     0.049 A 
ATOM     60  H   UNL A   1      45.475  28.252  28.233  1.00  0.00     0.167 HD
ATOM     61  C   UNL A   1      44.009  30.519  29.073  1.00  0.00     0.074 A 
ATOM     62  C   UNL A   1      42.902  31.357  29.486  1.00  0.00     0.031 C 
ATOM     63  C   UNL A   1      45.298  30.933  29.015  1.00  0.00     0.031 A 
BRANCH  50  64
ATOM     64  C   UNL A   1      49.262  26.535  27.256  1.00  0.00    -0.014 A 
ATOM     65  C   UNL A   1      50.100  26.109  28.299  1.00  0.00     0.009 A 
ATOM     66  C   UNL A   1      49.765  26.552  25.946  1.00  0.00     0.009 A 
ATOM     67  C   UNL A   1      51.423  25.745  28.039  1.00  0.00     0.001 A 
ATOM     68  C   UNL A   1      51.078  26.157  25.685  1.00  0.00     0.001 A 
ATOM     69  C   UNL A   1      51.909  25.764  26.733  1.00  0.00     0.000 A 
ENDBRANCH  50  64
BRANCH  51  70
ATOM     70  C   UNL A   1      39.701  28.645  29.135  1.00  0.00    -0.014 A 
ATOM     71  C   UNL A   1      38.863  29.203  28.157  1.00  0.00     0.009 A 
ATOM     72  C   UNL A   1      39.181  28.406  30.416  1.00  0.00     0.009 A 
ATOM     73  C   UNL A   1      37.542  29.539  28.465  1.00  0.00     0.001 A 
ATOM     74  C   UNL A   1      37.851  28.713  30.712  1.00  0.00     0.001 A 
ATOM     75  C   UNL A   1      37.037  29.289  29.739  1.00  0.00     0.000 A 
ENDBRANCH  51  70
BRANCH  63  76
ATOM     76  C   UNL A   1      45.579  32.363  29.385  1.00  0.00    -0.014 A 
ATOM     77  C   UNL A   1      45.918  32.723  30.700  1.00  0.00     0.009 A 
ATOM     78  C   UNL A   1      45.538  33.359  28.398  1.00  0.00     0.009 A 
ATOM     79  C   UNL A   1      46.177  34.056  31.022  1.00  0.00     0.001 A 
ATOM     80  C   UNL A   1      45.828  34.687  28.716  1.00  0.00     0.001 A 
ATOM     81  C   UNL A   1      46.137  35.036  30.030  1.00  0.00     0.000 A 
ENDBRANCH  63  76
ENDBRANCH  37  38
ENDBRANCH  29  32
ENDBRANCH  27  28
ENDBRANCH  26  27
ENDBRANCH   1  26
TORSDOF 14
ENDMDL
MODEL 2
REMARK VINA RESULT:     -11.7      5.649      9.977
REMARK SMILES O=C(Cc1ccccc1Nc1c(Cl)cccc1C(F)(F)F)NCCCNC(=O)c1ccc(-c2c3nc(c(-c4ccccc4)c4ccc([nH]4)c(-c4ccccc4)c4nc(c(-c5ccccc5)c5ccc2[nH]5)C=C4)C=C3)cc1
REMARK SMILES IDX 23 1 22 2 1 3 2 4 3 6 4 7 5 8 9 9 6 10 8 11 7 12 10 13 11 15
REMARK SMILES IDX 12 16 17 17 13 18 14 19 16 20 15 21 18 22 19 23 20 24 21 25
REMARK SMILES IDX 24 26 25 27 26 28 27 29 28 31 29 32 30 33 76 34 31 35 75 36
REMARK SMILES IDX 32 37 33 38 34 39 69 40 35 41 74 42 68 43 70 44 36 45 73 46
REMARK SMILES IDX 67 47 66 48 37 50 59 51 44 52 58 53 45 54 48 55 57 56 71 57
REMARK SMILES IDX 46 58 47 59 56 61 72 62 49 63 38 64 39 65 43 66 40 67 42 68
REMARK SMILES IDX 41 69 60 70 61 71 65 72 62 73 64 74 63 75 50 76 51 77 55 78
REMARK SMILES IDX 52 79 54 80 53 81
REMARK H PARENT 22 5 10 14 26 30 70 49 48 60
REMARK Flexibility Score: inf
ROOT
ATOM      1  C   UNL A   1      32.024  30.502  26.487  1.00  0.00     0.117 C 
ENDROOT
BRANCH   1   2
ATOM      2  N   UNL A   1      31.671  30.131  25.133  1.00  0.00    -0.356 N 
ATOM      3  O   UNL A   1      33.574  28.940  24.622  1.00  0.00    -0.275 OA
ATOM      4  C   UNL A   1      32.445  29.321  24.327  1.00  0.00     0.224 C 
ATOM      5  H   UNL A   1      30.826  30.477  24.764  1.00  0.00     0.163 HD
BRANCH   4   6
ATOM      6  C   UNL A   1      31.753  28.920  23.026  1.00  0.00     0.137 C 
BRANCH   6   7
ATOM      7  C   UNL A   1      30.523  28.073  23.287  1.00  0.00    -0.015 A 
ATOM      8  C   UNL A   1      29.267  28.574  22.881  1.00  0.00     0.006 A 
ATOM      9  C   UNL A   1      30.578  26.824  23.938  1.00  0.00     0.042 A 
ATOM     10  C   UNL A   1      28.085  27.901  23.175  1.00  0.00     0.000 A 
ATOM     11  C   UNL A   1      29.370  26.173  24.243  1.00  0.00     0.026 A 
ATOM     12  C   UNL A   1      28.135  26.706  23.875  1.00  0.00     0.002 A 
BRANCH   9  13
ATOM     13  N   UNL A   1      31.813  26.199  24.213  1.00  0.00    -0.354 N 
ATOM     14  H   UNL A   1      32.459  26.749  24.712  1.00  0.00     0.167 HD
BRANCH  13  15
ATOM     15  C   UNL A   1      32.260  24.897  23.879  1.00  0.00     0.070 A 
ATOM     16  C   UNL A   1      32.312  23.920  24.903  1.00  0.00     0.065 A 
ATOM     17  C   UNL A   1      32.567  24.490  22.562  1.00  0.00     0.080 A 
ATOM     18  Cl  UNL A   1      32.011  24.355  26.554  1.00  0.00    -0.082 Cl
ATOM     19  C   UNL A   1      32.590  22.578  24.630  1.00  0.00     0.023 A 
ATOM     20  C   UNL A   1      32.819  23.122  22.302  1.00  0.00     0.015 A 
ATOM     21  C   UNL A   1      32.824  22.174  23.322  1.00  0.00     0.002 A 
BRANCH  17  22
ATOM     22  C   UNL A   1      32.684  25.434  21.383  1.00  0.00     0.418 C 
ATOM     23  F   UNL A   1      33.132  24.783  20.263  1.00  0.00    -0.166 F 
ATOM     24  F   UNL A   1      31.484  25.965  21.014  1.00  0.00    -0.166 F 
ATOM     25  F   UNL A   1      33.547  26.473  21.536  1.00  0.00    -0.166 F 
ENDBRANCH  17  22
ENDBRANCH  13  15
ENDBRANCH   9  13
ENDBRANCH   6   7
ENDBRANCH   4   6
ENDBRANCH   1   2
BRANCH   1  26
ATOM     26  C   UNL A   1      31.688  31.959  26.789  1.00  0.00     0.042 C 
BRANCH  26  27
ATOM     27  C   UNL A   1      32.853  32.804  27.301  1.00  0.00     0.118 C 
BRANCH  27  28
ATOM     28  N   UNL A   1      32.487  34.172  27.637  1.00  0.00    -0.352 N 
ATOM     29  C   UNL A   1      33.041  35.022  28.566  1.00  0.00     0.251 C 
ATOM     30  H   UNL A   1      31.733  34.545  27.124  1.00  0.00     0.163 HD
ATOM     31  O   UNL A   1      32.527  36.116  28.783  1.00  0.00    -0.269 OA
BRANCH  29  32
ATOM     32  C   UNL A   1      34.231  34.608  29.340  1.00  0.00     0.039 A 
ATOM     33  C   UNL A   1      34.046  34.031  30.600  1.00  0.00     0.014 A 
ATOM     34  C   UNL A   1      35.522  34.764  28.826  1.00  0.00     0.014 A 
ATOM     35  C   UNL A   1      35.143  33.526  31.301  1.00  0.00     0.010 A 
ATOM     36  C   UNL A   1      36.607  34.198  29.495  1.00  0.00     0.010 A 
ATOM     37  C   UNL A   1      36.426  33.557  30.732  1.00  0.00    -0.014 A 
BRANCH  37  38
ATOM     38  C   UNL A   1      37.577  32.883  31.386  1.00  0.00     0.031 A 
ATOM     39  C   UNL A   1      38.229  31.687  30.750  1.00  0.00     0.074 A 
ATOM     40  C   UNL A   1      37.991  33.305  32.598  1.00  0.00     0.049 A 
ATOM     41  N   UNL A   1      39.191  30.928  31.214  1.00  0.00    -0.248 NA
ATOM     42  C   UNL A   1      37.722  31.279  29.432  1.00  0.00     0.031 C 
ATOM     43  C   UNL A   1      37.426  34.434  33.342  1.00  0.00     0.029 A 
ATOM     44  N   UNL A   1      38.977  32.825  33.426  1.00  0.00    -0.354 N 
ATOM     45  C   UNL A   1      39.395  29.947  30.252  1.00  0.00     0.074 A 
ATOM     46  C   UNL A   1      38.427  30.180  29.201  1.00  0.00     0.031 C 
ATOM     47  C   UNL A   1      38.088  34.572  34.502  1.00  0.00     0.029 A 
ATOM     48  C   UNL A   1      39.088  33.516  34.608  1.00  0.00     0.049 A 
ATOM     49  H   UNL A   1      39.550  32.059  33.193  1.00  0.00     0.167 HD
ATOM     50  C   UNL A   1      40.312  28.950  30.237  1.00  0.00     0.031 A 
ATOM     51  C   UNL A   1      39.893  33.314  35.669  1.00  0.00     0.031 A 
ATOM     52  C   UNL A   1      41.273  28.714  31.283  1.00  0.00     0.049 A 
ATOM     53  C   UNL A   1      40.871  32.173  35.647  1.00  0.00     0.074 A 
ATOM     54  C   UNL A   1      42.276  27.761  31.331  1.00  0.00     0.029 A 
ATOM     55  N   UNL A   1      41.345  29.428  32.468  1.00  0.00    -0.354 N 
ATOM     56  N   UNL A   1      41.096  31.297  34.699  1.00  0.00    -0.248 NA
ATOM     57  C   UNL A   1      41.710  31.998  36.842  1.00  0.00     0.031 C 
ATOM     58  C   UNL A   1      42.914  27.859  32.572  1.00  0.00     0.029 A 
ATOM     59  C   UNL A   1      42.351  28.913  33.270  1.00  0.00     0.049 A 
ATOM     60  H   UNL A   1      40.766  30.188  32.706  1.00  0.00     0.167 HD
ATOM     61  C   UNL A   1      42.116  30.481  35.173  1.00  0.00     0.074 A 
ATOM     62  C   UNL A   1      42.480  30.981  36.482  1.00  0.00     0.031 C 
ATOM     63  C   UNL A   1      42.698  29.413  34.576  1.00  0.00     0.031 A 
BRANCH  50  64
ATOM     64  C   UNL A   1      40.311  28.025  29.051  1.00  0.00    -0.014 A 
ATOM     65  C   UNL A   1      41.023  28.338  27.881  1.00  0.00     0.009 A 
ATOM     66  C   UNL A   1      39.624  26.802  29.121  1.00  0.00     0.009 A 
ATOM     67  C   UNL A   1      41.014  27.462  26.793  1.00  0.00     0.001 A 
ATOM     68  C   UNL A   1      39.644  25.915  28.043  1.00  0.00     0.001 A 
ATOM     69  C   UNL A   1      40.329  26.250  26.877  1.00  0.00     0.000 A 
ENDBRANCH  50  64
BRANCH  51  70
ATOM     70  C   UNL A   1      39.806  34.212  36.852  1.00  0.00    -0.014 A 
ATOM     71  C   UNL A   1      38.995  33.871  37.946  1.00  0.00     0.009 A 
ATOM     72  C   UNL A   1      40.522  35.418  36.890  1.00  0.00     0.009 A 
ATOM     73  C   UNL A   1      38.882  34.734  39.039  1.00  0.00     0.001 A 
ATOM     74  C   UNL A   1      40.433  36.263  37.998  1.00  0.00     0.001 A 
ATOM     75  C   UNL A   1      39.605  35.925  39.066  1.00  0.00     0.000 A 
ENDBRANCH  51  70
BRANCH  63  76
ATOM     76  C   UNL A   1      43.807  28.727  35.324  1.00  0.00    -0.014 A 
ATOM     77  C   UNL A   1      43.548  27.653  36.191  1.00  0.00     0.009 A 
ATOM     78  C   UNL A   1      45.136  29.139  35.132  1.00  0.00     0.009 A 
ATOM     79  C   UNL A   1      44.593  27.028  36.874  1.00  0.00     0.001 A 
ATOM     80  C   UNL A   1      46.181  28.492  35.792  1.00  0.00     0.001 A 
ATOM     81  C   UNL A   1      45.909  27.444  36.671  1.00  0.00     0.000 A 
ENDBRANCH  63  76
ENDBRANCH  37  38
ENDBRANCH  29  32
ENDBRANCH  27  28
ENDBRANCH  26  27
ENDBRANCH   1  26
TORSDOF 14
ENDMDL
MODEL 3
REMARK VINA RESULT:     -11.6      4.218      8.887
REMARK SMILES O=C(Cc1ccccc1Nc1c(Cl)cccc1C(F)(F)F)NCCCNC(=O)c1ccc(-c2c3nc(c(-c4ccccc4)c4ccc([nH]4)c(-c4ccccc4)c4nc(c(-c5ccccc5)c5ccc2[nH]5)C=C4)C=C3)cc1
REMARK SMILES IDX 23 1 22 2 1 3 2 4 3 6 4 7 5 8 9 9 6 10 8 11 7 12 10 13 11 15
REMARK SMILES IDX 12 16 17 17 13 18 14 19 16 20 15 21 18 22 19 23 20 24 21 25
REMARK SMILES IDX 24 26 25 27 26 28 27 29 28 31 29 32 30 33 76 34 31 35 75 36
REMARK SMILES IDX 32 37 33 38 34 39 69 40 35 41 74 42 68 43 70 44 36 45 73 46
REMARK SMILES IDX 67 47 66 48 37 50 59 51 44 52 58 53 45 54 48 55 57 56 71 57
REMARK SMILES IDX 46 58 47 59 56 61 72 62 49 63 38 64 39 65 43 66 40 67 42 68
REMARK SMILES IDX 41 69 60 70 61 71 65 72 62 73 64 74 63 75 50 76 51 77 55 78
REMARK SMILES IDX 52 79 54 80 53 81
REMARK H PARENT 22 5 10 14 26 30 70 49 48 60
REMARK Flexibility Score: inf
ROOT
ATOM      1  C   UNL A   1      31.771  29.213  27.268  1.00  0.00     0.117 C 
ENDROOT
BRANCH   1   2
ATOM      2  N   UNL A   1      32.843  28.374  26.773  1.00  0.00    -0.356 N 
ATOM      3  O   UNL A   1      31.686  26.384  26.710  1.00  0.00    -0.275 OA
ATOM      4  C   UNL A   1      32.698  27.035  26.468  1.00  0.00     0.224 C 
ATOM      5  H   UNL A   1      33.729  28.783  26.645  1.00  0.00     0.163 HD
BRANCH   4   6
ATOM      6  C   UNL A   1      33.920  26.435  25.777  1.00  0.00     0.137 C 
BRANCH   6   7
ATOM      7  C   UNL A   1      33.586  25.947  24.380  1.00  0.00    -0.015 A 
ATOM      8  C   UNL A   1      33.481  26.902  23.345  1.00  0.00     0.006 A 
ATOM      9  C   UNL A   1      33.352  24.590  24.079  1.00  0.00     0.042 A 
ATOM     10  C   UNL A   1      33.080  26.543  22.062  1.00  0.00     0.000 A 
ATOM     11  C   UNL A   1      32.928  24.255  22.781  1.00  0.00     0.026 A 
ATOM     12  C   UNL A   1      32.785  25.218  21.784  1.00  0.00     0.002 A 
BRANCH   9  13
ATOM     13  N   UNL A   1      33.607  23.578  25.028  1.00  0.00    -0.354 N 
ATOM     14  H   UNL A   1      33.192  23.716  25.910  1.00  0.00     0.167 HD
BRANCH  13  15
ATOM     15  C   UNL A   1      34.371  22.392  24.901  1.00  0.00     0.070 A 
ATOM     16  C   UNL A   1      35.775  22.475  25.069  1.00  0.00     0.065 A 
ATOM     17  C   UNL A   1      33.804  21.113  24.710  1.00  0.00     0.080 A 
ATOM     18  Cl  UNL A   1      36.553  24.014  25.244  1.00  0.00    -0.082 Cl
ATOM     19  C   UNL A   1      36.582  21.336  25.115  1.00  0.00     0.023 A 
ATOM     20  C   UNL A   1      34.634  19.970  24.788  1.00  0.00     0.015 A 
ATOM     21  C   UNL A   1      36.007  20.078  24.995  1.00  0.00     0.002 A 
BRANCH  17  22
ATOM     22  C   UNL A   1      32.345  20.867  24.388  1.00  0.00     0.418 C 
ATOM     23  F   UNL A   1      32.043  19.531  24.424  1.00  0.00    -0.166 F 
ATOM     24  F   UNL A   1      31.502  21.433  25.298  1.00  0.00    -0.166 F 
ATOM     25  F   UNL A   1      31.931  21.273  23.158  1.00  0.00    -0.166 F 
ENDBRANCH  17  22
ENDBRANCH  13  15
ENDBRANCH   9  13
ENDBRANCH   6   7
ENDBRANCH   4   6
ENDBRANCH   1   2
BRANCH   1  26
ATOM     26  C   UNL A   1      31.748  30.577  26.585  1.00  0.00     0.042 C 
BRANCH  26  27
ATOM     27  C   UNL A   1      32.894  31.514  26.962  1.00  0.00     0.118 C 
BRANCH  27  28
ATOM     28  N   UNL A   1      32.460  32.841  27.372  1.00  0.00    -0.352 N 
ATOM     29  C   UNL A   1      33.082  33.747  28.200  1.00  0.00     0.251 C 
ATOM     30  H   UNL A   1      31.596  33.135  27.002  1.00  0.00     0.163 HD
ATOM     31  O   UNL A   1      32.509  34.786  28.515  1.00  0.00    -0.269 OA
BRANCH  29  32
ATOM     32  C   UNL A   1      34.424  33.456  28.750  1.00  0.00     0.039 A 
ATOM     33  C   UNL A   1      34.517  32.762  29.961  1.00  0.00     0.014 A 
ATOM     34  C   UNL A   1      35.585  33.842  28.075  1.00  0.00     0.014 A 
ATOM     35  C   UNL A   1      35.768  32.373  30.444  1.00  0.00     0.010 A 
ATOM     36  C   UNL A   1      36.827  33.393  28.522  1.00  0.00     0.010 A 
ATOM     37  C   UNL A   1      36.931  32.640  29.702  1.00  0.00    -0.014 A 
BRANCH  37  38
ATOM     38  C   UNL A   1      38.251  32.095  30.115  1.00  0.00     0.031 A 
ATOM     39  C   UNL A   1      38.735  30.774  29.587  1.00  0.00     0.074 A 
ATOM     40  C   UNL A   1      38.985  32.760  31.029  1.00  0.00     0.049 A 
ATOM     41  N   UNL A   1      39.822  30.111  29.896  1.00  0.00    -0.248 NA
ATOM     42  C   UNL A   1      37.879  30.101  28.598  1.00  0.00     0.031 C 
ATOM     43  C   UNL A   1      38.618  34.038  31.646  1.00  0.00     0.029 A 
ATOM     44  N   UNL A   1      40.190  32.448  31.610  1.00  0.00    -0.354 N 
ATOM     45  C   UNL A   1      39.774  28.939  29.151  1.00  0.00     0.074 A 
ATOM     46  C   UNL A   1      38.530  28.962  28.410  1.00  0.00     0.031 C 
ATOM     47  C   UNL A   1      39.586  34.409  32.499  1.00  0.00     0.029 A 
ATOM     48  C   UNL A   1      40.616  33.377  32.529  1.00  0.00     0.049 A 
ATOM     49  H   UNL A   1      40.700  31.635  31.388  1.00  0.00     0.167 HD
ATOM     50  C   UNL A   1      40.687  27.941  29.080  1.00  0.00     0.031 A 
ATOM     51  C   UNL A   1      41.705  33.391  33.320  1.00  0.00     0.031 A 
ATOM     52  C   UNL A   1      41.921  27.914  29.819  1.00  0.00     0.049 A 
ATOM     53  C   UNL A   1      42.680  32.249  33.255  1.00  0.00     0.074 A 
ATOM     54  C   UNL A   1      42.933  26.970  29.771  1.00  0.00     0.029 A 
ATOM     55  N   UNL A   1      42.310  28.867  30.747  1.00  0.00    -0.354 N 
ATOM     56  N   UNL A   1      42.652  31.181  32.494  1.00  0.00    -0.248 NA
ATOM     57  C   UNL A   1      43.840  32.317  34.156  1.00  0.00     0.031 C 
ATOM     58  C   UNL A   1      43.904  27.319  30.716  1.00  0.00     0.029 A 
ATOM     59  C   UNL A   1      43.529  28.514  31.306  1.00  0.00     0.049 A 
ATOM     60  H   UNL A   1      41.796  29.675  30.976  1.00  0.00     0.167 HD
ATOM     61  C   UNL A   1      43.800  30.463  32.808  1.00  0.00     0.074 A 
ATOM     62  C   UNL A   1      44.512  31.228  33.812  1.00  0.00     0.031 C 
ATOM     63  C   UNL A   1      44.224  29.277  32.310  1.00  0.00     0.031 A 
BRANCH  50  64
ATOM     64  C   UNL A   1      40.375  26.779  28.176  1.00  0.00    -0.014 A 
ATOM     65  C   UNL A   1      40.858  26.731  26.858  1.00  0.00     0.009 A 
ATOM     66  C   UNL A   1      39.623  25.699  28.663  1.00  0.00     0.009 A 
ATOM     67  C   UNL A   1      40.562  25.641  26.036  1.00  0.00     0.001 A 
ATOM     68  C   UNL A   1      39.355  24.597  27.848  1.00  0.00     0.001 A 
ATOM     69  C   UNL A   1      39.816  24.573  26.533  1.00  0.00     0.000 A 
ENDBRANCH  50  64
BRANCH  51  70
ATOM     70  C   UNL A   1      41.934  34.526  34.255  1.00  0.00    -0.014 A 
ATOM     71  C   UNL A   1      41.463  34.467  35.575  1.00  0.00     0.009 A 
ATOM     72  C   UNL A   1      42.611  35.678  33.827  1.00  0.00     0.009 A 
ATOM     73  C   UNL A   1      41.642  35.550  36.440  1.00  0.00     0.001 A 
ATOM     74  C   UNL A   1      42.818  36.747  34.703  1.00  0.00     0.001 A 
ATOM     75  C   UNL A   1      42.324  36.686  36.004  1.00  0.00     0.000 A 
ENDBRANCH  51  70
BRANCH  63  76
ATOM     76  C   UNL A   1      45.531  28.743  32.825  1.00  0.00    -0.014 A 
ATOM     77  C   UNL A   1      45.581  27.859  33.915  1.00  0.00     0.009 A 
ATOM     78  C   UNL A   1      46.730  29.102  32.187  1.00  0.00     0.009 A 
ATOM     79  C   UNL A   1      46.806  27.373  34.376  1.00  0.00     0.001 A 
ATOM     80  C   UNL A   1      47.950  28.590  32.630  1.00  0.00     0.001 A 
ATOM     81  C   UNL A   1      47.988  27.735  33.730  1.00  0.00     0.000 A 
ENDBRANCH  63  76
ENDBRANCH  37  38
ENDBRANCH  29  32
ENDBRANCH  27  28
ENDBRANCH  26  27
ENDBRANCH   1  26
TORSDOF 14
ENDMDL
