MODEL 1
REMARK VINA RESULT:      -9.1      0.000      0.000
REMARK SMILES C=CC[N@@H+](CC(=O)NCCCNC(=O)c1ccc(-c2c3nc(c(-c4ccccc4)c4ccc([nH]4)c(-c4ccccc4)c4nc(c(-c5ccccc5)c5ccc2[nH]5)C=C4)C=C3)cc1)C(C)C
REMARK SMILES IDX 9 1 8 2 6 3 7 4 5 6 4 7 3 9 2 10 1 11 63 12 64 13 65 14
REMARK SMILES IDX 10 15 11 16 12 17 13 18 14 20 15 21 16 22 62 23 17 24 61 25
REMARK SMILES IDX 18 26 19 27 20 28 55 29 21 30 60 31 54 32 56 33 22 34 59 35
REMARK SMILES IDX 53 36 52 37 23 39 45 40 30 41 44 42 31 43 34 44 43 45 57 46
REMARK SMILES IDX 32 47 33 48 42 50 58 51 35 52 24 53 25 54 29 55 26 56 28 57
REMARK SMILES IDX 27 58 46 59 47 60 51 61 48 62 50 63 49 64 36 65 37 66 41 67
REMARK SMILES IDX 38 68 40 69 39 70
REMARK H PARENT 8 5 4 8 12 19 56 38 34 49
REMARK Flexibility Score: inf
ROOT
ATOM      1  C   UNL A   1      35.893  20.437  24.911  1.00  0.00     0.118 C 
ENDROOT
BRANCH   1   2
ATOM      2  N   UNL A   1      34.694  19.708  25.289  1.00  0.00    -0.351 N 
ATOM      3  C   UNL A   1      33.373  19.924  25.023  1.00  0.00     0.275 C 
ATOM      4  O   UNL A   1      32.584  19.064  25.433  1.00  0.00    -0.269 OA
ATOM      5  H   UNL A   1      34.866  18.911  25.840  1.00  0.00     0.163 HD
BRANCH   3   6
ATOM      6  C   UNL A   1      32.860  21.130  24.224  1.00  0.00     0.363 C 
BRANCH   6   7
ATOM      7  N   UNL A   1      32.964  22.469  24.869  1.00  0.00    -0.322 N 
ATOM      8  H   UNL A   1      33.891  22.573  25.282  1.00  0.00     0.349 HD
BRANCH   7   9
ATOM      9  C   UNL A   1      32.103  22.560  26.038  1.00  0.00     0.291 C 
BRANCH   9  10
ATOM     10  C   UNL A   1      32.730  22.776  27.378  1.00  0.00     0.025 C 
ATOM     11  C   UNL A   1      34.027  22.544  27.629  1.00  0.00     0.010 C 
ENDBRANCH   9  10
ENDBRANCH   7   9
BRANCH   7  12
ATOM     12  C   UNL A   1      33.052  23.602  23.926  1.00  0.00     0.178 C 
ATOM     13  C   UNL A   1      33.509  24.953  24.498  1.00  0.00     0.075 C 
ATOM     14  C   UNL A   1      33.923  23.281  22.698  1.00  0.00     0.075 C 
ENDBRANCH   7  12
ENDBRANCH   6   7
ENDBRANCH   3   6
ENDBRANCH   1   2
BRANCH   1  15
ATOM     15  C   UNL A   1      37.153  19.568  24.989  1.00  0.00     0.042 C 
BRANCH  15  16
ATOM     16  C   UNL A   1      38.413  20.292  25.442  1.00  0.00     0.118 C 
BRANCH  16  17
ATOM     17  N   UNL A   1      39.538  19.396  25.634  1.00  0.00    -0.352 N 
ATOM     18  C   UNL A   1      40.836  19.623  26.024  1.00  0.00     0.251 C 
ATOM     19  H   UNL A   1      39.334  18.450  25.449  1.00  0.00     0.163 HD
ATOM     20  O   UNL A   1      41.639  18.697  25.930  1.00  0.00    -0.269 OA
BRANCH  18  21
ATOM     21  C   UNL A   1      41.315  20.938  26.532  1.00  0.00     0.039 A 
ATOM     22  C   UNL A   1      41.210  21.187  27.908  1.00  0.00     0.014 A 
ATOM     23  C   UNL A   1      41.765  21.964  25.698  1.00  0.00     0.014 A 
ATOM     24  C   UNL A   1      41.588  22.427  28.440  1.00  0.00     0.010 A 
ATOM     25  C   UNL A   1      42.226  23.169  26.239  1.00  0.00     0.010 A 
ATOM     26  C   UNL A   1      42.124  23.425  27.614  1.00  0.00    -0.014 A 
BRANCH  26  27
ATOM     27  C   UNL A   1      42.539  24.745  28.164  1.00  0.00     0.031 A 
ATOM     28  C   UNL A   1      41.520  25.833  28.394  1.00  0.00     0.074 A 
ATOM     29  C   UNL A   1      43.838  24.992  28.425  1.00  0.00     0.049 A 
ATOM     30  N   UNL A   1      41.701  27.063  28.811  1.00  0.00    -0.248 NA
ATOM     31  C   UNL A   1      40.117  25.505  28.094  1.00  0.00     0.031 C 
ATOM     32  C   UNL A   1      44.938  24.047  28.229  1.00  0.00     0.029 A 
ATOM     33  N   UNL A   1      44.453  26.120  28.912  1.00  0.00    -0.354 N 
ATOM     34  C   UNL A   1      40.445  27.658  28.798  1.00  0.00     0.074 A 
ATOM     35  C   UNL A   1      39.517  26.668  28.293  1.00  0.00     0.031 C 
ATOM     36  C   UNL A   1      46.088  24.623  28.619  1.00  0.00     0.029 A 
ATOM     37  C   UNL A   1      45.813  25.988  29.056  1.00  0.00     0.049 A 
ATOM     38  H   UNL A   1      43.965  26.945  29.137  1.00  0.00     0.167 HD
ATOM     39  C   UNL A   1      40.086  28.905  29.186  1.00  0.00     0.031 A 
ATOM     40  C   UNL A   1      46.740  26.867  29.485  1.00  0.00     0.031 A 
ATOM     41  C   UNL A   1      40.993  29.887  29.717  1.00  0.00     0.049 A 
ATOM     42  C   UNL A   1      46.319  28.245  29.910  1.00  0.00     0.074 A 
ATOM     43  C   UNL A   1      40.710  31.157  30.188  1.00  0.00     0.029 A 
ATOM     44  N   UNL A   1      42.360  29.708  29.849  1.00  0.00    -0.354 N 
ATOM     45  N   UNL A   1      45.119  28.771  29.936  1.00  0.00    -0.248 NA
ATOM     46  C   UNL A   1      47.383  29.148  30.374  1.00  0.00     0.031 C 
ATOM     47  C   UNL A   1      41.912  31.762  30.572  1.00  0.00     0.029 A 
ATOM     48  C   UNL A   1      42.937  30.850  30.380  1.00  0.00     0.049 A 
ATOM     49  H   UNL A   1      42.849  28.889  29.602  1.00  0.00     0.167 HD
ATOM     50  C   UNL A   1      45.280  30.054  30.441  1.00  0.00     0.074 A 
ATOM     51  C   UNL A   1      46.690  30.225  30.722  1.00  0.00     0.031 C 
ATOM     52  C   UNL A   1      44.340  31.007  30.655  1.00  0.00     0.031 A 
BRANCH  39  53
ATOM     53  C   UNL A   1      38.637  29.282  29.048  1.00  0.00    -0.014 A 
ATOM     54  C   UNL A   1      37.767  29.239  30.149  1.00  0.00     0.009 A 
ATOM     55  C   UNL A   1      38.144  29.718  27.809  1.00  0.00     0.009 A 
ATOM     56  C   UNL A   1      36.423  29.588  30.003  1.00  0.00     0.001 A 
ATOM     57  C   UNL A   1      36.806  30.093  27.671  1.00  0.00     0.001 A 
ATOM     58  C   UNL A   1      35.944  30.018  28.765  1.00  0.00     0.000 A 
ENDBRANCH  39  53
BRANCH  40  59
ATOM     59  C   UNL A   1      48.169  26.463  29.556  1.00  0.00    -0.014 A 
ATOM     60  C   UNL A   1      49.027  26.699  28.471  1.00  0.00     0.009 A 
ATOM     61  C   UNL A   1      48.678  25.834  30.701  1.00  0.00     0.009 A 
ATOM     62  C   UNL A   1      50.361  26.295  28.524  1.00  0.00     0.001 A 
ATOM     63  C   UNL A   1      50.020  25.454  30.761  1.00  0.00     0.001 A 
ATOM     64  C   UNL A   1      50.858  25.676  29.670  1.00  0.00     0.000 A 
ENDBRANCH  40  59
BRANCH  52  65
ATOM     65  C   UNL A   1      44.802  32.306  31.250  1.00  0.00    -0.014 A 
ATOM     66  C   UNL A   1      44.866  32.486  32.640  1.00  0.00     0.009 A 
ATOM     67  C   UNL A   1      45.215  33.349  30.407  1.00  0.00     0.009 A 
ATOM     68  C   UNL A   1      45.307  33.699  33.174  1.00  0.00     0.001 A 
ATOM     69  C   UNL A   1      45.678  34.551  30.943  1.00  0.00     0.001 A 
ATOM     70  C   UNL A   1      45.717  34.728  32.326  1.00  0.00     0.000 A 
ENDBRANCH  52  65
ENDBRANCH  26  27
ENDBRANCH  18  21
ENDBRANCH  16  17
ENDBRANCH  15  16
ENDBRANCH   1  15
TORSDOF 14
ENDMDL
MODEL 2
REMARK VINA RESULT:      -9.1      3.029      8.482
REMARK SMILES C=CC[N@@H+](CC(=O)NCCCNC(=O)c1ccc(-c2c3nc(c(-c4ccccc4)c4ccc([nH]4)c(-c4ccccc4)c4nc(c(-c5ccccc5)c5ccc2[nH]5)C=C4)C=C3)cc1)C(C)C
REMARK SMILES IDX 9 1 8 2 6 3 7 4 5 6 4 7 3 9 2 10 1 11 63 12 64 13 65 14
REMARK SMILES IDX 10 15 11 16 12 17 13 18 14 20 15 21 16 22 62 23 17 24 61 25
REMARK SMILES IDX 18 26 19 27 20 28 55 29 21 30 60 31 54 32 56 33 22 34 59 35
REMARK SMILES IDX 53 36 52 37 23 39 45 40 30 41 44 42 31 43 34 44 43 45 57 46
REMARK SMILES IDX 32 47 33 48 42 50 58 51 35 52 24 53 25 54 29 55 26 56 28 57
REMARK SMILES IDX 27 58 46 59 47 60 51 61 48 62 50 63 49 64 36 65 37 66 41 67
REMARK SMILES IDX 38 68 40 69 39 70
REMARK H PARENT 8 5 4 8 12 19 56 38 34 49
REMARK Flexibility Score: inf
ROOT
ATOM      1  C   UNL A   1      42.424  19.449  27.234  1.00  0.00     0.118 C 
ENDROOT
BRANCH   1   2
ATOM      2  N   UNL A   1      43.460  19.271  26.231  1.00  0.00    -0.351 N 
ATOM      3  C   UNL A   1      44.098  20.155  25.411  1.00  0.00     0.275 C 
ATOM      4  O   UNL A   1      45.005  19.693  24.707  1.00  0.00    -0.269 OA
ATOM      5  H   UNL A   1      43.757  18.338  26.123  1.00  0.00     0.163 HD
BRANCH   3   6
ATOM      6  C   UNL A   1      43.770  21.653  25.368  1.00  0.00     0.363 C 
BRANCH   6   7
ATOM      7  N   UNL A   1      44.317  22.503  26.463  1.00  0.00    -0.322 N 
ATOM      8  H   UNL A   1      44.394  21.948  27.315  1.00  0.00     0.349 HD
BRANCH   7   9
ATOM      9  C   UNL A   1      43.367  23.530  26.860  1.00  0.00     0.291 C 
BRANCH   9  10
ATOM     10  C   UNL A   1      42.738  23.443  28.214  1.00  0.00     0.025 C 
ATOM     11  C   UNL A   1      43.221  22.675  29.201  1.00  0.00     0.010 C 
ENDBRANCH   9  10
ENDBRANCH   7   9
BRANCH   7  12
ATOM     12  C   UNL A   1      45.750  22.836  26.327  1.00  0.00     0.178 C 
ATOM     13  C   UNL A   1      46.267  23.127  24.909  1.00  0.00     0.075 C 
ATOM     14  C   UNL A   1      46.175  23.999  27.240  1.00  0.00     0.075 C 
ENDBRANCH   7  12
ENDBRANCH   6   7
ENDBRANCH   3   6
ENDBRANCH   1   2
BRANCH   1  15
ATOM     15  C   UNL A   1      41.068  19.804  26.615  1.00  0.00     0.042 C 
BRANCH  15  16
ATOM     16  C   UNL A   1      40.511  21.165  27.009  1.00  0.00     0.118 C 
BRANCH  16  17
ATOM     17  N   UNL A   1      39.381  21.568  26.193  1.00  0.00    -0.352 N 
ATOM     18  C   UNL A   1      38.736  22.773  26.050  1.00  0.00     0.251 C 
ATOM     19  H   UNL A   1      39.007  20.844  25.639  1.00  0.00     0.163 HD
ATOM     20  O   UNL A   1      37.682  22.793  25.418  1.00  0.00    -0.269 OA
BRANCH  18  21
ATOM     21  C   UNL A   1      39.242  24.042  26.641  1.00  0.00     0.039 A 
ATOM     22  C   UNL A   1      38.830  24.372  27.939  1.00  0.00     0.014 A 
ATOM     23  C   UNL A   1      40.018  24.961  25.931  1.00  0.00     0.014 A 
ATOM     24  C   UNL A   1      39.223  25.580  28.529  1.00  0.00     0.010 A 
ATOM     25  C   UNL A   1      40.485  26.126  26.551  1.00  0.00     0.010 A 
ATOM     26  C   UNL A   1      40.077  26.461  27.850  1.00  0.00    -0.014 A 
BRANCH  26  27
ATOM     27  C   UNL A   1      40.512  27.747  28.465  1.00  0.00     0.031 A 
ATOM     28  C   UNL A   1      41.943  27.944  28.895  1.00  0.00     0.074 A 
ATOM     29  C   UNL A   1      39.616  28.731  28.678  1.00  0.00     0.049 A 
ATOM     30  N   UNL A   1      42.493  28.970  29.498  1.00  0.00    -0.248 NA
ATOM     31  C   UNL A   1      42.875  26.835  28.635  1.00  0.00     0.031 C 
ATOM     32  C   UNL A   1      38.194  28.675  28.337  1.00  0.00     0.029 A 
ATOM     33  N   UNL A   1      39.775  29.977  29.235  1.00  0.00    -0.354 N 
ATOM     34  C   UNL A   1      43.821  28.620  29.711  1.00  0.00     0.074 A 
ATOM     35  C   UNL A   1      43.986  27.271  29.210  1.00  0.00     0.031 C 
ATOM     36  C   UNL A   1      37.617  29.842  28.666  1.00  0.00     0.029 A 
ATOM     37  C   UNL A   1      38.617  30.715  29.274  1.00  0.00     0.049 A 
ATOM     38  H   UNL A   1      40.637  30.310  29.574  1.00  0.00     0.167 HD
ATOM     39  C   UNL A   1      44.822  29.353  30.256  1.00  0.00     0.031 A 
ATOM     40  C   UNL A   1      38.379  31.954  29.749  1.00  0.00     0.031 A 
ATOM     41  C   UNL A   1      44.678  30.703  30.730  1.00  0.00     0.049 A 
ATOM     42  C   UNL A   1      39.505  32.748  30.349  1.00  0.00     0.074 A 
ATOM     43  C   UNL A   1      45.650  31.544  31.246  1.00  0.00     0.029 A 
ATOM     44  N   UNL A   1      43.489  31.412  30.745  1.00  0.00    -0.354 N 
ATOM     45  N   UNL A   1      40.764  32.417  30.496  1.00  0.00    -0.248 NA
ATOM     46  C   UNL A   1      39.175  34.095  30.842  1.00  0.00     0.031 C 
ATOM     47  C   UNL A   1      45.040  32.750  31.607  1.00  0.00     0.029 A 
ATOM     48  C   UNL A   1      43.698  32.674  31.275  1.00  0.00     0.049 A 
ATOM     49  H   UNL A   1      42.622  31.069  30.425  1.00  0.00     0.167 HD
ATOM     50  C   UNL A   1      41.380  33.519  31.073  1.00  0.00     0.074 A 
ATOM     51  C   UNL A   1      40.361  34.535  31.237  1.00  0.00     0.031 C 
ATOM     52  C   UNL A   1      42.677  33.676  31.433  1.00  0.00     0.031 A 
BRANCH  39  53
ATOM     53  C   UNL A   1      46.173  28.702  30.369  1.00  0.00    -0.014 A 
ATOM     54  C   UNL A   1      46.537  27.978  31.515  1.00  0.00     0.009 A 
ATOM     55  C   UNL A   1      47.080  28.787  29.302  1.00  0.00     0.009 A 
ATOM     56  C   UNL A   1      47.797  27.383  31.605  1.00  0.00     0.001 A 
ATOM     57  C   UNL A   1      48.329  28.169  29.383  1.00  0.00     0.001 A 
ATOM     58  C   UNL A   1      48.690  27.476  30.538  1.00  0.00     0.000 A 
ENDBRANCH  39  53
BRANCH  40  59
ATOM     59  C   UNL A   1      37.014  32.534  29.660  1.00  0.00    -0.014 A 
ATOM     60  C   UNL A   1      36.646  33.314  28.553  1.00  0.00     0.009 A 
ATOM     61  C   UNL A   1      36.077  32.317  30.681  1.00  0.00     0.009 A 
ATOM     62  C   UNL A   1      35.374  33.883  28.480  1.00  0.00     0.001 A 
ATOM     63  C   UNL A   1      34.797  32.866  30.593  1.00  0.00     0.001 A 
ATOM     64  C   UNL A   1      34.449  33.655  29.498  1.00  0.00     0.000 A 
ENDBRANCH  40  59
BRANCH  52  65
ATOM     65  C   UNL A   1      43.075  35.004  32.009  1.00  0.00    -0.014 A 
ATOM     66  C   UNL A   1      42.969  35.261  33.385  1.00  0.00     0.009 A 
ATOM     67  C   UNL A   1      43.600  35.997  31.169  1.00  0.00     0.009 A 
ATOM     68  C   UNL A   1      43.354  36.499  33.902  1.00  0.00     0.001 A 
ATOM     69  C   UNL A   1      44.006  37.225  31.692  1.00  0.00     0.001 A 
ATOM     70  C   UNL A   1      43.876  37.478  33.057  1.00  0.00     0.000 A 
ENDBRANCH  52  65
ENDBRANCH  26  27
ENDBRANCH  18  21
ENDBRANCH  16  17
ENDBRANCH  15  16
ENDBRANCH   1  15
TORSDOF 14
ENDMDL
MODEL 3
REMARK VINA RESULT:      -9.0      2.389      7.322
REMARK SMILES C=CC[N@@H+](CC(=O)NCCCNC(=O)c1ccc(-c2c3nc(c(-c4ccccc4)c4ccc([nH]4)c(-c4ccccc4)c4nc(c(-c5ccccc5)c5ccc2[nH]5)C=C4)C=C3)cc1)C(C)C
REMARK SMILES IDX 9 1 8 2 6 3 7 4 5 6 4 7 3 9 2 10 1 11 63 12 64 13 65 14
REMARK SMILES IDX 10 15 11 16 12 17 13 18 14 20 15 21 16 22 62 23 17 24 61 25
REMARK SMILES IDX 18 26 19 27 20 28 55 29 21 30 60 31 54 32 56 33 22 34 59 35
REMARK SMILES IDX 53 36 52 37 23 39 45 40 30 41 44 42 31 43 34 44 43 45 57 46
REMARK SMILES IDX 32 47 33 48 42 50 58 51 35 52 24 53 25 54 29 55 26 56 28 57
REMARK SMILES IDX 27 58 46 59 47 60 51 61 48 62 50 63 49 64 36 65 37 66 41 67
REMARK SMILES IDX 38 68 40 69 39 70
REMARK H PARENT 8 5 4 8 12 19 56 38 34 49
REMARK Flexibility Score: inf
ROOT
ATOM      1  C   UNL A   1      32.982  26.987  25.150  1.00  0.00     0.118 C 
ENDROOT
BRANCH   1   2
ATOM      2  N   UNL A   1      32.150  26.120  25.968  1.00  0.00    -0.351 N 
ATOM      3  C   UNL A   1      32.084  24.763  26.082  1.00  0.00     0.275 C 
ATOM      4  O   UNL A   1      31.307  24.322  26.939  1.00  0.00    -0.269 OA
ATOM      5  H   UNL A   1      31.517  26.603  26.547  1.00  0.00     0.163 HD
BRANCH   3   6
ATOM      6  C   UNL A   1      32.939  23.803  25.245  1.00  0.00     0.363 C 
BRANCH   6   7
ATOM      7  N   UNL A   1      33.587  22.667  25.959  1.00  0.00    -0.322 N 
ATOM      8  H   UNL A   1      33.076  22.475  26.820  1.00  0.00     0.349 HD
BRANCH   7   9
ATOM      9  C   UNL A   1      34.898  23.041  26.466  1.00  0.00     0.291 C 
BRANCH   9  10
ATOM     10  C   UNL A   1      35.710  24.036  25.700  1.00  0.00     0.025 C 
ATOM     11  C   UNL A   1      36.870  23.731  25.100  1.00  0.00     0.010 C 
ENDBRANCH   9  10
ENDBRANCH   7   9
BRANCH   7  12
ATOM     12  C   UNL A   1      33.388  21.347  25.326  1.00  0.00     0.178 C 
ATOM     13  C   UNL A   1      32.478  21.296  24.089  1.00  0.00     0.075 C 
ATOM     14  C   UNL A   1      34.717  20.657  24.971  1.00  0.00     0.075 C 
ENDBRANCH   7  12
ENDBRANCH   6   7
ENDBRANCH   3   6
ENDBRANCH   1   2
BRANCH   1  15
ATOM     15  C   UNL A   1      33.924  27.855  25.991  1.00  0.00     0.042 C 
BRANCH  15  16
ATOM     16  C   UNL A   1      33.371  28.295  27.339  1.00  0.00     0.118 C 
BRANCH  16  17
ATOM     17  N   UNL A   1      33.385  29.736  27.508  1.00  0.00    -0.352 N 
ATOM     18  C   UNL A   1      34.335  30.591  28.014  1.00  0.00     0.251 C 
ATOM     19  H   UNL A   1      32.562  30.185  27.206  1.00  0.00     0.163 HD
ATOM     20  O   UNL A   1      34.014  31.762  28.210  1.00  0.00    -0.269 OA
BRANCH  18  21
ATOM     21  C   UNL A   1      35.719  30.161  28.352  1.00  0.00     0.039 A 
ATOM     22  C   UNL A   1      36.681  30.182  27.332  1.00  0.00     0.014 A 
ATOM     23  C   UNL A   1      36.078  29.646  29.600  1.00  0.00     0.014 A 
ATOM     24  C   UNL A   1      37.986  29.733  27.571  1.00  0.00     0.010 A 
ATOM     25  C   UNL A   1      37.403  29.282  29.864  1.00  0.00     0.010 A 
ATOM     26  C   UNL A   1      38.370  29.301  28.849  1.00  0.00    -0.014 A 
BRANCH  26  27
ATOM     27  C   UNL A   1      39.756  28.829  29.123  1.00  0.00     0.031 A 
ATOM     28  C   UNL A   1      40.749  29.729  29.814  1.00  0.00     0.074 A 
ATOM     29  C   UNL A   1      40.145  27.603  28.719  1.00  0.00     0.049 A 
ATOM     30  N   UNL A   1      42.013  29.513  30.085  1.00  0.00    -0.248 NA
ATOM     31  C   UNL A   1      40.266  31.054  30.234  1.00  0.00     0.031 C 
ATOM     32  C   UNL A   1      39.304  26.633  28.018  1.00  0.00     0.029 A 
ATOM     33  N   UNL A   1      41.355  26.965  28.841  1.00  0.00    -0.354 N 
ATOM     34  C   UNL A   1      42.479  30.680  30.682  1.00  0.00     0.074 A 
ATOM     35  C   UNL A   1      41.374  31.615  30.695  1.00  0.00     0.031 C 
ATOM     36  C   UNL A   1      40.013  25.513  27.798  1.00  0.00     0.029 A 
ATOM     37  C   UNL A   1      41.368  25.699  28.308  1.00  0.00     0.049 A 
ATOM     38  H   UNL A   1      42.140  27.376  29.272  1.00  0.00     0.167 HD
ATOM     39  C   UNL A   1      43.705  30.949  31.190  1.00  0.00     0.031 A 
ATOM     40  C   UNL A   1      42.358  24.789  28.229  1.00  0.00     0.031 A 
ATOM     41  C   UNL A   1      44.802  30.018  31.209  1.00  0.00     0.049 A 
ATOM     42  C   UNL A   1      43.711  25.110  28.800  1.00  0.00     0.074 A 
ATOM     43  C   UNL A   1      46.064  30.185  31.754  1.00  0.00     0.029 A 
ATOM     44  N   UNL A   1      44.768  28.747  30.662  1.00  0.00    -0.354 N 
ATOM     45  N   UNL A   1      44.116  26.200  29.402  1.00  0.00    -0.248 NA
ATOM     46  C   UNL A   1      44.741  24.066  28.685  1.00  0.00     0.031 C 
ATOM     47  C   UNL A   1      46.806  29.025  31.503  1.00  0.00     0.029 A 
ATOM     48  C   UNL A   1      45.991  28.122  30.841  1.00  0.00     0.049 A 
ATOM     49  H   UNL A   1      43.988  28.346  30.212  1.00  0.00     0.167 HD
ATOM     50  C   UNL A   1      45.437  25.965  29.761  1.00  0.00     0.074 A 
ATOM     51  C   UNL A   1      45.762  24.625  29.320  1.00  0.00     0.031 C 
ATOM     52  C   UNL A   1      46.302  26.789  30.400  1.00  0.00     0.031 A 
BRANCH  39  53
ATOM     53  C   UNL A   1      43.927  32.317  31.771  1.00  0.00    -0.014 A 
ATOM     54  C   UNL A   1      44.377  33.382  30.974  1.00  0.00     0.009 A 
ATOM     55  C   UNL A   1      43.650  32.553  33.127  1.00  0.00     0.009 A 
ATOM     56  C   UNL A   1      44.581  34.646  31.531  1.00  0.00     0.001 A 
ATOM     57  C   UNL A   1      43.830  33.824  33.676  1.00  0.00     0.001 A 
ATOM     58  C   UNL A   1      44.305  34.867  32.880  1.00  0.00     0.000 A 
ENDBRANCH  39  53
BRANCH  40  59
ATOM     59  C   UNL A   1      42.103  23.467  27.599  1.00  0.00    -0.014 A 
ATOM     60  C   UNL A   1      41.508  22.433  28.337  1.00  0.00     0.009 A 
ATOM     61  C   UNL A   1      42.457  23.232  26.262  1.00  0.00     0.009 A 
ATOM     62  C   UNL A   1      41.293  21.183  27.756  1.00  0.00     0.001 A 
ATOM     63  C   UNL A   1      42.218  21.988  25.676  1.00  0.00     0.001 A 
ATOM     64  C   UNL A   1      41.644  20.962  26.424  1.00  0.00     0.000 A 
ENDBRANCH  40  59
BRANCH  52  65
ATOM     65  C   UNL A   1      47.674  26.252  30.691  1.00  0.00    -0.014 A 
ATOM     66  C   UNL A   1      47.995  25.721  31.949  1.00  0.00     0.009 A 
ATOM     67  C   UNL A   1      48.646  26.240  29.678  1.00  0.00     0.009 A 
ATOM     68  C   UNL A   1      49.274  25.217  32.197  1.00  0.00     0.001 A 
ATOM     69  C   UNL A   1      49.915  25.715  29.921  1.00  0.00     0.001 A 
ATOM     70  C   UNL A   1      50.231  25.210  31.182  1.00  0.00     0.000 A 
ENDBRANCH  52  65
ENDBRANCH  26  27
ENDBRANCH  18  21
ENDBRANCH  16  17
ENDBRANCH  15  16
ENDBRANCH   1  15
TORSDOF 14
ENDMDL
