MODEL 1
REMARK VINA RESULT:      -9.1      0.000      0.000
REMARK SMILES O=C(/C=C/c1cc(F)cc(COCc2ccco2)c1)NCCCNC(=O)c1ccc(-c2c3nc(c(-c4ccccc4)c4ccc([nH]4)c(-c4ccccc4)c4nc(c(-c5ccccc5)c5ccc2[nH]5)C=C4)C=C3)cc1
REMARK SMILES IDX 1 1 2 2 20 3 3 5 4 6 5 7 6 8 19 9 7 10 10 11 8 12 9 13 11 14
REMARK SMILES IDX 12 15 13 16 14 17 15 18 18 19 16 20 17 21 21 22 22 23 23 24
REMARK SMILES IDX 24 25 25 26 26 28 27 29 28 30 74 31 29 32 73 33 30 34 31 35
REMARK SMILES IDX 32 36 67 37 33 38 72 39 66 40 68 41 34 42 71 43 65 44 64 45
REMARK SMILES IDX 35 47 57 48 42 49 56 50 43 51 46 52 55 53 69 54 44 55 45 56
REMARK SMILES IDX 54 58 70 59 47 60 36 61 37 62 41 63 38 64 40 65 39 66 58 67
REMARK SMILES IDX 59 68 63 69 60 70 62 71 61 72 48 73 49 74 53 75 50 76 52 77
REMARK SMILES IDX 51 78
REMARK H PARENT 20 4 24 27 68 46 46 57
REMARK Flexibility Score: inf
ROOT
ATOM      1  O   UNL A   1      35.098  33.505  35.011  1.00  0.00    -0.270 OA
ATOM      2  C   UNL A   1      35.643  33.486  33.915  1.00  0.00     0.244 C 
ATOM      3  N   UNL A   1      35.472  34.446  32.952  1.00  0.00    -0.352 N 
ATOM      4  H   UNL A   1      35.964  34.364  32.102  1.00  0.00     0.163 HD
ENDROOT
BRANCH   2   5
ATOM      5  C   UNL A   1      36.491  32.327  33.534  1.00  0.00     0.072 C 
ATOM      6  C   UNL A   1      37.518  31.843  34.251  1.00  0.00     0.014 C 
BRANCH   6   7
ATOM      7  C   UNL A   1      38.303  30.668  33.844  1.00  0.00    -0.022 A 
ATOM      8  C   UNL A   1      37.810  29.705  32.957  1.00  0.00     0.047 A 
ATOM      9  C   UNL A   1      39.610  30.525  34.333  1.00  0.00     0.014 A 
ATOM     10  C   UNL A   1      38.600  28.615  32.602  1.00  0.00     0.124 A 
ATOM     11  C   UNL A   1      40.404  29.418  33.984  1.00  0.00    -0.019 A 
ATOM     12  F   UNL A   1      38.107  27.694  31.764  1.00  0.00    -0.207 F 
ATOM     13  C   UNL A   1      39.885  28.461  33.107  1.00  0.00     0.045 A 
BRANCH  11  14
ATOM     14  C   UNL A   1      41.771  29.235  34.597  1.00  0.00     0.196 C 
BRANCH  14  15
ATOM     15  O   UNL A   1      41.735  28.620  35.886  1.00  0.00    -0.369 OA
BRANCH  15  16
ATOM     16  C   UNL A   1      42.858  27.794  36.208  1.00  0.00     0.235 C 
BRANCH  16  17
ATOM     17  C   UNL A   1      42.596  26.377  35.846  1.00  0.00     0.129 A 
ATOM     18  C   UNL A   1      41.686  25.442  36.293  1.00  0.00     0.048 A 
ATOM     19  O   UNL A   1      43.436  25.802  34.933  1.00  0.00    -0.467 OA
ATOM     20  C   UNL A   1      41.975  24.238  35.606  1.00  0.00     0.042 A 
ATOM     21  C   UNL A   1      43.040  24.514  34.782  1.00  0.00     0.195 A 
ENDBRANCH  16  17
ENDBRANCH  15  16
ENDBRANCH  14  15
ENDBRANCH  11  14
ENDBRANCH   6   7
ENDBRANCH   2   5
BRANCH   3  22
ATOM     22  C   UNL A   1      34.589  35.580  33.146  1.00  0.00     0.118 C 
BRANCH  22  23
ATOM     23  C   UNL A   1      33.398  35.579  32.196  1.00  0.00     0.042 C 
BRANCH  23  24
ATOM     24  C   UNL A   1      33.659  36.253  30.851  1.00  0.00     0.118 C 
BRANCH  24  25
ATOM     25  N   UNL A   1      32.904  35.667  29.751  1.00  0.00    -0.352 N 
ATOM     26  C   UNL A   1      33.224  34.622  28.917  1.00  0.00     0.251 C 
ATOM     27  H   UNL A   1      32.029  36.084  29.577  1.00  0.00     0.163 HD
ATOM     28  O   UNL A   1      32.492  34.349  27.969  1.00  0.00    -0.269 OA
BRANCH  26  29
ATOM     29  C   UNL A   1      34.463  33.845  29.134  1.00  0.00     0.039 A 
ATOM     30  C   UNL A   1      35.633  34.243  28.478  1.00  0.00     0.014 A 
ATOM     31  C   UNL A   1      34.478  32.734  29.980  1.00  0.00     0.014 A 
ATOM     32  C   UNL A   1      36.837  33.585  28.743  1.00  0.00     0.010 A 
ATOM     33  C   UNL A   1      35.690  32.123  30.294  1.00  0.00     0.010 A 
ATOM     34  C   UNL A   1      36.882  32.551  29.690  1.00  0.00    -0.014 A 
BRANCH  34  35
ATOM     35  C   UNL A   1      38.164  31.919  30.098  1.00  0.00     0.031 A 
ATOM     36  C   UNL A   1      39.131  32.667  30.973  1.00  0.00     0.074 A 
ATOM     37  C   UNL A   1      38.503  30.714  29.599  1.00  0.00     0.049 A 
ATOM     38  N   UNL A   1      40.354  32.349  31.313  1.00  0.00    -0.248 NA
ATOM     39  C   UNL A   1      38.670  33.955  31.517  1.00  0.00     0.031 C 
ATOM     40  C   UNL A   1      37.669  29.892  28.719  1.00  0.00     0.029 A 
ATOM     41  N   UNL A   1      39.655  29.981  29.742  1.00  0.00    -0.354 N 
ATOM     42  C   UNL A   1      40.818  33.404  32.086  1.00  0.00     0.074 A 
ATOM     43  C   UNL A   1      39.758  34.389  32.136  1.00  0.00     0.031 C 
ATOM     44  C   UNL A   1      38.329  28.765  28.413  1.00  0.00     0.029 A 
ATOM     45  C   UNL A   1      39.651  28.805  29.031  1.00  0.00     0.049 A 
ATOM     46  H   UNL A   1      40.411  30.269  30.303  1.00  0.00     0.167 HD
ATOM     47  C   UNL A   1      42.014  33.538  32.708  1.00  0.00     0.031 A 
ATOM     48  C   UNL A   1      40.610  27.872  28.873  1.00  0.00     0.031 A 
ATOM     49  C   UNL A   1      43.063  32.555  32.670  1.00  0.00     0.049 A 
ATOM     50  C   UNL A   1      41.938  28.057  29.552  1.00  0.00     0.074 A 
ATOM     51  C   UNL A   1      44.290  32.580  33.311  1.00  0.00     0.029 A 
ATOM     52  N   UNL A   1      43.010  31.372  31.950  1.00  0.00    -0.354 N 
ATOM     53  N   UNL A   1      42.343  29.039  30.319  1.00  0.00    -0.248 NA
ATOM     54  C   UNL A   1      42.941  27.001  29.346  1.00  0.00     0.031 C 
ATOM     55  C   UNL A   1      44.999  31.433  32.942  1.00  0.00     0.029 A 
ATOM     56  C   UNL A   1      44.192  30.668  32.115  1.00  0.00     0.049 A 
ATOM     57  H   UNL A   1      42.247  31.076  31.404  1.00  0.00     0.167 HD
ATOM     58  C   UNL A   1      43.631  28.703  30.715  1.00  0.00     0.074 A 
ATOM     59  C   UNL A   1      43.938  27.424  30.108  1.00  0.00     0.031 C 
ATOM     60  C   UNL A   1      44.480  29.391  31.517  1.00  0.00     0.031 A 
BRANCH  47  61
ATOM     61  C   UNL A   1      42.256  34.806  33.478  1.00  0.00    -0.014 A 
ATOM     62  C   UNL A   1      42.782  35.948  32.854  1.00  0.00     0.009 A 
ATOM     63  C   UNL A   1      41.915  34.872  34.838  1.00  0.00     0.009 A 
ATOM     64  C   UNL A   1      42.996  37.119  33.585  1.00  0.00     0.001 A 
ATOM     65  C   UNL A   1      42.101  36.053  35.559  1.00  0.00     0.001 A 
ATOM     66  C   UNL A   1      42.651  37.171  34.935  1.00  0.00     0.000 A 
ENDBRANCH  47  61
BRANCH  48  67
ATOM     67  C   UNL A   1      40.349  26.672  28.035  1.00  0.00    -0.014 A 
ATOM     68  C   UNL A   1      40.827  26.611  26.716  1.00  0.00     0.009 A 
ATOM     69  C   UNL A   1      39.621  25.587  28.544  1.00  0.00     0.009 A 
ATOM     70  C   UNL A   1      40.558  25.497  25.918  1.00  0.00     0.001 A 
ATOM     71  C   UNL A   1      39.379  24.462  27.753  1.00  0.00     0.001 A 
ATOM     72  C   UNL A   1      39.839  24.422  26.438  1.00  0.00     0.000 A 
ENDBRANCH  48  67
BRANCH  60  73
ATOM     73  C   UNL A   1      45.805  28.757  31.829  1.00  0.00    -0.014 A 
ATOM     74  C   UNL A   1      46.935  28.992  31.033  1.00  0.00     0.009 A 
ATOM     75  C   UNL A   1      45.934  27.962  32.980  1.00  0.00     0.009 A 
ATOM     76  C   UNL A   1      48.166  28.423  31.372  1.00  0.00     0.001 A 
ATOM     77  C   UNL A   1      47.170  27.418  33.330  1.00  0.00     0.001 A 
ATOM     78  C   UNL A   1      48.283  27.643  32.522  1.00  0.00     0.000 A 
ENDBRANCH  60  73
ENDBRANCH  34  35
ENDBRANCH  26  29
ENDBRANCH  24  25
ENDBRANCH  23  24
ENDBRANCH  22  23
ENDBRANCH   3  22
TORSDOF 15
ENDMDL
MODEL 2
REMARK VINA RESULT:      -8.8      5.678     11.694
REMARK SMILES O=C(/C=C/c1cc(F)cc(COCc2ccco2)c1)NCCCNC(=O)c1ccc(-c2c3nc(c(-c4ccccc4)c4ccc([nH]4)c(-c4ccccc4)c4nc(c(-c5ccccc5)c5ccc2[nH]5)C=C4)C=C3)cc1
REMARK SMILES IDX 1 1 2 2 20 3 3 5 4 6 5 7 6 8 19 9 7 10 10 11 8 12 9 13 11 14
REMARK SMILES IDX 12 15 13 16 14 17 15 18 18 19 16 20 17 21 21 22 22 23 23 24
REMARK SMILES IDX 24 25 25 26 26 28 27 29 28 30 74 31 29 32 73 33 30 34 31 35
REMARK SMILES IDX 32 36 67 37 33 38 72 39 66 40 68 41 34 42 71 43 65 44 64 45
REMARK SMILES IDX 35 47 57 48 42 49 56 50 43 51 46 52 55 53 69 54 44 55 45 56
REMARK SMILES IDX 54 58 70 59 47 60 36 61 37 62 41 63 38 64 40 65 39 66 58 67
REMARK SMILES IDX 59 68 63 69 60 70 62 71 61 72 48 73 49 74 53 75 50 76 52 77
REMARK SMILES IDX 51 78
REMARK H PARENT 20 4 24 27 68 46 46 57
REMARK Flexibility Score: inf
ROOT
ATOM      1  O   UNL A   1      44.604  21.089  23.785  1.00  0.00    -0.270 OA
ATOM      2  C   UNL A   1      45.426  21.244  24.679  1.00  0.00     0.244 C 
ATOM      3  N   UNL A   1      45.879  20.239  25.493  1.00  0.00    -0.352 N 
ATOM      4  H   UNL A   1      46.557  20.446  26.178  1.00  0.00     0.163 HD
ENDROOT
BRANCH   2   5
ATOM      5  C   UNL A   1      45.932  22.607  24.986  1.00  0.00     0.072 C 
ATOM      6  C   UNL A   1      45.341  23.757  24.625  1.00  0.00     0.014 C 
BRANCH   6   7
ATOM      7  C   UNL A   1      45.867  25.083  24.987  1.00  0.00    -0.022 A 
ATOM      8  C   UNL A   1      45.053  26.102  25.491  1.00  0.00     0.047 A 
ATOM      9  C   UNL A   1      47.243  25.323  24.857  1.00  0.00     0.014 A 
ATOM     10  C   UNL A   1      45.606  27.336  25.823  1.00  0.00     0.124 A 
ATOM     11  C   UNL A   1      47.800  26.572  25.180  1.00  0.00    -0.019 A 
ATOM     12  F   UNL A   1      44.811  28.306  26.290  1.00  0.00    -0.207 F 
ATOM     13  C   UNL A   1      46.965  27.582  25.670  1.00  0.00     0.045 A 
BRANCH  11  14
ATOM     14  C   UNL A   1      49.266  26.840  24.942  1.00  0.00     0.196 C 
BRANCH  14  15
ATOM     15  O   UNL A   1      49.505  27.828  23.939  1.00  0.00    -0.369 OA
BRANCH  15  16
ATOM     16  C   UNL A   1      49.155  27.451  22.604  1.00  0.00     0.235 C 
BRANCH  16  17
ATOM     17  C   UNL A   1      50.258  27.760  21.658  1.00  0.00     0.129 A 
ATOM     18  C   UNL A   1      51.488  27.182  21.422  1.00  0.00     0.048 A 
ATOM     19  O   UNL A   1      50.114  28.872  20.875  1.00  0.00    -0.467 OA
ATOM     20  C   UNL A   1      52.121  27.973  20.432  1.00  0.00     0.042 A 
ATOM     21  C   UNL A   1      51.239  28.981  20.125  1.00  0.00     0.195 A 
ENDBRANCH  16  17
ENDBRANCH  15  16
ENDBRANCH  14  15
ENDBRANCH  11  14
ENDBRANCH   6   7
ENDBRANCH   2   5
BRANCH   3  22
ATOM     22  C   UNL A   1      45.391  18.878  25.377  1.00  0.00     0.118 C 
BRANCH  22  23
ATOM     23  C   UNL A   1      43.916  18.803  24.999  1.00  0.00     0.042 C 
BRANCH  23  24
ATOM     24  C   UNL A   1      42.978  18.510  26.167  1.00  0.00     0.118 C 
BRANCH  24  25
ATOM     25  N   UNL A   1      41.573  18.745  25.857  1.00  0.00    -0.352 N 
ATOM     26  C   UNL A   1      40.786  19.845  26.102  1.00  0.00     0.251 C 
ATOM     27  H   UNL A   1      41.117  18.001  25.401  1.00  0.00     0.163 HD
ATOM     28  O   UNL A   1      39.583  19.804  25.858  1.00  0.00    -0.269 OA
BRANCH  26  29
ATOM     29  C   UNL A   1      41.373  21.069  26.688  1.00  0.00     0.039 A 
ATOM     30  C   UNL A   1      41.820  22.081  25.831  1.00  0.00     0.014 A 
ATOM     31  C   UNL A   1      41.479  21.226  28.072  1.00  0.00     0.014 A 
ATOM     32  C   UNL A   1      42.286  23.287  26.363  1.00  0.00     0.010 A 
ATOM     33  C   UNL A   1      41.881  22.451  28.598  1.00  0.00     0.010 A 
ATOM     34  C   UNL A   1      42.275  23.498  27.750  1.00  0.00    -0.014 A 
BRANCH  34  35
ATOM     35  C   UNL A   1      42.635  24.811  28.344  1.00  0.00     0.031 A 
ATOM     36  C   UNL A   1      41.586  25.873  28.524  1.00  0.00     0.074 A 
ATOM     37  C   UNL A   1      43.923  25.086  28.627  1.00  0.00     0.049 A 
ATOM     38  N   UNL A   1      41.729  27.123  28.883  1.00  0.00    -0.248 NA
ATOM     39  C   UNL A   1      40.196  25.483  28.237  1.00  0.00     0.031 C 
ATOM     40  C   UNL A   1      45.044  24.155  28.477  1.00  0.00     0.029 A 
ATOM     41  N   UNL A   1      44.512  26.241  29.080  1.00  0.00    -0.354 N 
ATOM     42  C   UNL A   1      40.456  27.676  28.841  1.00  0.00     0.074 A 
ATOM     43  C   UNL A   1      39.559  26.635  28.387  1.00  0.00     0.031 C 
ATOM     44  C   UNL A   1      46.179  24.769  28.843  1.00  0.00     0.029 A 
ATOM     45  C   UNL A   1      45.877  26.151  29.205  1.00  0.00     0.049 A 
ATOM     46  H   UNL A   1      44.003  27.055  29.297  1.00  0.00     0.167 HD
ATOM     47  C   UNL A   1      40.067  28.933  29.162  1.00  0.00     0.031 A 
ATOM     48  C   UNL A   1      46.789  27.080  29.550  1.00  0.00     0.031 A 
ATOM     49  C   UNL A   1      40.955  29.965  29.625  1.00  0.00     0.049 A 
ATOM     50  C   UNL A   1      46.334  28.475  29.875  1.00  0.00     0.074 A 
ATOM     51  C   UNL A   1      40.645  31.254  30.023  1.00  0.00     0.029 A 
ATOM     52  N   UNL A   1      42.329  29.825  29.752  1.00  0.00    -0.354 N 
ATOM     53  N   UNL A   1      45.121  28.968  29.877  1.00  0.00    -0.248 NA
ATOM     54  C   UNL A   1      47.378  29.442  30.251  1.00  0.00     0.031 C 
ATOM     55  C   UNL A   1      41.837  31.911  30.346  1.00  0.00     0.029 A 
ATOM     56  C   UNL A   1      42.882  31.013  30.202  1.00  0.00     0.049 A 
ATOM     57  H   UNL A   1      42.835  29.006  29.552  1.00  0.00     0.167 HD
ATOM     58  C   UNL A   1      45.249  30.289  30.287  1.00  0.00     0.074 A 
ATOM     59  C   UNL A   1      46.659  30.519  30.530  1.00  0.00     0.031 C 
ATOM     60  C   UNL A   1      44.283  31.225  30.452  1.00  0.00     0.031 A 
BRANCH  47  61
ATOM     61  C   UNL A   1      38.609  29.267  29.010  1.00  0.00    -0.014 A 
ATOM     62  C   UNL A   1      37.725  29.186  30.097  1.00  0.00     0.009 A 
ATOM     63  C   UNL A   1      38.120  29.706  27.769  1.00  0.00     0.009 A 
ATOM     64  C   UNL A   1      36.375  29.503  29.937  1.00  0.00     0.001 A 
ATOM     65  C   UNL A   1      36.776  30.052  27.620  1.00  0.00     0.001 A 
ATOM     66  C   UNL A   1      35.903  29.940  28.700  1.00  0.00     0.000 A 
ENDBRANCH  47  61
BRANCH  48  67
ATOM     67  C   UNL A   1      48.231  26.721  29.608  1.00  0.00    -0.014 A 
ATOM     68  C   UNL A   1      48.766  26.123  30.760  1.00  0.00     0.009 A 
ATOM     69  C   UNL A   1      49.079  26.978  28.520  1.00  0.00     0.009 A 
ATOM     70  C   UNL A   1      50.126  25.814  30.829  1.00  0.00     0.001 A 
ATOM     71  C   UNL A   1      50.432  26.640  28.581  1.00  0.00     0.001 A 
ATOM     72  C   UNL A   1      50.956  26.067  29.738  1.00  0.00     0.000 A 
ENDBRANCH  48  67
BRANCH  60  73
ATOM     73  C   UNL A   1      44.704  32.571  30.968  1.00  0.00    -0.014 A 
ATOM     74  C   UNL A   1      44.786  32.836  32.343  1.00  0.00     0.009 A 
ATOM     75  C   UNL A   1      45.087  33.570  30.057  1.00  0.00     0.009 A 
ATOM     76  C   UNL A   1      45.221  34.084  32.795  1.00  0.00     0.001 A 
ATOM     77  C   UNL A   1      45.547  34.805  30.513  1.00  0.00     0.001 A 
ATOM     78  C   UNL A   1      45.607  35.064  31.881  1.00  0.00     0.000 A 
ENDBRANCH  60  73
ENDBRANCH  34  35
ENDBRANCH  26  29
ENDBRANCH  24  25
ENDBRANCH  23  24
ENDBRANCH  22  23
ENDBRANCH   3  22
TORSDOF 15
ENDMDL
MODEL 3
REMARK VINA RESULT:      -8.7      6.645     12.491
REMARK SMILES O=C(/C=C/c1cc(F)cc(COCc2ccco2)c1)NCCCNC(=O)c1ccc(-c2c3nc(c(-c4ccccc4)c4ccc([nH]4)c(-c4ccccc4)c4nc(c(-c5ccccc5)c5ccc2[nH]5)C=C4)C=C3)cc1
REMARK SMILES IDX 1 1 2 2 20 3 3 5 4 6 5 7 6 8 19 9 7 10 10 11 8 12 9 13 11 14
REMARK SMILES IDX 12 15 13 16 14 17 15 18 18 19 16 20 17 21 21 22 22 23 23 24
REMARK SMILES IDX 24 25 25 26 26 28 27 29 28 30 74 31 29 32 73 33 30 34 31 35
REMARK SMILES IDX 32 36 67 37 33 38 72 39 66 40 68 41 34 42 71 43 65 44 64 45
REMARK SMILES IDX 35 47 57 48 42 49 56 50 43 51 46 52 55 53 69 54 44 55 45 56
REMARK SMILES IDX 54 58 70 59 47 60 36 61 37 62 41 63 38 64 40 65 39 66 58 67
REMARK SMILES IDX 59 68 63 69 60 70 62 71 61 72 48 73 49 74 53 75 50 76 52 77
REMARK SMILES IDX 51 78
REMARK H PARENT 20 4 24 27 68 46 46 57
REMARK Flexibility Score: inf
ROOT
ATOM      1  O   UNL A   1      39.793  23.171  26.730  1.00  0.00    -0.270 OA
ATOM      2  C   UNL A   1      39.234  22.212  26.213  1.00  0.00     0.244 C 
ATOM      3  N   UNL A   1      39.851  21.021  25.931  1.00  0.00    -0.352 N 
ATOM      4  H   UNL A   1      39.323  20.292  25.531  1.00  0.00     0.163 HD
ENDROOT
BRANCH   2   5
ATOM      5  C   UNL A   1      37.819  22.331  25.778  1.00  0.00     0.072 C 
ATOM      6  C   UNL A   1      37.281  21.731  24.704  1.00  0.00     0.014 C 
BRANCH   6   7
ATOM      7  C   UNL A   1      35.862  21.855  24.337  1.00  0.00    -0.022 A 
ATOM      8  C   UNL A   1      35.386  22.877  23.509  1.00  0.00     0.047 A 
ATOM      9  C   UNL A   1      34.956  20.891  24.804  1.00  0.00     0.014 A 
ATOM     10  C   UNL A   1      34.033  22.941  23.189  1.00  0.00     0.124 A 
ATOM     11  C   UNL A   1      33.587  20.963  24.491  1.00  0.00    -0.019 A 
ATOM     12  F   UNL A   1      33.591  23.935  22.407  1.00  0.00    -0.207 F 
ATOM     13  C   UNL A   1      33.132  22.001  23.673  1.00  0.00     0.045 A 
BRANCH  11  14
ATOM     14  C   UNL A   1      32.615  19.971  25.082  1.00  0.00     0.196 C 
BRANCH  14  15
ATOM     15  O   UNL A   1      31.858  19.266  24.097  1.00  0.00    -0.369 OA
BRANCH  15  16
ATOM     16  C   UNL A   1      32.606  18.376  23.263  1.00  0.00     0.235 C 
BRANCH  16  17
ATOM     17  C   UNL A   1      33.392  17.416  24.080  1.00  0.00     0.129 A 
ATOM     18  C   UNL A   1      34.744  17.179  24.216  1.00  0.00     0.048 A 
ATOM     19  O   UNL A   1      32.688  16.512  24.826  1.00  0.00    -0.467 OA
ATOM     20  C   UNL A   1      34.873  16.083  25.104  1.00  0.00     0.042 A 
ATOM     21  C   UNL A   1      33.594  15.722  25.454  1.00  0.00     0.195 A 
ENDBRANCH  16  17
ENDBRANCH  15  16
ENDBRANCH  14  15
ENDBRANCH  11  14
ENDBRANCH   6   7
ENDBRANCH   2   5
BRANCH   3  22
ATOM     22  C   UNL A   1      41.258  20.800  26.205  1.00  0.00     0.118 C 
BRANCH  22  23
ATOM     23  C   UNL A   1      41.661  19.333  26.116  1.00  0.00     0.042 C 
BRANCH  23  24
ATOM     24  C   UNL A   1      43.150  19.071  26.324  1.00  0.00     0.118 C 
BRANCH  24  25
ATOM     25  N   UNL A   1      43.851  18.695  25.102  1.00  0.00    -0.352 N 
ATOM     26  C   UNL A   1      44.630  19.454  24.262  1.00  0.00     0.251 C 
ATOM     27  H   UNL A   1      43.750  17.752  24.838  1.00  0.00     0.163 HD
ATOM     28  O   UNL A   1      45.047  18.971  23.211  1.00  0.00    -0.269 OA
BRANCH  26  29
ATOM     29  C   UNL A   1      44.945  20.859  24.597  1.00  0.00     0.039 A 
ATOM     30  C   UNL A   1      44.600  21.863  23.687  1.00  0.00     0.014 A 
ATOM     31  C   UNL A   1      45.569  21.190  25.802  1.00  0.00     0.014 A 
ATOM     32  C   UNL A   1      44.796  23.205  24.025  1.00  0.00     0.010 A 
ATOM     33  C   UNL A   1      45.703  22.528  26.164  1.00  0.00     0.010 A 
ATOM     34  C   UNL A   1      45.305  23.548  25.286  1.00  0.00    -0.014 A 
BRANCH  34  35
ATOM     35  C   UNL A   1      45.402  24.962  25.733  1.00  0.00     0.031 A 
ATOM     36  C   UNL A   1      46.727  25.671  25.716  1.00  0.00     0.074 A 
ATOM     37  C   UNL A   1      44.318  25.576  26.248  1.00  0.00     0.049 A 
ATOM     38  N   UNL A   1      47.042  26.846  26.201  1.00  0.00    -0.248 NA
ATOM     39  C   UNL A   1      47.852  24.954  25.096  1.00  0.00     0.031 C 
ATOM     40  C   UNL A   1      42.977  24.994  26.346  1.00  0.00     0.029 A 
ATOM     41  N   UNL A   1      44.180  26.821  26.810  1.00  0.00    -0.354 N 
ATOM     42  C   UNL A   1      48.402  26.998  25.968  1.00  0.00     0.074 A 
ATOM     43  C   UNL A   1      48.860  25.781  25.332  1.00  0.00     0.031 C 
ATOM     44  C   UNL A   1      42.152  25.884  26.919  1.00  0.00     0.029 A 
ATOM     45  C   UNL A   1      42.913  27.078  27.275  1.00  0.00     0.049 A 
ATOM     46  H   UNL A   1      44.919  27.469  26.872  1.00  0.00     0.167 HD
ATOM     47  C   UNL A   1      49.197  28.058  26.248  1.00  0.00     0.031 A 
ATOM     48  C   UNL A   1      42.420  28.143  27.935  1.00  0.00     0.031 A 
ATOM     49  C   UNL A   1      48.741  29.273  26.869  1.00  0.00     0.049 A 
ATOM     50  C   UNL A   1      43.329  29.296  28.259  1.00  0.00     0.074 A 
ATOM     51  C   UNL A   1      49.462  30.422  27.146  1.00  0.00     0.029 A 
ATOM     52  N   UNL A   1      47.446  29.496  27.309  1.00  0.00    -0.354 N 
ATOM     53  N   UNL A   1      44.603  29.444  27.988  1.00  0.00    -0.248 NA
ATOM     54  C   UNL A   1      42.730  30.433  28.974  1.00  0.00     0.031 C 
ATOM     55  C   UNL A   1      48.615  31.323  27.798  1.00  0.00     0.029 A 
ATOM     56  C   UNL A   1      47.352  30.756  27.876  1.00  0.00     0.049 A 
ATOM     57  H   UNL A   1      46.704  28.855  27.231  1.00  0.00     0.167 HD
ATOM     58  C   UNL A   1      44.948  30.700  28.468  1.00  0.00     0.074 A 
ATOM     59  C   UNL A   1      43.749  31.276  29.041  1.00  0.00     0.031 C 
ATOM     60  C   UNL A   1      46.151  31.323  28.430  1.00  0.00     0.031 A 
BRANCH  47  61
ATOM     61  C   UNL A   1      50.653  27.945  25.894  1.00  0.00    -0.014 A 
ATOM     62  C   UNL A   1      51.588  27.433  26.808  1.00  0.00     0.009 A 
ATOM     63  C   UNL A   1      51.090  28.318  24.613  1.00  0.00     0.009 A 
ATOM     64  C   UNL A   1      52.936  27.332  26.458  1.00  0.00     0.001 A 
ATOM     65  C   UNL A   1      52.433  28.187  24.256  1.00  0.00     0.001 A 
ATOM     66  C   UNL A   1      53.356  27.705  25.182  1.00  0.00     0.000 A 
ENDBRANCH  47  61
BRANCH  48  67
ATOM     67  C   UNL A   1      40.989  28.174  28.336  1.00  0.00    -0.014 A 
ATOM     68  C   UNL A   1      40.046  28.852  27.547  1.00  0.00     0.009 A 
ATOM     69  C   UNL A   1      40.558  27.532  29.507  1.00  0.00     0.009 A 
ATOM     70  C   UNL A   1      38.706  28.908  27.937  1.00  0.00     0.001 A 
ATOM     71  C   UNL A   1      39.212  27.565  29.879  1.00  0.00     0.001 A 
ATOM     72  C   UNL A   1      38.290  28.260  29.099  1.00  0.00     0.000 A 
ENDBRANCH  48  67
BRANCH  60  73
ATOM     73  C   UNL A   1      46.226  32.719  28.977  1.00  0.00    -0.014 A 
ATOM     74  C   UNL A   1      46.623  32.968  30.299  1.00  0.00     0.009 A 
ATOM     75  C   UNL A   1      45.956  33.807  28.130  1.00  0.00     0.009 A 
ATOM     76  C   UNL A   1      46.725  34.280  30.769  1.00  0.00     0.001 A 
ATOM     77  C   UNL A   1      46.085  35.116  28.595  1.00  0.00     0.001 A 
ATOM     78  C   UNL A   1      46.463  35.352  29.916  1.00  0.00     0.000 A 
ENDBRANCH  60  73
ENDBRANCH  34  35
ENDBRANCH  26  29
ENDBRANCH  24  25
ENDBRANCH  23  24
ENDBRANCH  22  23
ENDBRANCH   3  22
TORSDOF 15
ENDMDL
