MODEL 1
REMARK VINA RESULT:     -10.9      0.000      0.000
REMARK SMILES CC[C@H]1CCC[C@@H]([C@@H](Cc2ccccc2)C(=O)NCCCNC(=O)c2ccc(-c3c4nc(c(-c5ccccc5)c5ccc([nH]5)c(-c5ccccc5)c5nc(c(-c6ccccc6)c6ccc3[nH]6)C=C5)C=C4)cc2)C1
REMARK SMILES IDX 20 1 19 2 18 3 16 4 17 5 8 7 7 8 3 9 4 10 73 11 5 12 6 13
REMARK SMILES IDX 2 14 1 15 9 16 10 17 11 18 15 19 12 20 14 21 13 22 21 23
REMARK SMILES IDX 22 24 23 25 24 27 25 28 26 29 72 30 27 31 71 32 28 33 29 34
REMARK SMILES IDX 30 35 65 36 31 37 70 38 64 39 66 40 32 41 69 42 63 43 62 44
REMARK SMILES IDX 33 46 55 47 40 48 54 49 41 50 44 51 53 52 67 53 42 54 43 55
REMARK SMILES IDX 52 57 68 58 45 59 34 60 35 61 39 62 36 63 38 64 37 65 56 66
REMARK SMILES IDX 57 67 61 68 58 69 60 70 59 71 46 72 47 73 51 74 48 75 50 76
REMARK SMILES IDX 49 77
REMARK H PARENT 18 6 22 26 66 45 44 56
REMARK Flexibility Score: inf
ROOT
ATOM      1  C   UNL A   1      37.199  22.115  24.273  1.00  0.00     0.042 C 
ENDROOT
BRANCH   1   2
ATOM      2  C   UNL A   1      35.799  22.775  24.084  1.00  0.00     0.117 C 
BRANCH   2   3
ATOM      3  N   UNL A   1      35.678  24.119  24.693  1.00  0.00    -0.356 N 
ATOM      4  C   UNL A   1      34.519  24.563  25.322  1.00  0.00     0.223 C 
ATOM      5  O   UNL A   1      33.906  23.809  26.078  1.00  0.00    -0.275 OA
ATOM      6  H   UNL A   1      36.452  24.726  24.652  1.00  0.00     0.163 HD
BRANCH   4   7
ATOM      7  C   UNL A   1      34.048  26.052  25.069  1.00  0.00     0.086 C 
BRANCH   7   8
ATOM      8  C   UNL A   1      33.589  26.431  23.606  1.00  0.00     0.002 C 
ATOM      9  C   UNL A   1      30.997  26.262  23.270  1.00  0.00    -0.011 C 
ATOM     10  C   UNL A   1      30.956  27.647  22.601  1.00  0.00     0.003 C 
ATOM     11  C   UNL A   1      32.389  25.736  22.996  1.00  0.00     0.008 C 
ATOM     12  C   UNL A   1      32.201  28.531  22.801  1.00  0.00     0.001 C 
ATOM     13  C   UNL A   1      33.569  27.894  23.135  1.00  0.00     0.004 C 
BRANCH   9  14
ATOM     14  C   UNL A   1      30.332  26.340  24.661  1.00  0.00     0.000 C 
ATOM     15  C   UNL A   1      30.183  25.199  25.647  1.00  0.00     0.004 C 
ENDBRANCH   9  14
ENDBRANCH   7   8
BRANCH   7  16
ATOM     16  C   UNL A   1      33.299  26.713  26.302  1.00  0.00     0.049 C 
BRANCH  16  17
ATOM     17  C   UNL A   1      33.212  28.209  26.581  1.00  0.00    -0.047 A 
ATOM     18  C   UNL A   1      32.003  28.911  26.491  1.00  0.00     0.004 A 
ATOM     19  C   UNL A   1      34.360  28.959  26.889  1.00  0.00     0.004 A 
ATOM     20  C   UNL A   1      31.901  30.257  26.883  1.00  0.00     0.000 A 
ATOM     21  C   UNL A   1      34.272  30.317  27.242  1.00  0.00     0.000 A 
ATOM     22  C   UNL A   1      33.035  30.953  27.288  1.00  0.00     0.000 A 
ENDBRANCH  16  17
ENDBRANCH   7  16
ENDBRANCH   4   7
ENDBRANCH   2   3
ENDBRANCH   1   2
BRANCH   1  23
ATOM     23  C   UNL A   1      37.804  22.146  25.685  1.00  0.00     0.118 C 
BRANCH  23  24
ATOM     24  N   UNL A   1      39.259  22.199  25.685  1.00  0.00    -0.352 N 
ATOM     25  C   UNL A   1      40.212  22.964  26.309  1.00  0.00     0.251 C 
ATOM     26  H   UNL A   1      39.656  21.522  25.092  1.00  0.00     0.163 HD
ATOM     27  O   UNL A   1      41.389  22.598  26.301  1.00  0.00    -0.269 OA
BRANCH  25  28
ATOM     28  C   UNL A   1      39.887  24.331  26.750  1.00  0.00     0.039 A 
ATOM     29  C   UNL A   1      39.304  24.482  28.018  1.00  0.00     0.014 A 
ATOM     30  C   UNL A   1      40.370  25.436  26.069  1.00  0.00     0.014 A 
ATOM     31  C   UNL A   1      39.354  25.715  28.663  1.00  0.00     0.010 A 
ATOM     32  C   UNL A   1      40.551  26.617  26.763  1.00  0.00     0.010 A 
ATOM     33  C   UNL A   1      40.068  26.765  28.073  1.00  0.00    -0.014 A 
BRANCH  33  34
ATOM     34  C   UNL A   1      40.367  28.030  28.784  1.00  0.00     0.031 A 
ATOM     35  C   UNL A   1      41.648  28.140  29.563  1.00  0.00     0.074 A 
ATOM     36  C   UNL A   1      39.428  28.992  28.870  1.00  0.00     0.049 A 
ATOM     37  N   UNL A   1      41.992  29.018  30.467  1.00  0.00    -0.248 NA
ATOM     38  C   UNL A   1      42.639  27.070  29.351  1.00  0.00     0.031 C 
ATOM     39  C   UNL A   1      38.112  28.973  28.223  1.00  0.00     0.029 A 
ATOM     40  N   UNL A   1      39.434  30.176  29.564  1.00  0.00    -0.354 N 
ATOM     41  C   UNL A   1      43.197  28.561  30.984  1.00  0.00     0.074 A 
ATOM     42  C   UNL A   1      43.494  27.304  30.334  1.00  0.00     0.031 C 
ATOM     43  C   UNL A   1      37.459  30.109  28.515  1.00  0.00     0.029 A 
ATOM     44  C   UNL A   1      38.282  30.910  29.411  1.00  0.00     0.049 A 
ATOM     45  H   UNL A   1      40.192  30.471  30.118  1.00  0.00     0.167 HD
ATOM     46  C   UNL A   1      43.999  29.149  31.901  1.00  0.00     0.031 A 
ATOM     47  C   UNL A   1      37.930  32.095  29.943  1.00  0.00     0.031 A 
ATOM     48  C   UNL A   1      43.738  30.440  32.474  1.00  0.00     0.049 A 
ATOM     49  C   UNL A   1      38.884  32.779  30.880  1.00  0.00     0.074 A 
ATOM     50  C   UNL A   1      44.532  31.181  33.328  1.00  0.00     0.029 A 
ATOM     51  N   UNL A   1      42.602  31.194  32.219  1.00  0.00    -0.354 N 
ATOM     52  N   UNL A   1      40.045  32.363  31.324  1.00  0.00    -0.248 NA
ATOM     53  C   UNL A   1      38.483  34.101  31.381  1.00  0.00     0.031 C 
ATOM     54  C   UNL A   1      43.866  32.380  33.606  1.00  0.00     0.029 A 
ATOM     55  C   UNL A   1      42.675  32.397  32.897  1.00  0.00     0.049 A 
ATOM     56  H   UNL A   1      41.855  30.914  31.643  1.00  0.00     0.167 HD
ATOM     57  C   UNL A   1      40.527  33.381  32.135  1.00  0.00     0.074 A 
ATOM     58  C   UNL A   1      39.538  34.441  32.110  1.00  0.00     0.031 C 
ATOM     59  C   UNL A   1      41.682  33.436  32.841  1.00  0.00     0.031 A 
BRANCH  46  60
ATOM     60  C   UNL A   1      45.236  28.404  32.313  1.00  0.00    -0.014 A 
ATOM     61  C   UNL A   1      46.469  28.631  31.681  1.00  0.00     0.009 A 
ATOM     62  C   UNL A   1      45.167  27.456  33.346  1.00  0.00     0.009 A 
ATOM     63  C   UNL A   1      47.595  27.888  32.037  1.00  0.00     0.001 A 
ATOM     64  C   UNL A   1      46.303  26.738  33.723  1.00  0.00     0.001 A 
ATOM     65  C   UNL A   1      47.512  26.944  33.061  1.00  0.00     0.000 A 
ENDBRANCH  46  60
BRANCH  47  66
ATOM     66  C   UNL A   1      36.642  32.731  29.568  1.00  0.00    -0.014 A 
ATOM     67  C   UNL A   1      35.542  32.651  30.436  1.00  0.00     0.009 A 
ATOM     68  C   UNL A   1      36.500  33.422  28.355  1.00  0.00     0.009 A 
ATOM     69  C   UNL A   1      34.318  33.222  30.085  1.00  0.00     0.001 A 
ATOM     70  C   UNL A   1      35.281  34.015  28.018  1.00  0.00     0.001 A 
ATOM     71  C   UNL A   1      34.189  33.907  28.879  1.00  0.00     0.000 A 
ENDBRANCH  47  66
BRANCH  59  72
ATOM     72  C   UNL A   1      41.955  34.697  33.605  1.00  0.00    -0.014 A 
ATOM     73  C   UNL A   1      41.460  34.879  34.905  1.00  0.00     0.009 A 
ATOM     74  C   UNL A   1      42.760  35.693  33.032  1.00  0.00     0.009 A 
ATOM     75  C   UNL A   1      41.746  36.050  35.608  1.00  0.00     0.001 A 
ATOM     76  C   UNL A   1      43.066  36.850  33.747  1.00  0.00     0.001 A 
ATOM     77  C   UNL A   1      42.553  37.031  35.030  1.00  0.00     0.000 A 
ENDBRANCH  59  72
ENDBRANCH  33  34
ENDBRANCH  25  28
ENDBRANCH  23  24
ENDBRANCH   1  23
TORSDOF 14
ENDMDL
MODEL 2
REMARK VINA RESULT:     -10.8      3.081      8.358
REMARK SMILES CC[C@H]1CCC[C@@H]([C@@H](Cc2ccccc2)C(=O)NCCCNC(=O)c2ccc(-c3c4nc(c(-c5ccccc5)c5ccc([nH]5)c(-c5ccccc5)c5nc(c(-c6ccccc6)c6ccc3[nH]6)C=C5)C=C4)cc2)C1
REMARK SMILES IDX 20 1 19 2 18 3 16 4 17 5 8 7 7 8 3 9 4 10 73 11 5 12 6 13
REMARK SMILES IDX 2 14 1 15 9 16 10 17 11 18 15 19 12 20 14 21 13 22 21 23
REMARK SMILES IDX 22 24 23 25 24 27 25 28 26 29 72 30 27 31 71 32 28 33 29 34
REMARK SMILES IDX 30 35 65 36 31 37 70 38 64 39 66 40 32 41 69 42 63 43 62 44
REMARK SMILES IDX 33 46 55 47 40 48 54 49 41 50 44 51 53 52 67 53 42 54 43 55
REMARK SMILES IDX 52 57 68 58 45 59 34 60 35 61 39 62 36 63 38 64 37 65 56 66
REMARK SMILES IDX 57 67 61 68 58 69 60 70 59 71 46 72 47 73 51 74 48 75 50 76
REMARK SMILES IDX 49 77
REMARK H PARENT 18 6 22 26 66 45 44 56
REMARK Flexibility Score: inf
ROOT
ATOM      1  C   UNL A   1      33.108  29.565  27.231  1.00  0.00     0.042 C 
ENDROOT
BRANCH   1   2
ATOM      2  C   UNL A   1      32.974  28.878  25.838  1.00  0.00     0.117 C 
BRANCH   2   3
ATOM      3  N   UNL A   1      33.940  27.779  25.612  1.00  0.00    -0.356 N 
ATOM      4  C   UNL A   1      33.654  26.671  24.821  1.00  0.00     0.223 C 
ATOM      5  O   UNL A   1      33.077  26.820  23.744  1.00  0.00    -0.275 OA
ATOM      6  H   UNL A   1      34.826  27.834  26.039  1.00  0.00     0.163 HD
BRANCH   4   7
ATOM      7  C   UNL A   1      34.122  25.245  25.323  1.00  0.00     0.086 C 
BRANCH   7   8
ATOM      8  C   UNL A   1      33.122  24.433  26.238  1.00  0.00     0.002 C 
ATOM      9  C   UNL A   1      31.328  23.105  24.868  1.00  0.00    -0.011 C 
ATOM     10  C   UNL A   1      31.591  21.830  25.688  1.00  0.00     0.003 C 
ATOM     11  C   UNL A   1      31.686  24.247  25.794  1.00  0.00     0.008 C 
ATOM     12  C   UNL A   1      32.890  21.815  26.515  1.00  0.00     0.001 C 
ATOM     13  C   UNL A   1      33.563  23.139  26.942  1.00  0.00     0.004 C 
BRANCH   9  14
ATOM     14  C   UNL A   1      31.869  22.918  23.434  1.00  0.00     0.000 C 
ATOM     15  C   UNL A   1      32.503  21.662  22.872  1.00  0.00     0.004 C 
ENDBRANCH   9  14
ENDBRANCH   7   8
BRANCH   7  16
ATOM     16  C   UNL A   1      35.023  24.454  24.284  1.00  0.00     0.049 C 
BRANCH  16  17
ATOM     17  C   UNL A   1      36.055  23.392  24.642  1.00  0.00    -0.047 A 
ATOM     18  C   UNL A   1      37.224  23.702  25.350  1.00  0.00     0.004 A 
ATOM     19  C   UNL A   1      35.902  22.059  24.225  1.00  0.00     0.004 A 
ATOM     20  C   UNL A   1      38.102  22.701  25.798  1.00  0.00     0.000 A 
ATOM     21  C   UNL A   1      36.799  21.058  24.633  1.00  0.00     0.000 A 
ATOM     22  C   UNL A   1      37.872  21.371  25.463  1.00  0.00     0.000 A 
ENDBRANCH  16  17
ENDBRANCH   7  16
ENDBRANCH   4   7
ENDBRANCH   2   3
ENDBRANCH   1   2
BRANCH   1  23
ATOM     23  C   UNL A   1      33.695  30.985  27.259  1.00  0.00     0.118 C 
BRANCH  23  24
ATOM     24  N   UNL A   1      34.031  31.441  28.600  1.00  0.00    -0.352 N 
ATOM     25  C   UNL A   1      35.151  31.416  29.392  1.00  0.00     0.251 C 
ATOM     26  H   UNL A   1      33.269  31.873  29.048  1.00  0.00     0.163 HD
ATOM     27  O   UNL A   1      35.199  32.119  30.403  1.00  0.00    -0.269 OA
BRANCH  25  28
ATOM     28  C   UNL A   1      36.170  30.372  29.194  1.00  0.00     0.039 A 
ATOM     29  C   UNL A   1      36.869  30.371  27.976  1.00  0.00     0.014 A 
ATOM     30  C   UNL A   1      36.610  29.592  30.250  1.00  0.00     0.014 A 
ATOM     31  C   UNL A   1      38.092  29.713  27.878  1.00  0.00     0.010 A 
ATOM     32  C   UNL A   1      37.886  29.065  30.200  1.00  0.00     0.010 A 
ATOM     33  C   UNL A   1      38.651  29.138  29.025  1.00  0.00    -0.014 A 
BRANCH  33  34
ATOM     34  C   UNL A   1      40.039  28.622  29.068  1.00  0.00     0.031 A 
ATOM     35  C   UNL A   1      41.159  29.574  29.379  1.00  0.00     0.074 A 
ATOM     36  C   UNL A   1      40.303  27.363  28.664  1.00  0.00     0.049 A 
ATOM     37  N   UNL A   1      42.445  29.422  29.206  1.00  0.00    -0.248 NA
ATOM     38  C   UNL A   1      40.769  30.906  29.876  1.00  0.00     0.031 C 
ATOM     39  C   UNL A   1      39.310  26.361  28.262  1.00  0.00     0.029 A 
ATOM     40  N   UNL A   1      41.503  26.716  28.506  1.00  0.00    -0.354 N 
ATOM     41  C   UNL A   1      43.004  30.659  29.497  1.00  0.00     0.074 A 
ATOM     42  C   UNL A   1      41.916  31.562  29.801  1.00  0.00     0.031 C 
ATOM     43  C   UNL A   1      39.939  25.217  27.947  1.00  0.00     0.029 A 
ATOM     44  C   UNL A   1      41.376  25.420  28.070  1.00  0.00     0.049 A 
ATOM     45  H   UNL A   1      42.371  27.141  28.689  1.00  0.00     0.167 HD
ATOM     46  C   UNL A   1      44.311  31.007  29.532  1.00  0.00     0.031 A 
ATOM     47  C   UNL A   1      42.319  24.500  27.794  1.00  0.00     0.031 A 
ATOM     48  C   UNL A   1      45.386  30.081  29.316  1.00  0.00     0.049 A 
ATOM     49  C   UNL A   1      43.765  24.880  27.941  1.00  0.00     0.074 A 
ATOM     50  C   UNL A   1      46.747  30.295  29.434  1.00  0.00     0.029 A 
ATOM     51  N   UNL A   1      45.214  28.749  28.968  1.00  0.00    -0.354 N 
ATOM     52  N   UNL A   1      44.285  26.039  28.266  1.00  0.00    -0.248 NA
ATOM     53  C   UNL A   1      44.754  23.822  27.694  1.00  0.00     0.031 C 
ATOM     54  C   UNL A   1      47.401  29.094  29.138  1.00  0.00     0.029 A 
ATOM     55  C   UNL A   1      46.445  28.127  28.871  1.00  0.00     0.049 A 
ATOM     56  H   UNL A   1      44.345  28.313  28.813  1.00  0.00     0.167 HD
ATOM     57  C   UNL A   1      45.659  25.844  28.287  1.00  0.00     0.074 A 
ATOM     58  C   UNL A   1      45.891  24.453  27.958  1.00  0.00     0.031 C 
ATOM     59  C   UNL A   1      46.643  26.737  28.554  1.00  0.00     0.031 A 
BRANCH  46  60
ATOM     60  C   UNL A   1      44.634  32.443  29.837  1.00  0.00    -0.014 A 
ATOM     61  C   UNL A   1      44.820  32.884  31.157  1.00  0.00     0.009 A 
ATOM     62  C   UNL A   1      44.748  33.369  28.790  1.00  0.00     0.009 A 
ATOM     63  C   UNL A   1      45.061  34.232  31.427  1.00  0.00     0.001 A 
ATOM     64  C   UNL A   1      45.023  34.711  29.059  1.00  0.00     0.001 A 
ATOM     65  C   UNL A   1      45.166  35.143  30.377  1.00  0.00     0.000 A 
ENDBRANCH  46  60
BRANCH  47  66
ATOM     66  C   UNL A   1      41.930  23.123  27.400  1.00  0.00    -0.014 A 
ATOM     67  C   UNL A   1      41.504  22.208  28.376  1.00  0.00     0.009 A 
ATOM     68  C   UNL A   1      41.975  22.711  26.059  1.00  0.00     0.009 A 
ATOM     69  C   UNL A   1      41.159  20.902  28.023  1.00  0.00     0.001 A 
ATOM     70  C   UNL A   1      41.605  21.411  25.706  1.00  0.00     0.001 A 
ATOM     71  C   UNL A   1      41.206  20.506  26.688  1.00  0.00     0.000 A 
ENDBRANCH  47  66
BRANCH  59  72
ATOM     72  C   UNL A   1      48.051  26.223  28.541  1.00  0.00    -0.014 A 
ATOM     73  C   UNL A   1      48.660  25.746  29.711  1.00  0.00     0.009 A 
ATOM     74  C   UNL A   1      48.758  26.173  27.330  1.00  0.00     0.009 A 
ATOM     75  C   UNL A   1      49.964  25.250  29.672  1.00  0.00     0.001 A 
ATOM     76  C   UNL A   1      50.050  25.652  27.289  1.00  0.00     0.001 A 
ATOM     77  C   UNL A   1      50.655  25.198  28.460  1.00  0.00     0.000 A 
ENDBRANCH  59  72
ENDBRANCH  33  34
ENDBRANCH  25  28
ENDBRANCH  23  24
ENDBRANCH   1  23
TORSDOF 14
ENDMDL
MODEL 3
REMARK VINA RESULT:     -10.7      2.622      6.989
REMARK SMILES CC[C@H]1CCC[C@@H]([C@@H](Cc2ccccc2)C(=O)NCCCNC(=O)c2ccc(-c3c4nc(c(-c5ccccc5)c5ccc([nH]5)c(-c5ccccc5)c5nc(c(-c6ccccc6)c6ccc3[nH]6)C=C5)C=C4)cc2)C1
REMARK SMILES IDX 20 1 19 2 18 3 16 4 17 5 8 7 7 8 3 9 4 10 73 11 5 12 6 13
REMARK SMILES IDX 2 14 1 15 9 16 10 17 11 18 15 19 12 20 14 21 13 22 21 23
REMARK SMILES IDX 22 24 23 25 24 27 25 28 26 29 72 30 27 31 71 32 28 33 29 34
REMARK SMILES IDX 30 35 65 36 31 37 70 38 64 39 66 40 32 41 69 42 63 43 62 44
REMARK SMILES IDX 33 46 55 47 40 48 54 49 41 50 44 51 53 52 67 53 42 54 43 55
REMARK SMILES IDX 52 57 68 58 45 59 34 60 35 61 39 62 36 63 38 64 37 65 56 66
REMARK SMILES IDX 57 67 61 68 58 69 60 70 59 71 46 72 47 73 51 74 48 75 50 76
REMARK SMILES IDX 49 77
REMARK H PARENT 18 6 22 26 66 45 44 56
REMARK Flexibility Score: inf
ROOT
ATOM      1  C   UNL A   1      36.967  21.938  24.847  1.00  0.00     0.042 C 
ENDROOT
BRANCH   1   2
ATOM      2  C   UNL A   1      36.656  23.316  24.186  1.00  0.00     0.117 C 
BRANCH   2   3
ATOM      3  N   UNL A   1      35.305  23.840  24.491  1.00  0.00    -0.356 N 
ATOM      4  C   UNL A   1      34.478  24.405  23.527  1.00  0.00     0.223 C 
ATOM      5  O   UNL A   1      34.375  23.874  22.421  1.00  0.00    -0.275 OA
ATOM      6  H   UNL A   1      34.977  23.786  25.418  1.00  0.00     0.163 HD
BRANCH   4   7
ATOM      7  C   UNL A   1      33.656  25.704  23.905  1.00  0.00     0.086 C 
BRANCH   7   8
ATOM      8  C   UNL A   1      32.329  25.985  23.096  1.00  0.00     0.002 C 
ATOM      9  C   UNL A   1      30.196  24.998  24.252  1.00  0.00    -0.011 C 
ATOM     10  C   UNL A   1      29.440  26.325  24.074  1.00  0.00     0.003 C 
ATOM     11  C   UNL A   1      31.207  24.969  23.126  1.00  0.00     0.008 C 
ATOM     12  C   UNL A   1      30.303  27.556  23.738  1.00  0.00     0.001 C 
ATOM     13  C   UNL A   1      31.691  27.383  23.080  1.00  0.00     0.004 C 
BRANCH   9  14
ATOM     14  C   UNL A   1      30.522  24.785  25.746  1.00  0.00     0.000 C 
ATOM     15  C   UNL A   1      31.397  23.692  26.325  1.00  0.00     0.004 C 
ENDBRANCH   9  14
ENDBRANCH   7   8
BRANCH   7  16
ATOM     16  C   UNL A   1      33.708  26.079  25.445  1.00  0.00     0.049 C 
BRANCH  16  17
ATOM     17  C   UNL A   1      33.270  27.411  26.043  1.00  0.00    -0.047 A 
ATOM     18  C   UNL A   1      33.897  28.618  25.706  1.00  0.00     0.004 A 
ATOM     19  C   UNL A   1      32.248  27.475  27.005  1.00  0.00     0.004 A 
ATOM     20  C   UNL A   1      33.402  29.855  26.151  1.00  0.00     0.000 A 
ATOM     21  C   UNL A   1      31.774  28.707  27.487  1.00  0.00     0.000 A 
ATOM     22  C   UNL A   1      32.318  29.901  27.020  1.00  0.00     0.000 A 
ENDBRANCH  16  17
ENDBRANCH   7  16
ENDBRANCH   4   7
ENDBRANCH   2   3
ENDBRANCH   1   2
BRANCH   1  23
ATOM     23  C   UNL A   1      38.209  21.858  25.749  1.00  0.00     0.118 C 
BRANCH  23  24
ATOM     24  N   UNL A   1      39.026  20.680  25.497  1.00  0.00    -0.352 N 
ATOM     25  C   UNL A   1      40.209  20.186  25.985  1.00  0.00     0.251 C 
ATOM     26  H   UNL A   1      38.636  20.097  24.808  1.00  0.00     0.163 HD
ATOM     27  O   UNL A   1      40.524  19.017  25.752  1.00  0.00    -0.269 OA
BRANCH  25  28
ATOM     28  C   UNL A   1      41.214  21.101  26.550  1.00  0.00     0.039 A 
ATOM     29  C   UNL A   1      41.803  22.034  25.681  1.00  0.00     0.014 A 
ATOM     30  C   UNL A   1      41.383  21.222  27.919  1.00  0.00     0.014 A 
ATOM     31  C   UNL A   1      42.422  23.169  26.198  1.00  0.00     0.010 A 
ATOM     32  C   UNL A   1      41.863  22.413  28.427  1.00  0.00     0.010 A 
ATOM     33  C   UNL A   1      42.367  23.410  27.575  1.00  0.00    -0.014 A 
BRANCH  33  34
ATOM     34  C   UNL A   1      42.792  24.692  28.182  1.00  0.00     0.031 A 
ATOM     35  C   UNL A   1      41.755  25.742  28.467  1.00  0.00     0.074 A 
ATOM     36  C   UNL A   1      44.104  24.973  28.314  1.00  0.00     0.049 A 
ATOM     37  N   UNL A   1      41.914  27.011  28.730  1.00  0.00    -0.248 NA
ATOM     38  C   UNL A   1      40.346  25.318  28.358  1.00  0.00     0.031 C 
ATOM     39  C   UNL A   1      45.215  24.068  28.001  1.00  0.00     0.029 A 
ATOM     40  N   UNL A   1      44.726  26.123  28.730  1.00  0.00    -0.354 N 
ATOM     41  C   UNL A   1      40.633  27.548  28.741  1.00  0.00     0.074 A 
ATOM     42  C   UNL A   1      39.718  26.482  28.402  1.00  0.00     0.031 C 
ATOM     43  C   UNL A   1      46.377  24.682  28.278  1.00  0.00     0.029 A 
ATOM     44  C   UNL A   1      46.098  26.037  28.733  1.00  0.00     0.049 A 
ATOM     45  H   UNL A   1      44.237  26.932  29.002  1.00  0.00     0.167 HD
ATOM     46  C   UNL A   1      40.251  28.813  29.031  1.00  0.00     0.031 A 
ATOM     47  C   UNL A   1      47.025  26.955  29.061  1.00  0.00     0.031 A 
ATOM     48  C   UNL A   1      41.161  29.841  29.453  1.00  0.00     0.049 A 
ATOM     49  C   UNL A   1      46.571  28.324  29.481  1.00  0.00     0.074 A 
ATOM     50  C   UNL A   1      40.875  31.125  29.877  1.00  0.00     0.029 A 
ATOM     51  N   UNL A   1      42.537  29.684  29.533  1.00  0.00    -0.354 N 
ATOM     52  N   UNL A   1      45.354  28.809  29.536  1.00  0.00    -0.248 NA
ATOM     53  C   UNL A   1      47.617  29.269  29.893  1.00  0.00     0.031 C 
ATOM     54  C   UNL A   1      42.083  31.754  30.197  1.00  0.00     0.029 A 
ATOM     55  C   UNL A   1      43.115  30.848  30.005  1.00  0.00     0.049 A 
ATOM     56  H   UNL A   1      43.028  28.866  29.289  1.00  0.00     0.167 HD
ATOM     57  C   UNL A   1      45.484  30.105  30.013  1.00  0.00     0.074 A 
ATOM     58  C   UNL A   1      46.897  30.326  30.246  1.00  0.00     0.031 C 
ATOM     59  C   UNL A   1      44.522  31.033  30.238  1.00  0.00     0.031 A 
BRANCH  46  60
ATOM     60  C   UNL A   1      38.788  29.133  28.920  1.00  0.00    -0.014 A 
ATOM     61  C   UNL A   1      38.224  29.557  27.706  1.00  0.00     0.009 A 
ATOM     62  C   UNL A   1      37.960  29.012  30.047  1.00  0.00     0.009 A 
ATOM     63  C   UNL A   1      36.875  29.906  27.635  1.00  0.00     0.001 A 
ATOM     64  C   UNL A   1      36.603  29.329  29.965  1.00  0.00     0.001 A 
ATOM     65  C   UNL A   1      36.065  29.788  28.764  1.00  0.00     0.000 A 
ENDBRANCH  46  60
BRANCH  47  66
ATOM     66  C   UNL A   1      48.467  26.600  29.052  1.00  0.00    -0.014 A 
ATOM     67  C   UNL A   1      49.047  26.000  30.180  1.00  0.00     0.009 A 
ATOM     68  C   UNL A   1      49.270  26.851  27.929  1.00  0.00     0.009 A 
ATOM     69  C   UNL A   1      50.407  25.684  30.196  1.00  0.00     0.001 A 
ATOM     70  C   UNL A   1      50.624  26.511  27.939  1.00  0.00     0.001 A 
ATOM     71  C   UNL A   1      51.194  25.936  29.074  1.00  0.00     0.000 A 
ENDBRANCH  47  66
BRANCH  59  72
ATOM     72  C   UNL A   1      44.964  32.350  30.801  1.00  0.00    -0.014 A 
ATOM     73  C   UNL A   1      45.292  33.425  29.960  1.00  0.00     0.009 A 
ATOM     74  C   UNL A   1      45.004  32.530  32.192  1.00  0.00     0.009 A 
ATOM     75  C   UNL A   1      45.678  34.650  30.505  1.00  0.00     0.001 A 
ATOM     76  C   UNL A   1      45.364  33.764  32.733  1.00  0.00     0.001 A 
ATOM     77  C   UNL A   1      45.707  34.820  31.890  1.00  0.00     0.000 A 
ENDBRANCH  59  72
ENDBRANCH  33  34
ENDBRANCH  25  28
ENDBRANCH  23  24
ENDBRANCH   1  23
TORSDOF 14
ENDMDL
