MODEL 1
REMARK VINA RESULT:     -12.8      0.000      0.000
REMARK SMILES Cc1c(CC(=O)NCCCNC(=O)c2ccc(-c3c4nc(c(-c5ccccc5)c5ccc([nH]5)c(-c5ccccc5)c5nc(c(-c6ccccc6)c6ccc3[nH]6)C=C5)C=C4)cc2)cc(-c2ccc(S(C)(=O)=O)cc2)n1-c1ccccc1
REMARK SMILES IDX 8 1 7 2 5 3 6 4 4 6 3 7 1 8 2 9 74 10 62 11 63 12 75 13
REMARK SMILES IDX 76 14 80 15 77 16 79 17 78 18 64 19 65 20 73 21 66 22 72 23
REMARK SMILES IDX 67 24 68 25 69 26 70 27 71 28 9 29 10 30 11 31 12 32 13 34
REMARK SMILES IDX 14 35 15 36 61 37 16 38 60 39 17 40 18 41 19 42 54 43 20 44
REMARK SMILES IDX 59 45 53 46 55 47 21 48 58 49 52 50 51 51 22 53 44 54 29 55
REMARK SMILES IDX 43 56 30 57 33 58 42 59 56 60 31 61 32 62 41 64 57 65 34 66
REMARK SMILES IDX 23 67 24 68 28 69 25 70 27 71 26 72 45 73 46 74 50 75 47 76
REMARK SMILES IDX 49 77 48 78 35 79 36 80 40 81 37 82 39 83 38 84
REMARK H PARENT 7 5 11 33 55 52 33 63
REMARK Flexibility Score: inf
ROOT
ATOM      1  C   UNL A   1      36.258  21.877  23.802  1.00  0.00     0.117 C 
ENDROOT
BRANCH   1   2
ATOM      2  N   UNL A   1      35.000  21.592  24.468  1.00  0.00    -0.356 N 
ATOM      3  C   UNL A   1      33.755  22.123  24.303  1.00  0.00     0.224 C 
ATOM      4  O   UNL A   1      32.866  21.729  25.063  1.00  0.00    -0.275 OA
ATOM      5  H   UNL A   1      35.055  20.893  25.159  1.00  0.00     0.163 HD
BRANCH   3   6
ATOM      6  C   UNL A   1      33.451  23.112  23.190  1.00  0.00     0.137 C 
BRANCH   6   7
ATOM      7  C   UNL A   1      32.897  24.421  23.659  1.00  0.00    -0.017 A 
ATOM      8  C   UNL A   1      34.255  24.802  25.837  1.00  0.00     0.065 C 
ATOM      9  C   UNL A   1      33.274  25.168  24.769  1.00  0.00     0.024 A 
ATOM     10  N   UNL A   1      32.522  26.341  24.786  1.00  0.00    -0.314 N 
ATOM     11  C   UNL A   1      31.825  25.116  23.045  1.00  0.00     0.033 A 
ATOM     12  C   UNL A   1      31.627  26.311  23.713  1.00  0.00     0.053 A 
BRANCH  10  13
ATOM     13  C   UNL A   1      32.661  27.419  25.708  1.00  0.00     0.046 A 
ATOM     14  C   UNL A   1      31.670  27.646  26.671  1.00  0.00     0.026 A 
ATOM     15  C   UNL A   1      33.739  28.304  25.587  1.00  0.00     0.026 A 
ATOM     16  C   UNL A   1      31.744  28.769  27.494  1.00  0.00     0.002 A 
ATOM     17  C   UNL A   1      33.802  29.431  26.409  1.00  0.00     0.002 A 
ATOM     18  C   UNL A   1      32.803  29.665  27.356  1.00  0.00     0.000 A 
ENDBRANCH  10  13
BRANCH  12  19
ATOM     19  C   UNL A   1      30.742  27.410  23.305  1.00  0.00    -0.001 A 
ATOM     20  C   UNL A   1      31.272  28.590  22.756  1.00  0.00     0.011 A 
ATOM     21  C   UNL A   1      29.355  27.287  23.447  1.00  0.00     0.011 A 
ATOM     22  C   UNL A   1      30.434  29.650  22.402  1.00  0.00     0.021 A 
ATOM     23  C   UNL A   1      28.509  28.341  23.091  1.00  0.00     0.021 A 
ATOM     24  C   UNL A   1      29.056  29.522  22.586  1.00  0.00     0.067 A 
BRANCH  24  25
ATOM     25  S   UNL A   1      28.000  30.871  22.113  1.00  0.00     0.175 S 
ATOM     26  C   UNL A   1      29.053  32.296  22.184  1.00  0.00     0.163 C 
ATOM     27  O   UNL A   1      27.615  30.652  20.745  1.00  0.00    -0.224 OA
ATOM     28  O   UNL A   1      26.994  31.027  23.163  1.00  0.00    -0.224 OA
ENDBRANCH  24  25
ENDBRANCH  12  19
ENDBRANCH   6   7
ENDBRANCH   3   6
ENDBRANCH   1   2
BRANCH   1  29
ATOM     29  C   UNL A   1      36.970  23.136  24.327  1.00  0.00     0.042 C 
BRANCH  29  30
ATOM     30  C   UNL A   1      37.379  23.153  25.814  1.00  0.00     0.118 C 
BRANCH  30  31
ATOM     31  N   UNL A   1      38.482  22.281  26.161  1.00  0.00    -0.352 N 
ATOM     32  C   UNL A   1      39.661  22.608  26.813  1.00  0.00     0.251 C 
ATOM     33  H   UNL A   1      38.382  21.337  25.902  1.00  0.00     0.163 HD
ATOM     34  O   UNL A   1      40.498  21.719  26.963  1.00  0.00    -0.269 OA
BRANCH  32  35
ATOM     35  C   UNL A   1      40.000  24.025  27.222  1.00  0.00     0.039 A 
ATOM     36  C   UNL A   1      39.339  24.535  28.322  1.00  0.00     0.014 A 
ATOM     37  C   UNL A   1      40.768  24.953  26.490  1.00  0.00     0.014 A 
ATOM     38  C   UNL A   1      39.507  25.898  28.709  1.00  0.00     0.010 A 
ATOM     39  C   UNL A   1      40.853  26.383  26.843  1.00  0.00     0.010 A 
ATOM     40  C   UNL A   1      40.215  26.927  27.976  1.00  0.00    -0.014 A 
BRANCH  40  41
ATOM     41  C   UNL A   1      39.788  28.491  28.309  1.00  0.00     0.031 A 
ATOM     42  C   UNL A   1      41.120  29.129  28.501  1.00  0.00     0.074 A 
ATOM     43  C   UNL A   1      38.746  29.379  28.625  1.00  0.00     0.049 A 
ATOM     44  N   UNL A   1      41.876  28.649  29.442  1.00  0.00    -0.248 NA
ATOM     45  C   UNL A   1      41.824  29.914  27.486  1.00  0.00     0.031 C 
ATOM     46  C   UNL A   1      37.314  29.090  28.817  1.00  0.00     0.029 A 
ATOM     47  N   UNL A   1      38.719  30.805  28.862  1.00  0.00    -0.354 N 
ATOM     48  C   UNL A   1      43.118  29.211  29.292  1.00  0.00     0.074 A 
ATOM     49  C   UNL A   1      43.070  29.837  27.973  1.00  0.00     0.031 C 
ATOM     50  C   UNL A   1      36.572  30.232  28.966  1.00  0.00     0.029 A 
ATOM     51  C   UNL A   1      37.416  31.430  28.963  1.00  0.00     0.049 A 
ATOM     52  H   UNL A   1      39.549  31.327  28.951  1.00  0.00     0.167 HD
ATOM     53  C   UNL A   1      43.671  29.684  30.445  1.00  0.00     0.031 A 
ATOM     54  C   UNL A   1      37.030  32.767  29.124  1.00  0.00     0.031 A 
ATOM     55  C   UNL A   1      43.358  31.080  30.610  1.00  0.00     0.049 A 
ATOM     56  C   UNL A   1      38.126  33.421  29.850  1.00  0.00     0.074 A 
ATOM     57  C   UNL A   1      43.394  32.148  29.735  1.00  0.00     0.029 A 
ATOM     58  N   UNL A   1      42.459  31.405  31.605  1.00  0.00    -0.354 N 
ATOM     59  N   UNL A   1      38.274  33.252  31.129  1.00  0.00    -0.248 NA
ATOM     60  C   UNL A   1      39.011  34.407  29.243  1.00  0.00     0.031 C 
ATOM     61  C   UNL A   1      42.155  32.793  29.928  1.00  0.00     0.029 A 
ATOM     62  C   UNL A   1      41.620  32.396  31.148  1.00  0.00     0.049 A 
ATOM     63  H   UNL A   1      42.423  30.994  32.500  1.00  0.00     0.167 HD
ATOM     64  C   UNL A   1      39.574  33.603  31.314  1.00  0.00     0.074 A 
ATOM     65  C   UNL A   1      39.863  34.560  30.260  1.00  0.00     0.031 C 
ATOM     66  C   UNL A   1      40.379  32.644  31.838  1.00  0.00     0.031 A 
BRANCH  53  67
ATOM     67  C   UNL A   1      43.647  28.692  31.585  1.00  0.00    -0.014 A 
ATOM     68  C   UNL A   1      44.516  27.598  31.559  1.00  0.00     0.009 A 
ATOM     69  C   UNL A   1      42.702  28.760  32.634  1.00  0.00     0.009 A 
ATOM     70  C   UNL A   1      44.396  26.578  32.512  1.00  0.00     0.001 A 
ATOM     71  C   UNL A   1      42.552  27.725  33.553  1.00  0.00     0.001 A 
ATOM     72  C   UNL A   1      43.399  26.628  33.488  1.00  0.00     0.000 A 
ENDBRANCH  53  67
BRANCH  54  73
ATOM     73  C   UNL A   1      35.850  33.792  29.086  1.00  0.00    -0.014 A 
ATOM     74  C   UNL A   1      35.001  33.866  27.924  1.00  0.00     0.009 A 
ATOM     75  C   UNL A   1      35.267  34.320  30.246  1.00  0.00     0.009 A 
ATOM     76  C   UNL A   1      33.660  34.310  27.943  1.00  0.00     0.001 A 
ATOM     77  C   UNL A   1      33.923  34.803  30.259  1.00  0.00     0.001 A 
ATOM     78  C   UNL A   1      33.111  34.766  29.125  1.00  0.00     0.000 A 
ENDBRANCH  54  73
BRANCH  66  79
ATOM     79  C   UNL A   1      39.794  31.776  32.940  1.00  0.00    -0.014 A 
ATOM     80  C   UNL A   1      39.168  30.523  32.744  1.00  0.00     0.009 A 
ATOM     81  C   UNL A   1      39.798  32.284  34.246  1.00  0.00     0.009 A 
ATOM     82  C   UNL A   1      38.513  29.851  33.785  1.00  0.00     0.001 A 
ATOM     83  C   UNL A   1      39.185  31.592  35.297  1.00  0.00     0.001 A 
ATOM     84  C   UNL A   1      38.525  30.389  35.065  1.00  0.00     0.000 A 
ENDBRANCH  66  79
ENDBRANCH  40  41
ENDBRANCH  32  35
ENDBRANCH  30  31
ENDBRANCH  29  30
ENDBRANCH   1  29
TORSDOF 14
ENDMDL
MODEL 2
REMARK VINA RESULT:     -11.1      5.203     12.138
REMARK SMILES Cc1c(CC(=O)NCCCNC(=O)c2ccc(-c3c4nc(c(-c5ccccc5)c5ccc([nH]5)c(-c5ccccc5)c5nc(c(-c6ccccc6)c6ccc3[nH]6)C=C5)C=C4)cc2)cc(-c2ccc(S(C)(=O)=O)cc2)n1-c1ccccc1
REMARK SMILES IDX 8 1 7 2 5 3 6 4 4 6 3 7 1 8 2 9 74 10 62 11 63 12 75 13
REMARK SMILES IDX 76 14 80 15 77 16 79 17 78 18 64 19 65 20 73 21 66 22 72 23
REMARK SMILES IDX 67 24 68 25 69 26 70 27 71 28 9 29 10 30 11 31 12 32 13 34
REMARK SMILES IDX 14 35 15 36 61 37 16 38 60 39 17 40 18 41 19 42 54 43 20 44
REMARK SMILES IDX 59 45 53 46 55 47 21 48 58 49 52 50 51 51 22 53 44 54 29 55
REMARK SMILES IDX 43 56 30 57 33 58 42 59 56 60 31 61 32 62 41 64 57 65 34 66
REMARK SMILES IDX 23 67 24 68 28 69 25 70 27 71 26 72 45 73 46 74 50 75 47 76
REMARK SMILES IDX 49 77 48 78 35 79 36 80 40 81 37 82 39 83 38 84
REMARK H PARENT 7 5 11 33 55 52 33 63
REMARK Flexibility Score: inf
ROOT
ATOM      1  C   UNL A   1      36.819  33.900  30.372  1.00  0.00     0.117 C 
ENDROOT
BRANCH   1   2
ATOM      2  N   UNL A   1      36.197  34.852  31.274  1.00  0.00    -0.356 N 
ATOM      3  C   UNL A   1      35.539  34.673  32.455  1.00  0.00     0.224 C 
ATOM      4  O   UNL A   1      35.050  35.674  32.987  1.00  0.00    -0.275 OA
ATOM      5  H   UNL A   1      36.262  35.790  30.983  1.00  0.00     0.163 HD
BRANCH   3   6
ATOM      6  C   UNL A   1      35.462  33.313  33.129  1.00  0.00     0.137 C 
BRANCH   6   7
ATOM      7  C   UNL A   1      36.539  33.060  34.137  1.00  0.00    -0.017 A 
ATOM      8  C   UNL A   1      38.211  31.635  32.756  1.00  0.00     0.065 C 
ATOM      9  C   UNL A   1      37.739  32.379  33.965  1.00  0.00     0.024 A 
ATOM     10  N   UNL A   1      38.451  32.433  35.161  1.00  0.00    -0.314 N 
ATOM     11  C   UNL A   1      36.485  33.452  35.498  1.00  0.00     0.033 A 
ATOM     12  C   UNL A   1      37.675  33.104  36.111  1.00  0.00     0.053 A 
BRANCH  10  13
ATOM     13  C   UNL A   1      39.768  31.936  35.382  1.00  0.00     0.046 A 
ATOM     14  C   UNL A   1      40.876  32.742  35.091  1.00  0.00     0.026 A 
ATOM     15  C   UNL A   1      39.952  30.612  35.796  1.00  0.00     0.026 A 
ATOM     16  C   UNL A   1      42.164  32.216  35.191  1.00  0.00     0.002 A 
ATOM     17  C   UNL A   1      41.244  30.090  35.886  1.00  0.00     0.002 A 
ATOM     18  C   UNL A   1      42.346  30.890  35.579  1.00  0.00     0.000 A 
ENDBRANCH  10  13
BRANCH  12  19
ATOM     19  C   UNL A   1      38.112  33.481  37.462  1.00  0.00    -0.001 A 
ATOM     20  C   UNL A   1      37.754  32.701  38.574  1.00  0.00     0.011 A 
ATOM     21  C   UNL A   1      38.905  34.618  37.653  1.00  0.00     0.011 A 
ATOM     22  C   UNL A   1      38.139  33.078  39.862  1.00  0.00     0.021 A 
ATOM     23  C   UNL A   1      39.297  35.001  38.939  1.00  0.00     0.021 A 
ATOM     24  C   UNL A   1      38.897  34.237  40.037  1.00  0.00     0.067 A 
BRANCH  24  25
ATOM     25  S   UNL A   1      39.397  34.695  41.680  1.00  0.00     0.175 S 
ATOM     26  C   UNL A   1      38.616  33.492  42.724  1.00  0.00     0.163 C 
ATOM     27  O   UNL A   1      40.822  34.516  41.758  1.00  0.00    -0.224 OA
ATOM     28  O   UNL A   1      38.782  35.987  41.979  1.00  0.00    -0.224 OA
ENDBRANCH  24  25
ENDBRANCH  12  19
ENDBRANCH   6   7
ENDBRANCH   3   6
ENDBRANCH   1   2
BRANCH   1  29
ATOM     29  C   UNL A   1      36.028  33.664  29.073  1.00  0.00     0.042 C 
BRANCH  29  30
ATOM     30  C   UNL A   1      34.523  33.350  29.204  1.00  0.00     0.118 C 
BRANCH  30  31
ATOM     31  N   UNL A   1      33.988  32.459  28.196  1.00  0.00    -0.352 N 
ATOM     32  C   UNL A   1      34.462  31.214  27.815  1.00  0.00     0.251 C 
ATOM     33  H   UNL A   1      33.186  32.778  27.722  1.00  0.00     0.163 HD
ATOM     34  O   UNL A   1      33.886  30.640  26.891  1.00  0.00    -0.269 OA
BRANCH  32  35
ATOM     35  C   UNL A   1      35.719  30.606  28.399  1.00  0.00     0.039 A 
ATOM     36  C   UNL A   1      36.757  30.351  27.525  1.00  0.00     0.014 A 
ATOM     37  C   UNL A   1      35.878  30.088  29.700  1.00  0.00     0.014 A 
ATOM     38  C   UNL A   1      37.933  29.674  27.965  1.00  0.00     0.010 A 
ATOM     39  C   UNL A   1      37.055  29.302  30.114  1.00  0.00     0.010 A 
ATOM     40  C   UNL A   1      38.144  29.051  29.255  1.00  0.00    -0.014 A 
BRANCH  40  41
ATOM     41  C   UNL A   1      39.300  27.867  29.318  1.00  0.00     0.031 A 
ATOM     42  C   UNL A   1      40.007  28.209  30.584  1.00  0.00     0.074 A 
ATOM     43  C   UNL A   1      39.953  26.830  28.632  1.00  0.00     0.049 A 
ATOM     44  N   UNL A   1      40.551  29.387  30.658  1.00  0.00    -0.248 NA
ATOM     45  C   UNL A   1      39.776  27.555  31.872  1.00  0.00     0.031 C 
ATOM     46  C   UNL A   1      39.746  26.364  27.249  1.00  0.00     0.029 A 
ATOM     47  N   UNL A   1      41.000  25.912  29.020  1.00  0.00    -0.354 N 
ATOM     48  C   UNL A   1      40.932  29.576  31.961  1.00  0.00     0.074 A 
ATOM     49  C   UNL A   1      40.272  28.496  32.688  1.00  0.00     0.031 C 
ATOM     50  C   UNL A   1      40.461  25.228  26.974  1.00  0.00     0.029 A 
ATOM     51  C   UNL A   1      41.292  24.824  28.110  1.00  0.00     0.049 A 
ATOM     52  H   UNL A   1      41.493  26.023  29.866  1.00  0.00     0.167 HD
ATOM     53  C   UNL A   1      42.195  30.067  32.118  1.00  0.00     0.031 A 
ATOM     54  C   UNL A   1      42.181  23.744  28.198  1.00  0.00     0.031 A 
ATOM     55  C   UNL A   1      43.132  28.986  32.287  1.00  0.00     0.049 A 
ATOM     56  C   UNL A   1      43.286  24.197  29.051  1.00  0.00     0.074 A 
ATOM     57  C   UNL A   1      43.097  27.841  33.058  1.00  0.00     0.029 A 
ATOM     58  N   UNL A   1      43.995  28.739  31.238  1.00  0.00    -0.354 N 
ATOM     59  N   UNL A   1      44.207  24.987  28.587  1.00  0.00    -0.248 NA
ATOM     60  C   UNL A   1      43.522  23.684  30.395  1.00  0.00     0.031 C 
ATOM     61  C   UNL A   1      43.481  26.815  32.171  1.00  0.00     0.029 A 
ATOM     62  C   UNL A   1      44.129  27.378  31.078  1.00  0.00     0.049 A 
ATOM     63  H   UNL A   1      44.442  29.426  30.693  1.00  0.00     0.167 HD
ATOM     64  C   UNL A   1      44.731  25.512  29.726  1.00  0.00     0.074 A 
ATOM     65  C   UNL A   1      44.521  24.499  30.744  1.00  0.00     0.031 C 
ATOM     66  C   UNL A   1      44.663  26.863  29.842  1.00  0.00     0.031 A 
BRANCH  53  67
ATOM     67  C   UNL A   1      42.485  31.287  31.274  1.00  0.00    -0.014 A 
ATOM     68  C   UNL A   1      41.748  32.455  31.483  1.00  0.00     0.009 A 
ATOM     69  C   UNL A   1      43.402  31.268  30.198  1.00  0.00     0.009 A 
ATOM     70  C   UNL A   1      41.878  33.539  30.605  1.00  0.00     0.001 A 
ATOM     71  C   UNL A   1      43.498  32.326  29.299  1.00  0.00     0.001 A 
ATOM     72  C   UNL A   1      42.729  33.463  29.501  1.00  0.00     0.000 A 
ENDBRANCH  53  67
BRANCH  54  73
ATOM     73  C   UNL A   1      42.622  22.372  27.591  1.00  0.00    -0.014 A 
ATOM     74  C   UNL A   1      41.761  21.223  27.714  1.00  0.00     0.009 A 
ATOM     75  C   UNL A   1      43.556  22.269  26.551  1.00  0.00     0.009 A 
ATOM     76  C   UNL A   1      41.752  20.133  26.815  1.00  0.00     0.001 A 
ATOM     77  C   UNL A   1      43.573  21.151  25.663  1.00  0.00     0.001 A 
ATOM     78  C   UNL A   1      42.654  20.106  25.770  1.00  0.00     0.000 A 
ENDBRANCH  54  73
BRANCH  66  79
ATOM     79  C   UNL A   1      44.927  27.680  28.588  1.00  0.00    -0.014 A 
ATOM     80  C   UNL A   1      43.932  28.293  27.791  1.00  0.00     0.009 A 
ATOM     81  C   UNL A   1      46.248  27.770  28.129  1.00  0.00     0.009 A 
ATOM     82  C   UNL A   1      44.235  28.898  26.563  1.00  0.00     0.001 A 
ATOM     83  C   UNL A   1      46.559  28.414  26.927  1.00  0.00     0.001 A 
ATOM     84  C   UNL A   1      45.553  28.958  26.133  1.00  0.00     0.000 A 
ENDBRANCH  66  79
ENDBRANCH  40  41
ENDBRANCH  32  35
ENDBRANCH  30  31
ENDBRANCH  29  30
ENDBRANCH   1  29
TORSDOF 14
ENDMDL
MODEL 3
REMARK VINA RESULT:     -10.8      6.393     10.416
REMARK SMILES Cc1c(CC(=O)NCCCNC(=O)c2ccc(-c3c4nc(c(-c5ccccc5)c5ccc([nH]5)c(-c5ccccc5)c5nc(c(-c6ccccc6)c6ccc3[nH]6)C=C5)C=C4)cc2)cc(-c2ccc(S(C)(=O)=O)cc2)n1-c1ccccc1
REMARK SMILES IDX 8 1 7 2 5 3 6 4 4 6 3 7 1 8 2 9 74 10 62 11 63 12 75 13
REMARK SMILES IDX 76 14 80 15 77 16 79 17 78 18 64 19 65 20 73 21 66 22 72 23
REMARK SMILES IDX 67 24 68 25 69 26 70 27 71 28 9 29 10 30 11 31 12 32 13 34
REMARK SMILES IDX 14 35 15 36 61 37 16 38 60 39 17 40 18 41 19 42 54 43 20 44
REMARK SMILES IDX 59 45 53 46 55 47 21 48 58 49 52 50 51 51 22 53 44 54 29 55
REMARK SMILES IDX 43 56 30 57 33 58 42 59 56 60 31 61 32 62 41 64 57 65 34 66
REMARK SMILES IDX 23 67 24 68 28 69 25 70 27 71 26 72 45 73 46 74 50 75 47 76
REMARK SMILES IDX 49 77 48 78 35 79 36 80 40 81 37 82 39 83 38 84
REMARK H PARENT 7 5 11 33 55 52 33 63
REMARK Flexibility Score: inf
ROOT
ATOM      1  C   UNL A   1      47.022  32.245  26.839  1.00  0.00     0.117 C 
ENDROOT
BRANCH   1   2
ATOM      2  N   UNL A   1      47.439  31.028  27.510  1.00  0.00    -0.356 N 
ATOM      3  C   UNL A   1      47.176  29.717  27.240  1.00  0.00     0.224 C 
ATOM      4  O   UNL A   1      47.617  28.877  28.029  1.00  0.00    -0.275 OA
ATOM      5  H   UNL A   1      48.010  31.173  28.298  1.00  0.00     0.163 HD
BRANCH   3   6
ATOM      6  C   UNL A   1      46.427  29.295  25.986  1.00  0.00     0.137 C 
BRANCH   6   7
ATOM      7  C   UNL A   1      45.590  28.065  26.150  1.00  0.00    -0.017 A 
ATOM      8  C   UNL A   1      43.454  29.041  27.254  1.00  0.00     0.065 C 
ATOM      9  C   UNL A   1      44.298  27.963  26.651  1.00  0.00     0.024 A 
ATOM     10  N   UNL A   1      43.899  26.630  26.571  1.00  0.00    -0.314 N 
ATOM     11  C   UNL A   1      46.016  26.747  25.848  1.00  0.00     0.033 A 
ATOM     12  C   UNL A   1      44.964  25.877  26.067  1.00  0.00     0.053 A 
BRANCH  10  13
ATOM     13  C   UNL A   1      42.612  26.113  26.898  1.00  0.00     0.046 A 
ATOM     14  C   UNL A   1      42.429  25.405  28.093  1.00  0.00     0.026 A 
ATOM     15  C   UNL A   1      41.560  26.233  25.984  1.00  0.00     0.026 A 
ATOM     16  C   UNL A   1      41.203  24.796  28.359  1.00  0.00     0.002 A 
ATOM     17  C   UNL A   1      40.338  25.613  26.254  1.00  0.00     0.002 A 
ATOM     18  C   UNL A   1      40.162  24.892  27.436  1.00  0.00     0.000 A 
ENDBRANCH  10  13
BRANCH  12  19
ATOM     19  C   UNL A   1      44.913  24.452  25.714  1.00  0.00    -0.001 A 
ATOM     20  C   UNL A   1      44.054  23.994  24.701  1.00  0.00     0.011 A 
ATOM     21  C   UNL A   1      45.735  23.533  26.378  1.00  0.00     0.011 A 
ATOM     22  C   UNL A   1      43.979  22.636  24.390  1.00  0.00     0.021 A 
ATOM     23  C   UNL A   1      45.668  22.172  26.070  1.00  0.00     0.021 A 
ATOM     24  C   UNL A   1      44.778  21.729  25.090  1.00  0.00     0.067 A 
BRANCH  24  25
ATOM     25  S   UNL A   1      44.688  20.005  24.670  1.00  0.00     0.175 S 
ATOM     26  C   UNL A   1      43.222  19.434  25.491  1.00  0.00     0.163 C 
ATOM     27  O   UNL A   1      44.481  19.921  23.250  1.00  0.00    -0.224 OA
ATOM     28  O   UNL A   1      45.824  19.340  25.308  1.00  0.00    -0.224 OA
ENDBRANCH  24  25
ENDBRANCH  12  19
ENDBRANCH   6   7
ENDBRANCH   3   6
ENDBRANCH   1   2
BRANCH   1  29
ATOM     29  C   UNL A   1      48.185  33.180  26.464  1.00  0.00     0.042 C 
BRANCH  29  30
ATOM     30  C   UNL A   1      48.340  34.483  27.275  1.00  0.00     0.118 C 
BRANCH  30  31
ATOM     31  N   UNL A   1      47.662  35.638  26.723  1.00  0.00    -0.352 N 
ATOM     32  C   UNL A   1      46.423  36.152  27.073  1.00  0.00     0.251 C 
ATOM     33  H   UNL A   1      48.142  36.118  26.010  1.00  0.00     0.163 HD
ATOM     34  O   UNL A   1      46.004  37.118  26.437  1.00  0.00    -0.269 OA
BRANCH  32  35
ATOM     35  C   UNL A   1      45.531  35.496  28.104  1.00  0.00     0.039 A 
ATOM     36  C   UNL A   1      44.536  34.661  27.633  1.00  0.00     0.014 A 
ATOM     37  C   UNL A   1      45.473  35.794  29.480  1.00  0.00     0.014 A 
ATOM     38  C   UNL A   1      43.575  34.094  28.523  1.00  0.00     0.010 A 
ATOM     39  C   UNL A   1      44.416  35.281  30.371  1.00  0.00     0.010 A 
ATOM     40  C   UNL A   1      43.405  34.405  29.928  1.00  0.00    -0.014 A 
BRANCH  40  41
ATOM     41  C   UNL A   1      41.915  34.081  30.574  1.00  0.00     0.031 A 
ATOM     42  C   UNL A   1      42.285  33.344  31.815  1.00  0.00     0.074 A 
ATOM     43  C   UNL A   1      40.526  34.074  30.370  1.00  0.00     0.049 A 
ATOM     44  N   UNL A   1      42.970  32.250  31.672  1.00  0.00    -0.248 NA
ATOM     45  C   UNL A   1      42.341  33.936  33.152  1.00  0.00     0.031 C 
ATOM     46  C   UNL A   1      39.769  34.455  29.164  1.00  0.00     0.029 A 
ATOM     47  N   UNL A   1      39.417  33.708  31.221  1.00  0.00    -0.354 N 
ATOM     48  C   UNL A   1      43.394  31.870  32.919  1.00  0.00     0.074 A 
ATOM     49  C   UNL A   1      43.129  33.036  33.758  1.00  0.00     0.031 C 
ATOM     50  C   UNL A   1      38.416  34.464  29.385  1.00  0.00     0.029 A 
ATOM     51  C   UNL A   1      38.087  34.025  30.743  1.00  0.00     0.049 A 
ATOM     52  H   UNL A   1      39.560  33.262  32.088  1.00  0.00     0.167 HD
ATOM     53  C   UNL A   1      43.209  30.550  33.205  1.00  0.00     0.031 A 
ATOM     54  C   UNL A   1      36.822  33.869  31.325  1.00  0.00     0.031 A 
ATOM     55  C   UNL A   1      41.948  30.358  33.873  1.00  0.00     0.049 A 
ATOM     56  C   UNL A   1      36.932  32.725  32.237  1.00  0.00     0.074 A 
ATOM     57  C   UNL A   1      41.335  31.035  34.909  1.00  0.00     0.029 A 
ATOM     58  N   UNL A   1      40.948  29.734  33.154  1.00  0.00    -0.354 N 
ATOM     59  N   UNL A   1      36.933  31.508  31.783  1.00  0.00    -0.248 NA
ATOM     60  C   UNL A   1      36.889  32.850  33.688  1.00  0.00     0.031 C 
ATOM     61  C   UNL A   1      40.016  31.241  34.455  1.00  0.00     0.029 A 
ATOM     62  C   UNL A   1      39.749  30.355  33.418  1.00  0.00     0.049 A 
ATOM     63  H   UNL A   1      41.074  28.966  32.549  1.00  0.00     0.167 HD
ATOM     64  C   UNL A   1      37.493  30.820  32.813  1.00  0.00     0.074 A 
ATOM     65  C   UNL A   1      37.159  31.581  34.004  1.00  0.00     0.031 C 
ATOM     66  C   UNL A   1      38.636  30.146  32.526  1.00  0.00     0.031 A 
BRANCH  53  67
ATOM     67  C   UNL A   1      43.728  29.615  32.136  1.00  0.00    -0.014 A 
ATOM     68  C   UNL A   1      42.863  28.674  31.572  1.00  0.00     0.009 A 
ATOM     69  C   UNL A   1      45.088  29.576  31.753  1.00  0.00     0.009 A 
ATOM     70  C   UNL A   1      43.359  27.689  30.708  1.00  0.00     0.001 A 
ATOM     71  C   UNL A   1      45.589  28.570  30.932  1.00  0.00     0.001 A 
ATOM     72  C   UNL A   1      44.721  27.621  30.411  1.00  0.00     0.000 A 
ENDBRANCH  53  67
BRANCH  54  73
ATOM     73  C   UNL A   1      35.301  34.226  31.242  1.00  0.00    -0.014 A 
ATOM     74  C   UNL A   1      34.696  35.033  32.270  1.00  0.00     0.009 A 
ATOM     75  C   UNL A   1      34.586  34.216  30.036  1.00  0.00     0.009 A 
ATOM     76  C   UNL A   1      33.558  35.848  32.078  1.00  0.00     0.001 A 
ATOM     77  C   UNL A   1      33.413  35.010  29.852  1.00  0.00     0.001 A 
ATOM     78  C   UNL A   1      32.921  35.849  30.853  1.00  0.00     0.000 A 
ENDBRANCH  54  73
BRANCH  66  79
ATOM     79  C   UNL A   1      38.703  29.440  31.182  1.00  0.00    -0.014 A 
ATOM     80  C   UNL A   1      38.726  28.038  30.998  1.00  0.00     0.009 A 
ATOM     81  C   UNL A   1      38.837  30.230  30.033  1.00  0.00     0.009 A 
ATOM     82  C   UNL A   1      38.947  27.458  29.742  1.00  0.00     0.001 A 
ATOM     83  C   UNL A   1      39.011  29.653  28.769  1.00  0.00     0.001 A 
ATOM     84  C   UNL A   1      39.088  28.271  28.626  1.00  0.00     0.000 A 
ENDBRANCH  66  79
ENDBRANCH  40  41
ENDBRANCH  32  35
ENDBRANCH  30  31
ENDBRANCH  29  30
ENDBRANCH   1  29
TORSDOF 14
ENDMDL
