MODEL 1
REMARK VINA RESULT:      -9.5      0.000      0.000
REMARK SMILES O=C(Cc1ccc(-c2ccn(C(F)F)c(=O)c2)cc1)NCCCNC(=O)c1ccc(-c2c3nc(c(-c4ccccc4)c4ccc([nH]4)c(-c4ccccc4)c4nc(c(-c5ccccc5)c5ccc2[nH]5)C=C4)C=C3)cc1
REMARK SMILES IDX 21 1 20 2 1 3 2 4 3 6 4 7 5 8 19 9 6 10 18 11 7 12 8 13 9 14
REMARK SMILES IDX 17 15 10 16 15 17 11 18 16 19 12 20 13 21 14 22 22 23 23 24
REMARK SMILES IDX 24 25 25 26 26 28 27 29 28 30 74 31 29 32 73 33 30 34 31 35
REMARK SMILES IDX 32 36 67 37 33 38 72 39 66 40 68 41 34 42 71 43 65 44 64 45
REMARK SMILES IDX 35 47 57 48 42 49 56 50 43 51 46 52 55 53 69 54 44 55 45 56
REMARK SMILES IDX 54 58 70 59 47 60 36 61 37 62 41 63 38 64 40 65 39 66 58 67
REMARK SMILES IDX 59 68 63 69 60 70 62 71 61 72 48 73 49 74 53 75 50 76 52 77
REMARK SMILES IDX 51 78
REMARK H PARENT 20 5 24 27 68 46 46 57
REMARK Flexibility Score: inf
ROOT
ATOM      1  C   UNL A   1      45.995  18.970  25.039  1.00  0.00     0.117 C 
ENDROOT
BRANCH   1   2
ATOM      2  N   UNL A   1      46.008  20.210  24.292  1.00  0.00    -0.356 N 
ATOM      3  O   UNL A   1      46.015  21.592  26.131  1.00  0.00    -0.275 OA
ATOM      4  C   UNL A   1      46.111  21.438  24.918  1.00  0.00     0.224 C 
ATOM      5  H   UNL A   1      45.941  20.178  23.309  1.00  0.00     0.163 HD
BRANCH   4   6
ATOM      6  C   UNL A   1      46.402  22.584  23.965  1.00  0.00     0.135 C 
BRANCH   6   7
ATOM      7  C   UNL A   1      46.168  23.966  24.543  1.00  0.00    -0.039 A 
ATOM      8  C   UNL A   1      47.212  24.842  24.878  1.00  0.00     0.005 A 
ATOM      9  C   UNL A   1      44.849  24.423  24.685  1.00  0.00     0.005 A 
ATOM     10  C   UNL A   1      46.950  26.134  25.337  1.00  0.00     0.009 A 
ATOM     11  C   UNL A   1      44.583  25.714  25.152  1.00  0.00     0.009 A 
ATOM     12  C   UNL A   1      45.634  26.582  25.469  1.00  0.00    -0.018 A 
BRANCH  12  13
ATOM     13  C   UNL A   1      45.357  27.951  25.931  1.00  0.00    -0.011 A 
ATOM     14  C   UNL A   1      44.033  28.402  26.305  1.00  0.00     0.027 A 
ATOM     15  C   UNL A   1      46.387  28.814  25.996  1.00  0.00     0.080 A 
ATOM     16  C   UNL A   1      43.830  29.667  26.691  1.00  0.00     0.095 A 
ATOM     17  C   UNL A   1      46.180  30.221  26.430  1.00  0.00     0.255 A 
ATOM     18  N   UNL A   1      44.876  30.569  26.749  1.00  0.00    -0.258 N 
ATOM     19  O   UNL A   1      47.151  30.970  26.468  1.00  0.00    -0.269 OA
BRANCH  18  20
ATOM     20  C   UNL A   1      44.644  31.936  27.135  1.00  0.00     0.451 C 
ATOM     21  F   UNL A   1      44.606  32.753  26.055  1.00  0.00    -0.185 F 
ATOM     22  F   UNL A   1      43.466  32.058  27.797  1.00  0.00    -0.185 F 
ENDBRANCH  18  20
ENDBRANCH  12  13
ENDBRANCH   6   7
ENDBRANCH   4   6
ENDBRANCH   1   2
BRANCH   1  23
ATOM     23  C   UNL A   1      44.597  18.396  25.215  1.00  0.00     0.042 C 
BRANCH  23  24
ATOM     24  C   UNL A   1      43.624  19.293  25.971  1.00  0.00     0.118 C 
BRANCH  24  25
ATOM     25  N   UNL A   1      42.223  18.997  25.707  1.00  0.00    -0.352 N 
ATOM     26  C   UNL A   1      41.105  19.752  25.983  1.00  0.00     0.251 C 
ATOM     27  H   UNL A   1      42.051  18.133  25.268  1.00  0.00     0.163 HD
ATOM     28  O   UNL A   1      39.986  19.290  25.782  1.00  0.00    -0.269 OA
BRANCH  26  29
ATOM     29  C   UNL A   1      41.251  21.104  26.565  1.00  0.00     0.039 A 
ATOM     30  C   UNL A   1      41.177  21.252  27.952  1.00  0.00     0.014 A 
ATOM     31  C   UNL A   1      41.494  22.214  25.753  1.00  0.00     0.014 A 
ATOM     32  C   UNL A   1      41.444  22.495  28.532  1.00  0.00     0.010 A 
ATOM     33  C   UNL A   1      41.830  23.434  26.335  1.00  0.00     0.010 A 
ATOM     34  C   UNL A   1      41.825  23.583  27.730  1.00  0.00    -0.014 A 
BRANCH  34  35
ATOM     35  C   UNL A   1      42.262  24.871  28.328  1.00  0.00     0.031 A 
ATOM     36  C   UNL A   1      41.270  25.976  28.562  1.00  0.00     0.074 A 
ATOM     37  C   UNL A   1      43.570  25.080  28.580  1.00  0.00     0.049 A 
ATOM     38  N   UNL A   1      41.482  27.200  28.974  1.00  0.00    -0.248 NA
ATOM     39  C   UNL A   1      39.861  25.673  28.271  1.00  0.00     0.031 C 
ATOM     40  C   UNL A   1      44.643  24.104  28.367  1.00  0.00     0.029 A 
ATOM     41  N   UNL A   1      44.222  26.189  29.055  1.00  0.00    -0.354 N 
ATOM     42  C   UNL A   1      40.239  27.819  28.975  1.00  0.00     0.074 A 
ATOM     43  C   UNL A   1      39.284  26.848  28.482  1.00  0.00     0.031 C 
ATOM     44  C   UNL A   1      45.813  24.652  28.729  1.00  0.00     0.029 A 
ATOM     45  C   UNL A   1      45.584  26.029  29.155  1.00  0.00     0.049 A 
ATOM     46  H   UNL A   1      43.759  27.023  29.303  1.00  0.00     0.167 HD
ATOM     47  C   UNL A   1      39.915  29.075  29.363  1.00  0.00     0.031 A 
ATOM     48  C   UNL A   1      46.544  26.894  29.531  1.00  0.00     0.031 A 
ATOM     49  C   UNL A   1      40.859  30.039  29.863  1.00  0.00     0.049 A 
ATOM     50  C   UNL A   1      46.164  28.293  29.930  1.00  0.00     0.074 A 
ATOM     51  C   UNL A   1      40.615  31.317  30.337  1.00  0.00     0.029 A 
ATOM     52  N   UNL A   1      42.227  29.834  29.948  1.00  0.00    -0.354 N 
ATOM     53  N   UNL A   1      44.973  28.840  29.983  1.00  0.00    -0.248 NA
ATOM     54  C   UNL A   1      47.259  29.190  30.324  1.00  0.00     0.031 C 
ATOM     55  C   UNL A   1      41.842  31.904  30.662  1.00  0.00     0.029 A 
ATOM     56  C   UNL A   1      42.844  30.972  30.441  1.00  0.00     0.049 A 
ATOM     57  H   UNL A   1      42.691  29.003  29.698  1.00  0.00     0.167 HD
ATOM     58  C   UNL A   1      45.175  30.136  30.439  1.00  0.00     0.074 A 
ATOM     59  C   UNL A   1      46.598  30.289  30.662  1.00  0.00     0.031 C 
ATOM     60  C   UNL A   1      44.261  31.112  30.655  1.00  0.00     0.031 A 
BRANCH  47  61
ATOM     61  C   UNL A   1      38.473  29.483  29.253  1.00  0.00    -0.014 A 
ATOM     62  C   UNL A   1      37.942  29.956  28.042  1.00  0.00     0.009 A 
ATOM     63  C   UNL A   1      37.625  29.358  30.364  1.00  0.00     0.009 A 
ATOM     64  C   UNL A   1      36.599  30.329  27.958  1.00  0.00     0.001 A 
ATOM     65  C   UNL A   1      36.277  29.704  30.269  1.00  0.00     0.001 A 
ATOM     66  C   UNL A   1      35.766  30.198  29.069  1.00  0.00     0.000 A 
ENDBRANCH  47  61
BRANCH  48  67
ATOM     67  C   UNL A   1      47.967  26.466  29.550  1.00  0.00    -0.014 A 
ATOM     68  C   UNL A   1      48.762  26.595  28.400  1.00  0.00     0.009 A 
ATOM     69  C   UNL A   1      48.535  25.919  30.711  1.00  0.00     0.009 A 
ATOM     70  C   UNL A   1      50.090  26.162  28.408  1.00  0.00     0.001 A 
ATOM     71  C   UNL A   1      49.871  25.514  30.723  1.00  0.00     0.001 A 
ATOM     72  C   UNL A   1      50.645  25.627  29.569  1.00  0.00     0.000 A 
ENDBRANCH  48  67
BRANCH  60  73
ATOM     73  C   UNL A   1      44.766  32.424  31.186  1.00  0.00    -0.014 A 
ATOM     74  C   UNL A   1      44.694  32.732  32.553  1.00  0.00     0.009 A 
ATOM     75  C   UNL A   1      45.365  33.343  30.310  1.00  0.00     0.009 A 
ATOM     76  C   UNL A   1      45.189  33.949  33.027  1.00  0.00     0.001 A 
ATOM     77  C   UNL A   1      45.883  34.546  30.792  1.00  0.00     0.001 A 
ATOM     78  C   UNL A   1      45.788  34.851  32.148  1.00  0.00     0.000 A 
ENDBRANCH  60  73
ENDBRANCH  34  35
ENDBRANCH  26  29
ENDBRANCH  24  25
ENDBRANCH  23  24
ENDBRANCH   1  23
TORSDOF 13
ENDMDL
MODEL 2
REMARK VINA RESULT:      -8.8      5.869     10.986
REMARK SMILES O=C(Cc1ccc(-c2ccn(C(F)F)c(=O)c2)cc1)NCCCNC(=O)c1ccc(-c2c3nc(c(-c4ccccc4)c4ccc([nH]4)c(-c4ccccc4)c4nc(c(-c5ccccc5)c5ccc2[nH]5)C=C4)C=C3)cc1
REMARK SMILES IDX 21 1 20 2 1 3 2 4 3 6 4 7 5 8 19 9 6 10 18 11 7 12 8 13 9 14
REMARK SMILES IDX 17 15 10 16 15 17 11 18 16 19 12 20 13 21 14 22 22 23 23 24
REMARK SMILES IDX 24 25 25 26 26 28 27 29 28 30 74 31 29 32 73 33 30 34 31 35
REMARK SMILES IDX 32 36 67 37 33 38 72 39 66 40 68 41 34 42 71 43 65 44 64 45
REMARK SMILES IDX 35 47 57 48 42 49 56 50 43 51 46 52 55 53 69 54 44 55 45 56
REMARK SMILES IDX 54 58 70 59 47 60 36 61 37 62 41 63 38 64 40 65 39 66 58 67
REMARK SMILES IDX 59 68 63 69 60 70 62 71 61 72 48 73 49 74 53 75 50 76 52 77
REMARK SMILES IDX 51 78
REMARK H PARENT 20 5 24 27 68 46 46 57
REMARK Flexibility Score: inf
ROOT
ATOM      1  C   UNL A   1      33.049  29.046  24.765  1.00  0.00     0.117 C 
ENDROOT
BRANCH   1   2
ATOM      2  N   UNL A   1      32.814  28.006  23.786  1.00  0.00    -0.356 N 
ATOM      3  O   UNL A   1      30.592  27.699  24.299  1.00  0.00    -0.275 OA
ATOM      4  C   UNL A   1      31.555  27.476  23.573  1.00  0.00     0.224 C 
ATOM      5  H   UNL A   1      33.572  27.666  23.256  1.00  0.00     0.163 HD
BRANCH   4   6
ATOM      6  C   UNL A   1      31.459  26.622  22.320  1.00  0.00     0.135 C 
BRANCH   6   7
ATOM      7  C   UNL A   1      31.721  25.144  22.538  1.00  0.00    -0.039 A 
ATOM      8  C   UNL A   1      32.902  24.509  22.126  1.00  0.00     0.005 A 
ATOM      9  C   UNL A   1      30.774  24.389  23.246  1.00  0.00     0.005 A 
ATOM     10  C   UNL A   1      33.134  23.162  22.413  1.00  0.00     0.009 A 
ATOM     11  C   UNL A   1      31.001  23.038  23.528  1.00  0.00     0.009 A 
ATOM     12  C   UNL A   1      32.189  22.419  23.123  1.00  0.00    -0.018 A 
BRANCH  12  13
ATOM     13  C   UNL A   1      32.442  21.007  23.446  1.00  0.00    -0.011 A 
ATOM     14  C   UNL A   1      32.972  20.575  24.723  1.00  0.00     0.027 A 
ATOM     15  C   UNL A   1      32.175  20.087  22.502  1.00  0.00     0.080 A 
ATOM     16  C   UNL A   1      33.212  19.280  24.955  1.00  0.00     0.095 A 
ATOM     17  C   UNL A   1      32.430  18.643  22.747  1.00  0.00     0.255 A 
ATOM     18  N   UNL A   1      32.955  18.325  23.990  1.00  0.00    -0.258 N 
ATOM     19  O   UNL A   1      32.172  17.844  21.852  1.00  0.00    -0.269 OA
BRANCH  18  20
ATOM     20  C   UNL A   1      33.246  16.936  24.237  1.00  0.00     0.451 C 
ATOM     21  F   UNL A   1      34.343  16.534  23.552  1.00  0.00    -0.185 F 
ATOM     22  F   UNL A   1      33.469  16.717  25.557  1.00  0.00    -0.185 F 
ENDBRANCH  18  20
ENDBRANCH  12  13
ENDBRANCH   6   7
ENDBRANCH   4   6
ENDBRANCH   1   2
BRANCH   1  23
ATOM     23  C   UNL A   1      34.008  28.620  25.866  1.00  0.00     0.042 C 
BRANCH  23  24
ATOM     24  C   UNL A   1      33.510  28.868  27.285  1.00  0.00     0.118 C 
BRANCH  24  25
ATOM     25  N   UNL A   1      33.620  30.255  27.715  1.00  0.00    -0.352 N 
ATOM     26  C   UNL A   1      34.687  30.907  28.289  1.00  0.00     0.251 C 
ATOM     27  H   UNL A   1      32.815  30.804  27.575  1.00  0.00     0.163 HD
ATOM     28  O   UNL A   1      34.562  32.062  28.686  1.00  0.00    -0.269 OA
BRANCH  26  29
ATOM     29  C   UNL A   1      35.975  30.202  28.469  1.00  0.00     0.039 A 
ATOM     30  C   UNL A   1      36.902  30.213  27.424  1.00  0.00     0.014 A 
ATOM     31  C   UNL A   1      36.284  29.565  29.673  1.00  0.00     0.014 A 
ATOM     32  C   UNL A   1      38.175  29.671  27.620  1.00  0.00     0.010 A 
ATOM     33  C   UNL A   1      37.575  29.089  29.891  1.00  0.00     0.010 A 
ATOM     34  C   UNL A   1      38.538  29.153  28.873  1.00  0.00    -0.014 A 
BRANCH  34  35
ATOM     35  C   UNL A   1      39.928  28.709  29.155  1.00  0.00     0.031 A 
ATOM     36  C   UNL A   1      40.916  29.654  29.779  1.00  0.00     0.074 A 
ATOM     37  C   UNL A   1      40.327  27.480  28.769  1.00  0.00     0.049 A 
ATOM     38  N   UNL A   1      42.194  29.480  30.003  1.00  0.00    -0.248 NA
ATOM     39  C   UNL A   1      40.407  30.974  30.181  1.00  0.00     0.031 C 
ATOM     40  C   UNL A   1      39.479  26.476  28.121  1.00  0.00     0.029 A 
ATOM     41  N   UNL A   1      41.555  26.873  28.851  1.00  0.00    -0.354 N 
ATOM     42  C   UNL A   1      42.646  30.673  30.554  1.00  0.00     0.074 A 
ATOM     43  C   UNL A   1      41.515  31.576  30.592  1.00  0.00     0.031 C 
ATOM     44  C   UNL A   1      40.207  25.373  27.885  1.00  0.00     0.029 A 
ATOM     45  C   UNL A   1      41.580  25.606  28.319  1.00  0.00     0.049 A 
ATOM     46  H   UNL A   1      42.344  27.303  29.254  1.00  0.00     0.167 HD
ATOM     47  C   UNL A   1      43.885  30.986  31.002  1.00  0.00     0.031 A 
ATOM     48  C   UNL A   1      42.596  24.733  28.179  1.00  0.00     0.031 A 
ATOM     49  C   UNL A   1      45.009  30.088  30.977  1.00  0.00     0.049 A 
ATOM     50  C   UNL A   1      43.969  25.115  28.657  1.00  0.00     0.074 A 
ATOM     51  C   UNL A   1      46.288  30.296  31.463  1.00  0.00     0.029 A 
ATOM     52  N   UNL A   1      44.990  28.814  30.430  1.00  0.00    -0.354 N 
ATOM     53  N   UNL A   1      44.363  26.225  29.232  1.00  0.00    -0.248 NA
ATOM     54  C   UNL A   1      45.035  24.120  28.470  1.00  0.00     0.031 C 
ATOM     55  C   UNL A   1      47.058  29.166  31.166  1.00  0.00     0.029 A 
ATOM     56  C   UNL A   1      46.243  28.235  30.542  1.00  0.00     0.049 A 
ATOM     57  H   UNL A   1      44.203  28.385  30.024  1.00  0.00     0.167 HD
ATOM     58  C   UNL A   1      45.715  26.053  29.497  1.00  0.00     0.074 A 
ATOM     59  C   UNL A   1      46.070  24.727  29.035  1.00  0.00     0.031 C 
ATOM     60  C   UNL A   1      46.584  26.917  30.075  1.00  0.00     0.031 A 
BRANCH  47  61
ATOM     61  C   UNL A   1      44.092  32.368  31.554  1.00  0.00    -0.014 A 
ATOM     62  C   UNL A   1      44.433  33.442  30.716  1.00  0.00     0.009 A 
ATOM     63  C   UNL A   1      43.907  32.609  32.924  1.00  0.00     0.009 A 
ATOM     64  C   UNL A   1      44.620  34.720  31.245  1.00  0.00     0.001 A 
ATOM     65  C   UNL A   1      44.066  33.893  33.446  1.00  0.00     0.001 A 
ATOM     66  C   UNL A   1      44.431  34.946  32.608  1.00  0.00     0.000 A 
ENDBRANCH  47  61
BRANCH  48  67
ATOM     67  C   UNL A   1      42.356  23.405  27.556  1.00  0.00    -0.014 A 
ATOM     68  C   UNL A   1      42.586  23.213  26.185  1.00  0.00     0.009 A 
ATOM     69  C   UNL A   1      41.890  22.327  28.324  1.00  0.00     0.009 A 
ATOM     70  C   UNL A   1      42.331  21.974  25.593  1.00  0.00     0.001 A 
ATOM     71  C   UNL A   1      41.662  21.083  27.735  1.00  0.00     0.001 A 
ATOM     72  C   UNL A   1      41.874  20.909  26.368  1.00  0.00     0.000 A 
ENDBRANCH  48  67
BRANCH  60  73
ATOM     73  C   UNL A   1      47.998  26.447  30.266  1.00  0.00    -0.014 A 
ATOM     74  C   UNL A   1      48.390  25.775  31.434  1.00  0.00     0.009 A 
ATOM     75  C   UNL A   1      48.938  26.638  29.240  1.00  0.00     0.009 A 
ATOM     76  C   UNL A   1      49.705  25.328  31.581  1.00  0.00     0.001 A 
ATOM     77  C   UNL A   1      50.244  26.166  29.381  1.00  0.00     0.001 A 
ATOM     78  C   UNL A   1      50.628  25.518  30.553  1.00  0.00     0.000 A 
ENDBRANCH  60  73
ENDBRANCH  34  35
ENDBRANCH  26  29
ENDBRANCH  24  25
ENDBRANCH  23  24
ENDBRANCH   1  23
TORSDOF 13
ENDMDL
MODEL 3
REMARK VINA RESULT:      -8.7      4.186     10.373
REMARK SMILES O=C(Cc1ccc(-c2ccn(C(F)F)c(=O)c2)cc1)NCCCNC(=O)c1ccc(-c2c3nc(c(-c4ccccc4)c4ccc([nH]4)c(-c4ccccc4)c4nc(c(-c5ccccc5)c5ccc2[nH]5)C=C4)C=C3)cc1
REMARK SMILES IDX 21 1 20 2 1 3 2 4 3 6 4 7 5 8 19 9 6 10 18 11 7 12 8 13 9 14
REMARK SMILES IDX 17 15 10 16 15 17 11 18 16 19 12 20 13 21 14 22 22 23 23 24
REMARK SMILES IDX 24 25 25 26 26 28 27 29 28 30 74 31 29 32 73 33 30 34 31 35
REMARK SMILES IDX 32 36 67 37 33 38 72 39 66 40 68 41 34 42 71 43 65 44 64 45
REMARK SMILES IDX 35 47 57 48 42 49 56 50 43 51 46 52 55 53 69 54 44 55 45 56
REMARK SMILES IDX 54 58 70 59 47 60 36 61 37 62 41 63 38 64 40 65 39 66 58 67
REMARK SMILES IDX 59 68 63 69 60 70 62 71 61 72 48 73 49 74 53 75 50 76 52 77
REMARK SMILES IDX 51 78
REMARK H PARENT 20 5 24 27 68 46 46 57
REMARK Flexibility Score: inf
ROOT
ATOM      1  C   UNL A   1      33.947  35.546  28.776  1.00  0.00     0.117 C 
ENDROOT
BRANCH   1   2
ATOM      2  N   UNL A   1      34.141  35.394  30.203  1.00  0.00    -0.356 N 
ATOM      3  O   UNL A   1      32.294  36.617  30.823  1.00  0.00    -0.275 OA
ATOM      4  C   UNL A   1      33.227  35.877  31.120  1.00  0.00     0.224 C 
ATOM      5  H   UNL A   1      34.948  34.933  30.530  1.00  0.00     0.163 HD
BRANCH   4   6
ATOM      6  C   UNL A   1      33.454  35.367  32.532  1.00  0.00     0.135 C 
BRANCH   6   7
ATOM      7  C   UNL A   1      34.642  34.437  32.687  1.00  0.00    -0.039 A 
ATOM      8  C   UNL A   1      35.895  34.867  33.151  1.00  0.00     0.005 A 
ATOM      9  C   UNL A   1      34.466  33.069  32.426  1.00  0.00     0.005 A 
ATOM     10  C   UNL A   1      36.939  33.962  33.350  1.00  0.00     0.009 A 
ATOM     11  C   UNL A   1      35.513  32.162  32.618  1.00  0.00     0.009 A 
ATOM     12  C   UNL A   1      36.753  32.603  33.093  1.00  0.00    -0.018 A 
BRANCH  12  13
ATOM     13  C   UNL A   1      37.846  31.646  33.325  1.00  0.00    -0.011 A 
ATOM     14  C   UNL A   1      39.129  32.035  33.874  1.00  0.00     0.027 A 
ATOM     15  C   UNL A   1      37.634  30.358  33.002  1.00  0.00     0.080 A 
ATOM     16  C   UNL A   1      40.100  31.129  34.037  1.00  0.00     0.095 A 
ATOM     17  C   UNL A   1      38.701  29.338  33.184  1.00  0.00     0.255 A 
ATOM     18  N   UNL A   1      39.902  29.805  33.696  1.00  0.00    -0.258 N 
ATOM     19  O   UNL A   1      38.459  28.176  32.870  1.00  0.00    -0.269 OA
BRANCH  18  20
ATOM     20  C   UNL A   1      40.962  28.843  33.847  1.00  0.00     0.451 C 
ATOM     21  F   UNL A   1      42.129  29.314  33.343  1.00  0.00    -0.185 F 
ATOM     22  F   UNL A   1      41.159  28.541  35.154  1.00  0.00    -0.185 F 
ENDBRANCH  18  20
ENDBRANCH  12  13
ENDBRANCH   6   7
ENDBRANCH   4   6
ENDBRANCH   1   2
BRANCH   1  23
ATOM     23  C   UNL A   1      34.815  34.606  27.954  1.00  0.00     0.042 C 
BRANCH  23  24
ATOM     24  C   UNL A   1      35.034  33.228  28.570  1.00  0.00     0.118 C 
BRANCH  24  25
ATOM     25  N   UNL A   1      34.056  32.233  28.151  1.00  0.00    -0.352 N 
ATOM     26  C   UNL A   1      34.224  30.885  27.934  1.00  0.00     0.251 C 
ATOM     27  H   UNL A   1      33.146  32.575  28.002  1.00  0.00     0.163 HD
ATOM     28  O   UNL A   1      33.302  30.215  27.476  1.00  0.00    -0.269 OA
BRANCH  26  29
ATOM     29  C   UNL A   1      35.531  30.248  28.208  1.00  0.00     0.039 A 
ATOM     30  C   UNL A   1      36.487  30.208  27.190  1.00  0.00     0.014 A 
ATOM     31  C   UNL A   1      35.825  29.724  29.469  1.00  0.00     0.014 A 
ATOM     32  C   UNL A   1      37.773  29.733  27.465  1.00  0.00     0.010 A 
ATOM     33  C   UNL A   1      37.126  29.318  29.761  1.00  0.00     0.010 A 
ATOM     34  C   UNL A   1      38.117  29.335  28.767  1.00  0.00    -0.014 A 
BRANCH  34  35
ATOM     35  C   UNL A   1      39.512  28.970  29.123  1.00  0.00     0.031 A 
ATOM     36  C   UNL A   1      40.412  29.969  29.794  1.00  0.00     0.074 A 
ATOM     37  C   UNL A   1      39.999  27.765  28.763  1.00  0.00     0.049 A 
ATOM     38  N   UNL A   1      41.685  29.868  30.085  1.00  0.00    -0.248 NA
ATOM     39  C   UNL A   1      39.810  31.260  30.163  1.00  0.00     0.031 C 
ATOM     40  C   UNL A   1      39.243  26.714  28.077  1.00  0.00     0.029 A 
ATOM     41  N   UNL A   1      41.253  27.227  28.911  1.00  0.00    -0.354 N 
ATOM     42  C   UNL A   1      42.039  31.084  30.653  1.00  0.00     0.074 A 
ATOM     43  C   UNL A   1      40.860  31.923  30.628  1.00  0.00     0.031 C 
ATOM     44  C   UNL A   1      40.043  25.653  27.882  1.00  0.00     0.029 A 
ATOM     45  C   UNL A   1      41.377  25.963  28.386  1.00  0.00     0.049 A 
ATOM     46  H   UNL A   1      41.995  27.702  29.353  1.00  0.00     0.167 HD
ATOM     47  C   UNL A   1      43.234  31.467  31.163  1.00  0.00     0.031 A 
ATOM     48  C   UNL A   1      42.445  25.148  28.303  1.00  0.00     0.031 A 
ATOM     49  C   UNL A   1      44.406  30.633  31.200  1.00  0.00     0.049 A 
ATOM     50  C   UNL A   1      43.768  25.607  28.851  1.00  0.00     0.074 A 
ATOM     51  C   UNL A   1      45.645  30.913  31.752  1.00  0.00     0.029 A 
ATOM     52  N   UNL A   1      44.487  29.360  30.659  1.00  0.00    -0.354 N 
ATOM     53  N   UNL A   1      44.069  26.738  29.441  1.00  0.00    -0.248 NA
ATOM     54  C   UNL A   1      44.897  24.673  28.723  1.00  0.00     0.031 C 
ATOM     55  C   UNL A   1      46.491  29.828  31.500  1.00  0.00     0.029 A 
ATOM     56  C   UNL A   1      45.763  28.852  30.838  1.00  0.00     0.049 A 
ATOM     57  H   UNL A   1      43.747  28.887  30.214  1.00  0.00     0.167 HD
ATOM     58  C   UNL A   1      45.413  26.642  29.776  1.00  0.00     0.074 A 
ATOM     59  C   UNL A   1      45.865  25.338  29.339  1.00  0.00     0.031 C 
ATOM     60  C   UNL A   1      46.201  27.554  30.395  1.00  0.00     0.031 A 
BRANCH  47  61
ATOM     61  C   UNL A   1      43.335  32.859  31.719  1.00  0.00    -0.014 A 
ATOM     62  C   UNL A   1      43.097  33.119  33.078  1.00  0.00     0.009 A 
ATOM     63  C   UNL A   1      43.711  33.920  30.881  1.00  0.00     0.009 A 
ATOM     64  C   UNL A   1      43.198  34.419  33.578  1.00  0.00     0.001 A 
ATOM     65  C   UNL A   1      43.839  35.214  31.389  1.00  0.00     0.001 A 
ATOM     66  C   UNL A   1      43.573  35.464  32.734  1.00  0.00     0.000 A 
ENDBRANCH  47  61
BRANCH  48  67
ATOM     67  C   UNL A   1      42.313  23.809  27.674  1.00  0.00    -0.014 A 
ATOM     68  C   UNL A   1      41.949  22.695  28.446  1.00  0.00     0.009 A 
ATOM     69  C   UNL A   1      42.558  23.634  26.303  1.00  0.00     0.009 A 
ATOM     70  C   UNL A   1      41.856  21.430  27.862  1.00  0.00     0.001 A 
ATOM     71  C   UNL A   1      42.437  22.373  25.717  1.00  0.00     0.001 A 
ATOM     72  C   UNL A   1      42.095  21.270  26.498  1.00  0.00     0.000 A 
ENDBRANCH  48  67
BRANCH  60  73
ATOM     73  C   UNL A   1      47.627  27.164  30.661  1.00  0.00    -0.014 A 
ATOM     74  C   UNL A   1      48.654  27.505  29.767  1.00  0.00     0.009 A 
ATOM     75  C   UNL A   1      47.953  26.488  31.848  1.00  0.00     0.009 A 
ATOM     76  C   UNL A   1      49.976  27.151  30.045  1.00  0.00     0.001 A 
ATOM     77  C   UNL A   1      49.279  26.159  32.134  1.00  0.00     0.001 A 
ATOM     78  C   UNL A   1      50.287  26.484  31.230  1.00  0.00     0.000 A 
ENDBRANCH  60  73
ENDBRANCH  34  35
ENDBRANCH  26  29
ENDBRANCH  24  25
ENDBRANCH  23  24
ENDBRANCH   1  23
TORSDOF 13
ENDMDL
