MODEL 1
REMARK VINA RESULT:     -13.6      0.000      0.000
REMARK SMILES Cc1c(NC(=O)[C@@H]2CC=CC[C@@H]2C(=O)NCCCNC(=O)c2ccc(-c3c4nc(c(-c5ccccc5)c5ccc([nH]5)c(-c5ccccc5)c5nc(c(-c6ccccc6)c6ccc3[nH]6)C=C5)C=C4)cc2)cccc1C(=O)N1CCOCC1
REMARK SMILES IDX 16 1 15 2 13 3 14 4 12 6 7 7 8 8 9 9 11 10 10 11 5 12 4 13
REMARK SMILES IDX 6 15 3 16 1 17 2 18 73 19 70 20 72 21 71 22 74 23 75 24
REMARK SMILES IDX 76 25 77 26 81 27 78 28 80 29 79 30 17 31 18 32 19 33 20 34
REMARK SMILES IDX 21 36 22 37 23 38 69 39 24 40 68 41 25 42 26 43 27 44 62 45
REMARK SMILES IDX 28 46 67 47 61 48 63 49 29 50 66 51 60 52 59 53 30 55 52 56
REMARK SMILES IDX 37 57 51 58 38 59 41 60 50 61 64 62 39 63 40 64 49 66 65 67
REMARK SMILES IDX 42 68 31 69 32 70 36 71 33 72 35 73 34 74 53 75 54 76 58 77
REMARK SMILES IDX 55 78 57 79 56 80 43 81 44 82 48 83 45 84 47 85 46 86
REMARK H PARENT 15 5 4 14 19 35 63 54 41 65
REMARK Flexibility Score: inf
ROOT
ATOM      1  C   UNL A   1      36.679  23.484  26.113  1.00  0.00     0.117 C 
ENDROOT
BRANCH   1   2
ATOM      2  N   UNL A   1      35.495  23.028  26.828  1.00  0.00    -0.356 N 
ATOM      3  C   UNL A   1      34.155  23.201  26.773  1.00  0.00     0.224 C 
ATOM      4  O   UNL A   1      33.566  22.536  27.642  1.00  0.00    -0.275 OA
ATOM      5  H   UNL A   1      35.741  22.420  27.562  1.00  0.00     0.163 HD
BRANCH   3   6
ATOM      6  C   UNL A   1      33.313  23.990  25.732  1.00  0.00     0.095 C 
ATOM      7  C   UNL A   1      31.837  23.618  25.420  1.00  0.00     0.095 C 
ATOM      8  C   UNL A   1      31.768  22.144  25.014  1.00  0.00     0.041 C 
ATOM      9  C   UNL A   1      32.768  21.818  23.937  1.00  0.00    -0.030 C 
ATOM     10  C   UNL A   1      34.062  23.918  24.364  1.00  0.00     0.041 C 
ATOM     11  C   UNL A   1      33.784  22.635  23.620  1.00  0.00    -0.030 C 
BRANCH   7  12
ATOM     12  C   UNL A   1      30.909  24.184  26.483  1.00  0.00     0.228 C 
ATOM     13  N   UNL A   1      30.565  25.486  26.606  1.00  0.00    -0.326 N 
ATOM     14  H   UNL A   1      29.717  25.598  27.093  1.00  0.00     0.169 HD
ATOM     15  O   UNL A   1      30.396  23.434  27.325  1.00  0.00    -0.274 OA
BRANCH  13  16
ATOM     16  C   UNL A   1      31.114  26.717  26.216  1.00  0.00     0.044 A 
ATOM     17  C   UNL A   1      30.197  26.228  23.915  1.00  0.00     0.047 C 
ATOM     18  C   UNL A   1      30.811  27.184  24.908  1.00  0.00    -0.015 A 
ATOM     19  C   UNL A   1      31.157  28.505  24.551  1.00  0.00     0.045 A 
ATOM     20  C   UNL A   1      31.837  27.523  27.096  1.00  0.00     0.026 A 
ATOM     21  C   UNL A   1      31.916  29.280  25.444  1.00  0.00     0.014 A 
ATOM     22  C   UNL A   1      32.269  28.786  26.698  1.00  0.00     0.003 A 
BRANCH  19  23
ATOM     23  C   UNL A   1      30.946  29.093  23.197  1.00  0.00     0.254 C 
ATOM     24  O   UNL A   1      31.701  28.701  22.306  1.00  0.00    -0.269 OA
ATOM     25  N   UNL A   1      29.924  30.002  22.944  1.00  0.00    -0.334 N 
ATOM     26  C   UNL A   1      29.270  30.904  23.901  1.00  0.00     0.148 C 
ATOM     27  C   UNL A   1      29.581  30.281  21.548  1.00  0.00     0.148 C 
ATOM     28  C   UNL A   1      27.760  31.025  23.618  1.00  0.00     0.181 C 
ATOM     29  C   UNL A   1      28.062  30.323  21.380  1.00  0.00     0.181 C 
ATOM     30  O   UNL A   1      27.492  31.325  22.239  1.00  0.00    -0.378 OA
ENDBRANCH  19  23
ENDBRANCH  13  16
ENDBRANCH   7  12
ENDBRANCH   3   6
ENDBRANCH   1   2
BRANCH   1  31
ATOM     31  C   UNL A   1      37.847  22.513  26.259  1.00  0.00     0.042 C 
BRANCH  31  32
ATOM     32  C   UNL A   1      39.150  23.003  25.653  1.00  0.00     0.118 C 
BRANCH  32  33
ATOM     33  N   UNL A   1      40.303  22.976  26.549  1.00  0.00    -0.352 N 
ATOM     34  C   UNL A   1      40.760  23.997  27.372  1.00  0.00     0.251 C 
ATOM     35  H   UNL A   1      40.815  22.135  26.573  1.00  0.00     0.163 HD
ATOM     36  O   UNL A   1      41.715  23.831  28.114  1.00  0.00    -0.269 OA
BRANCH  34  37
ATOM     37  C   UNL A   1      39.967  25.252  27.427  1.00  0.00     0.039 A 
ATOM     38  C   UNL A   1      40.463  26.355  26.731  1.00  0.00     0.014 A 
ATOM     39  C   UNL A   1      38.996  25.408  28.410  1.00  0.00     0.014 A 
ATOM     40  C   UNL A   1      40.197  27.629  27.220  1.00  0.00     0.010 A 
ATOM     41  C   UNL A   1      38.849  26.657  28.979  1.00  0.00     0.010 A 
ATOM     42  C   UNL A   1      39.505  27.762  28.425  1.00  0.00    -0.014 A 
BRANCH  42  43
ATOM     43  C   UNL A   1      39.521  28.990  29.217  1.00  0.00     0.031 A 
ATOM     44  C   UNL A   1      38.535  30.056  28.950  1.00  0.00     0.074 A 
ATOM     45  C   UNL A   1      40.428  29.165  30.206  1.00  0.00     0.049 A 
ATOM     46  N   UNL A   1      38.711  31.296  29.263  1.00  0.00    -0.248 NA
ATOM     47  C   UNL A   1      37.283  29.816  28.240  1.00  0.00     0.031 C 
ATOM     48  C   UNL A   1      40.441  30.209  31.228  1.00  0.00     0.029 A 
ATOM     49  N   UNL A   1      41.674  28.547  30.330  1.00  0.00    -0.354 N 
ATOM     50  C   UNL A   1      37.529  31.957  29.039  1.00  0.00     0.074 A 
ATOM     51  C   UNL A   1      36.686  31.004  28.353  1.00  0.00     0.031 C 
ATOM     52  C   UNL A   1      41.696  30.354  31.683  1.00  0.00     0.029 A 
ATOM     53  C   UNL A   1      42.553  29.506  30.876  1.00  0.00     0.049 A 
ATOM     54  H   UNL A   1      41.897  27.620  30.084  1.00  0.00     0.167 HD
ATOM     55  C   UNL A   1      37.351  33.209  29.540  1.00  0.00     0.031 A 
ATOM     56  C   UNL A   1      43.655  29.921  30.187  1.00  0.00     0.031 A 
ATOM     57  C   UNL A   1      38.556  33.730  30.182  1.00  0.00     0.049 A 
ATOM     58  C   UNL A   1      43.666  31.400  29.846  1.00  0.00     0.074 A 
ATOM     59  C   UNL A   1      38.970  33.899  31.492  1.00  0.00     0.029 A 
ATOM     60  N   UNL A   1      39.681  33.920  29.399  1.00  0.00    -0.354 N 
ATOM     61  N   UNL A   1      42.696  32.230  30.115  1.00  0.00    -0.248 NA
ATOM     62  C   UNL A   1      44.732  32.030  29.061  1.00  0.00     0.031 C 
ATOM     63  C   UNL A   1      40.362  34.206  31.481  1.00  0.00     0.029 A 
ATOM     64  C   UNL A   1      40.783  34.233  30.166  1.00  0.00     0.049 A 
ATOM     65  H   UNL A   1      39.693  33.842  28.417  1.00  0.00     0.167 HD
ATOM     66  C   UNL A   1      42.945  33.428  29.503  1.00  0.00     0.074 A 
ATOM     67  C   UNL A   1      44.238  33.264  28.867  1.00  0.00     0.031 C 
ATOM     68  C   UNL A   1      42.051  34.457  29.500  1.00  0.00     0.031 A 
BRANCH  55  69
ATOM     69  C   UNL A   1      36.011  33.890  29.611  1.00  0.00    -0.014 A 
ATOM     70  C   UNL A   1      35.377  34.046  30.856  1.00  0.00     0.009 A 
ATOM     71  C   UNL A   1      35.306  34.370  28.494  1.00  0.00     0.009 A 
ATOM     72  C   UNL A   1      34.079  34.559  30.967  1.00  0.00     0.001 A 
ATOM     73  C   UNL A   1      33.990  34.841  28.590  1.00  0.00     0.001 A 
ATOM     74  C   UNL A   1      33.372  34.927  29.829  1.00  0.00     0.000 A 
ENDBRANCH  55  69
BRANCH  56  75
ATOM     75  C   UNL A   1      44.250  28.856  29.331  1.00  0.00    -0.014 A 
ATOM     76  C   UNL A   1      44.967  27.817  29.958  1.00  0.00     0.009 A 
ATOM     77  C   UNL A   1      43.826  28.675  28.009  1.00  0.00     0.009 A 
ATOM     78  C   UNL A   1      45.142  26.585  29.323  1.00  0.00     0.001 A 
ATOM     79  C   UNL A   1      44.020  27.445  27.369  1.00  0.00     0.001 A 
ATOM     80  C   UNL A   1      44.640  26.391  28.039  1.00  0.00     0.000 A 
ENDBRANCH  56  75
BRANCH  68  81
ATOM     81  C   UNL A   1      42.301  35.767  28.814  1.00  0.00    -0.014 A 
ATOM     82  C   UNL A   1      41.788  36.051  27.542  1.00  0.00     0.009 A 
ATOM     83  C   UNL A   1      43.178  36.709  29.387  1.00  0.00     0.009 A 
ATOM     84  C   UNL A   1      42.111  37.248  26.888  1.00  0.00     0.001 A 
ATOM     85  C   UNL A   1      43.517  37.892  28.728  1.00  0.00     0.001 A 
ATOM     86  C   UNL A   1      42.977  38.165  27.479  1.00  0.00     0.000 A 
ENDBRANCH  68  81
ENDBRANCH  42  43
ENDBRANCH  34  37
ENDBRANCH  32  33
ENDBRANCH  31  32
ENDBRANCH   1  31
TORSDOF 13
ENDMDL
MODEL 2
REMARK VINA RESULT:     -13.5      2.156      3.558
REMARK SMILES Cc1c(NC(=O)[C@@H]2CC=CC[C@@H]2C(=O)NCCCNC(=O)c2ccc(-c3c4nc(c(-c5ccccc5)c5ccc([nH]5)c(-c5ccccc5)c5nc(c(-c6ccccc6)c6ccc3[nH]6)C=C5)C=C4)cc2)cccc1C(=O)N1CCOCC1
REMARK SMILES IDX 16 1 15 2 13 3 14 4 12 6 7 7 8 8 9 9 11 10 10 11 5 12 4 13
REMARK SMILES IDX 6 15 3 16 1 17 2 18 73 19 70 20 72 21 71 22 74 23 75 24
REMARK SMILES IDX 76 25 77 26 81 27 78 28 80 29 79 30 17 31 18 32 19 33 20 34
REMARK SMILES IDX 21 36 22 37 23 38 69 39 24 40 68 41 25 42 26 43 27 44 62 45
REMARK SMILES IDX 28 46 67 47 61 48 63 49 29 50 66 51 60 52 59 53 30 55 52 56
REMARK SMILES IDX 37 57 51 58 38 59 41 60 50 61 64 62 39 63 40 64 49 66 65 67
REMARK SMILES IDX 42 68 31 69 32 70 36 71 33 72 35 73 34 74 53 75 54 76 58 77
REMARK SMILES IDX 55 78 57 79 56 80 43 81 44 82 48 83 45 84 47 85 46 86
REMARK H PARENT 15 5 4 14 19 35 63 54 41 65
REMARK Flexibility Score: inf
ROOT
ATOM      1  C   UNL A   1      37.210  23.688  26.419  1.00  0.00     0.117 C 
ENDROOT
BRANCH   1   2
ATOM      2  N   UNL A   1      35.975  23.055  26.863  1.00  0.00    -0.356 N 
ATOM      3  C   UNL A   1      34.643  23.209  26.687  1.00  0.00     0.224 C 
ATOM      4  O   UNL A   1      33.992  22.349  27.304  1.00  0.00    -0.275 OA
ATOM      5  H   UNL A   1      36.165  22.299  27.464  1.00  0.00     0.163 HD
BRANCH   3   6
ATOM      6  C   UNL A   1      33.888  24.200  25.757  1.00  0.00     0.095 C 
ATOM      7  C   UNL A   1      32.402  23.980  25.360  1.00  0.00     0.095 C 
ATOM      8  C   UNL A   1      32.251  22.591  24.735  1.00  0.00     0.041 C 
ATOM      9  C   UNL A   1      33.262  22.361  23.644  1.00  0.00    -0.030 C 
ATOM     10  C   UNL A   1      34.675  24.280  24.411  1.00  0.00     0.041 C 
ATOM     11  C   UNL A   1      34.339  23.144  23.477  1.00  0.00    -0.030 C 
BRANCH   7  12
ATOM     12  C   UNL A   1      31.479  24.444  26.475  1.00  0.00     0.228 C 
ATOM     13  N   UNL A   1      31.024  25.708  26.637  1.00  0.00    -0.326 N 
ATOM     14  H   UNL A   1      30.193  25.735  27.165  1.00  0.00     0.169 HD
ATOM     15  O   UNL A   1      31.078  23.639  27.327  1.00  0.00    -0.274 OA
BRANCH  13  16
ATOM     16  C   UNL A   1      31.438  26.989  26.243  1.00  0.00     0.044 A 
ATOM     17  C   UNL A   1      30.584  26.397  23.942  1.00  0.00     0.047 C 
ATOM     18  C   UNL A   1      31.090  27.416  24.933  1.00  0.00    -0.015 A 
ATOM     19  C   UNL A   1      31.294  28.765  24.572  1.00  0.00     0.045 A 
ATOM     20  C   UNL A   1      32.069  27.871  27.121  1.00  0.00     0.026 A 
ATOM     21  C   UNL A   1      31.963  29.621  25.463  1.00  0.00     0.014 A 
ATOM     22  C   UNL A   1      32.364  29.172  26.720  1.00  0.00     0.003 A 
BRANCH  19  23
ATOM     23  C   UNL A   1      31.023  29.323  23.215  1.00  0.00     0.254 C 
ATOM     24  O   UNL A   1      31.803  28.991  22.321  1.00  0.00    -0.269 OA
ATOM     25  N   UNL A   1      29.925  30.139  22.963  1.00  0.00    -0.334 N 
ATOM     26  C   UNL A   1      29.202  30.988  23.918  1.00  0.00     0.148 C 
ATOM     27  C   UNL A   1      29.550  30.377  21.568  1.00  0.00     0.148 C 
ATOM     28  C   UNL A   1      27.686  30.978  23.646  1.00  0.00     0.181 C 
ATOM     29  C   UNL A   1      28.031  30.287  21.411  1.00  0.00     0.181 C 
ATOM     30  O   UNL A   1      27.383  31.243  22.267  1.00  0.00    -0.378 OA
ENDBRANCH  19  23
ENDBRANCH  13  16
ENDBRANCH   7  12
ENDBRANCH   3   6
ENDBRANCH   1   2
BRANCH   1  31
ATOM     31  C   UNL A   1      38.121  22.712  25.681  1.00  0.00     0.042 C 
BRANCH  31  32
ATOM     32  C   UNL A   1      39.407  22.378  26.415  1.00  0.00     0.118 C 
BRANCH  32  33
ATOM     33  N   UNL A   1      40.094  21.175  25.952  1.00  0.00    -0.352 N 
ATOM     34  C   UNL A   1      41.448  20.883  26.051  1.00  0.00     0.251 C 
ATOM     35  H   UNL A   1      39.532  20.491  25.521  1.00  0.00     0.163 HD
ATOM     36  O   UNL A   1      41.894  19.815  25.665  1.00  0.00    -0.269 OA
BRANCH  34  37
ATOM     37  C   UNL A   1      42.316  21.850  26.768  1.00  0.00     0.039 A 
ATOM     38  C   UNL A   1      42.340  21.781  28.162  1.00  0.00     0.014 A 
ATOM     39  C   UNL A   1      42.779  22.981  26.104  1.00  0.00     0.014 A 
ATOM     40  C   UNL A   1      42.554  22.949  28.887  1.00  0.00     0.010 A 
ATOM     41  C   UNL A   1      42.850  24.163  26.814  1.00  0.00     0.010 A 
ATOM     42  C   UNL A   1      42.669  24.159  28.202  1.00  0.00    -0.014 A 
BRANCH  42  43
ATOM     43  C   UNL A   1      42.495  25.457  28.852  1.00  0.00     0.031 A 
ATOM     44  C   UNL A   1      41.350  26.317  28.492  1.00  0.00     0.074 A 
ATOM     45  C   UNL A   1      43.369  25.883  29.793  1.00  0.00     0.049 A 
ATOM     46  N   UNL A   1      41.329  27.596  28.661  1.00  0.00    -0.248 NA
ATOM     47  C   UNL A   1      40.147  25.804  27.845  1.00  0.00     0.031 C 
ATOM     48  C   UNL A   1      43.223  27.026  30.692  1.00  0.00     0.029 A 
ATOM     49  N   UNL A   1      44.698  25.486  29.955  1.00  0.00    -0.354 N 
ATOM     50  C   UNL A   1      40.056  28.034  28.394  1.00  0.00     0.074 A 
ATOM     51  C   UNL A   1      39.370  26.889  27.839  1.00  0.00     0.031 C 
ATOM     52  C   UNL A   1      44.442  27.417  31.097  1.00  0.00     0.029 A 
ATOM     53  C   UNL A   1      45.417  26.627  30.368  1.00  0.00     0.049 A 
ATOM     54  H   UNL A   1      45.064  24.584  29.808  1.00  0.00     0.167 HD
ATOM     55  C   UNL A   1      39.685  29.291  28.757  1.00  0.00     0.031 A 
ATOM     56  C   UNL A   1      46.435  27.130  29.611  1.00  0.00     0.031 A 
ATOM     57  C   UNL A   1      40.795  30.064  29.307  1.00  0.00     0.049 A 
ATOM     58  C   UNL A   1      46.208  28.544  29.107  1.00  0.00     0.074 A 
ATOM     59  C   UNL A   1      41.186  30.444  30.580  1.00  0.00     0.029 A 
ATOM     60  N   UNL A   1      41.871  30.339  28.480  1.00  0.00    -0.354 N 
ATOM     61  N   UNL A   1      45.121  29.236  29.306  1.00  0.00    -0.248 NA
ATOM     62  C   UNL A   1      47.156  29.240  28.231  1.00  0.00     0.031 C 
ATOM     63  C   UNL A   1      42.511  30.963  30.501  1.00  0.00     0.029 A 
ATOM     64  C   UNL A   1      42.914  30.906  29.181  1.00  0.00     0.049 A 
ATOM     65  H   UNL A   1      41.889  30.152  27.514  1.00  0.00     0.167 HD
ATOM     66  C   UNL A   1      45.172  30.381  28.559  1.00  0.00     0.074 A 
ATOM     67  C   UNL A   1      46.471  30.350  27.914  1.00  0.00     0.031 C 
ATOM     68  C   UNL A   1      44.126  31.249  28.463  1.00  0.00     0.031 A 
BRANCH  55  69
ATOM     69  C   UNL A   1      38.253  29.757  28.784  1.00  0.00    -0.014 A 
ATOM     70  C   UNL A   1      37.643  30.052  30.016  1.00  0.00     0.009 A 
ATOM     71  C   UNL A   1      37.443  29.895  27.644  1.00  0.00     0.009 A 
ATOM     72  C   UNL A   1      36.283  30.369  30.112  1.00  0.00     0.001 A 
ATOM     73  C   UNL A   1      36.071  30.166  27.735  1.00  0.00     0.001 A 
ATOM     74  C   UNL A   1      35.488  30.395  28.972  1.00  0.00     0.000 A 
ENDBRANCH  55  69
BRANCH  56  75
ATOM     75  C   UNL A   1      47.185  26.081  28.864  1.00  0.00    -0.014 A 
ATOM     76  C   UNL A   1      46.752  25.746  27.565  1.00  0.00     0.009 A 
ATOM     77  C   UNL A   1      48.471  25.695  29.263  1.00  0.00     0.009 A 
ATOM     78  C   UNL A   1      47.627  25.154  26.650  1.00  0.00     0.001 A 
ATOM     79  C   UNL A   1      49.338  25.085  28.348  1.00  0.00     0.001 A 
ATOM     80  C   UNL A   1      48.930  24.852  27.035  1.00  0.00     0.000 A 
ENDBRANCH  56  75
BRANCH  68  81
ATOM     81  C   UNL A   1      44.161  32.496  27.630  1.00  0.00    -0.014 A 
ATOM     82  C   UNL A   1      44.038  33.772  28.196  1.00  0.00     0.009 A 
ATOM     83  C   UNL A   1      44.189  32.407  26.224  1.00  0.00     0.009 A 
ATOM     84  C   UNL A   1      43.985  34.914  27.386  1.00  0.00     0.001 A 
ATOM     85  C   UNL A   1      44.115  33.543  25.415  1.00  0.00     0.001 A 
ATOM     86  C   UNL A   1      44.020  34.799  25.998  1.00  0.00     0.000 A 
ENDBRANCH  68  81
ENDBRANCH  42  43
ENDBRANCH  34  37
ENDBRANCH  32  33
ENDBRANCH  31  32
ENDBRANCH   1  31
TORSDOF 13
ENDMDL
MODEL 3
REMARK VINA RESULT:     -13.4      3.391      9.016
REMARK SMILES Cc1c(NC(=O)[C@@H]2CC=CC[C@@H]2C(=O)NCCCNC(=O)c2ccc(-c3c4nc(c(-c5ccccc5)c5ccc([nH]5)c(-c5ccccc5)c5nc(c(-c6ccccc6)c6ccc3[nH]6)C=C5)C=C4)cc2)cccc1C(=O)N1CCOCC1
REMARK SMILES IDX 16 1 15 2 13 3 14 4 12 6 7 7 8 8 9 9 11 10 10 11 5 12 4 13
REMARK SMILES IDX 6 15 3 16 1 17 2 18 73 19 70 20 72 21 71 22 74 23 75 24
REMARK SMILES IDX 76 25 77 26 81 27 78 28 80 29 79 30 17 31 18 32 19 33 20 34
REMARK SMILES IDX 21 36 22 37 23 38 69 39 24 40 68 41 25 42 26 43 27 44 62 45
REMARK SMILES IDX 28 46 67 47 61 48 63 49 29 50 66 51 60 52 59 53 30 55 52 56
REMARK SMILES IDX 37 57 51 58 38 59 41 60 50 61 64 62 39 63 40 64 49 66 65 67
REMARK SMILES IDX 42 68 31 69 32 70 36 71 33 72 35 73 34 74 53 75 54 76 58 77
REMARK SMILES IDX 55 78 57 79 56 80 43 81 44 82 48 83 45 84 47 85 46 86
REMARK H PARENT 15 5 4 14 19 35 63 54 41 65
REMARK Flexibility Score: inf
ROOT
ATOM      1  C   UNL A   1      33.950  29.075  26.882  1.00  0.00     0.117 C 
ENDROOT
BRANCH   1   2
ATOM      2  N   UNL A   1      33.782  29.211  25.442  1.00  0.00    -0.356 N 
ATOM      3  C   UNL A   1      32.850  28.927  24.504  1.00  0.00     0.224 C 
ATOM      4  O   UNL A   1      33.210  29.283  23.369  1.00  0.00    -0.275 OA
ATOM      5  H   UNL A   1      34.574  29.630  25.034  1.00  0.00     0.163 HD
BRANCH   3   6
ATOM      6  C   UNL A   1      31.416  28.356  24.692  1.00  0.00     0.095 C 
ATOM      7  C   UNL A   1      31.127  26.830  24.631  1.00  0.00     0.095 C 
ATOM      8  C   UNL A   1      31.650  26.276  23.303  1.00  0.00     0.041 C 
ATOM      9  C   UNL A   1      31.158  27.084  22.132  1.00  0.00    -0.030 C 
ATOM     10  C   UNL A   1      30.502  29.000  23.604  1.00  0.00     0.041 C 
ATOM     11  C   UNL A   1      30.609  28.301  22.271  1.00  0.00    -0.030 C 
BRANCH   7  12
ATOM     12  C   UNL A   1      31.482  26.168  25.952  1.00  0.00     0.228 C 
ATOM     13  N   UNL A   1      32.465  25.256  26.130  1.00  0.00    -0.326 N 
ATOM     14  H   UNL A   1      32.770  25.220  27.065  1.00  0.00     0.169 HD
ATOM     15  O   UNL A   1      30.855  26.456  26.981  1.00  0.00    -0.274 OA
BRANCH  13  16
ATOM     16  C   UNL A   1      33.158  24.347  25.316  1.00  0.00     0.044 A 
ATOM     17  C   UNL A   1      31.051  22.954  25.333  1.00  0.00     0.047 C 
ATOM     18  C   UNL A   1      32.420  23.257  24.777  1.00  0.00    -0.015 A 
ATOM     19  C   UNL A   1      33.017  22.446  23.787  1.00  0.00     0.045 A 
ATOM     20  C   UNL A   1      34.488  24.543  24.945  1.00  0.00     0.026 A 
ATOM     21  C   UNL A   1      34.368  22.645  23.459  1.00  0.00     0.014 A 
ATOM     22  C   UNL A   1      35.103  23.672  24.047  1.00  0.00     0.003 A 
BRANCH  19  23
ATOM     23  C   UNL A   1      32.371  21.244  23.185  1.00  0.00     0.254 C 
ATOM     24  O   UNL A   1      31.751  21.422  22.136  1.00  0.00    -0.269 OA
ATOM     25  N   UNL A   1      32.498  19.981  23.754  1.00  0.00    -0.334 N 
ATOM     26  C   UNL A   1      32.765  19.655  25.161  1.00  0.00     0.148 C 
ATOM     27  C   UNL A   1      32.118  18.820  22.946  1.00  0.00     0.148 C 
ATOM     28  C   UNL A   1      33.707  18.442  25.289  1.00  0.00     0.181 C 
ATOM     29  C   UNL A   1      33.152  17.706  23.111  1.00  0.00     0.181 C 
ATOM     30  O   UNL A   1      33.265  17.330  24.494  1.00  0.00    -0.378 OA
ENDBRANCH  19  23
ENDBRANCH  13  16
ENDBRANCH   7  12
ENDBRANCH   3   6
ENDBRANCH   1   2
BRANCH   1  31
ATOM     31  C   UNL A   1      33.420  30.289  27.639  1.00  0.00     0.042 C 
BRANCH  31  32
ATOM     32  C   UNL A   1      34.327  31.505  27.587  1.00  0.00     0.118 C 
BRANCH  32  33
ATOM     33  N   UNL A   1      34.746  32.025  28.886  1.00  0.00    -0.352 N 
ATOM     34  C   UNL A   1      35.719  31.507  29.732  1.00  0.00     0.251 C 
ATOM     35  H   UNL A   1      34.286  32.837  29.199  1.00  0.00     0.163 HD
ATOM     36  O   UNL A   1      36.010  32.066  30.776  1.00  0.00    -0.269 OA
BRANCH  34  37
ATOM     37  C   UNL A   1      36.493  30.331  29.260  1.00  0.00     0.039 A 
ATOM     38  C   UNL A   1      36.775  29.332  30.193  1.00  0.00     0.014 A 
ATOM     39  C   UNL A   1      37.199  30.408  28.065  1.00  0.00     0.014 A 
ATOM     40  C   UNL A   1      37.948  28.599  30.055  1.00  0.00     0.010 A 
ATOM     41  C   UNL A   1      38.430  29.785  28.001  1.00  0.00     0.010 A 
ATOM     42  C   UNL A   1      38.837  28.930  29.031  1.00  0.00    -0.014 A 
BRANCH  42  43
ATOM     43  C   UNL A   1      40.239  28.516  29.034  1.00  0.00     0.031 A 
ATOM     44  C   UNL A   1      40.629  27.223  28.437  1.00  0.00     0.074 A 
ATOM     45  C   UNL A   1      41.195  29.308  29.572  1.00  0.00     0.049 A 
ATOM     46  N   UNL A   1      41.704  26.580  28.750  1.00  0.00    -0.248 NA
ATOM     47  C   UNL A   1      39.795  26.511  27.474  1.00  0.00     0.031 C 
ATOM     48  C   UNL A   1      42.644  29.159  29.457  1.00  0.00     0.029 A 
ATOM     49  N   UNL A   1      41.027  30.293  30.548  1.00  0.00    -0.354 N 
ATOM     50  C   UNL A   1      41.834  25.530  27.875  1.00  0.00     0.074 A 
ATOM     51  C   UNL A   1      40.594  25.498  27.134  1.00  0.00     0.031 C 
ATOM     52  C   UNL A   1      43.228  29.791  30.488  1.00  0.00     0.029 A 
ATOM     53  C   UNL A   1      42.172  30.251  31.371  1.00  0.00     0.049 A 
ATOM     54  H   UNL A   1      40.258  30.899  30.644  1.00  0.00     0.167 HD
ATOM     55  C   UNL A   1      43.013  24.855  27.802  1.00  0.00     0.031 A 
ATOM     56  C   UNL A   1      42.071  29.962  32.701  1.00  0.00     0.031 A 
ATOM     57  C   UNL A   1      43.978  25.308  28.802  1.00  0.00     0.049 A 
ATOM     58  C   UNL A   1      42.802  28.703  33.131  1.00  0.00     0.074 A 
ATOM     59  C   UNL A   1      45.108  26.107  28.778  1.00  0.00     0.029 A 
ATOM     60  N   UNL A   1      43.661  25.135  30.138  1.00  0.00    -0.354 N 
ATOM     61  N   UNL A   1      43.434  27.900  32.320  1.00  0.00    -0.248 NA
ATOM     62  C   UNL A   1      42.768  28.190  34.504  1.00  0.00     0.031 C 
ATOM     63  C   UNL A   1      45.471  26.402  30.124  1.00  0.00     0.029 A 
ATOM     64  C   UNL A   1      44.568  25.771  30.958  1.00  0.00     0.049 A 
ATOM     65  H   UNL A   1      42.886  24.622  30.462  1.00  0.00     0.167 HD
ATOM     66  C   UNL A   1      43.806  26.773  33.002  1.00  0.00     0.074 A 
ATOM     67  C   UNL A   1      43.383  27.005  34.369  1.00  0.00     0.031 C 
ATOM     68  C   UNL A   1      44.378  25.696  32.394  1.00  0.00     0.031 A 
BRANCH  55  69
ATOM     69  C   UNL A   1      43.356  23.904  26.687  1.00  0.00    -0.014 A 
ATOM     70  C   UNL A   1      43.353  22.520  26.930  1.00  0.00     0.009 A 
ATOM     71  C   UNL A   1      43.721  24.303  25.389  1.00  0.00     0.009 A 
ATOM     72  C   UNL A   1      43.782  21.597  25.968  1.00  0.00     0.001 A 
ATOM     73  C   UNL A   1      44.195  23.392  24.437  1.00  0.00     0.001 A 
ATOM     74  C   UNL A   1      44.234  22.037  24.730  1.00  0.00     0.000 A 
ENDBRANCH  55  69
BRANCH  56  75
ATOM     75  C   UNL A   1      40.804  30.451  33.315  1.00  0.00    -0.014 A 
ATOM     76  C   UNL A   1      40.657  31.837  33.530  1.00  0.00     0.009 A 
ATOM     77  C   UNL A   1      39.662  29.642  33.349  1.00  0.00     0.009 A 
ATOM     78  C   UNL A   1      39.389  32.411  33.648  1.00  0.00     0.001 A 
ATOM     79  C   UNL A   1      38.394  30.219  33.486  1.00  0.00     0.001 A 
ATOM     80  C   UNL A   1      38.256  31.603  33.595  1.00  0.00     0.000 A 
ENDBRANCH  56  75
BRANCH  68  81
ATOM     81  C   UNL A   1      44.770  24.446  33.124  1.00  0.00    -0.014 A 
ATOM     82  C   UNL A   1      43.861  23.407  33.363  1.00  0.00     0.009 A 
ATOM     83  C   UNL A   1      46.048  24.340  33.708  1.00  0.00     0.009 A 
ATOM     84  C   UNL A   1      44.230  22.291  34.124  1.00  0.00     0.001 A 
ATOM     85  C   UNL A   1      46.411  23.237  34.484  1.00  0.00     0.001 A 
ATOM     86  C   UNL A   1      45.503  22.208  34.687  1.00  0.00     0.000 A 
ENDBRANCH  68  81
ENDBRANCH  42  43
ENDBRANCH  34  37
ENDBRANCH  32  33
ENDBRANCH  31  32
ENDBRANCH   1  31
TORSDOF 13
ENDMDL
