MODEL 1
REMARK VINA RESULT:     -10.8      0.000      0.000
REMARK SMILES C[C@H]1SCCC[C@@]1(C(=O)NCCCNC(=O)c1ccc(-c2c3nc(c(-c4ccccc4)c4ccc([nH]4)c(-c4ccccc4)c4nc(c(-c5ccccc5)c5ccc2[nH]5)C=C4)C=C3)cc1)[NH+]1CCCC1
REMARK SMILES IDX 12 1 11 2 10 3 8 4 9 5 7 7 1 8 2 9 3 10 4 11 6 12 5 13 65 14
REMARK SMILES IDX 66 15 69 16 67 18 68 19 13 20 14 21 15 22 16 24 17 25 18 26
REMARK SMILES IDX 64 27 19 28 63 29 20 30 21 31 22 32 57 33 23 34 62 35 56 36
REMARK SMILES IDX 58 37 24 38 61 39 55 40 54 41 25 43 47 44 32 45 46 46 33 47
REMARK SMILES IDX 36 48 45 49 59 50 34 51 35 52 44 54 60 55 37 56 26 57 27 58
REMARK SMILES IDX 31 59 28 60 30 61 29 62 48 63 49 64 53 65 50 66 52 67 51 68
REMARK SMILES IDX 38 69 39 70 43 71 40 72 42 73 41 74
REMARK H PARENT 10 6 65 17 14 23 58 42 36 53
REMARK Flexibility Score: inf
ROOT
ATOM      1  C   UNL A   1      32.009  27.864  27.057  1.00  0.00     0.042 C 
ENDROOT
BRANCH   1   2
ATOM      2  C   UNL A   1      31.933  26.730  26.041  1.00  0.00     0.118 C 
BRANCH   2   3
ATOM      3  N   UNL A   1      31.358  25.518  26.602  1.00  0.00    -0.351 N 
ATOM      4  C   UNL A   1      31.470  24.172  26.473  1.00  0.00     0.282 C 
ATOM      5  O   UNL A   1      30.671  23.603  27.237  1.00  0.00    -0.268 OA
ATOM      6  H   UNL A   1      30.681  25.741  27.281  1.00  0.00     0.163 HD
BRANCH   4   7
ATOM      7  C   UNL A   1      32.365  23.339  25.415  1.00  0.00     0.188 C 
ATOM      8  C   UNL A   1      31.244  24.397  23.319  1.00  0.00     0.027 C 
ATOM      9  C   UNL A   1      31.554  23.111  24.091  1.00  0.00     0.115 C 
ATOM     10  S   UNL A   1      32.135  21.823  22.904  1.00  0.00    -0.152 SA
ATOM     11  C   UNL A   1      32.339  20.455  24.070  1.00  0.00     0.070 C 
ATOM     12  C   UNL A   1      32.618  21.964  26.107  1.00  0.00     0.081 C 
ATOM     13  C   UNL A   1      33.217  20.851  25.245  1.00  0.00     0.018 C 
BRANCH   7  14
ATOM     14  N   UNL A   1      33.641  24.117  25.202  1.00  0.00    -0.321 N 
ATOM     15  C   UNL A   1      34.298  24.219  23.906  1.00  0.00     0.263 C 
ATOM     16  C   UNL A   1      34.690  24.059  26.232  1.00  0.00     0.263 C 
ATOM     17  H   UNL A   1      33.081  24.965  25.284  1.00  0.00     0.349 HD
ATOM     18  C   UNL A   1      35.695  23.661  24.100  1.00  0.00     0.067 C 
ATOM     19  C   UNL A   1      36.033  24.058  25.515  1.00  0.00     0.067 C 
ENDBRANCH   7  14
ENDBRANCH   4   7
ENDBRANCH   2   3
ENDBRANCH   1   2
BRANCH   1  20
ATOM     20  C   UNL A   1      33.429  28.391  27.265  1.00  0.00     0.118 C 
BRANCH  20  21
ATOM     21  N   UNL A   1      33.455  29.830  27.506  1.00  0.00    -0.352 N 
ATOM     22  C   UNL A   1      34.399  30.622  28.102  1.00  0.00     0.251 C 
ATOM     23  H   UNL A   1      32.658  30.314  27.187  1.00  0.00     0.163 HD
ATOM     24  O   UNL A   1      34.105  31.775  28.428  1.00  0.00    -0.269 OA
BRANCH  22  25
ATOM     25  C   UNL A   1      35.764  30.122  28.359  1.00  0.00     0.039 A 
ATOM     26  C   UNL A   1      36.698  30.128  27.318  1.00  0.00     0.014 A 
ATOM     27  C   UNL A   1      36.112  29.589  29.603  1.00  0.00     0.014 A 
ATOM     28  C   UNL A   1      37.995  29.657  27.543  1.00  0.00     0.010 A 
ATOM     29  C   UNL A   1      37.422  29.193  29.848  1.00  0.00     0.010 A 
ATOM     30  C   UNL A   1      38.376  29.217  28.820  1.00  0.00    -0.014 A 
BRANCH  30  31
ATOM     31  C   UNL A   1      39.763  28.773  29.104  1.00  0.00     0.031 A 
ATOM     32  C   UNL A   1      40.748  29.720  29.733  1.00  0.00     0.074 A 
ATOM     33  C   UNL A   1      40.158  27.541  28.723  1.00  0.00     0.049 A 
ATOM     34  N   UNL A   1      42.025  29.549  29.967  1.00  0.00    -0.248 NA
ATOM     35  C   UNL A   1      40.239  31.046  30.124  1.00  0.00     0.031 C 
ATOM     36  C   UNL A   1      39.311  26.543  28.066  1.00  0.00     0.029 A 
ATOM     37  N   UNL A   1      41.380  26.926  28.820  1.00  0.00    -0.354 N 
ATOM     38  C   UNL A   1      42.475  30.749  30.504  1.00  0.00     0.074 A 
ATOM     39  C   UNL A   1      41.347  31.653  30.528  1.00  0.00     0.031 C 
ATOM     40  C   UNL A   1      40.033  25.434  27.838  1.00  0.00     0.029 A 
ATOM     41  C   UNL A   1      41.401  25.656  28.293  1.00  0.00     0.049 A 
ATOM     42  H   UNL A   1      42.168  27.352  29.230  1.00  0.00     0.167 HD
ATOM     43  C   UNL A   1      43.713  31.064  30.954  1.00  0.00     0.031 A 
ATOM     44  C   UNL A   1      42.412  24.775  28.179  1.00  0.00     0.031 A 
ATOM     45  C   UNL A   1      44.826  30.155  30.959  1.00  0.00     0.049 A 
ATOM     46  C   UNL A   1      43.773  25.149  28.696  1.00  0.00     0.074 A 
ATOM     47  C   UNL A   1      46.101  30.358  31.458  1.00  0.00     0.029 A 
ATOM     48  N   UNL A   1      44.797  28.869  30.444  1.00  0.00    -0.354 N 
ATOM     49  N   UNL A   1      44.162  26.264  29.265  1.00  0.00    -0.248 NA
ATOM     50  C   UNL A   1      44.832  24.138  28.562  1.00  0.00     0.031 C 
ATOM     51  C   UNL A   1      46.857  29.210  31.206  1.00  0.00     0.029 A 
ATOM     52  C   UNL A   1      46.037  28.274  30.595  1.00  0.00     0.049 A 
ATOM     53  H   UNL A   1      44.011  28.442  30.032  1.00  0.00     0.167 HD
ATOM     54  C   UNL A   1      45.502  26.076  29.585  1.00  0.00     0.074 A 
ATOM     55  C   UNL A   1      45.852  24.737  29.161  1.00  0.00     0.031 C 
ATOM     56  C   UNL A   1      46.364  26.937  30.176  1.00  0.00     0.031 A 
BRANCH  43  57
ATOM     57  C   UNL A   1      43.933  32.454  31.480  1.00  0.00    -0.014 A 
ATOM     58  C   UNL A   1      44.315  33.502  30.628  1.00  0.00     0.009 A 
ATOM     59  C   UNL A   1      43.695  32.733  32.835  1.00  0.00     0.009 A 
ATOM     60  C   UNL A   1      44.481  34.795  31.129  1.00  0.00     0.001 A 
ATOM     61  C   UNL A   1      43.835  34.031  33.328  1.00  0.00     0.001 A 
ATOM     62  C   UNL A   1      44.234  35.061  32.476  1.00  0.00     0.000 A 
ENDBRANCH  43  57
BRANCH  44  63
ATOM     63  C   UNL A   1      42.181  23.445  27.557  1.00  0.00    -0.014 A 
ATOM     64  C   UNL A   1      41.705  22.372  28.325  1.00  0.00     0.009 A 
ATOM     65  C   UNL A   1      42.462  23.235  26.197  1.00  0.00     0.009 A 
ATOM     66  C   UNL A   1      41.549  21.107  27.754  1.00  0.00     0.001 A 
ATOM     67  C   UNL A   1      42.276  21.975  25.623  1.00  0.00     0.001 A 
ATOM     68  C   UNL A   1      41.831  20.911  26.404  1.00  0.00     0.000 A 
ENDBRANCH  44  63
BRANCH  56  69
ATOM     69  C   UNL A   1      47.758  26.441  30.437  1.00  0.00    -0.014 A 
ATOM     70  C   UNL A   1      48.775  26.591  29.482  1.00  0.00     0.009 A 
ATOM     71  C   UNL A   1      48.063  25.853  31.674  1.00  0.00     0.009 A 
ATOM     72  C   UNL A   1      50.065  26.130  29.750  1.00  0.00     0.001 A 
ATOM     73  C   UNL A   1      49.360  25.418  31.949  1.00  0.00     0.001 A 
ATOM     74  C   UNL A   1      50.357  25.549  30.984  1.00  0.00     0.000 A 
ENDBRANCH  56  69
ENDBRANCH  30  31
ENDBRANCH  22  25
ENDBRANCH  20  21
ENDBRANCH   1  20
TORSDOF 11
ENDMDL
MODEL 2
REMARK VINA RESULT:     -10.6      2.593      7.686
REMARK SMILES C[C@H]1SCCC[C@@]1(C(=O)NCCCNC(=O)c1ccc(-c2c3nc(c(-c4ccccc4)c4ccc([nH]4)c(-c4ccccc4)c4nc(c(-c5ccccc5)c5ccc2[nH]5)C=C4)C=C3)cc1)[NH+]1CCCC1
REMARK SMILES IDX 12 1 11 2 10 3 8 4 9 5 7 7 1 8 2 9 3 10 4 11 6 12 5 13 65 14
REMARK SMILES IDX 66 15 69 16 67 18 68 19 13 20 14 21 15 22 16 24 17 25 18 26
REMARK SMILES IDX 64 27 19 28 63 29 20 30 21 31 22 32 57 33 23 34 62 35 56 36
REMARK SMILES IDX 58 37 24 38 61 39 55 40 54 41 25 43 47 44 32 45 46 46 33 47
REMARK SMILES IDX 36 48 45 49 59 50 34 51 35 52 44 54 60 55 37 56 26 57 27 58
REMARK SMILES IDX 31 59 28 60 30 61 29 62 48 63 49 64 53 65 50 66 52 67 51 68
REMARK SMILES IDX 38 69 39 70 43 71 40 72 42 73 41 74
REMARK H PARENT 10 6 65 17 14 23 58 42 36 53
REMARK Flexibility Score: inf
ROOT
ATOM      1  C   UNL A   1      35.842  23.906  25.868  1.00  0.00     0.042 C 
ENDROOT
BRANCH   1   2
ATOM      2  C   UNL A   1      34.462  23.742  25.241  1.00  0.00     0.118 C 
BRANCH   2   3
ATOM      3  N   UNL A   1      34.352  24.411  23.954  1.00  0.00    -0.351 N 
ATOM      4  C   UNL A   1      33.635  25.403  23.369  1.00  0.00     0.282 C 
ATOM      5  O   UNL A   1      33.977  25.533  22.181  1.00  0.00    -0.268 OA
ATOM      6  H   UNL A   1      34.993  24.028  23.313  1.00  0.00     0.163 HD
BRANCH   4   7
ATOM      7  C   UNL A   1      32.401  26.244  23.988  1.00  0.00     0.188 C 
ATOM      8  C   UNL A   1      30.965  24.141  24.524  1.00  0.00     0.027 C 
ATOM      9  C   UNL A   1      31.056  25.467  23.762  1.00  0.00     0.115 C 
ATOM     10  S   UNL A   1      29.462  26.378  23.948  1.00  0.00    -0.152 SA
ATOM     11  C   UNL A   1      29.847  27.810  22.913  1.00  0.00     0.070 C 
ATOM     12  C   UNL A   1      32.373  27.570  23.166  1.00  0.00     0.081 C 
ATOM     13  C   UNL A   1      31.148  28.469  23.337  1.00  0.00     0.018 C 
BRANCH   7  14
ATOM     14  N   UNL A   1      32.710  26.480  25.447  1.00  0.00    -0.321 N 
ATOM     15  C   UNL A   1      31.678  26.562  26.472  1.00  0.00     0.263 C 
ATOM     16  C   UNL A   1      33.771  27.436  25.803  1.00  0.00     0.263 C 
ATOM     17  H   UNL A   1      33.045  25.518  25.482  1.00  0.00     0.349 HD
ATOM     18  C   UNL A   1      31.833  27.927  27.114  1.00  0.00     0.067 C 
ATOM     19  C   UNL A   1      33.321  28.168  27.059  1.00  0.00     0.067 C 
ENDBRANCH   7  14
ENDBRANCH   4   7
ENDBRANCH   2   3
ENDBRANCH   1   2
BRANCH   1  20
ATOM     20  C   UNL A   1      36.983  23.687  24.875  1.00  0.00     0.118 C 
BRANCH  20  21
ATOM     21  N   UNL A   1      37.958  22.715  25.360  1.00  0.00    -0.352 N 
ATOM     22  C   UNL A   1      39.122  22.886  26.060  1.00  0.00     0.251 C 
ATOM     23  H   UNL A   1      37.743  21.777  25.147  1.00  0.00     0.163 HD
ATOM     24  O   UNL A   1      39.921  21.949  26.144  1.00  0.00    -0.269 OA
BRANCH  22  25
ATOM     25  C   UNL A   1      39.437  24.170  26.717  1.00  0.00     0.039 A 
ATOM     26  C   UNL A   1      38.999  24.389  28.027  1.00  0.00     0.014 A 
ATOM     27  C   UNL A   1      40.109  25.183  26.028  1.00  0.00     0.014 A 
ATOM     28  C   UNL A   1      39.287  25.599  28.665  1.00  0.00     0.010 A 
ATOM     29  C   UNL A   1      40.462  26.355  26.688  1.00  0.00     0.010 A 
ATOM     30  C   UNL A   1      40.051  26.579  28.010  1.00  0.00    -0.014 A 
BRANCH  30  31
ATOM     31  C   UNL A   1      40.427  27.846  28.685  1.00  0.00     0.031 A 
ATOM     32  C   UNL A   1      41.780  27.988  29.329  1.00  0.00     0.074 A 
ATOM     33  C   UNL A   1      39.520  28.839  28.787  1.00  0.00     0.049 A 
ATOM     34  N   UNL A   1      42.252  28.975  30.046  1.00  0.00    -0.248 NA
ATOM     35  C   UNL A   1      42.714  26.861  29.170  1.00  0.00     0.031 C 
ATOM     36  C   UNL A   1      38.161  28.808  28.243  1.00  0.00     0.029 A 
ATOM     37  N   UNL A   1      39.604  30.064  29.400  1.00  0.00    -0.354 N 
ATOM     38  C   UNL A   1      43.522  28.578  30.446  1.00  0.00     0.074 A 
ATOM     39  C   UNL A   1      43.734  27.246  29.924  1.00  0.00     0.031 C 
ATOM     40  C   UNL A   1      37.546  29.967  28.529  1.00  0.00     0.029 A 
ATOM     41  C   UNL A   1      38.450  30.804  29.309  1.00  0.00     0.049 A 
ATOM     42  H   UNL A   1      40.414  30.383  29.860  1.00  0.00     0.167 HD
ATOM     43  C   UNL A   1      44.438  29.267  31.168  1.00  0.00     0.031 A 
ATOM     44  C   UNL A   1      38.150  32.017  29.809  1.00  0.00     0.031 A 
ATOM     45  C   UNL A   1      44.239  30.603  31.660  1.00  0.00     0.049 A 
ATOM     46  C   UNL A   1      39.189  32.763  30.599  1.00  0.00     0.074 A 
ATOM     47  C   UNL A   1      45.133  31.412  32.341  1.00  0.00     0.029 A 
ATOM     48  N   UNL A   1      43.067  31.329  31.520  1.00  0.00    -0.354 N 
ATOM     49  N   UNL A   1      40.411  32.399  30.907  1.00  0.00    -0.248 NA
ATOM     50  C   UNL A   1      38.810  34.091  31.102  1.00  0.00     0.031 C 
ATOM     51  C   UNL A   1      44.487  32.612  32.652  1.00  0.00     0.029 A 
ATOM     52  C   UNL A   1      43.208  32.569  32.120  1.00  0.00     0.049 A 
ATOM     53  H   UNL A   1      42.256  31.011  31.063  1.00  0.00     0.167 HD
ATOM     54  C   UNL A   1      40.955  33.466  31.612  1.00  0.00     0.074 A 
ATOM     55  C   UNL A   1      39.938  34.495  31.671  1.00  0.00     0.031 C 
ATOM     56  C   UNL A   1      42.188  33.582  32.161  1.00  0.00     0.031 A 
BRANCH  43  57
ATOM     57  C   UNL A   1      45.743  28.589  31.472  1.00  0.00    -0.014 A 
ATOM     58  C   UNL A   1      45.897  27.787  32.614  1.00  0.00     0.009 A 
ATOM     59  C   UNL A   1      46.815  28.704  30.573  1.00  0.00     0.009 A 
ATOM     60  C   UNL A   1      47.107  27.135  32.862  1.00  0.00     0.001 A 
ATOM     61  C   UNL A   1      48.015  28.030  30.810  1.00  0.00     0.001 A 
ATOM     62  C   UNL A   1      48.162  27.251  31.958  1.00  0.00     0.000 A 
ENDBRANCH  43  57
BRANCH  44  63
ATOM     63  C   UNL A   1      36.809  32.615  29.576  1.00  0.00    -0.014 A 
ATOM     64  C   UNL A   1      36.535  33.308  28.387  1.00  0.00     0.009 A 
ATOM     65  C   UNL A   1      35.804  32.518  30.552  1.00  0.00     0.009 A 
ATOM     66  C   UNL A   1      35.295  33.922  28.196  1.00  0.00     0.001 A 
ATOM     67  C   UNL A   1      34.556  33.108  30.344  1.00  0.00     0.001 A 
ATOM     68  C   UNL A   1      34.307  33.819  29.172  1.00  0.00     0.000 A 
ENDBRANCH  44  63
BRANCH  56  69
ATOM     69  C   UNL A   1      42.518  34.882  32.837  1.00  0.00    -0.014 A 
ATOM     70  C   UNL A   1      43.270  35.871  32.185  1.00  0.00     0.009 A 
ATOM     71  C   UNL A   1      42.032  35.133  34.130  1.00  0.00     0.009 A 
ATOM     72  C   UNL A   1      43.557  37.076  32.831  1.00  0.00     0.001 A 
ATOM     73  C   UNL A   1      42.297  36.349  34.760  1.00  0.00     0.001 A 
ATOM     74  C   UNL A   1      43.066  37.315  34.114  1.00  0.00     0.000 A 
ENDBRANCH  56  69
ENDBRANCH  30  31
ENDBRANCH  22  25
ENDBRANCH  20  21
ENDBRANCH   1  20
TORSDOF 11
ENDMDL
MODEL 3
REMARK VINA RESULT:     -10.6      2.328      7.123
REMARK SMILES C[C@H]1SCCC[C@@]1(C(=O)NCCCNC(=O)c1ccc(-c2c3nc(c(-c4ccccc4)c4ccc([nH]4)c(-c4ccccc4)c4nc(c(-c5ccccc5)c5ccc2[nH]5)C=C4)C=C3)cc1)[NH+]1CCCC1
REMARK SMILES IDX 12 1 11 2 10 3 8 4 9 5 7 7 1 8 2 9 3 10 4 11 6 12 5 13 65 14
REMARK SMILES IDX 66 15 69 16 67 18 68 19 13 20 14 21 15 22 16 24 17 25 18 26
REMARK SMILES IDX 64 27 19 28 63 29 20 30 21 31 22 32 57 33 23 34 62 35 56 36
REMARK SMILES IDX 58 37 24 38 61 39 55 40 54 41 25 43 47 44 32 45 46 46 33 47
REMARK SMILES IDX 36 48 45 49 59 50 34 51 35 52 44 54 60 55 37 56 26 57 27 58
REMARK SMILES IDX 31 59 28 60 30 61 29 62 48 63 49 64 53 65 50 66 52 67 51 68
REMARK SMILES IDX 38 69 39 70 43 71 40 72 42 73 41 74
REMARK H PARENT 10 6 65 17 14 23 58 42 36 53
REMARK Flexibility Score: inf
ROOT
ATOM      1  C   UNL A   1      37.353  19.456  25.007  1.00  0.00     0.042 C 
ENDROOT
BRANCH   1   2
ATOM      2  C   UNL A   1      36.154  20.368  24.776  1.00  0.00     0.118 C 
BRANCH   2   3
ATOM      3  N   UNL A   1      35.473  20.719  26.013  1.00  0.00    -0.351 N 
ATOM      4  C   UNL A   1      34.519  21.576  26.453  1.00  0.00     0.282 C 
ATOM      5  O   UNL A   1      34.351  21.434  27.677  1.00  0.00    -0.268 OA
ATOM      6  H   UNL A   1      35.807  20.167  26.756  1.00  0.00     0.163 HD
BRANCH   4   7
ATOM      7  C   UNL A   1      33.764  22.743  25.628  1.00  0.00     0.188 C 
ATOM      8  C   UNL A   1      35.939  24.078  25.122  1.00  0.00     0.027 C 
ATOM      9  C   UNL A   1      34.551  24.093  25.770  1.00  0.00     0.115 C 
ATOM     10  S   UNL A   1      33.698  25.669  25.326  1.00  0.00    -0.152 SA
ATOM     11  C   UNL A   1      32.173  25.425  26.268  1.00  0.00     0.070 C 
ATOM     12  C   UNL A   1      32.373  22.883  26.322  1.00  0.00     0.081 C 
ATOM     13  C   UNL A   1      31.521  24.093  25.936  1.00  0.00     0.018 C 
BRANCH   7  14
ATOM     14  N   UNL A   1      33.647  22.273  24.198  1.00  0.00    -0.321 N 
ATOM     15  C   UNL A   1      33.789  23.166  23.056  1.00  0.00     0.263 C 
ATOM     16  C   UNL A   1      32.619  21.274  23.860  1.00  0.00     0.263 C 
ATOM     17  H   UNL A   1      34.563  21.842  24.315  1.00  0.00     0.349 HD
ATOM     18  C   UNL A   1      32.488  23.066  22.282  1.00  0.00     0.067 C 
ATOM     19  C   UNL A   1      32.077  21.629  22.483  1.00  0.00     0.067 C 
ENDBRANCH   7  14
ENDBRANCH   4   7
ENDBRANCH   2   3
ENDBRANCH   1   2
BRANCH   1  20
ATOM     20  C   UNL A   1      38.623  20.219  25.385  1.00  0.00     0.118 C 
BRANCH  20  21
ATOM     21  N   UNL A   1      39.741  19.325  25.670  1.00  0.00    -0.352 N 
ATOM     22  C   UNL A   1      41.018  19.591  26.085  1.00  0.00     0.251 C 
ATOM     23  H   UNL A   1      39.544  18.368  25.542  1.00  0.00     0.163 HD
ATOM     24  O   UNL A   1      41.873  18.704  26.019  1.00  0.00    -0.269 OA
BRANCH  22  25
ATOM     25  C   UNL A   1      41.390  20.919  26.611  1.00  0.00     0.039 A 
ATOM     26  C   UNL A   1      41.317  21.150  27.988  1.00  0.00     0.014 A 
ATOM     27  C   UNL A   1      41.750  21.958  25.749  1.00  0.00     0.014 A 
ATOM     28  C   UNL A   1      41.665  22.401  28.504  1.00  0.00     0.010 A 
ATOM     29  C   UNL A   1      42.169  23.178  26.268  1.00  0.00     0.010 A 
ATOM     30  C   UNL A   1      42.126  23.415  27.650  1.00  0.00    -0.014 A 
BRANCH  30  31
ATOM     31  C   UNL A   1      42.562  24.733  28.176  1.00  0.00     0.031 A 
ATOM     32  C   UNL A   1      41.556  25.828  28.403  1.00  0.00     0.074 A 
ATOM     33  C   UNL A   1      43.875  24.967  28.375  1.00  0.00     0.049 A 
ATOM     34  N   UNL A   1      41.756  27.071  28.762  1.00  0.00    -0.248 NA
ATOM     35  C   UNL A   1      40.142  25.493  28.166  1.00  0.00     0.031 C 
ATOM     36  C   UNL A   1      44.954  24.002  28.153  1.00  0.00     0.029 A 
ATOM     37  N   UNL A   1      44.525  26.100  28.796  1.00  0.00    -0.354 N 
ATOM     38  C   UNL A   1      40.502  27.669  28.767  1.00  0.00     0.074 A 
ATOM     39  C   UNL A   1      39.552  26.667  28.340  1.00  0.00     0.031 C 
ATOM     40  C   UNL A   1      46.129  24.576  28.459  1.00  0.00     0.029 A 
ATOM     41  C   UNL A   1      45.891  25.959  28.857  1.00  0.00     0.049 A 
ATOM     42  H   UNL A   1      44.059  26.933  29.033  1.00  0.00     0.167 HD
ATOM     43  C   UNL A   1      40.169  28.936  29.114  1.00  0.00     0.031 A 
ATOM     44  C   UNL A   1      46.846  26.849  29.186  1.00  0.00     0.031 A 
ATOM     45  C   UNL A   1      41.110  29.923  29.568  1.00  0.00     0.049 A 
ATOM     46  C   UNL A   1      46.446  28.245  29.576  1.00  0.00     0.074 A 
ATOM     47  C   UNL A   1      40.860  31.211  30.009  1.00  0.00     0.029 A 
ATOM     48  N   UNL A   1      42.480  29.730  29.645  1.00  0.00    -0.354 N 
ATOM     49  N   UNL A   1      45.247  28.771  29.642  1.00  0.00    -0.248 NA
ATOM     50  C   UNL A   1      47.531  29.165  29.945  1.00  0.00     0.031 C 
ATOM     51  C   UNL A   1      42.085  31.814  30.311  1.00  0.00     0.029 A 
ATOM     52  C   UNL A   1      43.092  30.883  30.107  1.00  0.00     0.049 A 
ATOM     53  H   UNL A   1      42.949  28.898  29.406  1.00  0.00     0.167 HD
ATOM     54  C   UNL A   1      45.433  30.074  30.090  1.00  0.00     0.074 A 
ATOM     55  C   UNL A   1      46.855  30.250  30.294  1.00  0.00     0.031 C 
ATOM     56  C   UNL A   1      44.507  31.037  30.312  1.00  0.00     0.031 A 
BRANCH  43  57
ATOM     57  C   UNL A   1      38.723  29.330  29.015  1.00  0.00    -0.014 A 
ATOM     58  C   UNL A   1      38.182  29.819  27.815  1.00  0.00     0.009 A 
ATOM     59  C   UNL A   1      37.874  29.153  30.120  1.00  0.00     0.009 A 
ATOM     60  C   UNL A   1      36.828  30.148  27.732  1.00  0.00     0.001 A 
ATOM     61  C   UNL A   1      36.515  29.456  30.026  1.00  0.00     0.001 A 
ATOM     62  C   UNL A   1      35.994  29.960  28.834  1.00  0.00     0.000 A 
ENDBRANCH  43  57
BRANCH  44  63
ATOM     63  C   UNL A   1      48.279  26.452  29.172  1.00  0.00    -0.014 A 
ATOM     64  C   UNL A   1      49.044  26.589  28.004  1.00  0.00     0.009 A 
ATOM     65  C   UNL A   1      48.881  25.910  30.319  1.00  0.00     0.009 A 
ATOM     66  C   UNL A   1      50.372  26.157  27.974  1.00  0.00     0.001 A 
ATOM     67  C   UNL A   1      50.218  25.507  30.293  1.00  0.00     0.001 A 
ATOM     68  C   UNL A   1      50.958  25.620  29.118  1.00  0.00     0.000 A 
ENDBRANCH  44  63
BRANCH  56  69
ATOM     69  C   UNL A   1      45.000  32.354  30.840  1.00  0.00    -0.014 A 
ATOM     70  C   UNL A   1      45.363  33.396  29.973  1.00  0.00     0.009 A 
ATOM     71  C   UNL A   1      45.062  32.565  32.226  1.00  0.00     0.009 A 
ATOM     72  C   UNL A   1      45.810  34.615  30.487  1.00  0.00     0.001 A 
ATOM     73  C   UNL A   1      45.483  33.793  32.736  1.00  0.00     0.001 A 
ATOM     74  C   UNL A   1      45.865  34.814  31.867  1.00  0.00     0.000 A 
ENDBRANCH  56  69
ENDBRANCH  30  31
ENDBRANCH  22  25
ENDBRANCH  20  21
ENDBRANCH   1  20
TORSDOF 11
ENDMDL
