MODEL 1
REMARK VINA RESULT:     -11.9      0.000      0.000
REMARK SMILES Cc1cc(OC(F)(F)F)cc2c1O[C@H](C(F)(F)F)C(C(=O)NCCCNC(=O)c1ccc(-c3c4nc(c(-c5ccccc5)c5ccc([nH]5)c(-c5ccccc5)c5nc(c(-c6ccccc6)c6ccc3[nH]6)C=C5)C=C4)cc1)=C2
REMARK SMILES IDX 24 1 23 2 22 3 20 4 21 5 19 7 1 8 2 9 3 10 12 11 4 12 11 13
REMARK SMILES IDX 13 14 10 15 77 16 14 17 5 18 6 19 7 20 8 21 9 22 15 23 16 24
REMARK SMILES IDX 17 25 18 26 25 27 26 28 27 29 28 31 29 32 30 33 76 34 31 35
REMARK SMILES IDX 75 36 32 37 33 38 34 39 69 40 35 41 74 42 68 43 70 44 36 45
REMARK SMILES IDX 73 46 67 47 66 48 37 50 59 51 44 52 58 53 45 54 48 55 57 56
REMARK SMILES IDX 71 57 46 58 47 59 56 61 72 62 49 63 38 64 39 65 43 66 40 67
REMARK SMILES IDX 42 68 41 69 60 70 61 71 65 72 62 73 64 74 63 75 50 76 51 77
REMARK SMILES IDX 55 78 52 79 54 80 53 81
REMARK H PARENT 22 6 26 30 70 49 48 60
REMARK Flexibility Score: inf
ROOT
ATOM      1  C   UNL A   1      37.758  19.644  24.990  1.00  0.00     0.042 C 
ENDROOT
BRANCH   1   2
ATOM      2  C   UNL A   1      36.670  20.656  24.661  1.00  0.00     0.118 C 
BRANCH   2   3
ATOM      3  N   UNL A   1      35.754  20.842  25.776  1.00  0.00    -0.352 N 
ATOM      4  C   UNL A   1      34.789  21.721  26.135  1.00  0.00     0.251 C 
ATOM      5  O   UNL A   1      34.257  21.496  27.226  1.00  0.00    -0.270 OA
ATOM      6  H   UNL A   1      35.865  20.136  26.454  1.00  0.00     0.163 HD
BRANCH   4   7
ATOM      7  C   UNL A   1      34.353  22.893  25.324  1.00  0.00     0.067 C 
ATOM      8  C   UNL A   1      33.059  26.211  21.614  1.00  0.00     0.048 C 
ATOM      9  C   UNL A   1      33.379  26.307  23.079  1.00  0.00    -0.005 A 
ATOM     10  C   UNL A   1      33.221  27.535  23.741  1.00  0.00     0.054 A 
ATOM     11  C   UNL A   1      33.760  25.184  23.821  1.00  0.00     0.131 A 
ATOM     12  C   UNL A   1      33.475  27.647  25.111  1.00  0.00     0.130 A 
ATOM     13  C   UNL A   1      34.014  25.279  25.191  1.00  0.00     0.021 A 
ATOM     14  O   UNL A   1      33.918  24.007  23.144  1.00  0.00    -0.475 OA
ATOM     15  C   UNL A   1      33.874  26.514  25.830  1.00  0.00     0.058 A 
ATOM     16  C   UNL A   1      34.450  24.095  25.923  1.00  0.00     0.025 C 
ATOM     17  C   UNL A   1      33.801  22.795  23.932  1.00  0.00     0.314 C 
BRANCH  12  18
ATOM     18  O   UNL A   1      33.371  28.785  25.860  1.00  0.00    -0.406 OA
BRANCH  18  19
ATOM     19  C   UNL A   1      32.072  29.214  26.230  1.00  0.00     0.573 C 
ATOM     20  F   UNL A   1      32.096  29.884  27.403  1.00  0.00    -0.132 F 
ATOM     21  F   UNL A   1      31.529  29.998  25.275  1.00  0.00    -0.132 F 
ATOM     22  F   UNL A   1      31.283  28.129  26.382  1.00  0.00    -0.132 F 
ENDBRANCH  18  19
ENDBRANCH  12  18
BRANCH  17  23
ATOM     23  C   UNL A   1      32.340  22.304  23.901  1.00  0.00     0.429 C 
ATOM     24  F   UNL A   1      31.704  22.654  25.047  1.00  0.00    -0.167 F 
ATOM     25  F   UNL A   1      31.629  22.852  22.887  1.00  0.00    -0.167 F 
ATOM     26  F   UNL A   1      32.239  20.964  23.773  1.00  0.00    -0.167 F 
ENDBRANCH  17  23
ENDBRANCH   4   7
ENDBRANCH   2   3
ENDBRANCH   1   2
BRANCH   1  27
ATOM     27  C   UNL A   1      38.925  20.288  25.729  1.00  0.00     0.118 C 
BRANCH  27  28
ATOM     28  N   UNL A   1      40.048  19.363  25.856  1.00  0.00    -0.352 N 
ATOM     29  C   UNL A   1      41.376  19.631  26.072  1.00  0.00     0.251 C 
ATOM     30  H   UNL A   1      39.819  18.409  25.773  1.00  0.00     0.163 HD
ATOM     31  O   UNL A   1      42.227  18.774  25.848  1.00  0.00    -0.269 OA
BRANCH  29  32
ATOM     32  C   UNL A   1      41.775  20.954  26.582  1.00  0.00     0.039 A 
ATOM     33  C   UNL A   1      42.226  21.930  25.690  1.00  0.00     0.014 A 
ATOM     34  C   UNL A   1      41.728  21.210  27.954  1.00  0.00     0.014 A 
ATOM     35  C   UNL A   1      42.583  23.188  26.175  1.00  0.00     0.010 A 
ATOM     36  C   UNL A   1      42.008  22.483  28.427  1.00  0.00     0.010 A 
ATOM     37  C   UNL A   1      42.455  23.475  27.544  1.00  0.00    -0.014 A 
BRANCH  37  38
ATOM     38  C   UNL A   1      42.844  24.790  28.094  1.00  0.00     0.031 A 
ATOM     39  C   UNL A   1      41.796  25.848  28.283  1.00  0.00     0.074 A 
ATOM     40  C   UNL A   1      44.134  25.049  28.366  1.00  0.00     0.049 A 
ATOM     41  N   UNL A   1      41.939  27.084  28.682  1.00  0.00    -0.248 NA
ATOM     42  C   UNL A   1      40.408  25.473  27.963  1.00  0.00     0.031 C 
ATOM     43  C   UNL A   1      45.242  24.107  28.193  1.00  0.00     0.029 A 
ATOM     44  N   UNL A   1      44.733  26.186  28.843  1.00  0.00    -0.354 N 
ATOM     45  C   UNL A   1      40.663  27.632  28.660  1.00  0.00     0.074 A 
ATOM     46  C   UNL A   1      39.769  26.617  28.149  1.00  0.00     0.031 C 
ATOM     47  C   UNL A   1      46.381  24.697  28.586  1.00  0.00     0.029 A 
ATOM     48  C   UNL A   1      46.089  26.066  29.007  1.00  0.00     0.049 A 
ATOM     49  H   UNL A   1      44.235  27.011  29.049  1.00  0.00     0.167 HD
ATOM     50  C   UNL A   1      40.267  28.861  29.059  1.00  0.00     0.031 A 
ATOM     51  C   UNL A   1      46.997  26.956  29.449  1.00  0.00     0.031 A 
ATOM     52  C   UNL A   1      41.154  29.864  29.574  1.00  0.00     0.049 A 
ATOM     53  C   UNL A   1      46.542  28.327  29.860  1.00  0.00     0.074 A 
ATOM     54  C   UNL A   1      40.846  31.132  30.029  1.00  0.00     0.029 A 
ATOM     55  N   UNL A   1      42.524  29.704  29.711  1.00  0.00    -0.354 N 
ATOM     56  N   UNL A   1      45.329  28.825  29.852  1.00  0.00    -0.248 NA
ATOM     57  C   UNL A   1      47.574  29.255  30.344  1.00  0.00     0.031 C 
ATOM     58  C   UNL A   1      42.037  31.755  30.412  1.00  0.00     0.029 A 
ATOM     59  C   UNL A   1      43.079  30.857  30.235  1.00  0.00     0.049 A 
ATOM     60  H   UNL A   1      43.027  28.892  29.473  1.00  0.00     0.167 HD
ATOM     61  C   UNL A   1      45.447  30.118  30.339  1.00  0.00     0.074 A 
ATOM     62  C   UNL A   1      46.849  30.327  30.642  1.00  0.00     0.031 C 
ATOM     63  C   UNL A   1      44.477  31.047  30.521  1.00  0.00     0.031 A 
BRANCH  50  64
ATOM     64  C   UNL A   1      38.803  29.173  28.975  1.00  0.00    -0.014 A 
ATOM     65  C   UNL A   1      37.976  29.023  30.100  1.00  0.00     0.009 A 
ATOM     66  C   UNL A   1      38.250  29.657  27.781  1.00  0.00     0.009 A 
ATOM     67  C   UNL A   1      36.617  29.330  30.024  1.00  0.00     0.001 A 
ATOM     68  C   UNL A   1      36.895  29.987  27.714  1.00  0.00     0.001 A 
ATOM     69  C   UNL A   1      36.079  29.817  28.833  1.00  0.00     0.000 A 
ENDBRANCH  50  64
BRANCH  51  70
ATOM     70  C   UNL A   1      48.417  26.543  29.551  1.00  0.00    -0.014 A 
ATOM     71  C   UNL A   1      49.310  26.829  28.509  1.00  0.00     0.009 A 
ATOM     72  C   UNL A   1      48.905  25.946  30.724  1.00  0.00     0.009 A 
ATOM     73  C   UNL A   1      50.669  26.530  28.641  1.00  0.00     0.001 A 
ATOM     74  C   UNL A   1      50.267  25.663  30.859  1.00  0.00     0.001 A 
ATOM     75  C   UNL A   1      51.146  25.956  29.819  1.00  0.00     0.000 A 
ENDBRANCH  51  70
BRANCH  63  76
ATOM     76  C   UNL A   1      44.877  32.382  31.074  1.00  0.00    -0.014 A 
ATOM     77  C   UNL A   1      45.173  33.450  30.216  1.00  0.00     0.009 A 
ATOM     78  C   UNL A   1      44.821  32.607  32.458  1.00  0.00     0.009 A 
ATOM     79  C   UNL A   1      45.405  34.725  30.737  1.00  0.00     0.001 A 
ATOM     80  C   UNL A   1      45.034  33.886  32.974  1.00  0.00     0.001 A 
ATOM     81  C   UNL A   1      45.324  34.944  32.112  1.00  0.00     0.000 A 
ENDBRANCH  63  76
ENDBRANCH  37  38
ENDBRANCH  29  32
ENDBRANCH  27  28
ENDBRANCH   1  27
TORSDOF 13
ENDMDL
MODEL 2
REMARK VINA RESULT:     -11.8      0.343      5.897
REMARK SMILES Cc1cc(OC(F)(F)F)cc2c1O[C@H](C(F)(F)F)C(C(=O)NCCCNC(=O)c1ccc(-c3c4nc(c(-c5ccccc5)c5ccc([nH]5)c(-c5ccccc5)c5nc(c(-c6ccccc6)c6ccc3[nH]6)C=C5)C=C4)cc1)=C2
REMARK SMILES IDX 24 1 23 2 22 3 20 4 21 5 19 7 1 8 2 9 3 10 12 11 4 12 11 13
REMARK SMILES IDX 13 14 10 15 77 16 14 17 5 18 6 19 7 20 8 21 9 22 15 23 16 24
REMARK SMILES IDX 17 25 18 26 25 27 26 28 27 29 28 31 29 32 30 33 76 34 31 35
REMARK SMILES IDX 75 36 32 37 33 38 34 39 69 40 35 41 74 42 68 43 70 44 36 45
REMARK SMILES IDX 73 46 67 47 66 48 37 50 59 51 44 52 58 53 45 54 48 55 57 56
REMARK SMILES IDX 71 57 46 58 47 59 56 61 72 62 49 63 38 64 39 65 43 66 40 67
REMARK SMILES IDX 42 68 41 69 60 70 61 71 65 72 62 73 64 74 63 75 50 76 51 77
REMARK SMILES IDX 55 78 52 79 54 80 53 81
REMARK H PARENT 22 6 26 30 70 49 48 60
REMARK Flexibility Score: inf
ROOT
ATOM      1  C   UNL A   1      37.484  19.486  25.011  1.00  0.00     0.042 C 
ENDROOT
BRANCH   1   2
ATOM      2  C   UNL A   1      36.335  20.426  24.674  1.00  0.00     0.118 C 
BRANCH   2   3
ATOM      3  N   UNL A   1      35.530  20.732  25.847  1.00  0.00    -0.352 N 
ATOM      4  C   UNL A   1      34.668  21.700  26.236  1.00  0.00     0.251 C 
ATOM      5  O   UNL A   1      34.210  21.565  27.375  1.00  0.00    -0.270 OA
ATOM      6  H   UNL A   1      35.641  20.048  26.547  1.00  0.00     0.163 HD
BRANCH   4   7
ATOM      7  C   UNL A   1      34.259  22.868  25.406  1.00  0.00     0.067 C 
ATOM      8  C   UNL A   1      33.008  26.142  21.642  1.00  0.00     0.048 C 
ATOM      9  C   UNL A   1      33.368  26.262  23.097  1.00  0.00    -0.005 A 
ATOM     10  C   UNL A   1      33.274  27.511  23.730  1.00  0.00     0.054 A 
ATOM     11  C   UNL A   1      33.722  25.143  23.858  1.00  0.00     0.131 A 
ATOM     12  C   UNL A   1      33.565  27.646  25.090  1.00  0.00     0.130 A 
ATOM     13  C   UNL A   1      34.012  25.262  25.219  1.00  0.00     0.021 A 
ATOM     14  O   UNL A   1      33.816  23.944  23.208  1.00  0.00    -0.475 OA
ATOM     15  C   UNL A   1      33.936  26.517  25.829  1.00  0.00     0.058 A 
ATOM     16  C   UNL A   1      34.418  24.080  25.971  1.00  0.00     0.025 C 
ATOM     17  C   UNL A   1      33.670  22.758  24.030  1.00  0.00     0.314 C 
BRANCH  12  18
ATOM     18  O   UNL A   1      33.525  28.806  25.812  1.00  0.00    -0.406 OA
BRANCH  18  19
ATOM     19  C   UNL A   1      32.259  29.261  26.258  1.00  0.00     0.573 C 
ATOM     20  F   UNL A   1      31.843  30.327  25.540  1.00  0.00    -0.132 F 
ATOM     21  F   UNL A   1      31.335  28.280  26.183  1.00  0.00    -0.132 F 
ATOM     22  F   UNL A   1      32.364  29.641  27.551  1.00  0.00    -0.132 F 
ENDBRANCH  18  19
ENDBRANCH  12  18
BRANCH  17  23
ATOM     23  C   UNL A   1      32.191  22.325  24.045  1.00  0.00     0.429 C 
ATOM     24  F   UNL A   1      31.619  22.655  25.231  1.00  0.00    -0.167 F 
ATOM     25  F   UNL A   1      31.460  22.940  23.085  1.00  0.00    -0.167 F 
ATOM     26  F   UNL A   1      32.031  20.996  23.871  1.00  0.00    -0.167 F 
ENDBRANCH  17  23
ENDBRANCH   4   7
ENDBRANCH   2   3
ENDBRANCH   1   2
BRANCH   1  27
ATOM     27  C   UNL A   1      38.747  20.250  25.389  1.00  0.00     0.118 C 
BRANCH  27  28
ATOM     28  N   UNL A   1      39.849  19.339  25.689  1.00  0.00    -0.352 N 
ATOM     29  C   UNL A   1      41.130  19.624  26.086  1.00  0.00     0.251 C 
ATOM     30  H   UNL A   1      39.642  18.381  25.592  1.00  0.00     0.163 HD
ATOM     31  O   UNL A   1      42.012  18.773  26.001  1.00  0.00    -0.269 OA
BRANCH  29  32
ATOM     32  C   UNL A   1      41.442  20.959  26.624  1.00  0.00     0.039 A 
ATOM     33  C   UNL A   1      41.245  21.220  27.983  1.00  0.00     0.014 A 
ATOM     34  C   UNL A   1      41.903  21.962  25.767  1.00  0.00     0.014 A 
ATOM     35  C   UNL A   1      41.561  22.479  28.492  1.00  0.00     0.010 A 
ATOM     36  C   UNL A   1      42.290  23.188  26.286  1.00  0.00     0.010 A 
ATOM     37  C   UNL A   1      42.105  23.461  27.648  1.00  0.00    -0.014 A 
BRANCH  37  38
ATOM     38  C   UNL A   1      42.432  24.812  28.151  1.00  0.00     0.031 A 
ATOM     39  C   UNL A   1      43.843  25.127  28.548  1.00  0.00     0.074 A 
ATOM     40  C   UNL A   1      41.457  25.726  28.302  1.00  0.00     0.049 A 
ATOM     41  N   UNL A   1      44.323  26.223  29.077  1.00  0.00    -0.248 NA
ATOM     42  C   UNL A   1      44.845  24.066  28.344  1.00  0.00     0.031 C 
ATOM     43  C   UNL A   1      40.045  25.520  27.975  1.00  0.00     0.029 A 
ATOM     44  N   UNL A   1      41.509  27.012  28.772  1.00  0.00    -0.354 N 
ATOM     45  C   UNL A   1      45.677  25.981  29.268  1.00  0.00     0.074 A 
ATOM     46  C   UNL A   1      45.933  24.618  28.859  1.00  0.00     0.031 C 
ATOM     47  C   UNL A   1      39.369  26.651  28.230  1.00  0.00     0.029 A 
ATOM     48  C   UNL A   1      40.294  27.649  28.765  1.00  0.00     0.049 A 
ATOM     49  H   UNL A   1      42.340  27.439  29.085  1.00  0.00     0.167 HD
ATOM     50  C   UNL A   1      46.629  26.830  29.714  1.00  0.00     0.031 A 
ATOM     51  C   UNL A   1      39.960  28.895  29.146  1.00  0.00     0.031 A 
ATOM     52  C   UNL A   1      46.377  28.186  30.110  1.00  0.00     0.049 A 
ATOM     53  C   UNL A   1      41.027  29.815  29.667  1.00  0.00     0.074 A 
ATOM     54  C   UNL A   1      47.279  29.134  30.553  1.00  0.00     0.029 A 
ATOM     55  N   UNL A   1      45.127  28.786  30.100  1.00  0.00    -0.354 N 
ATOM     56  N   UNL A   1      42.307  29.579  29.824  1.00  0.00    -0.248 NA
ATOM     57  C   UNL A   1      40.609  31.168  30.059  1.00  0.00     0.031 C 
ATOM     58  C   UNL A   1      46.570  30.303  30.843  1.00  0.00     0.029 A 
ATOM     59  C   UNL A   1      45.233  30.093  30.540  1.00  0.00     0.049 A 
ATOM     60  H   UNL A   1      44.291  28.349  29.821  1.00  0.00     0.167 HD
ATOM     61  C   UNL A   1      42.851  30.755  30.320  1.00  0.00     0.074 A 
ATOM     62  C   UNL A   1      41.764  31.707  30.431  1.00  0.00     0.031 C 
ATOM     63  C   UNL A   1      44.138  31.020  30.650  1.00  0.00     0.031 A 
BRANCH  50  64
ATOM     64  C   UNL A   1      48.037  26.317  29.770  1.00  0.00    -0.014 A 
ATOM     65  C   UNL A   1      48.885  26.438  28.658  1.00  0.00     0.009 A 
ATOM     66  C   UNL A   1      48.536  25.746  30.949  1.00  0.00     0.009 A 
ATOM     67  C   UNL A   1      50.200  25.975  28.718  1.00  0.00     0.001 A 
ATOM     68  C   UNL A   1      49.859  25.305  31.015  1.00  0.00     0.001 A 
ATOM     69  C   UNL A   1      50.687  25.414  29.899  1.00  0.00     0.000 A 
ENDBRANCH  50  64
BRANCH  51  70
ATOM     70  C   UNL A   1      38.552  29.337  29.004  1.00  0.00    -0.014 A 
ATOM     71  C   UNL A   1      38.070  29.760  27.757  1.00  0.00     0.009 A 
ATOM     72  C   UNL A   1      37.663  29.252  30.086  1.00  0.00     0.009 A 
ATOM     73  C   UNL A   1      36.721  30.085  27.595  1.00  0.00     0.001 A 
ATOM     74  C   UNL A   1      36.311  29.562  29.916  1.00  0.00     0.001 A 
ATOM     75  C   UNL A   1      35.842  29.976  28.671  1.00  0.00     0.000 A 
ENDBRANCH  51  70
BRANCH  63  76
ATOM     76  C   UNL A   1      44.464  32.390  31.165  1.00  0.00    -0.014 A 
ATOM     77  C   UNL A   1      44.487  32.648  32.543  1.00  0.00     0.009 A 
ATOM     78  C   UNL A   1      44.885  33.387  30.271  1.00  0.00     0.009 A 
ATOM     79  C   UNL A   1      44.930  33.885  33.017  1.00  0.00     0.001 A 
ATOM     80  C   UNL A   1      45.345  34.614  30.750  1.00  0.00     0.001 A 
ATOM     81  C   UNL A   1      45.368  34.861  32.122  1.00  0.00     0.000 A 
ENDBRANCH  63  76
ENDBRANCH  37  38
ENDBRANCH  29  32
ENDBRANCH  27  28
ENDBRANCH   1  27
TORSDOF 13
ENDMDL
MODEL 3
REMARK VINA RESULT:     -11.8      2.255      6.816
REMARK SMILES Cc1cc(OC(F)(F)F)cc2c1O[C@H](C(F)(F)F)C(C(=O)NCCCNC(=O)c1ccc(-c3c4nc(c(-c5ccccc5)c5ccc([nH]5)c(-c5ccccc5)c5nc(c(-c6ccccc6)c6ccc3[nH]6)C=C5)C=C4)cc1)=C2
REMARK SMILES IDX 24 1 23 2 22 3 20 4 21 5 19 7 1 8 2 9 3 10 12 11 4 12 11 13
REMARK SMILES IDX 13 14 10 15 77 16 14 17 5 18 6 19 7 20 8 21 9 22 15 23 16 24
REMARK SMILES IDX 17 25 18 26 25 27 26 28 27 29 28 31 29 32 30 33 76 34 31 35
REMARK SMILES IDX 75 36 32 37 33 38 34 39 69 40 35 41 74 42 68 43 70 44 36 45
REMARK SMILES IDX 73 46 67 47 66 48 37 50 59 51 44 52 58 53 45 54 48 55 57 56
REMARK SMILES IDX 71 57 46 58 47 59 56 61 72 62 49 63 38 64 39 65 43 66 40 67
REMARK SMILES IDX 42 68 41 69 60 70 61 71 65 72 62 73 64 74 63 75 50 76 51 77
REMARK SMILES IDX 55 78 52 79 54 80 53 81
REMARK H PARENT 22 6 26 30 70 49 48 60
REMARK Flexibility Score: inf
ROOT
ATOM      1  C   UNL A   1      35.303  23.258  26.440  1.00  0.00     0.042 C 
ENDROOT
BRANCH   1   2
ATOM      2  C   UNL A   1      34.170  22.676  25.606  1.00  0.00     0.118 C 
BRANCH   2   3
ATOM      3  N   UNL A   1      34.461  22.743  24.182  1.00  0.00    -0.352 N 
ATOM      4  C   UNL A   1      34.153  23.551  23.141  1.00  0.00     0.251 C 
ATOM      5  O   UNL A   1      34.622  23.204  22.053  1.00  0.00    -0.270 OA
ATOM      6  H   UNL A   1      35.039  21.998  23.898  1.00  0.00     0.163 HD
BRANCH   4   7
ATOM      7  C   UNL A   1      33.317  24.782  23.230  1.00  0.00     0.067 C 
ATOM      8  C   UNL A   1      29.890  28.563  22.592  1.00  0.00     0.048 C 
ATOM      9  C   UNL A   1      31.173  28.392  23.356  1.00  0.00    -0.005 A 
ATOM     10  C   UNL A   1      31.594  29.404  24.234  1.00  0.00     0.054 A 
ATOM     11  C   UNL A   1      31.923  27.214  23.274  1.00  0.00     0.131 A 
ATOM     12  C   UNL A   1      32.762  29.257  24.986  1.00  0.00     0.130 A 
ATOM     13  C   UNL A   1      33.091  27.051  24.022  1.00  0.00     0.021 A 
ATOM     14  O   UNL A   1      31.492  26.254  22.401  1.00  0.00    -0.475 OA
ATOM     15  C   UNL A   1      33.508  28.077  24.874  1.00  0.00     0.058 A 
ATOM     16  C   UNL A   1      33.868  25.825  23.879  1.00  0.00     0.025 C 
ATOM     17  C   UNL A   1      31.927  24.898  22.676  1.00  0.00     0.314 C 
BRANCH  12  18
ATOM     18  O   UNL A   1      33.281  30.172  25.858  1.00  0.00    -0.406 OA
BRANCH  18  19
ATOM     19  C   UNL A   1      32.558  30.429  27.051  1.00  0.00     0.573 C 
ATOM     20  F   UNL A   1      31.628  31.390  26.859  1.00  0.00    -0.132 F 
ATOM     21  F   UNL A   1      31.962  29.309  27.509  1.00  0.00    -0.132 F 
ATOM     22  F   UNL A   1      33.421  30.863  27.996  1.00  0.00    -0.132 F 
ENDBRANCH  18  19
ENDBRANCH  12  18
BRANCH  17  23
ATOM     23  C   UNL A   1      30.874  24.191  23.550  1.00  0.00     0.429 C 
ATOM     24  F   UNL A   1      30.717  22.905  23.147  1.00  0.00    -0.167 F 
ATOM     25  F   UNL A   1      31.232  24.140  24.856  1.00  0.00    -0.167 F 
ATOM     26  F   UNL A   1      29.662  24.785  23.498  1.00  0.00    -0.167 F 
ENDBRANCH  17  23
ENDBRANCH   4   7
ENDBRANCH   2   3
ENDBRANCH   1   2
BRANCH   1  27
ATOM     27  C   UNL A   1      36.549  23.512  25.600  1.00  0.00     0.118 C 
BRANCH  27  28
ATOM     28  N   UNL A   1      37.594  22.535  25.892  1.00  0.00    -0.352 N 
ATOM     29  C   UNL A   1      38.885  22.740  26.308  1.00  0.00     0.251 C 
ATOM     30  H   UNL A   1      37.335  21.593  25.772  1.00  0.00     0.163 HD
ATOM     31  O   UNL A   1      39.719  21.842  26.213  1.00  0.00    -0.269 OA
BRANCH  29  32
ATOM     32  C   UNL A   1      39.265  24.043  26.879  1.00  0.00     0.039 A 
ATOM     33  C   UNL A   1      38.910  24.351  28.194  1.00  0.00     0.014 A 
ATOM     34  C   UNL A   1      39.948  24.972  26.090  1.00  0.00     0.014 A 
ATOM     35  C   UNL A   1      39.290  25.578  28.737  1.00  0.00     0.010 A 
ATOM     36  C   UNL A   1      40.392  26.159  26.653  1.00  0.00     0.010 A 
ATOM     37  C   UNL A   1      40.051  26.479  27.974  1.00  0.00    -0.014 A 
BRANCH  37  38
ATOM     38  C   UNL A   1      40.452  27.795  28.512  1.00  0.00     0.031 A 
ATOM     39  C   UNL A   1      41.875  28.017  28.931  1.00  0.00     0.074 A 
ATOM     40  C   UNL A   1      39.532  28.763  28.673  1.00  0.00     0.049 A 
ATOM     41  N   UNL A   1      42.413  29.069  29.489  1.00  0.00    -0.248 NA
ATOM     42  C   UNL A   1      42.814  26.902  28.713  1.00  0.00     0.031 C 
ATOM     43  C   UNL A   1      38.114  28.649  28.327  1.00  0.00     0.029 A 
ATOM     44  N   UNL A   1      39.655  30.033  29.173  1.00  0.00    -0.354 N 
ATOM     45  C   UNL A   1      43.748  28.742  29.689  1.00  0.00     0.074 A 
ATOM     46  C   UNL A   1      43.926  27.376  29.252  1.00  0.00     0.031 C 
ATOM     47  C   UNL A   1      37.504  29.813  28.601  1.00  0.00     0.029 A 
ATOM     48  C   UNL A   1      38.480  30.741  29.169  1.00  0.00     0.049 A 
ATOM     49  H   UNL A   1      40.506  30.401  29.505  1.00  0.00     0.167 HD
ATOM     50  C   UNL A   1      44.744  29.522  30.164  1.00  0.00     0.031 A 
ATOM     51  C   UNL A   1      38.217  31.996  29.575  1.00  0.00     0.031 A 
ATOM     52  C   UNL A   1      44.568  30.882  30.589  1.00  0.00     0.049 A 
ATOM     53  C   UNL A   1      39.330  32.838  30.129  1.00  0.00     0.074 A 
ATOM     54  C   UNL A   1      45.520  31.764  31.064  1.00  0.00     0.029 A 
ATOM     55  N   UNL A   1      43.357  31.555  30.580  1.00  0.00    -0.354 N 
ATOM     56  N   UNL A   1      40.592  32.523  30.293  1.00  0.00    -0.248 NA
ATOM     57  C   UNL A   1      38.989  34.205  30.547  1.00  0.00     0.031 C 
ATOM     58  C   UNL A   1      44.878  32.966  31.374  1.00  0.00     0.029 A 
ATOM     59  C   UNL A   1      43.535  32.843  31.051  1.00  0.00     0.049 A 
ATOM     60  H   UNL A   1      42.499  31.176  30.282  1.00  0.00     0.167 HD
ATOM     61  C   UNL A   1      41.200  33.652  30.822  1.00  0.00     0.074 A 
ATOM     62  C   UNL A   1      40.170  34.665  30.944  1.00  0.00     0.031 C 
ATOM     63  C   UNL A   1      42.496  33.832  31.172  1.00  0.00     0.031 A 
BRANCH  50  64
ATOM     64  C   UNL A   1      46.118  28.925  30.224  1.00  0.00    -0.014 A 
ATOM     65  C   UNL A   1      46.549  28.243  31.373  1.00  0.00     0.009 A 
ATOM     66  C   UNL A   1      46.973  29.005  29.116  1.00  0.00     0.009 A 
ATOM     67  C   UNL A   1      47.822  27.673  31.420  1.00  0.00     0.001 A 
ATOM     68  C   UNL A   1      48.237  28.413  29.157  1.00  0.00     0.001 A 
ATOM     69  C   UNL A   1      48.662  27.754  30.310  1.00  0.00     0.000 A 
ENDBRANCH  50  64
BRANCH  51  70
ATOM     70  C   UNL A   1      36.840  32.525  29.428  1.00  0.00    -0.014 A 
ATOM     71  C   UNL A   1      35.919  32.392  30.478  1.00  0.00     0.009 A 
ATOM     72  C   UNL A   1      36.468  33.243  28.281  1.00  0.00     0.009 A 
ATOM     73  C   UNL A   1      34.652  32.973  30.383  1.00  0.00     0.001 A 
ATOM     74  C   UNL A   1      35.205  33.836  28.197  1.00  0.00     0.001 A 
ATOM     75  C   UNL A   1      34.300  33.701  29.248  1.00  0.00     0.000 A 
ENDBRANCH  51  70
BRANCH  63  76
ATOM     76  C   UNL A   1      42.897  35.168  31.722  1.00  0.00    -0.014 A 
ATOM     77  C   UNL A   1      42.868  35.410  33.102  1.00  0.00     0.009 A 
ATOM     78  C   UNL A   1      43.438  36.139  30.865  1.00  0.00     0.009 A 
ATOM     79  C   UNL A   1      43.377  36.605  33.616  1.00  0.00     0.001 A 
ATOM     80  C   UNL A   1      43.963  37.323  31.384  1.00  0.00     0.001 A 
ATOM     81  C   UNL A   1      43.933  37.554  32.759  1.00  0.00     0.000 A 
ENDBRANCH  63  76
ENDBRANCH  37  38
ENDBRANCH  29  32
ENDBRANCH  27  28
ENDBRANCH   1  27
TORSDOF 13
ENDMDL
