MODEL 1
REMARK VINA RESULT:     -12.6      0.000      0.000
REMARK SMILES NS(=O)(=O)c1ccc(-n2nc(C(=O)NCCCNC(=O)c3ccc(-c4c5nc(c(-c6ccccc6)c6ccc([nH]6)c(-c6ccccc6)c6nc(c(-c7ccccc7)c7ccc4[nH]7)C=C6)C=C5)cc3)cc2-c2ccc(Cl)s2)cc1
REMARK SMILES IDX 15 1 14 2 12 3 13 4 11 6 9 7 10 8 70 9 69 10 8 11 5 12 6 13
REMARK SMILES IDX 78 14 7 15 77 16 2 17 3 18 4 19 1 20 71 23 72 24 76 25 73 26
REMARK SMILES IDX 74 27 75 28 16 29 17 30 18 31 19 32 20 34 21 35 22 36 68 37
REMARK SMILES IDX 23 38 67 39 24 40 25 41 26 42 61 43 27 44 66 45 60 46 62 47
REMARK SMILES IDX 28 48 65 49 59 50 58 51 29 53 51 54 36 55 50 56 37 57 40 58
REMARK SMILES IDX 49 59 63 60 38 61 39 62 48 64 64 65 41 66 30 67 31 68 35 69
REMARK SMILES IDX 32 70 34 71 33 72 52 73 53 74 57 75 54 76 56 77 55 78 42 79
REMARK SMILES IDX 43 80 47 81 44 82 46 83 45 84
REMARK H PARENT 14 5 1 21 1 22 18 33 62 52 40 63
REMARK Flexibility Score: inf
ROOT
ATOM      1  C   UNL A   1      32.531  28.203  27.001  1.00  0.00     0.118 C 
ENDROOT
BRANCH   1   2
ATOM      2  N   UNL A   1      31.557  28.115  25.926  1.00  0.00    -0.351 N 
ATOM      3  C   UNL A   1      31.346  27.172  24.941  1.00  0.00     0.271 C 
ATOM      4  O   UNL A   1      30.376  27.377  24.205  1.00  0.00    -0.267 OA
ATOM      5  H   UNL A   1      30.928  28.872  25.896  1.00  0.00     0.163 HD
BRANCH   3   6
ATOM      6  C   UNL A   1      32.217  25.983  24.797  1.00  0.00     0.151 A 
ATOM      7  N   UNL A   1      32.715  23.895  24.589  1.00  0.00    -0.231 N 
ATOM      8  N   UNL A   1      31.688  24.774  24.508  1.00  0.00    -0.162 NA
ATOM      9  C   UNL A   1      33.925  24.534  24.766  1.00  0.00     0.085 A 
ATOM     10  C   UNL A   1      33.626  25.870  24.873  1.00  0.00     0.066 A 
BRANCH   7  11
ATOM     11  C   UNL A   1      32.503  22.506  24.427  1.00  0.00     0.065 A 
ATOM     12  C   UNL A   1      32.496  19.763  24.017  1.00  0.00     0.082 A 
ATOM     13  C   UNL A   1      32.650  20.264  25.313  1.00  0.00     0.024 A 
ATOM     14  C   UNL A   1      32.288  20.624  22.933  1.00  0.00     0.024 A 
ATOM     15  C   UNL A   1      32.670  21.642  25.519  1.00  0.00     0.030 A 
ATOM     16  C   UNL A   1      32.261  22.005  23.144  1.00  0.00     0.030 A 
BRANCH  12  17
ATOM     17  S   UNL A   1      32.592  18.011  23.806  1.00  0.00     0.238 S 
ATOM     18  O   UNL A   1      31.745  17.386  24.784  1.00  0.00    -0.207 OA
ATOM     19  O   UNL A   1      33.989  17.658  23.636  1.00  0.00    -0.207 OA
BRANCH  17  20
ATOM     20  N   UNL A   1      31.871  17.712  22.319  1.00  0.00    -0.225 NA
ATOM     21  H   UNL A   1      30.916  18.069  22.327  1.00  0.00     0.137 HD
ATOM     22  H   UNL A   1      31.858  16.707  22.144  1.00  0.00     0.137 HD
ENDBRANCH  17  20
ENDBRANCH  12  17
ENDBRANCH   7  11
BRANCH   9  23
ATOM     23  C   UNL A   1      35.229  23.946  24.726  1.00  0.00     0.054 A 
ATOM     24  C   UNL A   1      35.850  23.397  23.621  1.00  0.00     0.024 A 
ATOM     25  S   UNL A   1      36.176  23.755  26.144  1.00  0.00    -0.122 S 
ATOM     26  C   UNL A   1      37.126  22.844  23.941  1.00  0.00     0.033 A 
ATOM     27  C   UNL A   1      37.404  22.986  25.275  1.00  0.00     0.094 A 
ATOM     28  Cl  UNL A   1      38.818  22.455  26.090  1.00  0.00    -0.072 Cl
ENDBRANCH   9  23
ENDBRANCH   3   6
ENDBRANCH   1   2
BRANCH   1  29
ATOM     29  C   UNL A   1      33.578  29.296  26.745  1.00  0.00     0.042 C 
BRANCH  29  30
ATOM     30  C   UNL A   1      34.893  28.989  27.445  1.00  0.00     0.118 C 
BRANCH  30  31
ATOM     31  N   UNL A   1      35.181  29.951  28.510  1.00  0.00    -0.352 N 
ATOM     32  C   UNL A   1      36.306  30.060  29.299  1.00  0.00     0.251 C 
ATOM     33  H   UNL A   1      34.474  30.612  28.687  1.00  0.00     0.163 HD
ATOM     34  O   UNL A   1      36.279  30.711  30.338  1.00  0.00    -0.269 OA
BRANCH  32  35
ATOM     35  C   UNL A   1      37.535  29.363  28.891  1.00  0.00     0.039 A 
ATOM     36  C   UNL A   1      38.176  29.692  27.694  1.00  0.00     0.014 A 
ATOM     37  C   UNL A   1      38.073  28.407  29.747  1.00  0.00     0.014 A 
ATOM     38  C   UNL A   1      39.416  29.126  27.417  1.00  0.00     0.010 A 
ATOM     39  C   UNL A   1      39.355  27.960  29.543  1.00  0.00     0.010 A 
ATOM     40  C   UNL A   1      40.021  28.283  28.364  1.00  0.00    -0.014 A 
BRANCH  40  41
ATOM     41  C   UNL A   1      41.401  27.839  28.182  1.00  0.00     0.031 A 
ATOM     42  C   UNL A   1      41.559  26.509  27.534  1.00  0.00     0.074 A 
ATOM     43  C   UNL A   1      42.474  28.638  28.374  1.00  0.00     0.049 A 
ATOM     44  N   UNL A   1      42.035  25.430  28.063  1.00  0.00    -0.248 NA
ATOM     45  C   UNL A   1      41.033  26.325  26.173  1.00  0.00     0.031 C 
ATOM     46  C   UNL A   1      42.482  30.066  28.719  1.00  0.00     0.029 A 
ATOM     47  N   UNL A   1      43.796  28.367  28.180  1.00  0.00    -0.354 N 
ATOM     48  C   UNL A   1      42.052  24.479  27.046  1.00  0.00     0.074 A 
ATOM     49  C   UNL A   1      41.283  25.031  25.960  1.00  0.00     0.031 C 
ATOM     50  C   UNL A   1      43.704  30.586  28.472  1.00  0.00     0.029 A 
ATOM     51  C   UNL A   1      44.603  29.496  28.150  1.00  0.00     0.049 A 
ATOM     52  H   UNL A   1      44.146  27.453  28.073  1.00  0.00     0.167 HD
ATOM     53  C   UNL A   1      42.916  23.427  27.079  1.00  0.00     0.031 A 
ATOM     54  C   UNL A   1      45.930  29.547  27.897  1.00  0.00     0.031 A 
ATOM     55  C   UNL A   1      43.541  23.298  28.370  1.00  0.00     0.049 A 
ATOM     56  C   UNL A   1      46.490  28.215  28.189  1.00  0.00     0.074 A 
ATOM     57  C   UNL A   1      43.163  22.909  29.634  1.00  0.00     0.029 A 
ATOM     58  N   UNL A   1      44.720  23.988  28.490  1.00  0.00    -0.354 N 
ATOM     59  N   UNL A   1      46.527  27.709  29.388  1.00  0.00    -0.248 NA
ATOM     60  C   UNL A   1      46.725  27.270  27.106  1.00  0.00     0.031 C 
ATOM     61  C   UNL A   1      44.000  23.640  30.529  1.00  0.00     0.029 A 
ATOM     62  C   UNL A   1      44.882  24.420  29.779  1.00  0.00     0.049 A 
ATOM     63  H   UNL A   1      45.356  24.150  27.758  1.00  0.00     0.167 HD
ATOM     64  C   UNL A   1      46.336  26.355  29.193  1.00  0.00     0.074 A 
ATOM     65  C   UNL A   1      46.663  26.125  27.791  1.00  0.00     0.031 C 
ATOM     66  C   UNL A   1      45.636  25.613  30.099  1.00  0.00     0.031 A 
BRANCH  53  67
ATOM     67  C   UNL A   1      43.578  22.834  25.853  1.00  0.00    -0.014 A 
ATOM     68  C   UNL A   1      43.662  21.432  25.746  1.00  0.00     0.009 A 
ATOM     69  C   UNL A   1      44.388  23.581  24.978  1.00  0.00     0.009 A 
ATOM     70  C   UNL A   1      44.557  20.816  24.862  1.00  0.00     0.001 A 
ATOM     71  C   UNL A   1      45.256  22.969  24.067  1.00  0.00     0.001 A 
ATOM     72  C   UNL A   1      45.361  21.587  24.029  1.00  0.00     0.000 A 
ENDBRANCH  53  67
BRANCH  54  73
ATOM     73  C   UNL A   1      46.731  30.633  27.306  1.00  0.00    -0.014 A 
ATOM     74  C   UNL A   1      46.125  31.810  26.845  1.00  0.00     0.009 A 
ATOM     75  C   UNL A   1      48.130  30.619  27.448  1.00  0.00     0.009 A 
ATOM     76  C   UNL A   1      46.890  32.953  26.584  1.00  0.00     0.001 A 
ATOM     77  C   UNL A   1      48.893  31.761  27.190  1.00  0.00     0.001 A 
ATOM     78  C   UNL A   1      48.270  32.934  26.775  1.00  0.00     0.000 A 
ENDBRANCH  54  73
BRANCH  66  79
ATOM     79  C   UNL A   1      45.450  26.202  31.472  1.00  0.00    -0.014 A 
ATOM     80  C   UNL A   1      44.369  27.033  31.814  1.00  0.00     0.009 A 
ATOM     81  C   UNL A   1      46.351  25.829  32.478  1.00  0.00     0.009 A 
ATOM     82  C   UNL A   1      44.213  27.501  33.122  1.00  0.00     0.001 A 
ATOM     83  C   UNL A   1      46.184  26.279  33.789  1.00  0.00     0.001 A 
ATOM     84  C   UNL A   1      45.120  27.121  34.110  1.00  0.00     0.000 A 
ENDBRANCH  66  79
ENDBRANCH  40  41
ENDBRANCH  32  35
ENDBRANCH  30  31
ENDBRANCH  29  30
ENDBRANCH   1  29
TORSDOF 14
ENDMDL
MODEL 2
REMARK VINA RESULT:     -12.5      3.582      7.952
REMARK SMILES NS(=O)(=O)c1ccc(-n2nc(C(=O)NCCCNC(=O)c3ccc(-c4c5nc(c(-c6ccccc6)c6ccc([nH]6)c(-c6ccccc6)c6nc(c(-c7ccccc7)c7ccc4[nH]7)C=C6)C=C5)cc3)cc2-c2ccc(Cl)s2)cc1
REMARK SMILES IDX 15 1 14 2 12 3 13 4 11 6 9 7 10 8 70 9 69 10 8 11 5 12 6 13
REMARK SMILES IDX 78 14 7 15 77 16 2 17 3 18 4 19 1 20 71 23 72 24 76 25 73 26
REMARK SMILES IDX 74 27 75 28 16 29 17 30 18 31 19 32 20 34 21 35 22 36 68 37
REMARK SMILES IDX 23 38 67 39 24 40 25 41 26 42 61 43 27 44 66 45 60 46 62 47
REMARK SMILES IDX 28 48 65 49 59 50 58 51 29 53 51 54 36 55 50 56 37 57 40 58
REMARK SMILES IDX 49 59 63 60 38 61 39 62 48 64 64 65 41 66 30 67 31 68 35 69
REMARK SMILES IDX 32 70 34 71 33 72 52 73 53 74 57 75 54 76 56 77 55 78 42 79
REMARK SMILES IDX 43 80 47 81 44 82 46 83 45 84
REMARK H PARENT 14 5 1 21 1 22 18 33 62 52 40 63
REMARK Flexibility Score: inf
ROOT
ATOM      1  C   UNL A   1      35.821  23.058  23.782  1.00  0.00     0.118 C 
ENDROOT
BRANCH   1   2
ATOM      2  N   UNL A   1      34.633  22.221  23.811  1.00  0.00    -0.351 N 
ATOM      3  C   UNL A   1      33.303  22.508  24.045  1.00  0.00     0.271 C 
ATOM      4  O   UNL A   1      32.526  21.555  23.939  1.00  0.00    -0.267 OA
ATOM      5  H   UNL A   1      34.811  21.271  23.630  1.00  0.00     0.163 HD
BRANCH   3   6
ATOM      6  C   UNL A   1      32.845  23.876  24.379  1.00  0.00     0.151 A 
ATOM      7  N   UNL A   1      31.782  25.735  24.125  1.00  0.00    -0.231 N 
ATOM      8  N   UNL A   1      31.858  24.463  23.667  1.00  0.00    -0.162 NA
ATOM      9  C   UNL A   1      32.588  25.933  25.227  1.00  0.00     0.085 A 
ATOM     10  C   UNL A   1      33.252  24.746  25.418  1.00  0.00     0.066 A 
BRANCH   7  11
ATOM     11  C   UNL A   1      30.901  26.672  23.537  1.00  0.00     0.065 A 
ATOM     12  C   UNL A   1      29.226  28.733  22.736  1.00  0.00     0.082 A 
ATOM     13  C   UNL A   1      30.567  28.745  22.343  1.00  0.00     0.024 A 
ATOM     14  C   UNL A   1      28.704  27.667  23.479  1.00  0.00     0.024 A 
ATOM     15  C   UNL A   1      31.414  27.720  22.757  1.00  0.00     0.030 A 
ATOM     16  C   UNL A   1      29.541  26.614  23.857  1.00  0.00     0.030 A 
BRANCH  12  17
ATOM     17  S   UNL A   1      28.230  30.117  22.273  1.00  0.00     0.238 S 
ATOM     18  O   UNL A   1      27.071  30.151  23.123  1.00  0.00    -0.207 OA
ATOM     19  O   UNL A   1      28.143  30.141  20.825  1.00  0.00    -0.207 OA
BRANCH  17  20
ATOM     20  N   UNL A   1      29.140  31.466  22.689  1.00  0.00    -0.225 NA
ATOM     21  H   UNL A   1      29.376  31.989  21.846  1.00  0.00     0.137 HD
ATOM     22  H   UNL A   1      29.996  31.168  23.156  1.00  0.00     0.137 HD
ENDBRANCH  17  20
ENDBRANCH  12  17
ENDBRANCH   7  11
BRANCH   9  23
ATOM     23  C   UNL A   1      32.635  27.089  26.069  1.00  0.00     0.054 A 
ATOM     24  C   UNL A   1      31.666  27.493  26.967  1.00  0.00     0.024 A 
ATOM     25  S   UNL A   1      33.923  28.218  25.980  1.00  0.00    -0.122 S 
ATOM     26  C   UNL A   1      32.004  28.723  27.605  1.00  0.00     0.033 A 
ATOM     27  C   UNL A   1      33.204  29.202  27.150  1.00  0.00     0.094 A 
ATOM     28  Cl  UNL A   1      33.980  30.653  27.636  1.00  0.00    -0.072 Cl
ENDBRANCH   9  23
ENDBRANCH   3   6
ENDBRANCH   1   2
BRANCH   1  29
ATOM     29  C   UNL A   1      37.063  22.318  24.297  1.00  0.00     0.042 C 
BRANCH  29  30
ATOM     30  C   UNL A   1      37.570  22.912  25.602  1.00  0.00     0.118 C 
BRANCH  30  31
ATOM     31  N   UNL A   1      38.524  22.026  26.271  1.00  0.00    -0.352 N 
ATOM     32  C   UNL A   1      39.728  22.337  26.866  1.00  0.00     0.251 C 
ATOM     33  H   UNL A   1      38.270  21.076  26.300  1.00  0.00     0.163 HD
ATOM     34  O   UNL A   1      40.548  21.460  27.111  1.00  0.00    -0.269 OA
BRANCH  32  35
ATOM     35  C   UNL A   1      40.026  23.743  27.180  1.00  0.00     0.039 A 
ATOM     36  C   UNL A   1      39.098  24.748  26.898  1.00  0.00     0.014 A 
ATOM     37  C   UNL A   1      41.230  24.042  27.811  1.00  0.00     0.014 A 
ATOM     38  C   UNL A   1      39.347  26.040  27.350  1.00  0.00     0.010 A 
ATOM     39  C   UNL A   1      41.408  25.279  28.379  1.00  0.00     0.010 A 
ATOM     40  C   UNL A   1      40.491  26.296  28.124  1.00  0.00    -0.014 A 
BRANCH  40  41
ATOM     41  C   UNL A   1      40.669  27.593  28.773  1.00  0.00     0.031 A 
ATOM     42  C   UNL A   1      41.679  28.485  28.141  1.00  0.00     0.074 A 
ATOM     43  C   UNL A   1      39.846  28.065  29.736  1.00  0.00     0.049 A 
ATOM     44  N   UNL A   1      42.801  28.880  28.646  1.00  0.00    -0.248 NA
ATOM     45  C   UNL A   1      41.469  28.904  26.747  1.00  0.00     0.031 C 
ATOM     46  C   UNL A   1      38.624  27.441  30.260  1.00  0.00     0.029 A 
ATOM     47  N   UNL A   1      39.866  29.271  30.370  1.00  0.00    -0.354 N 
ATOM     48  C   UNL A   1      43.353  29.756  27.714  1.00  0.00     0.074 A 
ATOM     49  C   UNL A   1      42.577  29.610  26.509  1.00  0.00     0.031 C 
ATOM     50  C   UNL A   1      37.900  28.360  30.934  1.00  0.00     0.029 A 
ATOM     51  C   UNL A   1      38.696  29.564  31.058  1.00  0.00     0.049 A 
ATOM     52  H   UNL A   1      40.640  29.879  30.344  1.00  0.00     0.167 HD
ATOM     53  C   UNL A   1      44.237  30.721  28.092  1.00  0.00     0.031 A 
ATOM     54  C   UNL A   1      38.394  30.709  31.709  1.00  0.00     0.031 A 
ATOM     55  C   UNL A   1      44.702  30.512  29.438  1.00  0.00     0.049 A 
ATOM     56  C   UNL A   1      39.665  31.380  32.042  1.00  0.00     0.074 A 
ATOM     57  C   UNL A   1      45.532  29.627  30.088  1.00  0.00     0.029 A 
ATOM     58  N   UNL A   1      43.945  31.139  30.394  1.00  0.00    -0.354 N 
ATOM     59  N   UNL A   1      40.529  30.887  32.881  1.00  0.00    -0.248 NA
ATOM     60  C   UNL A   1      40.161  32.460  31.199  1.00  0.00     0.031 C 
ATOM     61  C   UNL A   1      45.036  29.542  31.423  1.00  0.00     0.029 A 
ATOM     62  C   UNL A   1      43.946  30.405  31.550  1.00  0.00     0.049 A 
ATOM     63  H   UNL A   1      43.470  31.992  30.269  1.00  0.00     0.167 HD
ATOM     64  C   UNL A   1      41.756  31.262  32.369  1.00  0.00     0.074 A 
ATOM     65  C   UNL A   1      41.466  32.374  31.471  1.00  0.00     0.031 C 
ATOM     66  C   UNL A   1      42.838  30.440  32.482  1.00  0.00     0.031 A 
BRANCH  53  67
ATOM     67  C   UNL A   1      44.301  32.101  27.473  1.00  0.00    -0.014 A 
ATOM     68  C   UNL A   1      43.789  33.191  28.205  1.00  0.00     0.009 A 
ATOM     69  C   UNL A   1      44.542  32.322  26.104  1.00  0.00     0.009 A 
ATOM     70  C   UNL A   1      43.473  34.407  27.586  1.00  0.00     0.001 A 
ATOM     71  C   UNL A   1      44.262  33.547  25.490  1.00  0.00     0.001 A 
ATOM     72  C   UNL A   1      43.702  34.581  26.225  1.00  0.00     0.000 A 
ENDBRANCH  53  67
BRANCH  54  73
ATOM     73  C   UNL A   1      37.082  31.327  31.961  1.00  0.00    -0.014 A 
ATOM     74  C   UNL A   1      36.737  31.798  33.236  1.00  0.00     0.009 A 
ATOM     75  C   UNL A   1      36.270  31.699  30.875  1.00  0.00     0.009 A 
ATOM     76  C   UNL A   1      35.646  32.658  33.410  1.00  0.00     0.001 A 
ATOM     77  C   UNL A   1      35.182  32.559  31.049  1.00  0.00     0.001 A 
ATOM     78  C   UNL A   1      34.880  33.053  32.314  1.00  0.00     0.000 A 
ENDBRANCH  54  73
BRANCH  66  79
ATOM     79  C   UNL A   1      42.764  29.343  33.510  1.00  0.00    -0.014 A 
ATOM     80  C   UNL A   1      42.244  28.066  33.238  1.00  0.00     0.009 A 
ATOM     81  C   UNL A   1      43.323  29.583  34.772  1.00  0.00     0.009 A 
ATOM     82  C   UNL A   1      42.258  27.066  34.216  1.00  0.00     0.001 A 
ATOM     83  C   UNL A   1      43.356  28.579  35.741  1.00  0.00     0.001 A 
ATOM     84  C   UNL A   1      42.818  27.323  35.466  1.00  0.00     0.000 A 
ENDBRANCH  66  79
ENDBRANCH  40  41
ENDBRANCH  32  35
ENDBRANCH  30  31
ENDBRANCH  29  30
ENDBRANCH   1  29
TORSDOF 14
ENDMDL
MODEL 3
REMARK VINA RESULT:     -12.2      4.096      9.187
REMARK SMILES NS(=O)(=O)c1ccc(-n2nc(C(=O)NCCCNC(=O)c3ccc(-c4c5nc(c(-c6ccccc6)c6ccc([nH]6)c(-c6ccccc6)c6nc(c(-c7ccccc7)c7ccc4[nH]7)C=C6)C=C5)cc3)cc2-c2ccc(Cl)s2)cc1
REMARK SMILES IDX 15 1 14 2 12 3 13 4 11 6 9 7 10 8 70 9 69 10 8 11 5 12 6 13
REMARK SMILES IDX 78 14 7 15 77 16 2 17 3 18 4 19 1 20 71 23 72 24 76 25 73 26
REMARK SMILES IDX 74 27 75 28 16 29 17 30 18 31 19 32 20 34 21 35 22 36 68 37
REMARK SMILES IDX 23 38 67 39 24 40 25 41 26 42 61 43 27 44 66 45 60 46 62 47
REMARK SMILES IDX 28 48 65 49 59 50 58 51 29 53 51 54 36 55 50 56 37 57 40 58
REMARK SMILES IDX 49 59 63 60 38 61 39 62 48 64 64 65 41 66 30 67 31 68 35 69
REMARK SMILES IDX 32 70 34 71 33 72 52 73 53 74 57 75 54 76 56 77 55 78 42 79
REMARK SMILES IDX 43 80 47 81 44 82 46 83 45 84
REMARK H PARENT 14 5 1 21 1 22 18 33 62 52 40 63
REMARK Flexibility Score: inf
ROOT
ATOM      1  C   UNL A   1      36.457  23.407  24.199  1.00  0.00     0.118 C 
ENDROOT
BRANCH   1   2
ATOM      2  N   UNL A   1      35.339  22.545  23.855  1.00  0.00    -0.351 N 
ATOM      3  C   UNL A   1      33.976  22.763  23.820  1.00  0.00     0.271 C 
ATOM      4  O   UNL A   1      33.295  21.815  23.422  1.00  0.00    -0.267 OA
ATOM      5  H   UNL A   1      35.604  21.633  23.599  1.00  0.00     0.163 HD
BRANCH   3   6
ATOM      6  C   UNL A   1      33.382  24.061  24.214  1.00  0.00     0.151 A 
ATOM      7  N   UNL A   1      32.112  25.797  24.055  1.00  0.00    -0.231 N 
ATOM      8  N   UNL A   1      32.312  24.556  23.553  1.00  0.00    -0.162 NA
ATOM      9  C   UNL A   1      32.930  26.051  25.138  1.00  0.00     0.085 A 
ATOM     10  C   UNL A   1      33.727  24.940  25.268  1.00  0.00     0.066 A 
BRANCH   7  11
ATOM     11  C   UNL A   1      31.113  26.647  23.528  1.00  0.00     0.065 A 
ATOM     12  C   UNL A   1      29.189  28.528  22.852  1.00  0.00     0.082 A 
ATOM     13  C   UNL A   1      30.509  28.713  22.431  1.00  0.00     0.024 A 
ATOM     14  C   UNL A   1      28.814  27.379  23.560  1.00  0.00     0.024 A 
ATOM     15  C   UNL A   1      31.480  27.779  22.783  1.00  0.00     0.030 A 
ATOM     16  C   UNL A   1      29.778  26.417  23.874  1.00  0.00     0.030 A 
BRANCH  12  17
ATOM     17  S   UNL A   1      28.027  29.803  22.472  1.00  0.00     0.238 S 
ATOM     18  O   UNL A   1      28.031  30.016  21.050  1.00  0.00    -0.207 OA
ATOM     19  O   UNL A   1      28.215  30.879  23.428  1.00  0.00    -0.207 OA
BRANCH  17  20
ATOM     20  N   UNL A   1      26.524  29.144  22.830  1.00  0.00    -0.225 NA
ATOM     21  H   UNL A   1      26.551  28.136  22.679  1.00  0.00     0.137 HD
ATOM     22  H   UNL A   1      25.816  29.561  22.225  1.00  0.00     0.137 HD
ENDBRANCH  17  20
ENDBRANCH  12  17
ENDBRANCH   7  11
BRANCH   9  23
ATOM     23  C   UNL A   1      32.879  27.179  26.016  1.00  0.00     0.054 A 
ATOM     24  C   UNL A   1      31.916  27.434  26.973  1.00  0.00     0.024 A 
ATOM     25  S   UNL A   1      34.013  28.462  25.903  1.00  0.00    -0.122 S 
ATOM     26  C   UNL A   1      32.133  28.679  27.637  1.00  0.00     0.033 A 
ATOM     27  C   UNL A   1      33.240  29.315  27.140  1.00  0.00     0.094 A 
ATOM     28  Cl  UNL A   1      33.857  30.837  27.638  1.00  0.00    -0.072 Cl
ENDBRANCH   9  23
ENDBRANCH   3   6
ENDBRANCH   1   2
BRANCH   1  29
ATOM     29  C   UNL A   1      37.134  22.983  25.509  1.00  0.00     0.042 C 
BRANCH  29  30
ATOM     30  C   UNL A   1      37.893  24.136  26.148  1.00  0.00     0.118 C 
BRANCH  30  31
ATOM     31  N   UNL A   1      39.341  23.931  26.099  1.00  0.00    -0.352 N 
ATOM     32  C   UNL A   1      40.352  24.774  26.507  1.00  0.00     0.251 C 
ATOM     33  H   UNL A   1      39.634  23.070  25.721  1.00  0.00     0.163 HD
ATOM     34  O   UNL A   1      41.504  24.597  26.128  1.00  0.00    -0.269 OA
BRANCH  32  35
ATOM     35  C   UNL A   1      40.024  25.907  27.386  1.00  0.00     0.039 A 
ATOM     36  C   UNL A   1      39.549  25.689  28.681  1.00  0.00     0.014 A 
ATOM     37  C   UNL A   1      40.248  27.198  26.918  1.00  0.00     0.014 A 
ATOM     38  C   UNL A   1      39.400  26.777  29.536  1.00  0.00     0.010 A 
ATOM     39  C   UNL A   1      40.238  28.250  27.801  1.00  0.00     0.010 A 
ATOM     40  C   UNL A   1      39.780  28.057  29.101  1.00  0.00    -0.014 A 
BRANCH  40  41
ATOM     41  C   UNL A   1      39.819  29.174  30.042  1.00  0.00     0.031 A 
ATOM     42  C   UNL A   1      38.545  29.932  30.180  1.00  0.00     0.074 A 
ATOM     43  C   UNL A   1      40.843  29.396  30.895  1.00  0.00     0.049 A 
ATOM     44  N   UNL A   1      38.320  31.158  29.839  1.00  0.00    -0.248 NA
ATOM     45  C   UNL A   1      37.353  29.215  30.659  1.00  0.00     0.031 C 
ATOM     46  C   UNL A   1      42.040  28.569  31.099  1.00  0.00     0.029 A 
ATOM     47  N   UNL A   1      40.972  30.356  31.855  1.00  0.00    -0.354 N 
ATOM     48  C   UNL A   1      37.014  31.433  30.236  1.00  0.00     0.074 A 
ATOM     49  C   UNL A   1      36.420  30.167  30.585  1.00  0.00     0.031 C 
ATOM     50  C   UNL A   1      42.636  28.913  32.261  1.00  0.00     0.029 A 
ATOM     51  C   UNL A   1      41.986  30.104  32.770  1.00  0.00     0.049 A 
ATOM     52  H   UNL A   1      40.400  31.156  31.895  1.00  0.00     0.167 HD
ATOM     53  C   UNL A   1      36.611  32.707  30.497  1.00  0.00     0.031 A 
ATOM     54  C   UNL A   1      42.296  30.828  33.868  1.00  0.00     0.031 A 
ATOM     55  C   UNL A   1      37.579  33.671  30.041  1.00  0.00     0.049 A 
ATOM     56  C   UNL A   1      41.772  32.191  33.665  1.00  0.00     0.074 A 
ATOM     57  C   UNL A   1      38.019  34.156  28.831  1.00  0.00     0.029 A 
ATOM     58  N   UNL A   1      38.517  34.008  30.982  1.00  0.00    -0.354 N 
ATOM     59  N   UNL A   1      42.228  32.997  32.750  1.00  0.00    -0.248 NA
ATOM     60  C   UNL A   1      40.500  32.578  34.259  1.00  0.00     0.031 C 
ATOM     61  C   UNL A   1      39.380  34.531  29.038  1.00  0.00     0.029 A 
ATOM     62  C   UNL A   1      39.709  34.296  30.374  1.00  0.00     0.049 A 
ATOM     63  H   UNL A   1      38.358  34.038  31.953  1.00  0.00     0.167 HD
ATOM     64  C   UNL A   1      41.120  33.713  32.342  1.00  0.00     0.074 A 
ATOM     65  C   UNL A   1      40.152  33.561  33.422  1.00  0.00     0.031 C 
ATOM     66  C   UNL A   1      40.979  34.097  31.041  1.00  0.00     0.031 A 
BRANCH  53  67
ATOM     67  C   UNL A   1      35.626  33.078  31.585  1.00  0.00    -0.014 A 
ATOM     68  C   UNL A   1      34.648  34.053  31.303  1.00  0.00     0.009 A 
ATOM     69  C   UNL A   1      35.816  32.754  32.941  1.00  0.00     0.009 A 
ATOM     70  C   UNL A   1      33.953  34.712  32.324  1.00  0.00     0.001 A 
ATOM     71  C   UNL A   1      35.097  33.384  33.962  1.00  0.00     0.001 A 
ATOM     72  C   UNL A   1      34.185  34.383  33.655  1.00  0.00     0.000 A 
ENDBRANCH  53  67
BRANCH  54  73
ATOM     73  C   UNL A   1      42.910  30.395  35.135  1.00  0.00    -0.014 A 
ATOM     74  C   UNL A   1      44.024  29.543  35.144  1.00  0.00     0.009 A 
ATOM     75  C   UNL A   1      42.562  31.044  36.332  1.00  0.00     0.009 A 
ATOM     76  C   UNL A   1      44.796  29.388  36.302  1.00  0.00     0.001 A 
ATOM     77  C   UNL A   1      43.334  30.890  37.488  1.00  0.00     0.001 A 
ATOM     78  C   UNL A   1      44.462  30.075  37.467  1.00  0.00     0.000 A 
ENDBRANCH  54  73
BRANCH  66  79
ATOM     79  C   UNL A   1      42.216  34.087  30.184  1.00  0.00    -0.014 A 
ATOM     80  C   UNL A   1      42.720  32.927  29.571  1.00  0.00     0.009 A 
ATOM     81  C   UNL A   1      42.842  35.312  29.914  1.00  0.00     0.009 A 
ATOM     82  C   UNL A   1      43.839  32.989  28.734  1.00  0.00     0.001 A 
ATOM     83  C   UNL A   1      43.946  35.377  29.062  1.00  0.00     0.001 A 
ATOM     84  C   UNL A   1      44.448  34.215  28.478  1.00  0.00     0.000 A 
ENDBRANCH  66  79
ENDBRANCH  40  41
ENDBRANCH  32  35
ENDBRANCH  30  31
ENDBRANCH  29  30
ENDBRANCH   1  29
TORSDOF 14
ENDMDL
