MODEL 1
REMARK VINA RESULT:     -10.7      0.000      0.000
REMARK SMILES CC(C)[NH2+][C@@]1(C(=O)NCCCNC(=O)c2ccc(-c3c4nc(c(-c5ccccc5)c5ccc([nH]5)c(-c5ccccc5)c5nc(c(-c6ccccc6)c6ccc3[nH]6)C=C5)C=C4)cc2)CCC[C@@H]([NH+]2CCS(=O)CC2)C1
REMARK SMILES IDX 10 1 9 2 8 3 6 4 7 5 5 7 63 8 74 9 64 10 66 11 65 12 4 13
REMARK SMILES IDX 2 16 1 17 3 18 67 19 68 20 73 21 69 23 72 24 70 25 71 26
REMARK SMILES IDX 11 27 12 28 13 29 14 31 15 32 16 33 62 34 17 35 61 36 18 37
REMARK SMILES IDX 19 38 20 39 55 40 21 41 60 42 54 43 56 44 22 45 59 46 53 47
REMARK SMILES IDX 52 48 23 50 45 51 30 52 44 53 31 54 34 55 43 56 57 57 32 58
REMARK SMILES IDX 33 59 42 61 58 62 35 63 24 64 25 65 29 66 26 67 28 68 27 69
REMARK SMILES IDX 46 70 47 71 51 72 48 73 50 74 49 75 36 76 37 77 41 78 38 79
REMARK SMILES IDX 40 80 39 81
REMARK H PARENT 8 6 4 14 4 15 67 22 12 30 56 49 34 60
REMARK Flexibility Score: inf
ROOT
ATOM      1  C   UNL A   1      33.217  28.094  27.081  1.00  0.00     0.042 C 
ENDROOT
BRANCH   1   2
ATOM      2  C   UNL A   1      31.703  28.284  27.118  1.00  0.00     0.118 C 
BRANCH   2   3
ATOM      3  N   UNL A   1      30.979  27.034  27.068  1.00  0.00    -0.351 N 
ATOM      4  C   UNL A   1      30.713  26.108  26.118  1.00  0.00     0.281 C 
ATOM      5  O   UNL A   1      29.988  25.187  26.542  1.00  0.00    -0.268 OA
ATOM      6  H   UNL A   1      30.583  26.799  27.938  1.00  0.00     0.163 HD
BRANCH   4   7
ATOM      7  C   UNL A   1      31.112  26.134  24.557  1.00  0.00     0.181 C 
ATOM      8  C   UNL A   1      30.189  25.305  23.646  1.00  0.00     0.079 C 
ATOM      9  C   UNL A   1      32.598  25.788  24.444  1.00  0.00     0.144 C 
ATOM     10  C   UNL A   1      30.623  23.887  23.273  1.00  0.00     0.013 C 
ATOM     11  C   UNL A   1      32.967  24.316  24.295  1.00  0.00     0.190 C 
ATOM     12  C   UNL A   1      32.130  23.646  23.191  1.00  0.00     0.065 C 
BRANCH   7  13
ATOM     13  N   UNL A   1      30.907  27.588  24.215  1.00  0.00    -0.331 N 
ATOM     14  H   UNL A   1      29.923  27.775  24.409  1.00  0.00     0.347 HD
ATOM     15  H   UNL A   1      31.657  28.008  24.763  1.00  0.00     0.347 HD
BRANCH  13  16
ATOM     16  C   UNL A   1      31.167  28.197  22.912  1.00  0.00     0.176 C 
ATOM     17  C   UNL A   1      30.026  29.200  22.673  1.00  0.00     0.075 C 
ATOM     18  C   UNL A   1      32.482  28.975  22.769  1.00  0.00     0.075 C 
ENDBRANCH  13  16
ENDBRANCH   7  13
BRANCH  11  19
ATOM     19  N   UNL A   1      34.420  24.034  24.224  1.00  0.00    -0.331 N 
ATOM     20  C   UNL A   1      35.264  24.285  25.394  1.00  0.00     0.276 C 
ATOM     21  C   UNL A   1      34.831  22.792  23.548  1.00  0.00     0.276 C 
ATOM     22  H   UNL A   1      34.622  24.813  23.597  1.00  0.00     0.348 HD
ATOM     23  C   UNL A   1      35.171  23.229  26.484  1.00  0.00     0.166 C 
ATOM     24  C   UNL A   1      34.830  21.504  24.380  1.00  0.00     0.166 C 
ATOM     25  S   UNL A   1      35.759  21.607  25.930  1.00  0.00     0.032 S 
ATOM     26  O   UNL A   1      37.217  21.718  25.600  1.00  0.00    -0.259 OA
ENDBRANCH  11  19
ENDBRANCH   4   7
ENDBRANCH   2   3
ENDBRANCH   1   2
BRANCH   1  27
ATOM     27  C   UNL A   1      33.951  29.113  26.233  1.00  0.00     0.118 C 
BRANCH  27  28
ATOM     28  N   UNL A   1      33.817  30.467  26.758  1.00  0.00    -0.352 N 
ATOM     29  C   UNL A   1      34.544  31.141  27.706  1.00  0.00     0.251 C 
ATOM     30  H   UNL A   1      33.078  30.986  26.366  1.00  0.00     0.163 HD
ATOM     31  O   UNL A   1      34.112  32.212  28.141  1.00  0.00    -0.269 OA
BRANCH  29  32
ATOM     32  C   UNL A   1      35.823  30.607  28.223  1.00  0.00     0.039 A 
ATOM     33  C   UNL A   1      35.820  29.851  29.401  1.00  0.00     0.014 A 
ATOM     34  C   UNL A   1      37.034  30.873  27.582  1.00  0.00     0.014 A 
ATOM     35  C   UNL A   1      37.016  29.324  29.896  1.00  0.00     0.010 A 
ATOM     36  C   UNL A   1      38.199  30.240  27.999  1.00  0.00     0.010 A 
ATOM     37  C   UNL A   1      38.211  29.485  29.178  1.00  0.00    -0.014 A 
BRANCH  37  38
ATOM     38  C   UNL A   1      39.496  28.922  29.663  1.00  0.00     0.031 A 
ATOM     39  C   UNL A   1      40.290  29.657  30.713  1.00  0.00     0.074 A 
ATOM     40  C   UNL A   1      39.978  27.787  29.120  1.00  0.00     0.049 A 
ATOM     41  N   UNL A   1      41.462  29.366  31.219  1.00  0.00    -0.248 NA
ATOM     42  C   UNL A   1      39.709  30.905  31.238  1.00  0.00     0.031 C 
ATOM     43  C   UNL A   1      39.330  27.007  28.063  1.00  0.00     0.029 A 
ATOM     44  N   UNL A   1      41.131  27.091  29.384  1.00  0.00    -0.354 N 
ATOM     45  C   UNL A   1      41.764  30.403  32.093  1.00  0.00     0.074 A 
ATOM     46  C   UNL A   1      40.687  31.363  32.001  1.00  0.00     0.031 C 
ATOM     47  C   UNL A   1      40.073  25.920  27.799  1.00  0.00     0.029 A 
ATOM     48  C   UNL A   1      41.270  25.950  28.632  1.00  0.00     0.049 A 
ATOM     49  H   UNL A   1      41.796  27.382  30.050  1.00  0.00     0.167 HD
ATOM     50  C   UNL A   1      42.825  30.535  32.923  1.00  0.00     0.031 A 
ATOM     51  C   UNL A   1      42.254  25.032  28.613  1.00  0.00     0.031 A 
ATOM     52  C   UNL A   1      43.881  29.566  33.031  1.00  0.00     0.049 A 
ATOM     53  C   UNL A   1      43.424  25.200  29.543  1.00  0.00     0.074 A 
ATOM     54  C   UNL A   1      44.972  29.570  33.882  1.00  0.00     0.029 A 
ATOM     55  N   UNL A   1      43.977  28.419  32.259  1.00  0.00    -0.354 N 
ATOM     56  N   UNL A   1      43.657  26.150  30.415  1.00  0.00    -0.248 NA
ATOM     57  C   UNL A   1      44.459  24.159  29.493  1.00  0.00     0.031 C 
ATOM     58  C   UNL A   1      45.757  28.452  33.588  1.00  0.00     0.029 A 
ATOM     59  C   UNL A   1      45.122  27.717  32.599  1.00  0.00     0.049 A 
ATOM     60  H   UNL A   1      43.328  28.143  31.573  1.00  0.00     0.167 HD
ATOM     61  C   UNL A   1      44.850  25.806  31.040  1.00  0.00     0.074 A 
ATOM     62  C   UNL A   1      45.278  24.550  30.458  1.00  0.00     0.031 C 
ATOM     63  C   UNL A   1      45.530  26.470  32.007  1.00  0.00     0.031 A 
BRANCH  50  64
ATOM     64  C   UNL A   1      42.891  31.774  33.776  1.00  0.00    -0.014 A 
ATOM     65  C   UNL A   1      42.301  31.817  35.050  1.00  0.00     0.009 A 
ATOM     66  C   UNL A   1      43.573  32.908  33.309  1.00  0.00     0.009 A 
ATOM     67  C   UNL A   1      42.355  32.982  35.819  1.00  0.00     0.001 A 
ATOM     68  C   UNL A   1      43.655  34.060  34.094  1.00  0.00     0.001 A 
ATOM     69  C   UNL A   1      43.037  34.100  35.342  1.00  0.00     0.000 A 
ENDBRANCH  50  64
BRANCH  51  70
ATOM     70  C   UNL A   1      42.166  23.860  27.701  1.00  0.00    -0.014 A 
ATOM     71  C   UNL A   1      41.545  22.673  28.123  1.00  0.00     0.009 A 
ATOM     72  C   UNL A   1      42.704  23.917  26.407  1.00  0.00     0.009 A 
ATOM     73  C   UNL A   1      41.494  21.561  27.280  1.00  0.00     0.001 A 
ATOM     74  C   UNL A   1      42.622  22.814  25.554  1.00  0.00     0.001 A 
ATOM     75  C   UNL A   1      42.028  21.634  25.994  1.00  0.00     0.000 A 
ENDBRANCH  51  70
BRANCH  63  76
ATOM     76  C   UNL A   1      46.786  25.828  32.524  1.00  0.00    -0.014 A 
ATOM     77  C   UNL A   1      46.762  24.945  33.616  1.00  0.00     0.009 A 
ATOM     78  C   UNL A   1      48.008  26.083  31.882  1.00  0.00     0.009 A 
ATOM     79  C   UNL A   1      47.943  24.363  34.078  1.00  0.00     0.001 A 
ATOM     80  C   UNL A   1      49.182  25.472  32.324  1.00  0.00     0.001 A 
ATOM     81  C   UNL A   1      49.150  24.622  33.428  1.00  0.00     0.000 A 
ENDBRANCH  63  76
ENDBRANCH  37  38
ENDBRANCH  29  32
ENDBRANCH  27  28
ENDBRANCH   1  27
TORSDOF 13
ENDMDL
MODEL 2
REMARK VINA RESULT:     -10.7      1.819      2.447
REMARK SMILES CC(C)[NH2+][C@@]1(C(=O)NCCCNC(=O)c2ccc(-c3c4nc(c(-c5ccccc5)c5ccc([nH]5)c(-c5ccccc5)c5nc(c(-c6ccccc6)c6ccc3[nH]6)C=C5)C=C4)cc2)CCC[C@@H]([NH+]2CCS(=O)CC2)C1
REMARK SMILES IDX 10 1 9 2 8 3 6 4 7 5 5 7 63 8 74 9 64 10 66 11 65 12 4 13
REMARK SMILES IDX 2 16 1 17 3 18 67 19 68 20 73 21 69 23 72 24 70 25 71 26
REMARK SMILES IDX 11 27 12 28 13 29 14 31 15 32 16 33 62 34 17 35 61 36 18 37
REMARK SMILES IDX 19 38 20 39 55 40 21 41 60 42 54 43 56 44 22 45 59 46 53 47
REMARK SMILES IDX 52 48 23 50 45 51 30 52 44 53 31 54 34 55 43 56 57 57 32 58
REMARK SMILES IDX 33 59 42 61 58 62 35 63 24 64 25 65 29 66 26 67 28 68 27 69
REMARK SMILES IDX 46 70 47 71 51 72 48 73 50 74 49 75 36 76 37 77 41 78 38 79
REMARK SMILES IDX 40 80 39 81
REMARK H PARENT 8 6 4 14 4 15 67 22 12 30 56 49 34 60
REMARK Flexibility Score: inf
ROOT
ATOM      1  C   UNL A   1      34.136  28.500  25.929  1.00  0.00     0.042 C 
ENDROOT
BRANCH   1   2
ATOM      2  C   UNL A   1      33.257  29.098  24.836  1.00  0.00     0.118 C 
BRANCH   2   3
ATOM      3  N   UNL A   1      33.227  28.293  23.636  1.00  0.00    -0.351 N 
ATOM      4  C   UNL A   1      32.348  27.433  23.070  1.00  0.00     0.281 C 
ATOM      5  O   UNL A   1      32.788  26.926  22.020  1.00  0.00    -0.268 OA
ATOM      6  H   UNL A   1      34.046  28.393  23.100  1.00  0.00     0.163 HD
BRANCH   4   7
ATOM      7  C   UNL A   1      30.925  26.937  23.642  1.00  0.00     0.181 C 
ATOM      8  C   UNL A   1      30.611  27.408  25.074  1.00  0.00     0.079 C 
ATOM      9  C   UNL A   1      30.833  25.425  23.432  1.00  0.00     0.144 C 
ATOM     10  C   UNL A   1      30.903  26.451  26.230  1.00  0.00     0.013 C 
ATOM     11  C   UNL A   1      31.354  24.528  24.550  1.00  0.00     0.190 C 
ATOM     12  C   UNL A   1      30.787  24.961  25.914  1.00  0.00     0.065 C 
BRANCH   7  13
ATOM     13  N   UNL A   1      29.965  27.633  22.711  1.00  0.00    -0.331 N 
ATOM     14  H   UNL A   1      30.478  27.761  21.838  1.00  0.00     0.347 HD
ATOM     15  H   UNL A   1      29.162  27.008  22.782  1.00  0.00     0.347 HD
BRANCH  13  16
ATOM     16  C   UNL A   1      29.314  28.917  22.969  1.00  0.00     0.176 C 
ATOM     17  C   UNL A   1      29.839  29.885  21.895  1.00  0.00     0.075 C 
ATOM     18  C   UNL A   1      27.783  28.941  22.880  1.00  0.00     0.075 C 
ENDBRANCH  13  16
ENDBRANCH   7  13
BRANCH  11  19
ATOM     19  N   UNL A   1      31.272  23.074  24.282  1.00  0.00    -0.331 N 
ATOM     20  C   UNL A   1      32.028  22.500  23.166  1.00  0.00     0.276 C 
ATOM     21  C   UNL A   1      31.308  22.172  25.446  1.00  0.00     0.276 C 
ATOM     22  H   UNL A   1      30.311  23.109  23.942  1.00  0.00     0.348 HD
ATOM     23  C   UNL A   1      33.512  22.309  23.434  1.00  0.00     0.166 C 
ATOM     24  C   UNL A   1      32.686  21.785  25.996  1.00  0.00     0.166 C 
ATOM     25  S   UNL A   1      33.830  21.117  24.762  1.00  0.00     0.032 S 
ATOM     26  O   UNL A   1      33.322  19.776  24.327  1.00  0.00    -0.259 OA
ENDBRANCH  11  19
ENDBRANCH   4   7
ENDBRANCH   2   3
ENDBRANCH   1   2
BRANCH   1  27
ATOM     27  C   UNL A   1      33.610  28.710  27.336  1.00  0.00     0.118 C 
BRANCH  27  28
ATOM     28  N   UNL A   1      33.641  30.114  27.731  1.00  0.00    -0.352 N 
ATOM     29  C   UNL A   1      34.610  30.848  28.367  1.00  0.00     0.251 C 
ATOM     30  H   UNL A   1      32.829  30.621  27.502  1.00  0.00     0.163 HD
ATOM     31  O   UNL A   1      34.327  31.973  28.788  1.00  0.00    -0.269 OA
BRANCH  29  32
ATOM     32  C   UNL A   1      35.975  30.316  28.570  1.00  0.00     0.039 A 
ATOM     33  C   UNL A   1      36.908  30.418  27.532  1.00  0.00     0.014 A 
ATOM     34  C   UNL A   1      36.339  29.681  29.759  1.00  0.00     0.014 A 
ATOM     35  C   UNL A   1      38.207  29.935  27.711  1.00  0.00     0.010 A 
ATOM     36  C   UNL A   1      37.662  29.324  29.983  1.00  0.00     0.010 A 
ATOM     37  C   UNL A   1      38.605  29.416  28.952  1.00  0.00    -0.014 A 
BRANCH  37  38
ATOM     38  C   UNL A   1      39.983  28.914  29.185  1.00  0.00     0.031 A 
ATOM     39  C   UNL A   1      41.013  29.813  29.822  1.00  0.00     0.074 A 
ATOM     40  C   UNL A   1      40.325  27.678  28.771  1.00  0.00     0.049 A 
ATOM     41  N   UNL A   1      42.281  29.585  30.050  1.00  0.00    -0.248 NA
ATOM     42  C   UNL A   1      40.568  31.159  30.223  1.00  0.00     0.031 C 
ATOM     43  C   UNL A   1      39.435  26.730  28.097  1.00  0.00     0.029 A 
ATOM     44  N   UNL A   1      41.519  27.008  28.856  1.00  0.00    -0.354 N 
ATOM     45  C   UNL A   1      42.784  30.763  30.591  1.00  0.00     0.074 A 
ATOM     46  C   UNL A   1      41.705  31.723  30.596  1.00  0.00     0.031 C 
ATOM     47  C   UNL A   1      40.101  25.587  27.869  1.00  0.00     0.029 A 
ATOM     48  C   UNL A   1      41.475  25.737  28.335  1.00  0.00     0.049 A 
ATOM     49  H   UNL A   1      42.331  27.400  29.252  1.00  0.00     0.167 HD
ATOM     50  C   UNL A   1      44.025  31.017  31.070  1.00  0.00     0.031 A 
ATOM     51  C   UNL A   1      42.435  24.799  28.242  1.00  0.00     0.031 A 
ATOM     52  C   UNL A   1      45.089  30.052  31.086  1.00  0.00     0.049 A 
ATOM     53  C   UNL A   1      43.806  25.105  28.779  1.00  0.00     0.074 A 
ATOM     54  C   UNL A   1      46.366  30.184  31.604  1.00  0.00     0.029 A 
ATOM     55  N   UNL A   1      44.999  28.772  30.561  1.00  0.00    -0.354 N 
ATOM     56  N   UNL A   1      44.244  26.199  29.353  1.00  0.00    -0.248 NA
ATOM     57  C   UNL A   1      44.810  24.038  28.667  1.00  0.00     0.031 C 
ATOM     58  C   UNL A   1      47.065  29.003  31.342  1.00  0.00     0.029 A 
ATOM     59  C   UNL A   1      46.205  28.111  30.720  1.00  0.00     0.049 A 
ATOM     60  H   UNL A   1      44.197  28.390  30.137  1.00  0.00     0.167 HD
ATOM     61  C   UNL A   1      45.565  25.942  29.698  1.00  0.00     0.074 A 
ATOM     62  C   UNL A   1      45.848  24.582  29.286  1.00  0.00     0.031 C 
ATOM     63  C   UNL A   1      46.464  26.759  30.302  1.00  0.00     0.031 A 
BRANCH  50  64
ATOM     64  C   UNL A   1      44.291  32.396  31.612  1.00  0.00    -0.014 A 
ATOM     65  C   UNL A   1      44.074  32.705  32.965  1.00  0.00     0.009 A 
ATOM     66  C   UNL A   1      44.790  33.396  30.763  1.00  0.00     0.009 A 
ATOM     67  C   UNL A   1      44.307  33.995  33.446  1.00  0.00     0.001 A 
ATOM     68  C   UNL A   1      45.055  34.676  31.254  1.00  0.00     0.001 A 
ATOM     69  C   UNL A   1      44.803  34.978  32.591  1.00  0.00     0.000 A 
ENDBRANCH  50  64
BRANCH  51  70
ATOM     70  C   UNL A   1      42.131  23.475  27.636  1.00  0.00    -0.014 A 
ATOM     71  C   UNL A   1      42.411  23.229  26.282  1.00  0.00     0.009 A 
ATOM     72  C   UNL A   1      41.554  22.452  28.403  1.00  0.00     0.009 A 
ATOM     73  C   UNL A   1      42.093  21.999  25.704  1.00  0.00     0.001 A 
ATOM     74  C   UNL A   1      41.267  21.210  27.830  1.00  0.00     0.001 A 
ATOM     75  C   UNL A   1      41.526  20.988  26.480  1.00  0.00     0.000 A 
ENDBRANCH  51  70
BRANCH  63  76
ATOM     76  C   UNL A   1      47.825  26.186  30.588  1.00  0.00    -0.014 A 
ATOM     77  C   UNL A   1      48.165  25.710  31.864  1.00  0.00     0.009 A 
ATOM     78  C   UNL A   1      48.766  26.089  29.551  1.00  0.00     0.009 A 
ATOM     79  C   UNL A   1      49.436  25.184  32.104  1.00  0.00     0.001 A 
ATOM     80  C   UNL A   1      50.023  25.531  29.786  1.00  0.00     0.001 A 
ATOM     81  C   UNL A   1      50.360  25.090  31.064  1.00  0.00     0.000 A 
ENDBRANCH  63  76
ENDBRANCH  37  38
ENDBRANCH  29  32
ENDBRANCH  27  28
ENDBRANCH   1  27
TORSDOF 13
ENDMDL
MODEL 3
REMARK VINA RESULT:     -10.5      0.370      5.982
REMARK SMILES CC(C)[NH2+][C@@]1(C(=O)NCCCNC(=O)c2ccc(-c3c4nc(c(-c5ccccc5)c5ccc([nH]5)c(-c5ccccc5)c5nc(c(-c6ccccc6)c6ccc3[nH]6)C=C5)C=C4)cc2)CCC[C@@H]([NH+]2CCS(=O)CC2)C1
REMARK SMILES IDX 10 1 9 2 8 3 6 4 7 5 5 7 63 8 74 9 64 10 66 11 65 12 4 13
REMARK SMILES IDX 2 16 1 17 3 18 67 19 68 20 73 21 69 23 72 24 70 25 71 26
REMARK SMILES IDX 11 27 12 28 13 29 14 31 15 32 16 33 62 34 17 35 61 36 18 37
REMARK SMILES IDX 19 38 20 39 55 40 21 41 60 42 54 43 56 44 22 45 59 46 53 47
REMARK SMILES IDX 52 48 23 50 45 51 30 52 44 53 31 54 34 55 43 56 57 57 32 58
REMARK SMILES IDX 33 59 42 61 58 62 35 63 24 64 25 65 29 66 26 67 28 68 27 69
REMARK SMILES IDX 46 70 47 71 51 72 48 73 50 74 49 75 36 76 37 77 41 78 38 79
REMARK SMILES IDX 40 80 39 81
REMARK H PARENT 8 6 4 14 4 15 67 22 12 30 56 49 34 60
REMARK Flexibility Score: inf
ROOT
ATOM      1  C   UNL A   1      33.328  27.901  26.888  1.00  0.00     0.042 C 
ENDROOT
BRANCH   1   2
ATOM      2  C   UNL A   1      31.834  28.187  27.013  1.00  0.00     0.118 C 
BRANCH   2   3
ATOM      3  N   UNL A   1      31.029  26.988  26.977  1.00  0.00    -0.351 N 
ATOM      4  C   UNL A   1      30.700  26.072  26.037  1.00  0.00     0.281 C 
ATOM      5  O   UNL A   1      29.916  25.205  26.471  1.00  0.00    -0.268 OA
ATOM      6  H   UNL A   1      30.619  26.789  27.849  1.00  0.00     0.163 HD
BRANCH   4   7
ATOM      7  C   UNL A   1      31.098  26.054  24.475  1.00  0.00     0.181 C 
ATOM      8  C   UNL A   1      30.197  25.169  23.595  1.00  0.00     0.079 C 
ATOM      9  C   UNL A   1      32.592  25.745  24.372  1.00  0.00     0.144 C 
ATOM     10  C   UNL A   1      30.669  23.751  23.270  1.00  0.00     0.013 C 
ATOM     11  C   UNL A   1      33.001  24.279  24.274  1.00  0.00     0.190 C 
ATOM     12  C   UNL A   1      32.181  23.549  23.195  1.00  0.00     0.065 C 
BRANCH   7  13
ATOM     13  N   UNL A   1      30.853  27.489  24.083  1.00  0.00    -0.331 N 
ATOM     14  H   UNL A   1      29.845  27.624  24.166  1.00  0.00     0.347 HD
ATOM     15  H   UNL A   1      31.516  27.958  24.701  1.00  0.00     0.347 HD
BRANCH  13  16
ATOM     16  C   UNL A   1      31.221  28.093  22.804  1.00  0.00     0.176 C 
ATOM     17  C   UNL A   1      30.069  29.041  22.432  1.00  0.00     0.075 C 
ATOM     18  C   UNL A   1      32.508  28.928  22.784  1.00  0.00     0.075 C 
ENDBRANCH  13  16
ENDBRANCH   7  13
BRANCH  11  19
ATOM     19  N   UNL A   1      34.461  24.034  24.211  1.00  0.00    -0.331 N 
ATOM     20  C   UNL A   1      35.290  24.296  25.389  1.00  0.00     0.276 C 
ATOM     21  C   UNL A   1      34.908  22.808  23.527  1.00  0.00     0.276 C 
ATOM     22  H   UNL A   1      34.647  24.823  23.591  1.00  0.00     0.348 HD
ATOM     23  C   UNL A   1      35.216  23.229  26.469  1.00  0.00     0.166 C 
ATOM     24  C   UNL A   1      34.933  21.513  24.348  1.00  0.00     0.166 C 
ATOM     25  S   UNL A   1      35.849  21.626  25.906  1.00  0.00     0.032 S 
ATOM     26  O   UNL A   1      37.305  21.777  25.587  1.00  0.00    -0.259 OA
ENDBRANCH  11  19
ENDBRANCH   4   7
ENDBRANCH   2   3
ENDBRANCH   1   2
BRANCH   1  27
ATOM     27  C   UNL A   1      34.106  28.970  26.147  1.00  0.00     0.118 C 
BRANCH  27  28
ATOM     28  N   UNL A   1      33.901  30.297  26.717  1.00  0.00    -0.352 N 
ATOM     29  C   UNL A   1      34.593  30.975  27.687  1.00  0.00     0.251 C 
ATOM     30  H   UNL A   1      33.136  30.789  26.340  1.00  0.00     0.163 HD
ATOM     31  O   UNL A   1      34.105  32.007  28.158  1.00  0.00    -0.269 OA
BRANCH  29  32
ATOM     32  C   UNL A   1      35.898  30.491  28.189  1.00  0.00     0.039 A 
ATOM     33  C   UNL A   1      35.940  29.746  29.373  1.00  0.00     0.014 A 
ATOM     34  C   UNL A   1      37.089  30.795  27.527  1.00  0.00     0.014 A 
ATOM     35  C   UNL A   1      37.161  29.267  29.853  1.00  0.00     0.010 A 
ATOM     36  C   UNL A   1      38.281  30.208  27.930  1.00  0.00     0.010 A 
ATOM     37  C   UNL A   1      38.339  29.464  29.115  1.00  0.00    -0.014 A 
BRANCH  37  38
ATOM     38  C   UNL A   1      39.651  28.951  29.584  1.00  0.00     0.031 A 
ATOM     39  C   UNL A   1      40.174  27.637  29.062  1.00  0.00     0.074 A 
ATOM     40  C   UNL A   1      40.341  29.632  30.520  1.00  0.00     0.049 A 
ATOM     41  N   UNL A   1      41.262  26.989  29.394  1.00  0.00    -0.248 NA
ATOM     42  C   UNL A   1      39.348  26.940  28.061  1.00  0.00     0.031 C 
ATOM     43  C   UNL A   1      39.920  30.890  31.141  1.00  0.00     0.029 A 
ATOM     44  N   UNL A   1      41.547  29.357  31.114  1.00  0.00    -0.354 N 
ATOM     45  C   UNL A   1      41.232  25.805  28.667  1.00  0.00     0.074 A 
ATOM     46  C   UNL A   1      39.990  25.791  27.928  1.00  0.00     0.031 C 
ATOM     47  C   UNL A   1      40.871  31.299  31.995  1.00  0.00     0.029 A 
ATOM     48  C   UNL A   1      41.944  30.312  32.019  1.00  0.00     0.049 A 
ATOM     49  H   UNL A   1      42.077  28.553  30.911  1.00  0.00     0.167 HD
ATOM     50  C   UNL A   1      42.166  24.827  28.594  1.00  0.00     0.031 A 
ATOM     51  C   UNL A   1      43.049  30.381  32.784  1.00  0.00     0.031 A 
ATOM     52  C   UNL A   1      43.411  24.856  29.312  1.00  0.00     0.049 A 
ATOM     53  C   UNL A   1      44.071  29.283  32.689  1.00  0.00     0.074 A 
ATOM     54  C   UNL A   1      44.454  23.949  29.265  1.00  0.00     0.029 A 
ATOM     55  N   UNL A   1      43.779  25.846  30.209  1.00  0.00    -0.354 N 
ATOM     56  N   UNL A   1      44.061  28.206  31.941  1.00  0.00    -0.248 NA
ATOM     57  C   UNL A   1      45.266  29.420  33.533  1.00  0.00     0.031 C 
ATOM     58  C   UNL A   1      45.431  24.363  30.174  1.00  0.00     0.029 A 
ATOM     59  C   UNL A   1      45.025  25.562  30.740  1.00  0.00     0.049 A 
ATOM     60  H   UNL A   1      43.236  26.636  30.434  1.00  0.00     0.167 HD
ATOM     61  C   UNL A   1      45.259  27.552  32.202  1.00  0.00     0.074 A 
ATOM     62  C   UNL A   1      45.978  28.366  33.162  1.00  0.00     0.031 C 
ATOM     63  C   UNL A   1      45.722  26.384  31.694  1.00  0.00     0.031 A 
BRANCH  50  64
ATOM     64  C   UNL A   1      41.869  23.647  27.708  1.00  0.00    -0.014 A 
ATOM     65  C   UNL A   1      42.392  23.559  26.407  1.00  0.00     0.009 A 
ATOM     66  C   UNL A   1      41.074  22.595  28.188  1.00  0.00     0.009 A 
ATOM     67  C   UNL A   1      42.089  22.467  25.592  1.00  0.00     0.001 A 
ATOM     68  C   UNL A   1      40.801  21.487  27.384  1.00  0.00     0.001 A 
ATOM     69  C   UNL A   1      41.299  21.429  26.083  1.00  0.00     0.000 A 
ENDBRANCH  50  64
BRANCH  51  70
ATOM     70  C   UNL A   1      43.258  31.542  33.692  1.00  0.00    -0.014 A 
ATOM     71  C   UNL A   1      43.937  32.686  33.242  1.00  0.00     0.009 A 
ATOM     72  C   UNL A   1      42.786  31.513  35.013  1.00  0.00     0.009 A 
ATOM     73  C   UNL A   1      44.165  33.760  34.103  1.00  0.00     0.001 A 
ATOM     74  C   UNL A   1      42.986  32.603  35.863  1.00  0.00     0.001 A 
ATOM     75  C   UNL A   1      43.684  33.721  35.412  1.00  0.00     0.000 A 
ENDBRANCH  51  70
BRANCH  63  76
ATOM     76  C   UNL A   1      47.088  25.938  32.137  1.00  0.00    -0.014 A 
ATOM     77  C   UNL A   1      47.267  25.177  33.302  1.00  0.00     0.009 A 
ATOM     78  C   UNL A   1      48.207  26.255  31.351  1.00  0.00     0.009 A 
ATOM     79  C   UNL A   1      48.547  24.776  33.692  1.00  0.00     0.001 A 
ATOM     80  C   UNL A   1      49.480  25.824  31.724  1.00  0.00     0.001 A 
ATOM     81  C   UNL A   1      49.650  25.095  32.900  1.00  0.00     0.000 A 
ENDBRANCH  63  76
ENDBRANCH  37  38
ENDBRANCH  29  32
ENDBRANCH  27  28
ENDBRANCH   1  27
TORSDOF 13
ENDMDL
