MODEL 1
REMARK VINA RESULT:      -9.5      0.000      0.000
REMARK SMILES Cc1cc([C@H](O)CC2(CC(=O)NCCCNC(=O)c3ccc(-c4c5nc(c(-c6ccccc6)c6ccc([nH]6)c(-c6ccccc6)c6nc(c(-c7ccccc7)c7ccc4[nH]7)C=C6)C=C5)cc3)CCCC2)ccc1F
REMARK SMILES IDX 13 1 12 2 10 3 11 4 9 6 8 7 67 8 70 9 68 10 69 11 7 12 5 13
REMARK SMILES IDX 4 14 1 15 2 16 3 17 73 18 72 19 74 20 71 21 6 22 14 24 15 25
REMARK SMILES IDX 16 26 17 27 18 29 19 30 20 31 66 32 21 33 65 34 22 35 23 36
REMARK SMILES IDX 24 37 59 38 25 39 64 40 58 41 60 42 26 43 63 44 57 45 56 46
REMARK SMILES IDX 27 48 49 49 34 50 48 51 35 52 38 53 47 54 61 55 36 56 37 57
REMARK SMILES IDX 46 59 62 60 39 61 28 62 29 63 33 64 30 65 32 66 31 67 50 68
REMARK SMILES IDX 51 69 55 70 52 71 54 72 53 73 40 74 41 75 45 76 42 77 44 78
REMARK SMILES IDX 43 79
REMARK H PARENT 12 5 6 23 16 28 60 47 38 58
REMARK Flexibility Score: inf
ROOT
ATOM      1  C   UNL A   1      34.243  34.832  29.608  1.00  0.00     0.117 C 
ENDROOT
BRANCH   1   2
ATOM      2  N   UNL A   1      33.718  34.175  30.789  1.00  0.00    -0.356 N 
ATOM      3  C   UNL A   1      34.319  33.869  31.968  1.00  0.00     0.220 C 
ATOM      4  O   UNL A   1      33.658  33.244  32.801  1.00  0.00    -0.275 OA
ATOM      5  H   UNL A   1      32.772  33.906  30.726  1.00  0.00     0.163 HD
BRANCH   3   6
ATOM      6  C   UNL A   1      35.742  34.314  32.272  1.00  0.00     0.107 C 
BRANCH   6   7
ATOM      7  C   UNL A   1      36.880  33.234  32.274  1.00  0.00    -0.018 C 
ATOM      8  C   UNL A   1      38.229  33.997  32.371  1.00  0.00     0.007 C 
ATOM      9  C   UNL A   1      37.092  32.567  30.903  1.00  0.00     0.007 C 
ATOM     10  C   UNL A   1      38.490  34.542  30.962  1.00  0.00     0.001 C 
ATOM     11  C   UNL A   1      37.719  33.632  30.012  1.00  0.00     0.001 C 
BRANCH   7  12
ATOM     12  C   UNL A   1      36.681  32.232  33.455  1.00  0.00     0.044 C 
BRANCH  12  13
ATOM     13  C   UNL A   1      37.863  31.993  34.417  1.00  0.00     0.145 C 
BRANCH  13  14
ATOM     14  C   UNL A   1      38.808  30.905  33.936  1.00  0.00    -0.019 A 
ATOM     15  C   UNL A   1      38.656  27.449  32.312  1.00  0.00     0.047 C 
ATOM     16  C   UNL A   1      39.178  28.710  32.929  1.00  0.00    -0.015 A 
ATOM     17  C   UNL A   1      38.313  29.736  33.331  1.00  0.00     0.012 A 
ATOM     18  C   UNL A   1      40.549  28.868  33.141  1.00  0.00     0.126 A 
ATOM     19  C   UNL A   1      41.061  30.020  33.727  1.00  0.00     0.040 A 
ATOM     20  F   UNL A   1      41.396  27.893  32.782  1.00  0.00    -0.207 F 
ATOM     21  C   UNL A   1      40.194  31.037  34.124  1.00  0.00     0.009 A 
ENDBRANCH  13  14
BRANCH  13  22
ATOM     22  O   UNL A   1      37.406  31.663  35.723  1.00  0.00    -0.388 OA
ATOM     23  H   UNL A   1      36.536  31.240  35.664  1.00  0.00     0.211 HD
ENDBRANCH  13  22
ENDBRANCH  12  13
ENDBRANCH   7  12
ENDBRANCH   6   7
ENDBRANCH   3   6
ENDBRANCH   1   2
BRANCH   1  24
ATOM     24  C   UNL A   1      33.812  34.097  28.344  1.00  0.00     0.042 C 
BRANCH  24  25
ATOM     25  C   UNL A   1      34.687  32.901  28.007  1.00  0.00     0.118 C 
BRANCH  25  26
ATOM     26  N   UNL A   1      33.915  31.679  27.854  1.00  0.00    -0.352 N 
ATOM     27  C   UNL A   1      34.326  30.367  27.802  1.00  0.00     0.251 C 
ATOM     28  H   UNL A   1      32.943  31.810  27.776  1.00  0.00     0.163 HD
ATOM     29  O   UNL A   1      33.531  29.500  27.454  1.00  0.00    -0.269 OA
BRANCH  27  30
ATOM     30  C   UNL A   1      35.720  29.990  28.134  1.00  0.00     0.039 A 
ATOM     31  C   UNL A   1      36.003  29.505  29.417  1.00  0.00     0.014 A 
ATOM     32  C   UNL A   1      36.757  30.147  27.215  1.00  0.00     0.014 A 
ATOM     33  C   UNL A   1      37.306  29.118  29.747  1.00  0.00     0.010 A 
ATOM     34  C   UNL A   1      38.031  29.669  27.510  1.00  0.00     0.010 A 
ATOM     35  C   UNL A   1      38.325  29.161  28.784  1.00  0.00    -0.014 A 
BRANCH  35  36
ATOM     36  C   UNL A   1      39.711  28.719  29.081  1.00  0.00     0.031 A 
ATOM     37  C   UNL A   1      40.690  29.684  29.696  1.00  0.00     0.074 A 
ATOM     38  C   UNL A   1      40.122  27.486  28.721  1.00  0.00     0.049 A 
ATOM     39  N   UNL A   1      41.976  29.545  29.898  1.00  0.00    -0.248 NA
ATOM     40  C   UNL A   1      40.157  30.994  30.109  1.00  0.00     0.031 C 
ATOM     41  C   UNL A   1      39.285  26.459  28.096  1.00  0.00     0.029 A 
ATOM     42  N   UNL A   1      41.357  26.893  28.818  1.00  0.00    -0.354 N 
ATOM     43  C   UNL A   1      42.408  30.755  30.426  1.00  0.00     0.074 A 
ATOM     44  C   UNL A   1      41.258  31.632  30.472  1.00  0.00     0.031 C 
ATOM     45  C   UNL A   1      40.025  25.359  27.883  1.00  0.00     0.029 A 
ATOM     46  C   UNL A   1      41.397  25.617  28.310  1.00  0.00     0.049 A 
ATOM     47  H   UNL A   1      42.138  27.341  29.215  1.00  0.00     0.167 HD
ATOM     48  C   UNL A   1      43.645  31.104  30.851  1.00  0.00     0.031 A 
ATOM     49  C   UNL A   1      42.425  24.757  28.185  1.00  0.00     0.031 A 
ATOM     50  C   UNL A   1      44.782  30.225  30.834  1.00  0.00     0.049 A 
ATOM     51  C   UNL A   1      43.793  25.170  28.653  1.00  0.00     0.074 A 
ATOM     52  C   UNL A   1      46.063  30.464  31.298  1.00  0.00     0.029 A 
ATOM     53  N   UNL A   1      44.773  28.936  30.327  1.00  0.00    -0.354 N 
ATOM     54  N   UNL A   1      44.173  26.302  29.194  1.00  0.00    -0.248 NA
ATOM     55  C   UNL A   1      44.873  24.184  28.496  1.00  0.00     0.031 C 
ATOM     56  C   UNL A   1      46.842  29.334  31.032  1.00  0.00     0.029 A 
ATOM     57  C   UNL A   1      46.032  28.373  30.449  1.00  0.00     0.049 A 
ATOM     58  H   UNL A   1      43.988  28.486  29.938  1.00  0.00     0.167 HD
ATOM     59  C   UNL A   1      45.526  26.153  29.471  1.00  0.00     0.074 A 
ATOM     60  C   UNL A   1      45.899  24.819  29.047  1.00  0.00     0.031 C 
ATOM     61  C   UNL A   1      46.383  27.041  30.031  1.00  0.00     0.031 A 
BRANCH  48  62
ATOM     62  C   UNL A   1      43.833  32.504  31.366  1.00  0.00    -0.014 A 
ATOM     63  C   UNL A   1      44.177  33.559  30.505  1.00  0.00     0.009 A 
ATOM     64  C   UNL A   1      43.632  32.778  32.728  1.00  0.00     0.009 A 
ATOM     65  C   UNL A   1      44.355  34.850  31.004  1.00  0.00     0.001 A 
ATOM     66  C   UNL A   1      43.781  34.077  33.220  1.00  0.00     0.001 A 
ATOM     67  C   UNL A   1      44.153  35.109  32.359  1.00  0.00     0.000 A 
ENDBRANCH  48  62
BRANCH  49  68
ATOM     68  C   UNL A   1      42.203  23.411  27.595  1.00  0.00    -0.014 A 
ATOM     69  C   UNL A   1      42.551  23.155  26.260  1.00  0.00     0.009 A 
ATOM     70  C   UNL A   1      41.639  22.377  28.360  1.00  0.00     0.009 A 
ATOM     71  C   UNL A   1      42.316  21.898  25.695  1.00  0.00     0.001 A 
ATOM     72  C   UNL A   1      41.432  21.114  27.801  1.00  0.00     0.001 A 
ATOM     73  C   UNL A   1      41.762  20.878  26.468  1.00  0.00     0.000 A 
ENDBRANCH  49  68
BRANCH  61  74
ATOM     74  C   UNL A   1      47.797  26.590  30.259  1.00  0.00    -0.014 A 
ATOM     75  C   UNL A   1      48.176  25.952  31.450  1.00  0.00     0.009 A 
ATOM     76  C   UNL A   1      48.747  26.751  29.238  1.00  0.00     0.009 A 
ATOM     77  C   UNL A   1      49.487  25.505  31.621  1.00  0.00     0.001 A 
ATOM     78  C   UNL A   1      50.050  26.279  29.402  1.00  0.00     0.001 A 
ATOM     79  C   UNL A   1      50.420  25.662  30.597  1.00  0.00     0.000 A 
ENDBRANCH  61  74
ENDBRANCH  35  36
ENDBRANCH  27  30
ENDBRANCH  25  26
ENDBRANCH  24  25
ENDBRANCH   1  24
TORSDOF 15
ENDMDL
MODEL 2
REMARK VINA RESULT:      -9.1      4.034      9.596
REMARK SMILES Cc1cc([C@H](O)CC2(CC(=O)NCCCNC(=O)c3ccc(-c4c5nc(c(-c6ccccc6)c6ccc([nH]6)c(-c6ccccc6)c6nc(c(-c7ccccc7)c7ccc4[nH]7)C=C6)C=C5)cc3)CCCC2)ccc1F
REMARK SMILES IDX 13 1 12 2 10 3 11 4 9 6 8 7 67 8 70 9 68 10 69 11 7 12 5 13
REMARK SMILES IDX 4 14 1 15 2 16 3 17 73 18 72 19 74 20 71 21 6 22 14 24 15 25
REMARK SMILES IDX 16 26 17 27 18 29 19 30 20 31 66 32 21 33 65 34 22 35 23 36
REMARK SMILES IDX 24 37 59 38 25 39 64 40 58 41 60 42 26 43 63 44 57 45 56 46
REMARK SMILES IDX 27 48 49 49 34 50 48 51 35 52 38 53 47 54 61 55 36 56 37 57
REMARK SMILES IDX 46 59 62 60 39 61 28 62 29 63 33 64 30 65 32 66 31 67 50 68
REMARK SMILES IDX 51 69 55 70 52 71 54 72 53 73 40 74 41 75 45 76 42 77 44 78
REMARK SMILES IDX 43 79
REMARK H PARENT 12 5 6 23 16 28 60 47 38 58
REMARK Flexibility Score: inf
ROOT
ATOM      1  C   UNL A   1      35.635  22.232  26.415  1.00  0.00     0.117 C 
ENDROOT
BRANCH   1   2
ATOM      2  N   UNL A   1      34.594  22.288  27.423  1.00  0.00    -0.356 N 
ATOM      3  C   UNL A   1      33.251  22.438  27.293  1.00  0.00     0.220 C 
ATOM      4  O   UNL A   1      32.582  22.517  28.327  1.00  0.00    -0.275 OA
ATOM      5  H   UNL A   1      34.913  22.205  28.351  1.00  0.00     0.163 HD
BRANCH   3   6
ATOM      6  C   UNL A   1      32.583  22.468  25.926  1.00  0.00     0.107 C 
BRANCH   6   7
ATOM      7  C   UNL A   1      32.350  23.858  25.236  1.00  0.00    -0.018 C 
ATOM      8  C   UNL A   1      30.994  23.770  24.486  1.00  0.00     0.007 C 
ATOM      9  C   UNL A   1      33.268  24.100  24.025  1.00  0.00     0.007 C 
ATOM     10  C   UNL A   1      31.287  22.974  23.208  1.00  0.00     0.001 C 
ATOM     11  C   UNL A   1      32.775  23.159  22.932  1.00  0.00     0.001 C 
BRANCH   7  12
ATOM     12  C   UNL A   1      32.366  25.004  26.297  1.00  0.00     0.044 C 
BRANCH  12  13
ATOM     13  C   UNL A   1      31.568  26.289  25.996  1.00  0.00     0.145 C 
BRANCH  13  14
ATOM     14  C   UNL A   1      32.344  27.557  26.312  1.00  0.00    -0.019 A 
ATOM     15  C   UNL A   1      31.715  31.301  26.750  1.00  0.00     0.047 C 
ATOM     16  C   UNL A   1      32.404  29.974  26.664  1.00  0.00    -0.015 A 
ATOM     17  C   UNL A   1      31.687  28.795  26.420  1.00  0.00     0.012 A 
ATOM     18  C   UNL A   1      33.792  29.898  26.798  1.00  0.00     0.126 A 
ATOM     19  C   UNL A   1      34.460  28.682  26.706  1.00  0.00     0.040 A 
ATOM     20  F   UNL A   1      34.503  31.013  27.014  1.00  0.00    -0.207 F 
ATOM     21  C   UNL A   1      33.739  27.513  26.464  1.00  0.00     0.009 A 
ENDBRANCH  13  14
BRANCH  13  22
ATOM     22  O   UNL A   1      30.337  26.311  26.709  1.00  0.00    -0.388 OA
ATOM     23  H   UNL A   1      29.601  26.228  26.085  1.00  0.00     0.211 HD
ENDBRANCH  13  22
ENDBRANCH  12  13
ENDBRANCH   7  12
ENDBRANCH   6   7
ENDBRANCH   3   6
ENDBRANCH   1   2
BRANCH   1  24
ATOM     24  C   UNL A   1      36.050  23.635  25.988  1.00  0.00     0.042 C 
BRANCH  24  25
ATOM     25  C   UNL A   1      37.224  23.655  25.023  1.00  0.00     0.118 C 
BRANCH  25  26
ATOM     26  N   UNL A   1      38.283  22.744  25.425  1.00  0.00    -0.352 N 
ATOM     27  C   UNL A   1      39.441  22.980  26.130  1.00  0.00     0.251 C 
ATOM     28  H   UNL A   1      38.152  21.809  25.149  1.00  0.00     0.163 HD
ATOM     29  O   UNL A   1      40.305  22.110  26.178  1.00  0.00    -0.269 OA
BRANCH  27  30
ATOM     30  C   UNL A   1      39.670  24.277  26.810  1.00  0.00     0.039 A 
ATOM     31  C   UNL A   1      39.139  24.473  28.091  1.00  0.00     0.014 A 
ATOM     32  C   UNL A   1      40.363  25.315  26.187  1.00  0.00     0.014 A 
ATOM     33  C   UNL A   1      39.363  25.678  28.764  1.00  0.00     0.010 A 
ATOM     34  C   UNL A   1      40.670  26.473  26.895  1.00  0.00     0.010 A 
ATOM     35  C   UNL A   1      40.163  26.675  28.187  1.00  0.00    -0.014 A 
BRANCH  35  36
ATOM     36  C   UNL A   1      40.461  27.952  28.887  1.00  0.00     0.031 A 
ATOM     37  C   UNL A   1      41.755  28.107  29.640  1.00  0.00     0.074 A 
ATOM     38  C   UNL A   1      39.541  28.936  28.924  1.00  0.00     0.049 A 
ATOM     39  N   UNL A   1      42.142  29.075  30.432  1.00  0.00    -0.248 NA
ATOM     40  C   UNL A   1      42.732  27.012  29.511  1.00  0.00     0.031 C 
ATOM     41  C   UNL A   1      38.236  28.907  28.258  1.00  0.00     0.029 A 
ATOM     42  N   UNL A   1      39.559  30.151  29.565  1.00  0.00    -0.354 N 
ATOM     43  C   UNL A   1      43.385  28.689  30.920  1.00  0.00     0.074 A 
ATOM     44  C   UNL A   1      43.669  27.381  30.371  1.00  0.00     0.031 C 
ATOM     45  C   UNL A   1      37.590  30.057  28.510  1.00  0.00     0.029 A 
ATOM     46  C   UNL A   1      38.409  30.882  29.392  1.00  0.00     0.049 A 
ATOM     47  H   UNL A   1      40.325  30.466  30.097  1.00  0.00     0.167 HD
ATOM     48  C   UNL A   1      44.224  29.367  31.738  1.00  0.00     0.031 A 
ATOM     49  C   UNL A   1      38.046  32.075  29.900  1.00  0.00     0.031 A 
ATOM     50  C   UNL A   1      43.958  30.679  32.260  1.00  0.00     0.049 A 
ATOM     51  C   UNL A   1      38.990  32.804  30.816  1.00  0.00     0.074 A 
ATOM     52  C   UNL A   1      44.772  31.475  33.047  1.00  0.00     0.029 A 
ATOM     53  N   UNL A   1      42.788  31.390  32.045  1.00  0.00    -0.354 N 
ATOM     54  N   UNL A   1      40.181  32.446  31.228  1.00  0.00    -0.248 NA
ATOM     55  C   UNL A   1      38.540  34.105  31.332  1.00  0.00     0.031 C 
ATOM     56  C   UNL A   1      44.076  32.650  33.346  1.00  0.00     0.029 A 
ATOM     57  C   UNL A   1      42.851  32.607  32.701  1.00  0.00     0.049 A 
ATOM     58  H   UNL A   1      42.027  31.076  31.506  1.00  0.00     0.167 HD
ATOM     59  C   UNL A   1      40.636  33.489  32.025  1.00  0.00     0.074 A 
ATOM     60  C   UNL A   1      39.596  34.498  32.032  1.00  0.00     0.031 C 
ATOM     61  C   UNL A   1      41.811  33.603  32.689  1.00  0.00     0.031 A 
BRANCH  48  62
ATOM     62  C   UNL A   1      45.512  28.693  32.123  1.00  0.00    -0.014 A 
ATOM     63  C   UNL A   1      45.595  27.871  33.258  1.00  0.00     0.009 A 
ATOM     64  C   UNL A   1      46.652  28.859  31.321  1.00  0.00     0.009 A 
ATOM     65  C   UNL A   1      46.802  27.261  33.603  1.00  0.00     0.001 A 
ATOM     66  C   UNL A   1      47.851  28.223  31.651  1.00  0.00     0.001 A 
ATOM     67  C   UNL A   1      47.927  27.433  32.798  1.00  0.00     0.000 A 
ENDBRANCH  48  62
BRANCH  49  68
ATOM     68  C   UNL A   1      36.726  32.662  29.551  1.00  0.00    -0.014 A 
ATOM     69  C   UNL A   1      35.619  32.471  30.392  1.00  0.00     0.009 A 
ATOM     70  C   UNL A   1      36.565  33.415  28.376  1.00  0.00     0.009 A 
ATOM     71  C   UNL A   1      34.371  32.998  30.051  1.00  0.00     0.001 A 
ATOM     72  C   UNL A   1      35.322  33.965  28.053  1.00  0.00     0.001 A 
ATOM     73  C   UNL A   1      34.225  33.749  28.885  1.00  0.00     0.000 A 
ENDBRANCH  49  68
BRANCH  61  74
ATOM     74  C   UNL A   1      42.059  34.878  33.444  1.00  0.00    -0.014 A 
ATOM     75  C   UNL A   1      41.580  35.057  34.750  1.00  0.00     0.009 A 
ATOM     76  C   UNL A   1      42.840  35.887  32.858  1.00  0.00     0.009 A 
ATOM     77  C   UNL A   1      41.859  36.235  35.446  1.00  0.00     0.001 A 
ATOM     78  C   UNL A   1      43.140  37.051  33.566  1.00  0.00     0.001 A 
ATOM     79  C   UNL A   1      42.643  37.227  34.857  1.00  0.00     0.000 A 
ENDBRANCH  61  74
ENDBRANCH  35  36
ENDBRANCH  27  30
ENDBRANCH  25  26
ENDBRANCH  24  25
ENDBRANCH   1  24
TORSDOF 15
ENDMDL
MODEL 3
REMARK VINA RESULT:      -8.9      4.280      9.615
REMARK SMILES Cc1cc([C@H](O)CC2(CC(=O)NCCCNC(=O)c3ccc(-c4c5nc(c(-c6ccccc6)c6ccc([nH]6)c(-c6ccccc6)c6nc(c(-c7ccccc7)c7ccc4[nH]7)C=C6)C=C5)cc3)CCCC2)ccc1F
REMARK SMILES IDX 13 1 12 2 10 3 11 4 9 6 8 7 67 8 70 9 68 10 69 11 7 12 5 13
REMARK SMILES IDX 4 14 1 15 2 16 3 17 73 18 72 19 74 20 71 21 6 22 14 24 15 25
REMARK SMILES IDX 16 26 17 27 18 29 19 30 20 31 66 32 21 33 65 34 22 35 23 36
REMARK SMILES IDX 24 37 59 38 25 39 64 40 58 41 60 42 26 43 63 44 57 45 56 46
REMARK SMILES IDX 27 48 49 49 34 50 48 51 35 52 38 53 47 54 61 55 36 56 37 57
REMARK SMILES IDX 46 59 62 60 39 61 28 62 29 63 33 64 30 65 32 66 31 67 50 68
REMARK SMILES IDX 51 69 55 70 52 71 54 72 53 73 40 74 41 75 45 76 42 77 44 78
REMARK SMILES IDX 43 79
REMARK H PARENT 12 5 6 23 16 28 60 47 38 58
REMARK Flexibility Score: inf
ROOT
ATOM      1  C   UNL A   1      36.157  21.003  24.919  1.00  0.00     0.117 C 
ENDROOT
BRANCH   1   2
ATOM      2  N   UNL A   1      35.531  21.155  26.218  1.00  0.00    -0.356 N 
ATOM      3  C   UNL A   1      34.283  21.575  26.549  1.00  0.00     0.220 C 
ATOM      4  O   UNL A   1      34.014  21.675  27.749  1.00  0.00    -0.275 OA
ATOM      5  H   UNL A   1      36.103  20.916  26.983  1.00  0.00     0.163 HD
BRANCH   3   6
ATOM      6  C   UNL A   1      33.237  21.875  25.486  1.00  0.00     0.107 C 
BRANCH   6   7
ATOM      7  C   UNL A   1      32.815  23.368  25.250  1.00  0.00    -0.018 C 
ATOM      8  C   UNL A   1      32.283  23.464  23.795  1.00  0.00     0.007 C 
ATOM      9  C   UNL A   1      34.011  24.328  25.122  1.00  0.00     0.007 C 
ATOM     10  C   UNL A   1      33.532  23.481  22.905  1.00  0.00     0.001 C 
ATOM     11  C   UNL A   1      34.663  24.007  23.782  1.00  0.00     0.001 C 
BRANCH   7  12
ATOM     12  C   UNL A   1      31.746  23.806  26.300  1.00  0.00     0.044 C 
BRANCH  12  13
ATOM     13  C   UNL A   1      30.532  24.622  25.811  1.00  0.00     0.145 C 
BRANCH  13  14
ATOM     14  C   UNL A   1      30.861  26.084  25.563  1.00  0.00    -0.019 A 
ATOM     15  C   UNL A   1      32.610  28.993  27.319  1.00  0.00     0.047 C 
ATOM     16  C   UNL A   1      31.859  28.188  26.305  1.00  0.00    -0.015 A 
ATOM     17  C   UNL A   1      31.593  26.827  26.507  1.00  0.00     0.012 A 
ATOM     18  C   UNL A   1      31.381  28.799  25.143  1.00  0.00     0.126 A 
ATOM     19  C   UNL A   1      30.666  28.081  24.192  1.00  0.00     0.040 A 
ATOM     20  F   UNL A   1      31.606  30.104  24.935  1.00  0.00    -0.207 F 
ATOM     21  C   UNL A   1      30.406  26.726  24.400  1.00  0.00     0.009 A 
ENDBRANCH  13  14
BRANCH  13  22
ATOM     22  O   UNL A   1      29.451  24.542  26.732  1.00  0.00    -0.388 OA
ATOM     23  H   UNL A   1      29.426  23.656  27.124  1.00  0.00     0.211 HD
ENDBRANCH  13  22
ENDBRANCH  12  13
ENDBRANCH   7  12
ENDBRANCH   6   7
ENDBRANCH   3   6
ENDBRANCH   1   2
BRANCH   1  24
ATOM     24  C   UNL A   1      37.296  19.990  24.983  1.00  0.00     0.042 C 
BRANCH  24  25
ATOM     25  C   UNL A   1      38.636  20.605  25.352  1.00  0.00     0.118 C 
BRANCH  25  26
ATOM     26  N   UNL A   1      39.669  19.600  25.544  1.00  0.00    -0.352 N 
ATOM     27  C   UNL A   1      40.964  19.728  25.989  1.00  0.00     0.251 C 
ATOM     28  H   UNL A   1      39.398  18.681  25.321  1.00  0.00     0.163 HD
ATOM     29  O   UNL A   1      41.736  18.782  25.876  1.00  0.00    -0.269 OA
BRANCH  27  30
ATOM     30  C   UNL A   1      41.446  20.999  26.580  1.00  0.00     0.039 A 
ATOM     31  C   UNL A   1      41.951  21.992  25.732  1.00  0.00     0.014 A 
ATOM     32  C   UNL A   1      41.444  21.209  27.959  1.00  0.00     0.014 A 
ATOM     33  C   UNL A   1      42.387  23.210  26.263  1.00  0.00     0.010 A 
ATOM     34  C   UNL A   1      41.785  22.455  28.477  1.00  0.00     0.010 A 
ATOM     35  C   UNL A   1      42.273  23.467  27.637  1.00  0.00    -0.014 A 
BRANCH  35  36
ATOM     36  C   UNL A   1      42.684  24.764  28.235  1.00  0.00     0.031 A 
ATOM     37  C   UNL A   1      41.658  25.843  28.458  1.00  0.00     0.074 A 
ATOM     38  C   UNL A   1      43.984  25.009  28.494  1.00  0.00     0.049 A 
ATOM     39  N   UNL A   1      41.831  27.087  28.828  1.00  0.00    -0.248 NA
ATOM     40  C   UNL A   1      40.253  25.485  28.201  1.00  0.00     0.031 C 
ATOM     41  C   UNL A   1      45.084  24.062  28.302  1.00  0.00     0.029 A 
ATOM     42  N   UNL A   1      44.601  26.143  28.964  1.00  0.00    -0.354 N 
ATOM     43  C   UNL A   1      40.567  27.664  28.813  1.00  0.00     0.074 A 
ATOM     44  C   UNL A   1      39.643  26.650  28.355  1.00  0.00     0.031 C 
ATOM     45  C   UNL A   1      46.236  24.647  28.668  1.00  0.00     0.029 A 
ATOM     46  C   UNL A   1      45.965  26.023  29.073  1.00  0.00     0.049 A 
ATOM     47  H   UNL A   1      44.111  26.963  29.200  1.00  0.00     0.167 HD
ATOM     48  C   UNL A   1      40.203  28.920  29.163  1.00  0.00     0.031 A 
ATOM     49  C   UNL A   1      46.897  26.923  29.441  1.00  0.00     0.031 A 
ATOM     50  C   UNL A   1      41.114  29.921  29.646  1.00  0.00     0.049 A 
ATOM     51  C   UNL A   1      46.469  28.315  29.814  1.00  0.00     0.074 A 
ATOM     52  C   UNL A   1      40.833  31.203  30.084  1.00  0.00     0.029 A 
ATOM     53  N   UNL A   1      42.484  29.750  29.757  1.00  0.00    -0.354 N 
ATOM     54  N   UNL A   1      45.264  28.829  29.839  1.00  0.00    -0.248 NA
ATOM     55  C   UNL A   1      47.532  29.250  30.214  1.00  0.00     0.031 C 
ATOM     56  C   UNL A   1      42.040  31.824  30.419  1.00  0.00     0.029 A 
ATOM     57  C   UNL A   1      43.065  30.910  30.238  1.00  0.00     0.049 A 
ATOM     58  H   UNL A   1      42.972  28.925  29.529  1.00  0.00     0.167 HD
ATOM     59  C   UNL A   1      45.419  30.135  30.287  1.00  0.00     0.074 A 
ATOM     60  C   UNL A   1      46.833  30.332  30.529  1.00  0.00     0.031 C 
ATOM     61  C   UNL A   1      44.473  31.085  30.483  1.00  0.00     0.031 A 
BRANCH  48  62
ATOM     62  C   UNL A   1      38.749  29.284  29.028  1.00  0.00    -0.014 A 
ATOM     63  C   UNL A   1      38.224  29.755  27.814  1.00  0.00     0.009 A 
ATOM     64  C   UNL A   1      37.887  29.123  30.124  1.00  0.00     0.009 A 
ATOM     65  C   UNL A   1      36.874  30.094  27.712  1.00  0.00     0.001 A 
ATOM     66  C   UNL A   1      36.530  29.435  30.010  1.00  0.00     0.001 A 
ATOM     67  C   UNL A   1      36.028  29.930  28.808  1.00  0.00     0.000 A 
ENDBRANCH  48  62
BRANCH  49  68
ATOM     68  C   UNL A   1      48.331  26.536  29.481  1.00  0.00    -0.014 A 
ATOM     69  C   UNL A   1      48.893  26.014  30.656  1.00  0.00     0.009 A 
ATOM     70  C   UNL A   1      49.146  26.688  28.348  1.00  0.00     0.009 A 
ATOM     71  C   UNL A   1      50.248  25.677  30.704  1.00  0.00     0.001 A 
ATOM     72  C   UNL A   1      50.494  26.323  28.390  1.00  0.00     0.001 A 
ATOM     73  C   UNL A   1      51.046  25.827  29.570  1.00  0.00     0.000 A 
ENDBRANCH  49  68
BRANCH  61  74
ATOM     74  C   UNL A   1      44.926  32.411  31.026  1.00  0.00    -0.014 A 
ATOM     75  C   UNL A   1      45.023  32.639  32.407  1.00  0.00     0.009 A 
ATOM     76  C   UNL A   1      45.319  33.424  30.137  1.00  0.00     0.009 A 
ATOM     77  C   UNL A   1      45.485  33.866  32.885  1.00  0.00     0.001 A 
ATOM     78  C   UNL A   1      45.806  34.639  30.619  1.00  0.00     0.001 A 
ATOM     79  C   UNL A   1      45.883  34.861  31.993  1.00  0.00     0.000 A 
ENDBRANCH  61  74
ENDBRANCH  35  36
ENDBRANCH  27  30
ENDBRANCH  25  26
ENDBRANCH  24  25
ENDBRANCH   1  24
TORSDOF 15
ENDMDL
