MODEL 1
REMARK VINA RESULT:     -11.6      0.000      0.000
REMARK SMILES Cc1nsc(NC(=O)C2([NH3+])CCCCC2)c1C(=O)NCCCNC(=O)c1ccc(-c2c3nc(c(-c4ccccc4)c4ccc([nH]4)c(-c4ccccc4)c4nc(c(-c5ccccc5)c5ccc2[nH]5)C=C4)C=C3)cc1
REMARK SMILES IDX 20 1 19 2 17 3 18 4 16 6 1 7 2 8 3 9 4 10 5 11 6 12 7 13
REMARK SMILES IDX 8 15 9 16 11 17 15 18 12 19 14 20 13 21 10 22 21 26 22 27
REMARK SMILES IDX 23 28 24 29 25 31 26 32 27 33 73 34 28 35 72 36 29 37 30 38
REMARK SMILES IDX 31 39 66 40 32 41 71 42 65 43 67 44 33 45 70 46 64 47 63 48
REMARK SMILES IDX 34 50 56 51 41 52 55 53 42 54 45 55 54 56 68 57 43 58 44 59
REMARK SMILES IDX 53 61 69 62 46 63 35 64 36 65 40 66 37 67 39 68 38 69 57 70
REMARK SMILES IDX 58 71 62 72 59 73 61 74 60 75 47 76 48 77 52 78 49 79 51 80
REMARK SMILES IDX 50 81
REMARK H PARENT 19 5 6 14 10 23 10 24 10 25 23 30 67 49 45 60
REMARK Flexibility Score: inf
ROOT
ATOM      1  C   UNL A   1      32.871  30.183  27.258  1.00  0.00     0.118 C 
ENDROOT
BRANCH   1   2
ATOM      2  N   UNL A   1      32.128  28.965  27.472  1.00  0.00    -0.352 N 
ATOM      3  C   UNL A   1      31.670  27.969  26.659  1.00  0.00     0.256 C 
ATOM      4  O   UNL A   1      31.107  27.054  27.274  1.00  0.00    -0.269 OA
ATOM      5  H   UNL A   1      31.899  28.820  28.419  1.00  0.00     0.163 HD
BRANCH   3   6
ATOM      6  C   UNL A   1      31.862  27.875  25.202  1.00  0.00     0.097 A 
ATOM      7  C   UNL A   1      30.228  29.587  23.918  1.00  0.00     0.069 C 
ATOM      8  C   UNL A   1      31.328  28.599  24.047  1.00  0.00     0.066 A 
ATOM      9  N   UNL A   1      31.874  28.299  22.868  1.00  0.00    -0.195 NA
ATOM     10  S   UNL A   1      32.918  27.073  23.056  1.00  0.00    -0.017 S 
ATOM     11  C   UNL A   1      32.633  26.809  24.697  1.00  0.00     0.129 A 
BRANCH  11  12
ATOM     12  N   UNL A   1      33.153  25.733  25.406  1.00  0.00    -0.310 N 
ATOM     13  C   UNL A   1      32.800  24.429  25.636  1.00  0.00     0.286 C 
ATOM     14  H   UNL A   1      33.995  25.969  25.859  1.00  0.00     0.171 HD
ATOM     15  O   UNL A   1      33.592  23.795  26.352  1.00  0.00    -0.267 OA
BRANCH  13  16
ATOM     16  C   UNL A   1      31.524  23.717  25.073  1.00  0.00     0.174 C 
ATOM     17  C   UNL A   1      31.602  23.644  23.532  1.00  0.00     0.079 C 
ATOM     18  C   UNL A   1      31.349  22.289  25.663  1.00  0.00     0.079 C 
ATOM     19  C   UNL A   1      32.583  22.589  23.023  1.00  0.00     0.007 C 
ATOM     20  C   UNL A   1      32.260  21.212  25.078  1.00  0.00     0.007 C 
ATOM     21  C   UNL A   1      32.235  21.213  23.557  1.00  0.00     0.001 C 
BRANCH  16  22
ATOM     22  N   UNL A   1      30.315  24.416  25.580  1.00  0.00    -0.345 N 
ATOM     23  H   UNL A   1      29.670  24.585  24.809  1.00  0.00     0.345 HD
ATOM     24  H   UNL A   1      30.586  25.307  25.997  1.00  0.00     0.345 HD
ATOM     25  H   UNL A   1      29.858  23.837  26.285  1.00  0.00     0.345 HD
ENDBRANCH  16  22
ENDBRANCH  13  16
ENDBRANCH  11  12
ENDBRANCH   3   6
ENDBRANCH   1   2
BRANCH   1  26
ATOM     26  C   UNL A   1      34.257  29.886  26.670  1.00  0.00     0.042 C 
BRANCH  26  27
ATOM     27  C   UNL A   1      35.118  29.071  27.616  1.00  0.00     0.118 C 
BRANCH  27  28
ATOM     28  N   UNL A   1      35.446  29.831  28.825  1.00  0.00    -0.352 N 
ATOM     29  C   UNL A   1      36.584  29.770  29.608  1.00  0.00     0.251 C 
ATOM     30  H   UNL A   1      34.761  30.475  29.119  1.00  0.00     0.163 HD
ATOM     31  O   UNL A   1      36.608  30.226  30.730  1.00  0.00    -0.269 OA
BRANCH  29  32
ATOM     32  C   UNL A   1      37.762  29.106  29.029  1.00  0.00     0.039 A 
ATOM     33  C   UNL A   1      38.356  29.599  27.868  1.00  0.00     0.014 A 
ATOM     34  C   UNL A   1      38.344  28.080  29.765  1.00  0.00     0.014 A 
ATOM     35  C   UNL A   1      39.617  29.125  27.522  1.00  0.00     0.010 A 
ATOM     36  C   UNL A   1      39.653  27.752  29.521  1.00  0.00     0.010 A 
ATOM     37  C   UNL A   1      40.287  28.236  28.381  1.00  0.00    -0.014 A 
BRANCH  37  38
ATOM     38  C   UNL A   1      41.679  27.877  28.132  1.00  0.00     0.031 A 
ATOM     39  C   UNL A   1      41.901  26.615  27.376  1.00  0.00     0.074 A 
ATOM     40  C   UNL A   1      42.733  28.663  28.434  1.00  0.00     0.049 A 
ATOM     41  N   UNL A   1      42.280  25.482  27.867  1.00  0.00    -0.248 NA
ATOM     42  C   UNL A   1      41.567  26.565  25.947  1.00  0.00     0.031 C 
ATOM     43  C   UNL A   1      42.761  30.051  28.912  1.00  0.00     0.029 A 
ATOM     44  N   UNL A   1      44.054  28.373  28.292  1.00  0.00    -0.354 N 
ATOM     45  C   UNL A   1      42.415  24.612  26.790  1.00  0.00     0.074 A 
ATOM     46  C   UNL A   1      41.826  25.285  25.658  1.00  0.00     0.031 C 
ATOM     47  C   UNL A   1      44.012  30.548  28.798  1.00  0.00     0.029 A 
ATOM     48  C   UNL A   1      44.899  29.457  28.450  1.00  0.00     0.049 A 
ATOM     49  H   UNL A   1      44.381  27.465  28.094  1.00  0.00     0.167 HD
ATOM     50  C   UNL A   1      43.194  23.497  26.876  1.00  0.00     0.031 A 
ATOM     51  C   UNL A   1      46.246  29.458  28.329  1.00  0.00     0.031 A 
ATOM     52  C   UNL A   1      43.573  23.217  28.238  1.00  0.00     0.049 A 
ATOM     53  C   UNL A   1      46.705  28.069  28.546  1.00  0.00     0.074 A 
ATOM     54  C   UNL A   1      42.894  22.932  29.405  1.00  0.00     0.029 A 
ATOM     55  N   UNL A   1      44.833  23.614  28.625  1.00  0.00    -0.354 N 
ATOM     56  N   UNL A   1      46.609  27.459  29.692  1.00  0.00    -0.248 NA
ATOM     57  C   UNL A   1      46.871  27.204  27.391  1.00  0.00     0.031 C 
ATOM     58  C   UNL A   1      43.604  23.641  30.422  1.00  0.00     0.029 A 
ATOM     59  C   UNL A   1      44.709  24.256  29.829  1.00  0.00     0.049 A 
ATOM     60  H   UNL A   1      45.670  23.463  28.128  1.00  0.00     0.167 HD
ATOM     61  C   UNL A   1      46.256  26.156  29.371  1.00  0.00     0.074 A 
ATOM     62  C   UNL A   1      46.546  26.031  27.944  1.00  0.00     0.031 C 
ATOM     63  C   UNL A   1      45.509  25.394  30.226  1.00  0.00     0.031 A 
BRANCH  50  64
ATOM     64  C   UNL A   1      43.942  22.890  25.717  1.00  0.00    -0.014 A 
ATOM     65  C   UNL A   1      43.840  21.502  25.500  1.00  0.00     0.009 A 
ATOM     66  C   UNL A   1      44.958  23.566  25.017  1.00  0.00     0.009 A 
ATOM     67  C   UNL A   1      44.755  20.819  24.690  1.00  0.00     0.001 A 
ATOM     68  C   UNL A   1      45.849  22.894  24.175  1.00  0.00     0.001 A 
ATOM     69  C   UNL A   1      45.766  21.515  24.035  1.00  0.00     0.000 A 
ENDBRANCH  50  64
BRANCH  51  70
ATOM     70  C   UNL A   1      47.115  30.519  27.792  1.00  0.00    -0.014 A 
ATOM     71  C   UNL A   1      46.614  31.464  26.886  1.00  0.00     0.009 A 
ATOM     72  C   UNL A   1      48.360  30.775  28.395  1.00  0.00     0.009 A 
ATOM     73  C   UNL A   1      47.310  32.653  26.635  1.00  0.00     0.001 A 
ATOM     74  C   UNL A   1      49.056  31.962  28.143  1.00  0.00     0.001 A 
ATOM     75  C   UNL A   1      48.520  32.908  27.276  1.00  0.00     0.000 A 
ENDBRANCH  51  70
BRANCH  63  76
ATOM     76  C   UNL A   1      45.291  25.914  31.629  1.00  0.00    -0.014 A 
ATOM     77  C   UNL A   1      44.231  26.767  31.981  1.00  0.00     0.009 A 
ATOM     78  C   UNL A   1      46.104  25.410  32.656  1.00  0.00     0.009 A 
ATOM     79  C   UNL A   1      44.012  27.130  33.315  1.00  0.00     0.001 A 
ATOM     80  C   UNL A   1      45.873  25.754  33.990  1.00  0.00     0.001 A 
ATOM     81  C   UNL A   1      44.831  26.620  34.319  1.00  0.00     0.000 A 
ENDBRANCH  63  76
ENDBRANCH  37  38
ENDBRANCH  29  32
ENDBRANCH  27  28
ENDBRANCH  26  27
ENDBRANCH   1  26
TORSDOF 13
ENDMDL
MODEL 2
REMARK VINA RESULT:     -11.4      2.304      6.896
REMARK SMILES Cc1nsc(NC(=O)C2([NH3+])CCCCC2)c1C(=O)NCCCNC(=O)c1ccc(-c2c3nc(c(-c4ccccc4)c4ccc([nH]4)c(-c4ccccc4)c4nc(c(-c5ccccc5)c5ccc2[nH]5)C=C4)C=C3)cc1
REMARK SMILES IDX 20 1 19 2 17 3 18 4 16 6 1 7 2 8 3 9 4 10 5 11 6 12 7 13
REMARK SMILES IDX 8 15 9 16 11 17 15 18 12 19 14 20 13 21 10 22 21 26 22 27
REMARK SMILES IDX 23 28 24 29 25 31 26 32 27 33 73 34 28 35 72 36 29 37 30 38
REMARK SMILES IDX 31 39 66 40 32 41 71 42 65 43 67 44 33 45 70 46 64 47 63 48
REMARK SMILES IDX 34 50 56 51 41 52 55 53 42 54 45 55 54 56 68 57 43 58 44 59
REMARK SMILES IDX 53 61 69 62 46 63 35 64 36 65 40 66 37 67 39 68 38 69 57 70
REMARK SMILES IDX 58 71 62 72 59 73 61 74 60 75 47 76 48 77 52 78 49 79 51 80
REMARK SMILES IDX 50 81
REMARK H PARENT 19 5 6 14 10 23 10 24 10 25 23 30 67 49 45 60
REMARK Flexibility Score: inf
ROOT
ATOM      1  C   UNL A   1      31.998  28.663  26.835  1.00  0.00     0.118 C 
ENDROOT
BRANCH   1   2
ATOM      2  N   UNL A   1      31.124  27.514  26.822  1.00  0.00    -0.352 N 
ATOM      3  C   UNL A   1      30.827  26.551  25.901  1.00  0.00     0.256 C 
ATOM      4  O   UNL A   1      30.040  25.694  26.326  1.00  0.00    -0.269 OA
ATOM      5  H   UNL A   1      30.631  27.401  27.666  1.00  0.00     0.163 HD
BRANCH   3   6
ATOM      6  C   UNL A   1      31.406  26.423  24.554  1.00  0.00     0.097 A 
ATOM      7  C   UNL A   1      34.062  26.009  24.698  1.00  0.00     0.069 C 
ATOM      8  C   UNL A   1      32.739  26.116  24.033  1.00  0.00     0.066 A 
ATOM      9  N   UNL A   1      32.825  25.947  22.714  1.00  0.00    -0.195 NA
ATOM     10  S   UNL A   1      31.391  26.280  22.036  1.00  0.00    -0.017 S 
ATOM     11  C   UNL A   1      30.600  26.757  23.446  1.00  0.00     0.129 A 
BRANCH  11  12
ATOM     12  N   UNL A   1      29.332  27.323  23.465  1.00  0.00    -0.310 N 
ATOM     13  C   UNL A   1      28.802  28.582  23.350  1.00  0.00     0.286 C 
ATOM     14  H   UNL A   1      28.632  26.643  23.593  1.00  0.00     0.171 HD
ATOM     15  O   UNL A   1      27.563  28.633  23.418  1.00  0.00    -0.267 OA
BRANCH  13  16
ATOM     16  C   UNL A   1      29.622  29.900  23.139  1.00  0.00     0.174 C 
ATOM     17  C   UNL A   1      29.761  30.195  21.630  1.00  0.00     0.079 C 
ATOM     18  C   UNL A   1      28.964  31.112  23.858  1.00  0.00     0.079 C 
ATOM     19  C   UNL A   1      28.478  30.728  20.994  1.00  0.00     0.007 C 
ATOM     20  C   UNL A   1      27.741  31.712  23.164  1.00  0.00     0.007 C 
ATOM     21  C   UNL A   1      28.003  31.987  21.692  1.00  0.00     0.001 C 
BRANCH  16  22
ATOM     22  N   UNL A   1      30.921  29.782  23.851  1.00  0.00    -0.345 N 
ATOM     23  H   UNL A   1      30.796  29.230  24.700  1.00  0.00     0.345 HD
ATOM     24  H   UNL A   1      31.261  30.712  24.097  1.00  0.00     0.345 HD
ATOM     25  H   UNL A   1      31.600  29.322  23.244  1.00  0.00     0.345 HD
ENDBRANCH  16  22
ENDBRANCH  13  16
ENDBRANCH  11  12
ENDBRANCH   3   6
ENDBRANCH   1   2
BRANCH   1  26
ATOM     26  C   UNL A   1      33.417  28.271  27.268  1.00  0.00     0.042 C 
BRANCH  26  27
ATOM     27  C   UNL A   1      34.474  29.149  26.627  1.00  0.00     0.118 C 
BRANCH  27  28
ATOM     28  N   UNL A   1      34.260  30.561  26.952  1.00  0.00    -0.352 N 
ATOM     29  C   UNL A   1      34.825  31.315  27.965  1.00  0.00     0.251 C 
ATOM     30  H   UNL A   1      33.628  31.039  26.368  1.00  0.00     0.163 HD
ATOM     31  O   UNL A   1      34.350  32.375  28.308  1.00  0.00    -0.269 OA
BRANCH  29  32
ATOM     32  C   UNL A   1      36.017  30.763  28.626  1.00  0.00     0.039 A 
ATOM     33  C   UNL A   1      35.893  29.807  29.633  1.00  0.00     0.014 A 
ATOM     34  C   UNL A   1      37.257  31.111  28.102  1.00  0.00     0.014 A 
ATOM     35  C   UNL A   1      37.032  29.110  30.023  1.00  0.00     0.010 A 
ATOM     36  C   UNL A   1      38.334  30.301  28.359  1.00  0.00     0.010 A 
ATOM     37  C   UNL A   1      38.246  29.324  29.346  1.00  0.00    -0.014 A 
BRANCH  37  38
ATOM     38  C   UNL A   1      39.399  28.472  29.612  1.00  0.00     0.031 A 
ATOM     39  C   UNL A   1      39.779  28.319  31.042  1.00  0.00     0.074 A 
ATOM     40  C   UNL A   1      40.040  27.745  28.674  1.00  0.00     0.049 A 
ATOM     41  N   UNL A   1      40.770  28.893  31.640  1.00  0.00    -0.248 NA
ATOM     42  C   UNL A   1      38.916  27.536  31.936  1.00  0.00     0.031 C 
ATOM     43  C   UNL A   1      39.686  27.506  27.269  1.00  0.00     0.029 A 
ATOM     44  N   UNL A   1      41.155  26.982  28.832  1.00  0.00    -0.354 N 
ATOM     45  C   UNL A   1      40.777  28.409  32.944  1.00  0.00     0.074 A 
ATOM     46  C   UNL A   1      39.535  27.695  33.110  1.00  0.00     0.031 C 
ATOM     47  C   UNL A   1      40.426  26.487  26.779  1.00  0.00     0.029 A 
ATOM     48  C   UNL A   1      41.442  26.157  27.757  1.00  0.00     0.049 A 
ATOM     49  H   UNL A   1      41.711  27.014  29.644  1.00  0.00     0.167 HD
ATOM     50  C   UNL A   1      41.904  28.457  33.709  1.00  0.00     0.031 A 
ATOM     51  C   UNL A   1      42.463  25.277  27.664  1.00  0.00     0.031 A 
ATOM     52  C   UNL A   1      42.914  29.298  33.116  1.00  0.00     0.049 A 
ATOM     53  C   UNL A   1      43.507  25.715  28.616  1.00  0.00     0.074 A 
ATOM     54  C   UNL A   1      42.996  30.630  32.766  1.00  0.00     0.029 A 
ATOM     55  N   UNL A   1      43.919  28.665  32.422  1.00  0.00    -0.354 N 
ATOM     56  N   UNL A   1      44.183  26.819  28.472  1.00  0.00    -0.248 NA
ATOM     57  C   UNL A   1      43.503  25.156  29.957  1.00  0.00     0.031 C 
ATOM     58  C   UNL A   1      43.704  30.638  31.526  1.00  0.00     0.029 A 
ATOM     59  C   UNL A   1      44.071  29.323  31.229  1.00  0.00     0.049 A 
ATOM     60  H   UNL A   1      44.435  27.884  32.727  1.00  0.00     0.167 HD
ATOM     61  C   UNL A   1      44.310  27.326  29.758  1.00  0.00     0.074 A 
ATOM     62  C   UNL A   1      43.976  26.206  30.636  1.00  0.00     0.031 C 
ATOM     63  C   UNL A   1      44.404  28.671  29.981  1.00  0.00     0.031 A 
BRANCH  50  64
ATOM     64  C   UNL A   1      42.255  27.447  34.772  1.00  0.00    -0.014 A 
ATOM     65  C   UNL A   1      42.699  26.172  34.371  1.00  0.00     0.009 A 
ATOM     66  C   UNL A   1      41.897  27.596  36.123  1.00  0.00     0.009 A 
ATOM     67  C   UNL A   1      42.706  25.089  35.258  1.00  0.00     0.001 A 
ATOM     68  C   UNL A   1      41.941  26.526  37.022  1.00  0.00     0.001 A 
ATOM     69  C   UNL A   1      42.317  25.264  36.582  1.00  0.00     0.000 A 
ENDBRANCH  50  64
BRANCH  51  70
ATOM     70  C   UNL A   1      42.479  23.962  27.002  1.00  0.00    -0.014 A 
ATOM     71  C   UNL A   1      43.613  23.528  26.298  1.00  0.00     0.009 A 
ATOM     72  C   UNL A   1      41.487  23.012  27.306  1.00  0.00     0.009 A 
ATOM     73  C   UNL A   1      43.773  22.179  25.961  1.00  0.00     0.001 A 
ATOM     74  C   UNL A   1      41.647  21.664  26.969  1.00  0.00     0.001 A 
ATOM     75  C   UNL A   1      42.799  21.246  26.312  1.00  0.00     0.000 A 
ENDBRANCH  51  70
BRANCH  63  76
ATOM     76  C   UNL A   1      44.618  29.573  28.787  1.00  0.00    -0.014 A 
ATOM     77  C   UNL A   1      43.568  30.071  27.996  1.00  0.00     0.009 A 
ATOM     78  C   UNL A   1      45.915  30.048  28.540  1.00  0.00     0.009 A 
ATOM     79  C   UNL A   1      43.814  30.989  26.969  1.00  0.00     0.001 A 
ATOM     80  C   UNL A   1      46.158  30.982  27.530  1.00  0.00     0.001 A 
ATOM     81  C   UNL A   1      45.109  31.447  26.740  1.00  0.00     0.000 A 
ENDBRANCH  63  76
ENDBRANCH  37  38
ENDBRANCH  29  32
ENDBRANCH  27  28
ENDBRANCH  26  27
ENDBRANCH   1  26
TORSDOF 13
ENDMDL
MODEL 3
REMARK VINA RESULT:     -11.4      2.634      7.330
REMARK SMILES Cc1nsc(NC(=O)C2([NH3+])CCCCC2)c1C(=O)NCCCNC(=O)c1ccc(-c2c3nc(c(-c4ccccc4)c4ccc([nH]4)c(-c4ccccc4)c4nc(c(-c5ccccc5)c5ccc2[nH]5)C=C4)C=C3)cc1
REMARK SMILES IDX 20 1 19 2 17 3 18 4 16 6 1 7 2 8 3 9 4 10 5 11 6 12 7 13
REMARK SMILES IDX 8 15 9 16 11 17 15 18 12 19 14 20 13 21 10 22 21 26 22 27
REMARK SMILES IDX 23 28 24 29 25 31 26 32 27 33 73 34 28 35 72 36 29 37 30 38
REMARK SMILES IDX 31 39 66 40 32 41 71 42 65 43 67 44 33 45 70 46 64 47 63 48
REMARK SMILES IDX 34 50 56 51 41 52 55 53 42 54 45 55 54 56 68 57 43 58 44 59
REMARK SMILES IDX 53 61 69 62 46 63 35 64 36 65 40 66 37 67 39 68 38 69 57 70
REMARK SMILES IDX 58 71 62 72 59 73 61 74 60 75 47 76 48 77 52 78 49 79 51 80
REMARK SMILES IDX 50 81
REMARK H PARENT 19 5 6 14 10 23 10 24 10 25 23 30 67 49 45 60
REMARK Flexibility Score: inf
ROOT
ATOM      1  C   UNL A   1      36.468  21.409  25.359  1.00  0.00     0.118 C 
ENDROOT
BRANCH   1   2
ATOM      2  N   UNL A   1      35.972  22.153  24.226  1.00  0.00    -0.352 N 
ATOM      3  C   UNL A   1      34.730  22.514  23.790  1.00  0.00     0.256 C 
ATOM      4  O   UNL A   1      34.753  23.215  22.770  1.00  0.00    -0.269 OA
ATOM      5  H   UNL A   1      36.692  22.470  23.634  1.00  0.00     0.163 HD
BRANCH   3   6
ATOM      6  C   UNL A   1      33.451  22.216  24.456  1.00  0.00     0.097 A 
ATOM      7  C   UNL A   1      32.684  19.686  23.946  1.00  0.00     0.069 C 
ATOM      8  C   UNL A   1      32.622  21.018  24.599  1.00  0.00     0.066 A 
ATOM      9  N   UNL A   1      31.579  21.125  25.422  1.00  0.00    -0.195 NA
ATOM     10  S   UNL A   1      31.457  22.658  25.937  1.00  0.00    -0.017 S 
ATOM     11  C   UNL A   1      32.727  23.285  25.021  1.00  0.00     0.129 A 
BRANCH  11  12
ATOM     12  N   UNL A   1      33.011  24.641  24.926  1.00  0.00    -0.310 N 
ATOM     13  C   UNL A   1      32.616  25.688  24.134  1.00  0.00     0.286 C 
ATOM     14  H   UNL A   1      33.667  24.924  25.604  1.00  0.00     0.171 HD
ATOM     15  O   UNL A   1      33.138  26.779  24.416  1.00  0.00    -0.267 OA
BRANCH  13  16
ATOM     16  C   UNL A   1      31.587  25.602  22.957  1.00  0.00     0.174 C 
ATOM     17  C   UNL A   1      30.217  25.129  23.490  1.00  0.00     0.079 C 
ATOM     18  C   UNL A   1      31.430  26.965  22.224  1.00  0.00     0.079 C 
ATOM     19  C   UNL A   1      29.458  26.212  24.256  1.00  0.00     0.007 C 
ATOM     20  C   UNL A   1      30.581  28.011  22.945  1.00  0.00     0.007 C 
ATOM     21  C   UNL A   1      29.246  27.444  23.398  1.00  0.00     0.001 C 
BRANCH  16  22
ATOM     22  N   UNL A   1      32.146  24.735  21.887  1.00  0.00    -0.345 N 
ATOM     23  H   UNL A   1      31.753  23.797  21.967  1.00  0.00     0.345 HD
ATOM     24  H   UNL A   1      33.161  24.687  21.983  1.00  0.00     0.345 HD
ATOM     25  H   UNL A   1      31.910  25.125  20.974  1.00  0.00     0.345 HD
ENDBRANCH  16  22
ENDBRANCH  13  16
ENDBRANCH  11  12
ENDBRANCH   3   6
ENDBRANCH   1   2
BRANCH   1  26
ATOM     26  C   UNL A   1      37.620  20.483  24.947  1.00  0.00     0.042 C 
BRANCH  26  27
ATOM     27  C   UNL A   1      38.892  20.771  25.722  1.00  0.00     0.118 C 
BRANCH  27  28
ATOM     28  N   UNL A   1      39.815  19.634  25.668  1.00  0.00    -0.352 N 
ATOM     29  C   UNL A   1      41.182  19.614  25.881  1.00  0.00     0.251 C 
ATOM     30  H   UNL A   1      39.405  18.766  25.450  1.00  0.00     0.163 HD
ATOM     31  O   UNL A   1      41.866  18.682  25.521  1.00  0.00    -0.269 OA
BRANCH  29  32
ATOM     32  C   UNL A   1      41.774  20.784  26.546  1.00  0.00     0.039 A 
ATOM     33  C   UNL A   1      42.219  21.876  25.801  1.00  0.00     0.014 A 
ATOM     34  C   UNL A   1      41.723  20.824  27.935  1.00  0.00     0.014 A 
ATOM     35  C   UNL A   1      42.499  23.061  26.472  1.00  0.00     0.010 A 
ATOM     36  C   UNL A   1      41.826  22.037  28.566  1.00  0.00     0.010 A 
ATOM     37  C   UNL A   1      42.252  23.154  27.854  1.00  0.00    -0.014 A 
BRANCH  37  38
ATOM     38  C   UNL A   1      42.359  24.438  28.537  1.00  0.00     0.031 A 
ATOM     39  C   UNL A   1      41.300  25.435  28.220  1.00  0.00     0.074 A 
ATOM     40  C   UNL A   1      43.266  24.717  29.496  1.00  0.00     0.049 A 
ATOM     41  N   UNL A   1      41.419  26.466  27.452  1.00  0.00    -0.248 NA
ATOM     42  C   UNL A   1      39.935  25.214  28.716  1.00  0.00     0.031 C 
ATOM     43  C   UNL A   1      44.215  23.827  30.176  1.00  0.00     0.029 A 
ATOM     44  N   UNL A   1      43.468  25.903  30.130  1.00  0.00    -0.354 N 
ATOM     45  C   UNL A   1      40.202  27.137  27.503  1.00  0.00     0.074 A 
ATOM     46  C   UNL A   1      39.285  26.250  28.175  1.00  0.00     0.031 C 
ATOM     47  C   UNL A   1      44.717  24.443  31.268  1.00  0.00     0.029 A 
ATOM     48  C   UNL A   1      44.295  25.828  31.237  1.00  0.00     0.049 A 
ATOM     49  H   UNL A   1      43.060  26.746  29.824  1.00  0.00     0.167 HD
ATOM     50  C   UNL A   1      40.110  28.457  27.176  1.00  0.00     0.031 A 
ATOM     51  C   UNL A   1      44.634  26.843  32.064  1.00  0.00     0.031 A 
ATOM     52  C   UNL A   1      41.307  28.929  26.525  1.00  0.00     0.049 A 
ATOM     53  C   UNL A   1      44.445  28.102  31.311  1.00  0.00     0.074 A 
ATOM     54  C   UNL A   1      41.984  28.605  25.367  1.00  0.00     0.029 A 
ATOM     55  N   UNL A   1      42.207  29.618  27.306  1.00  0.00    -0.354 N 
ATOM     56  N   UNL A   1      45.174  28.432  30.283  1.00  0.00    -0.248 NA
ATOM     57  C   UNL A   1      43.173  28.794  31.423  1.00  0.00     0.031 C 
ATOM     58  C   UNL A   1      43.366  28.676  25.721  1.00  0.00     0.029 A 
ATOM     59  C   UNL A   1      43.451  29.104  27.048  1.00  0.00     0.049 A 
ATOM     60  H   UNL A   1      41.996  30.348  27.932  1.00  0.00     0.167 HD
ATOM     61  C   UNL A   1      44.285  29.022  29.395  1.00  0.00     0.074 A 
ATOM     62  C   UNL A   1      43.099  29.320  30.196  1.00  0.00     0.031 C 
ATOM     63  C   UNL A   1      44.490  28.960  28.045  1.00  0.00     0.031 A 
BRANCH  50  64
ATOM     64  C   UNL A   1      39.124  29.419  27.788  1.00  0.00    -0.014 A 
ATOM     65  C   UNL A   1      39.311  29.816  29.127  1.00  0.00     0.009 A 
ATOM     66  C   UNL A   1      37.879  29.719  27.208  1.00  0.00     0.009 A 
ATOM     67  C   UNL A   1      38.279  30.408  29.864  1.00  0.00     0.001 A 
ATOM     68  C   UNL A   1      36.859  30.346  27.929  1.00  0.00     0.001 A 
ATOM     69  C   UNL A   1      37.049  30.664  29.268  1.00  0.00     0.000 A 
ENDBRANCH  50  64
BRANCH  51  70
ATOM     70  C   UNL A   1      44.858  26.801  33.519  1.00  0.00    -0.014 A 
ATOM     71  C   UNL A   1      43.793  26.569  34.401  1.00  0.00     0.009 A 
ATOM     72  C   UNL A   1      46.168  26.699  34.022  1.00  0.00     0.009 A 
ATOM     73  C   UNL A   1      44.033  26.193  35.728  1.00  0.00     0.001 A 
ATOM     74  C   UNL A   1      46.407  26.324  35.348  1.00  0.00     0.001 A 
ATOM     75  C   UNL A   1      45.338  26.054  36.195  1.00  0.00     0.000 A 
ENDBRANCH  51  70
BRANCH  63  76
ATOM     76  C   UNL A   1      45.828  28.456  27.555  1.00  0.00    -0.014 A 
ATOM     77  C   UNL A   1      46.916  29.301  27.274  1.00  0.00     0.009 A 
ATOM     78  C   UNL A   1      46.038  27.070  27.511  1.00  0.00     0.009 A 
ATOM     79  C   UNL A   1      48.165  28.773  26.929  1.00  0.00     0.001 A 
ATOM     80  C   UNL A   1      47.291  26.542  27.187  1.00  0.00     0.001 A 
ATOM     81  C   UNL A   1      48.353  27.393  26.889  1.00  0.00     0.000 A 
ENDBRANCH  63  76
ENDBRANCH  37  38
ENDBRANCH  29  32
ENDBRANCH  27  28
ENDBRANCH  26  27
ENDBRANCH   1  26
TORSDOF 13
ENDMDL
