MODEL 1
REMARK VINA RESULT:     -11.2      0.000      0.000
REMARK SMILES C[C@H](Oc1ccnc2c(F)cc(F)cc12)C(=O)NCCCNC(=O)c1ccc(-c2c3nc(c(-c4ccccc4)c4ccc([nH]4)c(-c4ccccc4)c4nc(c(-c5ccccc5)c5ccc2[nH]5)C=C4)C=C3)cc1
REMARK SMILES IDX 20 1 19 2 18 3 16 4 17 5 2 7 1 8 3 9 4 10 5 11 15 12 6 13
REMARK SMILES IDX 8 14 14 15 7 16 9 17 12 18 10 19 11 20 13 21 21 22 22 23
REMARK SMILES IDX 23 24 24 26 25 27 26 28 72 29 27 30 71 31 28 32 29 33 30 34
REMARK SMILES IDX 65 35 31 36 70 37 64 38 66 39 32 40 69 41 63 42 62 43 33 45
REMARK SMILES IDX 55 46 40 47 54 48 41 49 44 50 53 51 67 52 42 53 43 54 52 56
REMARK SMILES IDX 68 57 45 58 34 59 35 60 39 61 36 62 38 63 37 64 56 65 57 66
REMARK SMILES IDX 61 67 58 68 60 69 59 70 46 71 47 72 51 73 48 74 50 75 49 76
REMARK H PARENT 18 6 22 25 66 44 44 55
REMARK Flexibility Score: inf
ROOT
ATOM      1  C   UNL A   1      33.961  28.382  25.714  1.00  0.00     0.042 C 
ENDROOT
BRANCH   1   2
ATOM      2  C   UNL A   1      33.635  26.971  25.243  1.00  0.00     0.118 C 
BRANCH   2   3
ATOM      3  N   UNL A   1      33.814  26.831  23.820  1.00  0.00    -0.353 N 
ATOM      4  C   UNL A   1      33.464  25.810  22.994  1.00  0.00     0.260 C 
ATOM      5  O   UNL A   1      33.791  25.928  21.807  1.00  0.00    -0.271 OA
ATOM      6  H   UNL A   1      34.258  27.591  23.378  1.00  0.00     0.163 HD
BRANCH   4   7
ATOM      7  C   UNL A   1      32.626  24.591  23.462  1.00  0.00     0.258 C 
ATOM      8  C   UNL A   1      31.128  24.862  23.359  1.00  0.00     0.064 C 
BRANCH   7   9
ATOM      9  O   UNL A   1      33.110  23.778  24.521  1.00  0.00    -0.480 OA
BRANCH   9  10
ATOM     10  C   UNL A   1      33.500  22.475  24.522  1.00  0.00     0.131 A 
ATOM     11  C   UNL A   1      32.699  21.381  24.240  1.00  0.00     0.067 A 
ATOM     12  C   UNL A   1      34.878  22.257  24.788  1.00  0.00     0.048 A 
ATOM     13  C   UNL A   1      33.245  20.115  24.349  1.00  0.00     0.115 A 
ATOM     14  C   UNL A   1      35.350  20.925  24.849  1.00  0.00     0.110 A 
ATOM     15  C   UNL A   1      35.797  23.315  24.981  1.00  0.00     0.053 A 
ATOM     16  N   UNL A   1      34.529  19.876  24.664  1.00  0.00    -0.253 NA
ATOM     17  C   UNL A   1      36.710  20.718  25.098  1.00  0.00     0.152 A 
ATOM     18  C   UNL A   1      37.143  23.058  25.206  1.00  0.00     0.127 A 
ATOM     19  F   UNL A   1      37.191  19.465  25.165  1.00  0.00    -0.204 F 
ATOM     20  C   UNL A   1      37.612  21.762  25.268  1.00  0.00     0.080 A 
ATOM     21  F   UNL A   1      37.996  24.079  25.357  1.00  0.00    -0.207 F 
ENDBRANCH   9  10
ENDBRANCH   7   9
ENDBRANCH   4   7
ENDBRANCH   2   3
ENDBRANCH   1   2
BRANCH   1  22
ATOM     22  C   UNL A   1      33.701  28.572  27.203  1.00  0.00     0.118 C 
BRANCH  22  23
ATOM     23  N   UNL A   1      33.661  29.985  27.565  1.00  0.00    -0.352 N 
ATOM     24  C   UNL A   1      34.585  30.735  28.242  1.00  0.00     0.251 C 
ATOM     25  H   UNL A   1      32.851  30.470  27.281  1.00  0.00     0.163 HD
ATOM     26  O   UNL A   1      34.285  31.846  28.675  1.00  0.00    -0.269 OA
BRANCH  24  27
ATOM     27  C   UNL A   1      35.945  30.205  28.443  1.00  0.00     0.039 A 
ATOM     28  C   UNL A   1      36.860  30.243  27.387  1.00  0.00     0.014 A 
ATOM     29  C   UNL A   1      36.300  29.648  29.674  1.00  0.00     0.014 A 
ATOM     30  C   UNL A   1      38.155  29.765  27.584  1.00  0.00     0.010 A 
ATOM     31  C   UNL A   1      37.605  29.228  29.887  1.00  0.00     0.010 A 
ATOM     32  C   UNL A   1      38.537  29.274  28.840  1.00  0.00    -0.014 A 
BRANCH  32  33
ATOM     33  C   UNL A   1      39.897  28.753  29.092  1.00  0.00     0.031 A 
ATOM     34  C   UNL A   1      40.937  29.663  29.678  1.00  0.00     0.074 A 
ATOM     35  C   UNL A   1      40.215  27.500  28.718  1.00  0.00     0.049 A 
ATOM     36  N   UNL A   1      42.214  29.450  29.847  1.00  0.00    -0.248 NA
ATOM     37  C   UNL A   1      40.481  30.995  30.113  1.00  0.00     0.031 C 
ATOM     38  C   UNL A   1      39.288  26.527  28.136  1.00  0.00     0.029 A 
ATOM     39  N   UNL A   1      41.415  26.838  28.760  1.00  0.00    -0.354 N 
ATOM     40  C   UNL A   1      42.717  30.620  30.398  1.00  0.00     0.074 A 
ATOM     41  C   UNL A   1      41.618  31.555  30.498  1.00  0.00     0.031 C 
ATOM     42  C   UNL A   1      39.951  25.387  27.889  1.00  0.00     0.029 A 
ATOM     43  C   UNL A   1      41.355  25.564  28.252  1.00  0.00     0.049 A 
ATOM     44  H   UNL A   1      42.239  27.237  29.120  1.00  0.00     0.167 HD
ATOM     45  C   UNL A   1      43.980  30.884  30.799  1.00  0.00     0.031 A 
ATOM     46  C   UNL A   1      42.325  24.645  28.087  1.00  0.00     0.031 A 
ATOM     47  C   UNL A   1      45.067  29.948  30.706  1.00  0.00     0.049 A 
ATOM     48  C   UNL A   1      43.730  24.976  28.503  1.00  0.00     0.074 A 
ATOM     49  C   UNL A   1      46.379  30.115  31.113  1.00  0.00     0.029 A 
ATOM     50  N   UNL A   1      44.967  28.671  30.177  1.00  0.00    -0.354 N 
ATOM     51  N   UNL A   1      44.192  26.084  29.029  1.00  0.00    -0.248 NA
ATOM     52  C   UNL A   1      44.745  23.931  28.309  1.00  0.00     0.031 C 
ATOM     53  C   UNL A   1      47.083  28.955  30.789  1.00  0.00     0.029 A 
ATOM     54  C   UNL A   1      46.197  28.044  30.235  1.00  0.00     0.049 A 
ATOM     55  H   UNL A   1      44.143  28.272  29.815  1.00  0.00     0.167 HD
ATOM     56  C   UNL A   1      45.544  25.862  29.255  1.00  0.00     0.074 A 
ATOM     57  C   UNL A   1      45.828  24.512  28.811  1.00  0.00     0.031 C 
ATOM     58  C   UNL A   1      46.463  26.700  29.791  1.00  0.00     0.031 A 
BRANCH  45  59
ATOM     59  C   UNL A   1      44.264  32.233  31.388  1.00  0.00    -0.014 A 
ATOM     60  C   UNL A   1      44.587  33.322  30.564  1.00  0.00     0.009 A 
ATOM     61  C   UNL A   1      44.114  32.441  32.768  1.00  0.00     0.009 A 
ATOM     62  C   UNL A   1      44.760  34.594  31.113  1.00  0.00     0.001 A 
ATOM     63  C   UNL A   1      44.264  33.718  33.310  1.00  0.00     0.001 A 
ATOM     64  C   UNL A   1      44.588  34.792  32.483  1.00  0.00     0.000 A 
ENDBRANCH  45  59
BRANCH  46  65
ATOM     65  C   UNL A   1      41.979  23.315  27.529  1.00  0.00    -0.014 A 
ATOM     66  C   UNL A   1      42.203  23.039  26.172  1.00  0.00     0.009 A 
ATOM     67  C   UNL A   1      41.482  22.296  28.358  1.00  0.00     0.009 A 
ATOM     68  C   UNL A   1      41.937  21.770  25.654  1.00  0.00     0.001 A 
ATOM     69  C   UNL A   1      41.238  21.021  27.841  1.00  0.00     0.001 A 
ATOM     70  C   UNL A   1      41.463  20.760  26.491  1.00  0.00     0.000 A 
ENDBRANCH  46  65
BRANCH  58  71
ATOM     71  C   UNL A   1      47.864  26.189  29.965  1.00  0.00    -0.014 A 
ATOM     72  C   UNL A   1      48.789  26.239  28.914  1.00  0.00     0.009 A 
ATOM     73  C   UNL A   1      48.287  25.753  31.231  1.00  0.00     0.009 A 
ATOM     74  C   UNL A   1      50.114  25.850  29.126  1.00  0.00     0.001 A 
ATOM     75  C   UNL A   1      49.616  25.390  31.445  1.00  0.00     0.001 A 
ATOM     76  C   UNL A   1      50.528  25.435  30.392  1.00  0.00     0.000 A 
ENDBRANCH  58  71
ENDBRANCH  32  33
ENDBRANCH  24  27
ENDBRANCH  22  23
ENDBRANCH   1  22
TORSDOF 12
ENDMDL
MODEL 2
REMARK VINA RESULT:     -11.2      1.046      1.473
REMARK SMILES C[C@H](Oc1ccnc2c(F)cc(F)cc12)C(=O)NCCCNC(=O)c1ccc(-c2c3nc(c(-c4ccccc4)c4ccc([nH]4)c(-c4ccccc4)c4nc(c(-c5ccccc5)c5ccc2[nH]5)C=C4)C=C3)cc1
REMARK SMILES IDX 20 1 19 2 18 3 16 4 17 5 2 7 1 8 3 9 4 10 5 11 15 12 6 13
REMARK SMILES IDX 8 14 14 15 7 16 9 17 12 18 10 19 11 20 13 21 21 22 22 23
REMARK SMILES IDX 23 24 24 26 25 27 26 28 72 29 27 30 71 31 28 32 29 33 30 34
REMARK SMILES IDX 65 35 31 36 70 37 64 38 66 39 32 40 69 41 63 42 62 43 33 45
REMARK SMILES IDX 55 46 40 47 54 48 41 49 44 50 53 51 67 52 42 53 43 54 52 56
REMARK SMILES IDX 68 57 45 58 34 59 35 60 39 61 36 62 38 63 37 64 56 65 57 66
REMARK SMILES IDX 61 67 58 68 60 69 59 70 46 71 47 72 51 73 48 74 50 75 49 76
REMARK H PARENT 18 6 22 25 66 44 44 55
REMARK Flexibility Score: inf
ROOT
ATOM      1  C   UNL A   1      32.276  27.961  27.578  1.00  0.00     0.042 C 
ENDROOT
BRANCH   1   2
ATOM      2  C   UNL A   1      31.558  27.528  26.306  1.00  0.00     0.118 C 
BRANCH   2   3
ATOM      3  N   UNL A   1      30.925  26.243  26.465  1.00  0.00    -0.353 N 
ATOM      4  C   UNL A   1      31.379  25.003  26.148  1.00  0.00     0.260 C 
ATOM      5  O   UNL A   1      30.596  24.065  26.342  1.00  0.00    -0.271 OA
ATOM      6  H   UNL A   1      30.024  26.269  26.862  1.00  0.00     0.163 HD
BRANCH   4   7
ATOM      7  C   UNL A   1      32.824  24.731  25.652  1.00  0.00     0.258 C 
ATOM      8  C   UNL A   1      32.964  24.979  24.154  1.00  0.00     0.064 C 
BRANCH   7   9
ATOM      9  O   UNL A   1      33.584  23.692  26.254  1.00  0.00    -0.480 OA
BRANCH   9  10
ATOM     10  C   UNL A   1      33.907  22.456  25.788  1.00  0.00     0.131 A 
ATOM     11  C   UNL A   1      33.016  21.463  25.415  1.00  0.00     0.067 A 
ATOM     12  C   UNL A   1      35.297  22.213  25.633  1.00  0.00     0.048 A 
ATOM     13  C   UNL A   1      33.518  20.237  25.022  1.00  0.00     0.115 A 
ATOM     14  C   UNL A   1      35.713  20.934  25.194  1.00  0.00     0.110 A 
ATOM     15  C   UNL A   1      36.279  23.200  25.884  1.00  0.00     0.053 A 
ATOM     16  N   UNL A   1      34.829  19.957  24.928  1.00  0.00    -0.253 NA
ATOM     17  C   UNL A   1      37.083  20.707  25.029  1.00  0.00     0.152 A 
ATOM     18  C   UNL A   1      37.628  22.931  25.687  1.00  0.00     0.127 A 
ATOM     19  F   UNL A   1      37.513  19.502  24.617  1.00  0.00    -0.204 F 
ATOM     20  C   UNL A   1      38.043  21.686  25.260  1.00  0.00     0.080 A 
ATOM     21  F   UNL A   1      38.533  23.893  25.906  1.00  0.00    -0.207 F 
ENDBRANCH   9  10
ENDBRANCH   7   9
ENDBRANCH   4   7
ENDBRANCH   2   3
ENDBRANCH   1   2
BRANCH   1  22
ATOM     22  C   UNL A   1      33.626  28.607  27.291  1.00  0.00     0.118 C 
BRANCH  22  23
ATOM     23  N   UNL A   1      33.577  30.054  27.474  1.00  0.00    -0.352 N 
ATOM     24  C   UNL A   1      34.470  30.881  28.101  1.00  0.00     0.251 C 
ATOM     25  H   UNL A   1      32.787  30.501  27.090  1.00  0.00     0.163 HD
ATOM     26  O   UNL A   1      34.155  32.038  28.377  1.00  0.00    -0.269 OA
BRANCH  24  27
ATOM     27  C   UNL A   1      35.813  30.380  28.438  1.00  0.00     0.039 A 
ATOM     28  C   UNL A   1      36.045  29.836  29.705  1.00  0.00     0.014 A 
ATOM     29  C   UNL A   1      36.845  30.473  27.502  1.00  0.00     0.014 A 
ATOM     30  C   UNL A   1      37.309  29.337  30.016  1.00  0.00     0.010 A 
ATOM     31  C   UNL A   1      38.086  29.924  27.791  1.00  0.00     0.010 A 
ATOM     32  C   UNL A   1      38.329  29.362  29.053  1.00  0.00    -0.014 A 
BRANCH  32  33
ATOM     33  C   UNL A   1      39.685  28.849  29.342  1.00  0.00     0.031 A 
ATOM     34  C   UNL A   1      40.681  29.744  30.020  1.00  0.00     0.074 A 
ATOM     35  C   UNL A   1      40.041  27.622  28.921  1.00  0.00     0.049 A 
ATOM     36  N   UNL A   1      41.953  29.543  30.238  1.00  0.00    -0.248 NA
ATOM     37  C   UNL A   1      40.183  31.046  30.498  1.00  0.00     0.031 C 
ATOM     38  C   UNL A   1      39.159  26.666  28.250  1.00  0.00     0.029 A 
ATOM     39  N   UNL A   1      41.249  26.976  28.987  1.00  0.00    -0.354 N 
ATOM     40  C   UNL A   1      42.409  30.691  30.868  1.00  0.00     0.074 A 
ATOM     41  C   UNL A   1      41.291  31.603  30.963  1.00  0.00     0.031 C 
ATOM     42  C   UNL A   1      39.852  25.549  27.977  1.00  0.00     0.029 A 
ATOM     43  C   UNL A   1      41.235  25.729  28.415  1.00  0.00     0.049 A 
ATOM     44  H   UNL A   1      42.049  27.369  29.404  1.00  0.00     0.167 HD
ATOM     45  C   UNL A   1      43.648  30.953  31.340  1.00  0.00     0.031 A 
ATOM     46  C   UNL A   1      42.227  24.834  28.249  1.00  0.00     0.031 A 
ATOM     47  C   UNL A   1      44.754  30.040  31.252  1.00  0.00     0.049 A 
ATOM     48  C   UNL A   1      43.605  25.164  28.746  1.00  0.00     0.074 A 
ATOM     49  C   UNL A   1      46.043  30.206  31.728  1.00  0.00     0.029 A 
ATOM     50  N   UNL A   1      44.700  28.790  30.657  1.00  0.00    -0.354 N 
ATOM     51  N   UNL A   1      44.024  26.252  29.347  1.00  0.00    -0.248 NA
ATOM     52  C   UNL A   1      44.647  24.147  28.548  1.00  0.00     0.031 C 
ATOM     53  C   UNL A   1      46.781  29.074  31.380  1.00  0.00     0.029 A 
ATOM     54  C   UNL A   1      45.938  28.179  30.740  1.00  0.00     0.049 A 
ATOM     55  H   UNL A   1      43.901  28.397  30.237  1.00  0.00     0.167 HD
ATOM     56  C   UNL A   1      45.368  26.039  29.625  1.00  0.00     0.074 A 
ATOM     57  C   UNL A   1      45.694  24.718  29.129  1.00  0.00     0.031 C 
ATOM     58  C   UNL A   1      46.246  26.863  30.243  1.00  0.00     0.031 A 
BRANCH  45  59
ATOM     59  C   UNL A   1      43.881  32.275  32.008  1.00  0.00    -0.014 A 
ATOM     60  C   UNL A   1      44.253  33.402  31.258  1.00  0.00     0.009 A 
ATOM     61  C   UNL A   1      43.635  32.420  33.382  1.00  0.00     0.009 A 
ATOM     62  C   UNL A   1      44.379  34.648  31.875  1.00  0.00     0.001 A 
ATOM     63  C   UNL A   1      43.739  33.671  33.990  1.00  0.00     0.001 A 
ATOM     64  C   UNL A   1      44.111  34.783  33.237  1.00  0.00     0.000 A 
ENDBRANCH  45  59
BRANCH  46  65
ATOM     65  C   UNL A   1      41.929  23.528  27.611  1.00  0.00    -0.014 A 
ATOM     66  C   UNL A   1      42.238  23.319  26.259  1.00  0.00     0.009 A 
ATOM     67  C   UNL A   1      41.396  22.468  28.361  1.00  0.00     0.009 A 
ATOM     68  C   UNL A   1      42.017  22.072  25.668  1.00  0.00     0.001 A 
ATOM     69  C   UNL A   1      41.198  21.216  27.772  1.00  0.00     0.001 A 
ATOM     70  C   UNL A   1      41.506  21.021  26.428  1.00  0.00     0.000 A 
ENDBRANCH  46  65
BRANCH  58  71
ATOM     71  C   UNL A   1      47.646  26.364  30.457  1.00  0.00    -0.014 A 
ATOM     72  C   UNL A   1      48.039  25.811  31.683  1.00  0.00     0.009 A 
ATOM     73  C   UNL A   1      48.546  26.352  29.380  1.00  0.00     0.009 A 
ATOM     74  C   UNL A   1      49.315  25.263  31.829  1.00  0.00     0.001 A 
ATOM     75  C   UNL A   1      49.811  25.781  29.521  1.00  0.00     0.001 A 
ATOM     76  C   UNL A   1      50.196  25.240  30.747  1.00  0.00     0.000 A 
ENDBRANCH  58  71
ENDBRANCH  32  33
ENDBRANCH  24  27
ENDBRANCH  22  23
ENDBRANCH   1  22
TORSDOF 12
ENDMDL
MODEL 3
REMARK VINA RESULT:     -11.1      2.236      7.383
REMARK SMILES C[C@H](Oc1ccnc2c(F)cc(F)cc12)C(=O)NCCCNC(=O)c1ccc(-c2c3nc(c(-c4ccccc4)c4ccc([nH]4)c(-c4ccccc4)c4nc(c(-c5ccccc5)c5ccc2[nH]5)C=C4)C=C3)cc1
REMARK SMILES IDX 20 1 19 2 18 3 16 4 17 5 2 7 1 8 3 9 4 10 5 11 15 12 6 13
REMARK SMILES IDX 8 14 14 15 7 16 9 17 12 18 10 19 11 20 13 21 21 22 22 23
REMARK SMILES IDX 23 24 24 26 25 27 26 28 72 29 27 30 71 31 28 32 29 33 30 34
REMARK SMILES IDX 65 35 31 36 70 37 64 38 66 39 32 40 69 41 63 42 62 43 33 45
REMARK SMILES IDX 55 46 40 47 54 48 41 49 44 50 53 51 67 52 42 53 43 54 52 56
REMARK SMILES IDX 68 57 45 58 34 59 35 60 39 61 36 62 38 63 37 64 56 65 57 66
REMARK SMILES IDX 61 67 58 68 60 69 59 70 46 71 47 72 51 73 48 74 50 75 49 76
REMARK H PARENT 18 6 22 25 66 44 44 55
REMARK Flexibility Score: inf
ROOT
ATOM      1  C   UNL A   1      37.443  19.766  24.973  1.00  0.00     0.042 C 
ENDROOT
BRANCH   1   2
ATOM      2  C   UNL A   1      36.271  20.739  24.937  1.00  0.00     0.118 C 
BRANCH   2   3
ATOM      3  N   UNL A   1      35.009  20.056  25.076  1.00  0.00    -0.353 N 
ATOM      4  C   UNL A   1      33.853  20.471  25.657  1.00  0.00     0.260 C 
ATOM      5  O   UNL A   1      32.928  19.651  25.685  1.00  0.00    -0.271 OA
ATOM      6  H   UNL A   1      34.981  19.151  24.692  1.00  0.00     0.163 HD
BRANCH   4   7
ATOM      7  C   UNL A   1      33.642  21.915  26.188  1.00  0.00     0.258 C 
ATOM      8  C   UNL A   1      33.665  21.966  27.712  1.00  0.00     0.064 C 
BRANCH   7   9
ATOM      9  O   UNL A   1      32.785  22.799  25.479  1.00  0.00    -0.480 OA
BRANCH   9  10
ATOM     10  C   UNL A   1      32.978  23.458  24.305  1.00  0.00     0.131 A 
ATOM     11  C   UNL A   1      32.883  22.912  23.036  1.00  0.00     0.067 A 
ATOM     12  C   UNL A   1      33.249  24.846  24.429  1.00  0.00     0.048 A 
ATOM     13  C   UNL A   1      33.174  23.714  21.947  1.00  0.00     0.115 A 
ATOM     14  C   UNL A   1      33.504  25.591  23.254  1.00  0.00     0.110 A 
ATOM     15  C   UNL A   1      33.259  25.516  25.675  1.00  0.00     0.053 A 
ATOM     16  N   UNL A   1      33.498  25.016  22.038  1.00  0.00    -0.253 NA
ATOM     17  C   UNL A   1      33.755  26.960  23.382  1.00  0.00     0.152 A 
ATOM     18  C   UNL A   1      33.495  26.883  25.749  1.00  0.00     0.127 A 
ATOM     19  F   UNL A   1      34.004  27.696  22.286  1.00  0.00    -0.204 F 
ATOM     20  C   UNL A   1      33.746  27.617  24.608  1.00  0.00     0.080 A 
ATOM     21  F   UNL A   1      33.471  27.495  26.939  1.00  0.00    -0.207 F 
ENDBRANCH   9  10
ENDBRANCH   7   9
ENDBRANCH   4   7
ENDBRANCH   2   3
ENDBRANCH   1   2
BRANCH   1  22
ATOM     22  C   UNL A   1      38.713  20.409  25.516  1.00  0.00     0.118 C 
BRANCH  22  23
ATOM     23  N   UNL A   1      39.776  19.424  25.698  1.00  0.00    -0.352 N 
ATOM     24  C   UNL A   1      41.085  19.615  26.053  1.00  0.00     0.251 C 
ATOM     25  H   UNL A   1      39.513  18.487  25.543  1.00  0.00     0.163 HD
ATOM     26  O   UNL A   1      41.901  18.704  25.922  1.00  0.00    -0.269 OA
BRANCH  24  27
ATOM     27  C   UNL A   1      41.508  20.915  26.599  1.00  0.00     0.039 A 
ATOM     28  C   UNL A   1      42.007  21.894  25.734  1.00  0.00     0.014 A 
ATOM     29  C   UNL A   1      41.432  21.151  27.973  1.00  0.00     0.014 A 
ATOM     30  C   UNL A   1      42.384  23.135  26.246  1.00  0.00     0.010 A 
ATOM     31  C   UNL A   1      41.752  22.405  28.474  1.00  0.00     0.010 A 
ATOM     32  C   UNL A   1      42.239  23.401  27.615  1.00  0.00    -0.014 A 
BRANCH  32  33
ATOM     33  C   UNL A   1      42.632  24.700  28.202  1.00  0.00     0.031 A 
ATOM     34  C   UNL A   1      41.591  25.764  28.393  1.00  0.00     0.074 A 
ATOM     35  C   UNL A   1      43.925  24.947  28.479  1.00  0.00     0.049 A 
ATOM     36  N   UNL A   1      41.746  27.009  28.757  1.00  0.00    -0.248 NA
ATOM     37  C   UNL A   1      40.195  25.382  28.120  1.00  0.00     0.031 C 
ATOM     38  C   UNL A   1      45.023  23.989  28.331  1.00  0.00     0.029 A 
ATOM     39  N   UNL A   1      44.534  26.089  28.931  1.00  0.00    -0.354 N 
ATOM     40  C   UNL A   1      40.473  27.561  28.748  1.00  0.00     0.074 A 
ATOM     41  C   UNL A   1      39.561  26.531  28.305  1.00  0.00     0.031 C 
ATOM     42  C   UNL A   1      46.170  24.581  28.699  1.00  0.00     0.029 A 
ATOM     43  C   UNL A   1      45.894  25.968  29.066  1.00  0.00     0.049 A 
ATOM     44  H   UNL A   1      44.042  26.916  29.139  1.00  0.00     0.167 HD
ATOM     45  C   UNL A   1      40.098  28.812  29.096  1.00  0.00     0.031 A 
ATOM     46  C   UNL A   1      46.818  26.876  29.433  1.00  0.00     0.031 A 
ATOM     47  C   UNL A   1      41.007  29.830  29.544  1.00  0.00     0.049 A 
ATOM     48  C   UNL A   1      46.382  28.272  29.776  1.00  0.00     0.074 A 
ATOM     49  C   UNL A   1      40.717  31.122  29.946  1.00  0.00     0.029 A 
ATOM     50  N   UNL A   1      42.379  29.669  29.658  1.00  0.00    -0.354 N 
ATOM     51  N   UNL A   1      45.173  28.780  29.770  1.00  0.00    -0.248 NA
ATOM     52  C   UNL A   1      47.432  29.217  30.179  1.00  0.00     0.031 C 
ATOM     53  C   UNL A   1      41.919  31.758  30.260  1.00  0.00     0.029 A 
ATOM     54  C   UNL A   1      42.951  30.844  30.111  1.00  0.00     0.049 A 
ATOM     55  H   UNL A   1      42.872  28.843  29.448  1.00  0.00     0.167 HD
ATOM     56  C   UNL A   1      45.313  30.095  30.195  1.00  0.00     0.074 A 
ATOM     57  C   UNL A   1      46.723  30.305  30.452  1.00  0.00     0.031 C 
ATOM     58  C   UNL A   1      44.355  31.037  30.364  1.00  0.00     0.031 A 
BRANCH  45  59
ATOM     59  C   UNL A   1      38.641  29.156  29.018  1.00  0.00    -0.014 A 
ATOM     60  C   UNL A   1      37.829  29.101  30.161  1.00  0.00     0.009 A 
ATOM     61  C   UNL A   1      38.096  29.631  27.814  1.00  0.00     0.009 A 
ATOM     62  C   UNL A   1      36.496  29.511  30.098  1.00  0.00     0.001 A 
ATOM     63  C   UNL A   1      36.771  30.062  27.761  1.00  0.00     0.001 A 
ATOM     64  C   UNL A   1      35.971  30.001  28.902  1.00  0.00     0.000 A 
ENDBRANCH  45  59
BRANCH  46  65
ATOM     65  C   UNL A   1      48.242  26.468  29.524  1.00  0.00    -0.014 A 
ATOM     66  C   UNL A   1      49.105  26.679  28.439  1.00  0.00     0.009 A 
ATOM     67  C   UNL A   1      48.759  25.926  30.711  1.00  0.00     0.009 A 
ATOM     68  C   UNL A   1      50.460  26.354  28.539  1.00  0.00     0.001 A 
ATOM     69  C   UNL A   1      50.119  25.623  30.816  1.00  0.00     0.001 A 
ATOM     70  C   UNL A   1      50.966  25.835  29.731  1.00  0.00     0.000 A 
ENDBRANCH  46  65
BRANCH  58  71
ATOM     71  C   UNL A   1      44.776  32.382  30.881  1.00  0.00    -0.014 A 
ATOM     72  C   UNL A   1      44.873  32.632  32.257  1.00  0.00     0.009 A 
ATOM     73  C   UNL A   1      45.185  33.373  29.974  1.00  0.00     0.009 A 
ATOM     74  C   UNL A   1      45.362  33.857  32.715  1.00  0.00     0.001 A 
ATOM     75  C   UNL A   1      45.696  34.586  30.436  1.00  0.00     0.001 A 
ATOM     76  C   UNL A   1      45.781  34.829  31.806  1.00  0.00     0.000 A 
ENDBRANCH  58  71
ENDBRANCH  32  33
ENDBRANCH  24  27
ENDBRANCH  22  23
ENDBRANCH   1  22
TORSDOF 12
ENDMDL
