MODEL 1
REMARK VINA RESULT:     -13.0      0.000      0.000
REMARK SMILES NS(=O)(=O)c1ccc(-n2nc(C(=O)NCCCNC(=O)c3ccc(-c4c5nc(c(-c6ccccc6)c6ccc([nH]6)c(-c6ccccc6)c6nc(c(-c7ccccc7)c7ccc4[nH]7)C=C6)C=C5)cc3)c(Cl)c2-c2ccc(Cl)cc2)cc1
REMARK SMILES IDX 15 1 14 2 12 3 13 4 11 6 9 7 10 8 71 9 69 10 70 11 8 12 5 13
REMARK SMILES IDX 6 14 80 15 7 16 79 17 2 18 3 19 4 20 1 21 72 24 73 25 78 26
REMARK SMILES IDX 74 27 77 28 75 29 76 30 16 31 17 32 18 33 19 34 20 36 21 37
REMARK SMILES IDX 22 38 68 39 23 40 67 41 24 42 25 43 26 44 61 45 27 46 66 47
REMARK SMILES IDX 60 48 62 49 28 50 65 51 59 52 58 53 29 55 51 56 36 57 50 58
REMARK SMILES IDX 37 59 40 60 49 61 63 62 38 63 39 64 48 66 64 67 41 68 30 69
REMARK SMILES IDX 31 70 35 71 32 72 34 73 33 74 52 75 53 76 57 77 54 78 56 79
REMARK SMILES IDX 55 80 42 81 43 82 47 83 44 84 46 85 45 86
REMARK H PARENT 14 5 1 22 1 23 18 35 62 54 40 65
REMARK Flexibility Score: inf
ROOT
ATOM      1  C   UNL A   1      31.956  28.397  26.078  1.00  0.00     0.118 C 
ENDROOT
BRANCH   1   2
ATOM      2  N   UNL A   1      31.030  28.192  24.967  1.00  0.00    -0.351 N 
ATOM      3  C   UNL A   1      30.888  27.149  24.067  1.00  0.00     0.273 C 
ATOM      4  O   UNL A   1      29.935  27.226  23.289  1.00  0.00    -0.267 OA
ATOM      5  H   UNL A   1      30.392  28.928  24.832  1.00  0.00     0.163 HD
BRANCH   3   6
ATOM      6  C   UNL A   1      31.783  25.979  24.103  1.00  0.00     0.169 A 
ATOM      7  N   UNL A   1      32.382  23.927  24.380  1.00  0.00    -0.231 N 
ATOM      8  N   UNL A   1      31.291  24.732  24.293  1.00  0.00    -0.160 NA
ATOM      9  C   UNL A   1      33.553  24.659  24.407  1.00  0.00     0.094 A 
ATOM     10  C   UNL A   1      33.167  25.869  23.867  1.00  0.00     0.100 A 
ATOM     11  Cl  UNL A   1      34.228  26.886  23.021  1.00  0.00    -0.079 Cl
BRANCH   7  12
ATOM     12  C   UNL A   1      32.284  22.525  24.214  1.00  0.00     0.065 A 
ATOM     13  C   UNL A   1      32.521  19.794  23.771  1.00  0.00     0.082 A 
ATOM     14  C   UNL A   1      32.205  20.640  22.701  1.00  0.00     0.024 A 
ATOM     15  C   UNL A   1      32.683  20.301  25.063  1.00  0.00     0.024 A 
ATOM     16  C   UNL A   1      32.056  22.011  22.929  1.00  0.00     0.030 A 
ATOM     17  C   UNL A   1      32.584  21.673  25.283  1.00  0.00     0.030 A 
BRANCH  13  18
ATOM     18  S   UNL A   1      32.784  18.070  23.478  1.00  0.00     0.238 S 
ATOM     19  O   UNL A   1      34.125  17.719  23.854  1.00  0.00    -0.207 OA
ATOM     20  O   UNL A   1      32.207  17.732  22.191  1.00  0.00    -0.207 OA
BRANCH  18  21
ATOM     21  N   UNL A   1      31.798  17.341  24.633  1.00  0.00    -0.225 NA
ATOM     22  H   UNL A   1      32.274  17.340  25.534  1.00  0.00     0.137 HD
ATOM     23  H   UNL A   1      31.597  16.381  24.352  1.00  0.00     0.137 HD
ENDBRANCH  18  21
ENDBRANCH  13  18
ENDBRANCH   7  12
BRANCH   9  24
ATOM     24  C   UNL A   1      34.936  24.208  24.505  1.00  0.00     0.002 A 
ATOM     25  C   UNL A   1      35.438  23.397  23.475  1.00  0.00     0.012 A 
ATOM     26  C   UNL A   1      35.607  24.277  25.731  1.00  0.00     0.012 A 
ATOM     27  C   UNL A   1      36.563  22.604  23.699  1.00  0.00     0.021 A 
ATOM     28  C   UNL A   1      36.730  23.479  25.950  1.00  0.00     0.021 A 
ATOM     29  C   UNL A   1      37.187  22.629  24.943  1.00  0.00     0.041 A 
ATOM     30  Cl  UNL A   1      38.491  21.556  25.263  1.00  0.00    -0.084 Cl
ENDBRANCH   9  24
ENDBRANCH   3   6
ENDBRANCH   1   2
BRANCH   1  31
ATOM     31  C   UNL A   1      33.199  29.188  25.652  1.00  0.00     0.042 C 
BRANCH  31  32
ATOM     32  C   UNL A   1      34.165  29.478  26.769  1.00  0.00     0.118 C 
BRANCH  32  33
ATOM     33  N   UNL A   1      33.958  30.767  27.436  1.00  0.00    -0.352 N 
ATOM     34  C   UNL A   1      34.781  31.367  28.387  1.00  0.00     0.251 C 
ATOM     35  H   UNL A   1      33.146  31.264  27.184  1.00  0.00     0.163 HD
ATOM     36  O   UNL A   1      34.365  32.251  29.123  1.00  0.00    -0.269 OA
BRANCH  34  37
ATOM     37  C   UNL A   1      36.179  30.901  28.481  1.00  0.00     0.039 A 
ATOM     38  C   UNL A   1      37.278  31.718  28.753  1.00  0.00     0.014 A 
ATOM     39  C   UNL A   1      36.346  29.531  28.400  1.00  0.00     0.014 A 
ATOM     40  C   UNL A   1      38.511  31.099  28.965  1.00  0.00     0.010 A 
ATOM     41  C   UNL A   1      37.370  28.982  29.092  1.00  0.00     0.010 A 
ATOM     42  C   UNL A   1      38.535  29.706  29.122  1.00  0.00    -0.014 A 
BRANCH  42  43
ATOM     43  C   UNL A   1      39.717  28.909  29.383  1.00  0.00     0.031 A 
ATOM     44  C   UNL A   1      40.005  28.737  30.815  1.00  0.00     0.074 A 
ATOM     45  C   UNL A   1      40.348  28.187  28.427  1.00  0.00     0.049 A 
ATOM     46  N   UNL A   1      40.886  29.381  31.496  1.00  0.00    -0.248 NA
ATOM     47  C   UNL A   1      39.099  27.907  31.620  1.00  0.00     0.031 C 
ATOM     48  C   UNL A   1      39.996  27.992  27.010  1.00  0.00     0.029 A 
ATOM     49  N   UNL A   1      41.435  27.384  28.564  1.00  0.00    -0.354 N 
ATOM     50  C   UNL A   1      40.813  28.865  32.779  1.00  0.00     0.074 A 
ATOM     51  C   UNL A   1      39.568  28.141  32.848  1.00  0.00     0.031 C 
ATOM     52  C   UNL A   1      40.734  26.984  26.485  1.00  0.00     0.029 A 
ATOM     53  C   UNL A   1      41.725  26.585  27.465  1.00  0.00     0.049 A 
ATOM     54  H   UNL A   1      41.980  27.370  29.385  1.00  0.00     0.167 HD
ATOM     55  C   UNL A   1      41.915  28.843  33.577  1.00  0.00     0.031 A 
ATOM     56  C   UNL A   1      42.725  25.675  27.368  1.00  0.00     0.031 A 
ATOM     57  C   UNL A   1      42.987  29.629  33.008  1.00  0.00     0.049 A 
ATOM     58  C   UNL A   1      43.743  26.049  28.380  1.00  0.00     0.074 A 
ATOM     59  C   UNL A   1      43.147  30.959  32.671  1.00  0.00     0.029 A 
ATOM     60  N   UNL A   1      43.940  28.939  32.291  1.00  0.00    -0.354 N 
ATOM     61  N   UNL A   1      44.429  27.153  28.311  1.00  0.00    -0.248 NA
ATOM     62  C   UNL A   1      43.641  25.459  29.706  1.00  0.00     0.031 C 
ATOM     63  C   UNL A   1      43.854  30.940  31.431  1.00  0.00     0.029 A 
ATOM     64  C   UNL A   1      44.163  29.614  31.118  1.00  0.00     0.049 A 
ATOM     65  H   UNL A   1      44.382  28.106  32.573  1.00  0.00     0.167 HD
ATOM     66  C   UNL A   1      44.455  27.636  29.613  1.00  0.00     0.074 A 
ATOM     67  C   UNL A   1      44.048  26.500  30.442  1.00  0.00     0.031 C 
ATOM     68  C   UNL A   1      44.518  28.977  29.866  1.00  0.00     0.031 A 
BRANCH  55  69
ATOM     69  C   UNL A   1      42.181  27.779  34.608  1.00  0.00    -0.014 A 
ATOM     70  C   UNL A   1      42.571  26.504  34.161  1.00  0.00     0.009 A 
ATOM     71  C   UNL A   1      41.803  27.888  35.959  1.00  0.00     0.009 A 
ATOM     72  C   UNL A   1      42.506  25.387  35.000  1.00  0.00     0.001 A 
ATOM     73  C   UNL A   1      41.774  26.782  36.811  1.00  0.00     0.001 A 
ATOM     74  C   UNL A   1      42.096  25.525  36.322  1.00  0.00     0.000 A 
ENDBRANCH  55  69
BRANCH  56  75
ATOM     75  C   UNL A   1      42.744  24.378  26.657  1.00  0.00    -0.014 A 
ATOM     76  C   UNL A   1      43.850  23.969  25.897  1.00  0.00     0.009 A 
ATOM     77  C   UNL A   1      41.770  23.409  26.966  1.00  0.00     0.009 A 
ATOM     78  C   UNL A   1      43.992  22.634  25.489  1.00  0.00     0.001 A 
ATOM     79  C   UNL A   1      41.914  22.076  26.564  1.00  0.00     0.001 A 
ATOM     80  C   UNL A   1      43.033  21.685  25.835  1.00  0.00     0.000 A 
ENDBRANCH  56  75
BRANCH  68  81
ATOM     81  C   UNL A   1      44.747  29.899  28.688  1.00  0.00    -0.014 A 
ATOM     82  C   UNL A   1      43.701  30.401  27.891  1.00  0.00     0.009 A 
ATOM     83  C   UNL A   1      46.037  30.404  28.476  1.00  0.00     0.009 A 
ATOM     84  C   UNL A   1      43.943  31.362  26.902  1.00  0.00     0.001 A 
ATOM     85  C   UNL A   1      46.277  31.376  27.501  1.00  0.00     0.001 A 
ATOM     86  C   UNL A   1      45.232  31.853  26.713  1.00  0.00     0.000 A 
ENDBRANCH  68  81
ENDBRANCH  42  43
ENDBRANCH  34  37
ENDBRANCH  32  33
ENDBRANCH  31  32
ENDBRANCH   1  31
TORSDOF 14
ENDMDL
MODEL 2
REMARK VINA RESULT:     -12.0      5.463      9.080
REMARK SMILES NS(=O)(=O)c1ccc(-n2nc(C(=O)NCCCNC(=O)c3ccc(-c4c5nc(c(-c6ccccc6)c6ccc([nH]6)c(-c6ccccc6)c6nc(c(-c7ccccc7)c7ccc4[nH]7)C=C6)C=C5)cc3)c(Cl)c2-c2ccc(Cl)cc2)cc1
REMARK SMILES IDX 15 1 14 2 12 3 13 4 11 6 9 7 10 8 71 9 69 10 70 11 8 12 5 13
REMARK SMILES IDX 6 14 80 15 7 16 79 17 2 18 3 19 4 20 1 21 72 24 73 25 78 26
REMARK SMILES IDX 74 27 77 28 75 29 76 30 16 31 17 32 18 33 19 34 20 36 21 37
REMARK SMILES IDX 22 38 68 39 23 40 67 41 24 42 25 43 26 44 61 45 27 46 66 47
REMARK SMILES IDX 60 48 62 49 28 50 65 51 59 52 58 53 29 55 51 56 36 57 50 58
REMARK SMILES IDX 37 59 40 60 49 61 63 62 38 63 39 64 48 66 64 67 41 68 30 69
REMARK SMILES IDX 31 70 35 71 32 72 34 73 33 74 52 75 53 76 57 77 54 78 56 79
REMARK SMILES IDX 55 80 42 81 43 82 47 83 44 84 46 85 45 86
REMARK H PARENT 14 5 1 22 1 23 18 35 62 54 40 65
REMARK Flexibility Score: inf
ROOT
ATOM      1  C   UNL A   1      41.064  34.940  34.291  1.00  0.00     0.118 C 
ENDROOT
BRANCH   1   2
ATOM      2  N   UNL A   1      40.346  34.549  35.502  1.00  0.00    -0.351 N 
ATOM      3  C   UNL A   1      39.277  33.693  35.703  1.00  0.00     0.273 C 
ATOM      4  O   UNL A   1      38.950  33.494  36.876  1.00  0.00    -0.267 OA
ATOM      5  H   UNL A   1      40.683  34.972  36.324  1.00  0.00     0.163 HD
BRANCH   3   6
ATOM      6  C   UNL A   1      38.627  33.001  34.576  1.00  0.00     0.169 A 
ATOM      7  N   UNL A   1      37.164  32.615  33.042  1.00  0.00    -0.231 N 
ATOM      8  N   UNL A   1      37.572  33.555  33.934  1.00  0.00    -0.160 NA
ATOM      9  C   UNL A   1      37.837  31.422  33.217  1.00  0.00     0.094 A 
ATOM     10  C   UNL A   1      38.967  31.809  33.908  1.00  0.00     0.100 A 
ATOM     11  Cl  UNL A   1      40.443  30.981  33.806  1.00  0.00    -0.079 Cl
BRANCH   7  12
ATOM     12  C   UNL A   1      36.333  32.945  31.945  1.00  0.00     0.065 A 
ATOM     13  C   UNL A   1      34.680  33.997  29.976  1.00  0.00     0.082 A 
ATOM     14  C   UNL A   1      34.112  33.463  31.139  1.00  0.00     0.024 A 
ATOM     15  C   UNL A   1      36.064  33.974  29.778  1.00  0.00     0.024 A 
ATOM     16  C   UNL A   1      34.941  32.906  32.117  1.00  0.00     0.030 A 
ATOM     17  C   UNL A   1      36.895  33.466  30.774  1.00  0.00     0.030 A 
BRANCH  13  18
ATOM     18  S   UNL A   1      33.646  34.770  28.768  1.00  0.00     0.238 S 
ATOM     19  O   UNL A   1      32.615  35.520  29.429  1.00  0.00    -0.207 OA
ATOM     20  O   UNL A   1      33.377  33.808  27.716  1.00  0.00    -0.207 OA
BRANCH  18  21
ATOM     21  N   UNL A   1      34.665  35.926  28.090  1.00  0.00    -0.225 NA
ATOM     22  H   UNL A   1      34.407  36.077  27.116  1.00  0.00     0.137 HD
ATOM     23  H   UNL A   1      35.631  35.601  28.141  1.00  0.00     0.137 HD
ENDBRANCH  18  21
ENDBRANCH  13  18
ENDBRANCH   7  12
BRANCH   9  24
ATOM     24  C   UNL A   1      37.707  30.160  32.497  1.00  0.00     0.002 A 
ATOM     25  C   UNL A   1      38.154  28.992  33.132  1.00  0.00     0.012 A 
ATOM     26  C   UNL A   1      37.487  30.165  31.116  1.00  0.00     0.012 A 
ATOM     27  C   UNL A   1      38.452  27.858  32.377  1.00  0.00     0.021 A 
ATOM     28  C   UNL A   1      37.788  29.029  30.364  1.00  0.00     0.021 A 
ATOM     29  C   UNL A   1      38.292  27.891  30.994  1.00  0.00     0.041 A 
ATOM     30  Cl  UNL A   1      38.782  26.542  30.048  1.00  0.00    -0.084 Cl
ENDBRANCH   9  24
ENDBRANCH   3   6
ENDBRANCH   1   2
BRANCH   1  31
ATOM     31  C   UNL A   1      42.268  34.030  34.018  1.00  0.00     0.042 C 
BRANCH  31  32
ATOM     32  C   UNL A   1      42.481  33.698  32.565  1.00  0.00     0.118 C 
BRANCH  32  33
ATOM     33  N   UNL A   1      41.478  34.263  31.657  1.00  0.00    -0.352 N 
ATOM     34  C   UNL A   1      41.186  33.847  30.360  1.00  0.00     0.251 C 
ATOM     35  H   UNL A   1      40.954  35.022  32.002  1.00  0.00     0.163 HD
ATOM     36  O   UNL A   1      40.596  34.577  29.575  1.00  0.00    -0.269 OA
BRANCH  34  37
ATOM     37  C   UNL A   1      41.612  32.492  29.958  1.00  0.00     0.039 A 
ATOM     38  C   UNL A   1      42.875  32.165  29.463  1.00  0.00     0.014 A 
ATOM     39  C   UNL A   1      40.696  31.490  30.215  1.00  0.00     0.014 A 
ATOM     40  C   UNL A   1      43.171  30.813  29.277  1.00  0.00     0.010 A 
ATOM     41  C   UNL A   1      41.176  30.260  30.508  1.00  0.00     0.010 A 
ATOM     42  C   UNL A   1      42.287  29.863  29.807  1.00  0.00    -0.014 A 
BRANCH  42  43
ATOM     43  C   UNL A   1      42.456  28.425  29.737  1.00  0.00     0.031 A 
ATOM     44  C   UNL A   1      43.024  27.841  30.962  1.00  0.00     0.074 A 
ATOM     45  C   UNL A   1      41.919  27.664  28.755  1.00  0.00     0.049 A 
ATOM     46  N   UNL A   1      44.247  27.486  31.137  1.00  0.00    -0.248 NA
ATOM     47  C   UNL A   1      42.202  27.824  32.179  1.00  0.00     0.031 C 
ATOM     48  C   UNL A   1      41.049  28.054  27.631  1.00  0.00     0.029 A 
ATOM     49  N   UNL A   1      41.985  26.315  28.610  1.00  0.00    -0.354 N 
ATOM     50  C   UNL A   1      44.303  26.972  32.422  1.00  0.00     0.074 A 
ATOM     51  C   UNL A   1      43.096  27.407  33.079  1.00  0.00     0.031 C 
ATOM     52  C   UNL A   1      40.521  26.950  27.051  1.00  0.00     0.029 A 
ATOM     53  C   UNL A   1      41.146  25.781  27.639  1.00  0.00     0.049 A 
ATOM     54  H   UNL A   1      42.585  25.754  29.154  1.00  0.00     0.167 HD
ATOM     55  C   UNL A   1      45.202  25.999  32.737  1.00  0.00     0.031 A 
ATOM     56  C   UNL A   1      40.996  24.469  27.332  1.00  0.00     0.031 A 
ATOM     57  C   UNL A   1      46.171  25.822  31.679  1.00  0.00     0.049 A 
ATOM     58  C   UNL A   1      42.220  23.777  27.805  1.00  0.00     0.074 A 
ATOM     59  C   UNL A   1      47.119  26.630  31.082  1.00  0.00     0.029 A 
ATOM     60  N   UNL A   1      45.927  24.801  30.788  1.00  0.00    -0.354 N 
ATOM     61  N   UNL A   1      43.396  24.001  27.292  1.00  0.00    -0.248 NA
ATOM     62  C   UNL A   1      42.221  23.228  29.152  1.00  0.00     0.031 C 
ATOM     63  C   UNL A   1      47.039  26.320  29.690  1.00  0.00     0.029 A 
ATOM     64  C   UNL A   1      46.114  25.287  29.519  1.00  0.00     0.049 A 
ATOM     65  H   UNL A   1      45.663  23.882  31.022  1.00  0.00     0.167 HD
ATOM     66  C   UNL A   1      44.253  24.059  28.383  1.00  0.00     0.074 A 
ATOM     67  C   UNL A   1      43.493  23.471  29.487  1.00  0.00     0.031 C 
ATOM     68  C   UNL A   1      45.375  24.839  28.357  1.00  0.00     0.031 A 
BRANCH  55  69
ATOM     69  C   UNL A   1      44.947  24.925  33.760  1.00  0.00    -0.014 A 
ATOM     70  C   UNL A   1      45.873  24.775  34.809  1.00  0.00     0.009 A 
ATOM     71  C   UNL A   1      44.008  23.891  33.592  1.00  0.00     0.009 A 
ATOM     72  C   UNL A   1      45.906  23.614  35.589  1.00  0.00     0.001 A 
ATOM     73  C   UNL A   1      44.013  22.748  34.394  1.00  0.00     0.001 A 
ATOM     74  C   UNL A   1      44.983  22.596  35.373  1.00  0.00     0.000 A 
ENDBRANCH  55  69
BRANCH  56  75
ATOM     75  C   UNL A   1      39.782  23.741  26.903  1.00  0.00    -0.014 A 
ATOM     76  C   UNL A   1      38.586  24.413  26.608  1.00  0.00     0.009 A 
ATOM     77  C   UNL A   1      39.888  22.394  26.509  1.00  0.00     0.009 A 
ATOM     78  C   UNL A   1      37.549  23.770  25.915  1.00  0.00     0.001 A 
ATOM     79  C   UNL A   1      38.856  21.754  25.813  1.00  0.00     0.001 A 
ATOM     80  C   UNL A   1      37.690  22.446  25.505  1.00  0.00     0.000 A 
ENDBRANCH  56  75
BRANCH  68  81
ATOM     81  C   UNL A   1      45.746  25.483  27.038  1.00  0.00    -0.014 A 
ATOM     82  C   UNL A   1      45.203  26.706  26.602  1.00  0.00     0.009 A 
ATOM     83  C   UNL A   1      46.792  24.923  26.293  1.00  0.00     0.009 A 
ATOM     84  C   UNL A   1      45.679  27.336  25.445  1.00  0.00     0.001 A 
ATOM     85  C   UNL A   1      47.280  25.560  25.149  1.00  0.00     0.001 A 
ATOM     86  C   UNL A   1      46.722  26.763  24.723  1.00  0.00     0.000 A 
ENDBRANCH  68  81
ENDBRANCH  42  43
ENDBRANCH  34  37
ENDBRANCH  32  33
ENDBRANCH  31  32
ENDBRANCH   1  31
TORSDOF 14
ENDMDL
MODEL 3
REMARK VINA RESULT:     -11.8      6.522     10.851
REMARK SMILES NS(=O)(=O)c1ccc(-n2nc(C(=O)NCCCNC(=O)c3ccc(-c4c5nc(c(-c6ccccc6)c6ccc([nH]6)c(-c6ccccc6)c6nc(c(-c7ccccc7)c7ccc4[nH]7)C=C6)C=C5)cc3)c(Cl)c2-c2ccc(Cl)cc2)cc1
REMARK SMILES IDX 15 1 14 2 12 3 13 4 11 6 9 7 10 8 71 9 69 10 70 11 8 12 5 13
REMARK SMILES IDX 6 14 80 15 7 16 79 17 2 18 3 19 4 20 1 21 72 24 73 25 78 26
REMARK SMILES IDX 74 27 77 28 75 29 76 30 16 31 17 32 18 33 19 34 20 36 21 37
REMARK SMILES IDX 22 38 68 39 23 40 67 41 24 42 25 43 26 44 61 45 27 46 66 47
REMARK SMILES IDX 60 48 62 49 28 50 65 51 59 52 58 53 29 55 51 56 36 57 50 58
REMARK SMILES IDX 37 59 40 60 49 61 63 62 38 63 39 64 48 66 64 67 41 68 30 69
REMARK SMILES IDX 31 70 35 71 32 72 34 73 33 74 52 75 53 76 57 77 54 78 56 79
REMARK SMILES IDX 55 80 42 81 43 82 47 83 44 84 46 85 45 86
REMARK H PARENT 14 5 1 22 1 23 18 35 62 54 40 65
REMARK Flexibility Score: inf
ROOT
ATOM      1  C   UNL A   1      41.137  28.502  34.855  1.00  0.00     0.118 C 
ENDROOT
BRANCH   1   2
ATOM      2  N   UNL A   1      41.028  29.656  35.745  1.00  0.00    -0.351 N 
ATOM      3  C   UNL A   1      40.288  30.823  35.653  1.00  0.00     0.273 C 
ATOM      4  O   UNL A   1      40.336  31.577  36.627  1.00  0.00    -0.267 OA
ATOM      5  H   UNL A   1      41.581  29.593  36.555  1.00  0.00     0.163 HD
BRANCH   3   6
ATOM      6  C   UNL A   1      39.429  31.096  34.487  1.00  0.00     0.169 A 
ATOM      7  N   UNL A   1      37.719  31.811  33.387  1.00  0.00    -0.231 N 
ATOM      8  N   UNL A   1      38.316  31.859  34.607  1.00  0.00    -0.160 NA
ATOM      9  C   UNL A   1      38.344  30.908  32.550  1.00  0.00     0.094 A 
ATOM     10  C   UNL A   1      39.590  30.770  33.127  1.00  0.00     0.100 A 
ATOM     11  Cl  UNL A   1      40.983  30.382  32.241  1.00  0.00    -0.079 Cl
BRANCH   7  12
ATOM     12  C   UNL A   1      36.742  32.759  33.003  1.00  0.00     0.065 A 
ATOM     13  C   UNL A   1      34.716  34.631  32.679  1.00  0.00     0.082 A 
ATOM     14  C   UNL A   1      34.403  33.267  32.655  1.00  0.00     0.024 A 
ATOM     15  C   UNL A   1      36.038  35.062  32.827  1.00  0.00     0.024 A 
ATOM     16  C   UNL A   1      35.426  32.323  32.788  1.00  0.00     0.030 A 
ATOM     17  C   UNL A   1      37.052  34.124  33.010  1.00  0.00     0.030 A 
BRANCH  13  18
ATOM     18  S   UNL A   1      33.421  35.832  32.586  1.00  0.00     0.238 S 
ATOM     19  O   UNL A   1      33.673  36.883  33.532  1.00  0.00    -0.207 OA
ATOM     20  O   UNL A   1      32.154  35.129  32.500  1.00  0.00    -0.207 OA
BRANCH  18  21
ATOM     21  N   UNL A   1      33.667  36.530  31.074  1.00  0.00    -0.225 NA
ATOM     22  H   UNL A   1      34.433  37.199  31.129  1.00  0.00     0.137 HD
ATOM     23  H   UNL A   1      32.816  37.009  30.778  1.00  0.00     0.137 HD
ENDBRANCH  18  21
ENDBRANCH  13  18
ENDBRANCH   7  12
BRANCH   9  24
ATOM     24  C   UNL A   1      38.031  30.535  31.176  1.00  0.00     0.002 A 
ATOM     25  C   UNL A   1      38.269  31.480  30.167  1.00  0.00     0.012 A 
ATOM     26  C   UNL A   1      37.202  29.436  30.923  1.00  0.00     0.012 A 
ATOM     27  C   UNL A   1      37.621  31.366  28.937  1.00  0.00     0.021 A 
ATOM     28  C   UNL A   1      36.554  29.328  29.692  1.00  0.00     0.021 A 
ATOM     29  C   UNL A   1      36.747  30.305  28.716  1.00  0.00     0.041 A 
ATOM     30  Cl  UNL A   1      35.848  30.234  27.252  1.00  0.00    -0.084 Cl
ENDBRANCH   9  24
ENDBRANCH   3   6
ENDBRANCH   1   2
BRANCH   1  31
ATOM     31  C   UNL A   1      42.597  28.101  34.609  1.00  0.00     0.042 C 
BRANCH  31  32
ATOM     32  C   UNL A   1      43.055  26.903  35.396  1.00  0.00     0.118 C 
BRANCH  32  33
ATOM     33  N   UNL A   1      44.383  27.042  36.001  1.00  0.00    -0.352 N 
ATOM     34  C   UNL A   1      45.573  26.462  35.566  1.00  0.00     0.251 C 
ATOM     35  H   UNL A   1      44.440  27.608  36.805  1.00  0.00     0.163 HD
ATOM     36  O   UNL A   1      46.537  26.354  36.311  1.00  0.00    -0.269 OA
BRANCH  34  37
ATOM     37  C   UNL A   1      45.635  25.977  34.173  1.00  0.00     0.039 A 
ATOM     38  C   UNL A   1      45.383  24.665  33.771  1.00  0.00     0.014 A 
ATOM     39  C   UNL A   1      45.852  26.956  33.223  1.00  0.00     0.014 A 
ATOM     40  C   UNL A   1      45.330  24.403  32.401  1.00  0.00     0.010 A 
ATOM     41  C   UNL A   1      45.299  26.778  32.001  1.00  0.00     0.010 A 
ATOM     42  C   UNL A   1      45.300  25.493  31.520  1.00  0.00    -0.014 A 
BRANCH  42  43
ATOM     43  C   UNL A   1      45.209  25.405  30.076  1.00  0.00     0.031 A 
ATOM     44  C   UNL A   1      46.290  26.115  29.376  1.00  0.00     0.074 A 
ATOM     45  C   UNL A   1      44.371  24.555  29.438  1.00  0.00     0.049 A 
ATOM     46  N   UNL A   1      46.205  27.272  28.821  1.00  0.00    -0.248 NA
ATOM     47  C   UNL A   1      47.655  25.578  29.461  1.00  0.00     0.031 C 
ATOM     48  C   UNL A   1      43.454  23.544  29.993  1.00  0.00     0.029 A 
ATOM     49  N   UNL A   1      44.227  24.366  28.100  1.00  0.00    -0.354 N 
ATOM     50  C   UNL A   1      47.453  27.513  28.272  1.00  0.00     0.074 A 
ATOM     51  C   UNL A   1      48.348  26.561  28.881  1.00  0.00     0.031 C 
ATOM     52  C   UNL A   1      43.010  22.730  29.005  1.00  0.00     0.029 A 
ATOM     53  C   UNL A   1      43.462  23.265  27.735  1.00  0.00     0.049 A 
ATOM     54  H   UNL A   1      44.636  24.967  27.436  1.00  0.00     0.167 HD
ATOM     55  C   UNL A   1      47.578  28.285  27.159  1.00  0.00     0.031 A 
ATOM     56  C   UNL A   1      43.206  22.840  26.473  1.00  0.00     0.031 A 
ATOM     57  C   UNL A   1      46.341  28.967  26.854  1.00  0.00     0.049 A 
ATOM     58  C   UNL A   1      43.414  24.005  25.580  1.00  0.00     0.074 A 
ATOM     59  C   UNL A   1      45.548  29.887  27.512  1.00  0.00     0.029 A 
ATOM     60  N   UNL A   1      45.531  28.376  25.909  1.00  0.00    -0.354 N 
ATOM     61  N   UNL A   1      42.661  25.067  25.623  1.00  0.00    -0.248 NA
ATOM     62  C   UNL A   1      44.735  24.201  25.003  1.00  0.00     0.031 C 
ATOM     63  C   UNL A   1      44.208  29.465  27.256  1.00  0.00     0.029 A 
ATOM     64  C   UNL A   1      44.248  28.368  26.392  1.00  0.00     0.049 A 
ATOM     65  H   UNL A   1      45.824  28.020  25.039  1.00  0.00     0.167 HD
ATOM     66  C   UNL A   1      43.544  26.132  25.513  1.00  0.00     0.074 A 
ATOM     67  C   UNL A   1      44.790  25.537  25.027  1.00  0.00     0.031 C 
ATOM     68  C   UNL A   1      43.273  27.336  26.100  1.00  0.00     0.031 A 
BRANCH  55  69
ATOM     69  C   UNL A   1      48.642  28.080  26.113  1.00  0.00    -0.014 A 
ATOM     70  C   UNL A   1      48.467  27.040  25.183  1.00  0.00     0.009 A 
ATOM     71  C   UNL A   1      49.918  28.671  26.169  1.00  0.00     0.009 A 
ATOM     72  C   UNL A   1      49.533  26.564  24.414  1.00  0.00     0.001 A 
ATOM     73  C   UNL A   1      50.976  28.224  25.375  1.00  0.00     0.001 A 
ATOM     74  C   UNL A   1      50.791  27.150  24.519  1.00  0.00     0.000 A 
ENDBRANCH  55  69
BRANCH  56  75
ATOM     75  C   UNL A   1      43.052  21.460  25.964  1.00  0.00    -0.014 A 
ATOM     76  C   UNL A   1      44.124  20.765  25.384  1.00  0.00     0.009 A 
ATOM     77  C   UNL A   1      41.907  20.719  26.313  1.00  0.00     0.009 A 
ATOM     78  C   UNL A   1      44.064  19.376  25.191  1.00  0.00     0.001 A 
ATOM     79  C   UNL A   1      41.849  19.334  26.126  1.00  0.00     0.001 A 
ATOM     80  C   UNL A   1      42.933  18.659  25.576  1.00  0.00     0.000 A 
ENDBRANCH  56  75
BRANCH  68  81
ATOM     81  C   UNL A   1      41.900  27.521  26.709  1.00  0.00    -0.014 A 
ATOM     82  C   UNL A   1      41.449  26.788  27.824  1.00  0.00     0.009 A 
ATOM     83  C   UNL A   1      41.102  28.576  26.248  1.00  0.00     0.009 A 
ATOM     84  C   UNL A   1      40.229  27.090  28.442  1.00  0.00     0.001 A 
ATOM     85  C   UNL A   1      39.893  28.890  26.876  1.00  0.00     0.001 A 
ATOM     86  C   UNL A   1      39.455  28.146  27.969  1.00  0.00     0.000 A 
ENDBRANCH  68  81
ENDBRANCH  42  43
ENDBRANCH  34  37
ENDBRANCH  32  33
ENDBRANCH  31  32
ENDBRANCH   1  31
TORSDOF 14
ENDMDL
