MODEL 1
REMARK VINA RESULT:     -10.9      0.000      0.000
REMARK SMILES COc1ccc(OC)c(/C=C2\S/C(=[NH+]\c3ccc(C(=O)NCCCNC(=O)c4ccc(-c5c6nc(c(-c7ccccc7)c7ccc([nH]7)c(-c7ccccc7)c7nc(c(-c8ccccc8)c8ccc5[nH]8)C=C7)C=C6)cc4)cc3)N(C)C2=O)c1
REMARK SMILES IDX 22 1 21 2 19 3 20 4 18 6 15 7 16 8 77 9 17 10 76 11 14 12
REMARK SMILES IDX 10 13 11 14 12 15 80 16 13 17 78 18 81 19 79 20 9 22 3 23
REMARK SMILES IDX 4 24 82 25 5 26 6 27 2 28 1 29 7 30 8 31 23 32 24 33 25 34
REMARK SMILES IDX 26 35 27 37 28 38 29 39 75 40 30 41 74 42 31 43 32 44 33 45
REMARK SMILES IDX 68 46 34 47 73 48 67 49 69 50 35 51 72 52 66 53 65 54 36 56
REMARK SMILES IDX 58 57 43 58 57 59 44 60 47 61 56 62 70 63 45 64 46 65 55 67
REMARK SMILES IDX 71 68 48 69 37 70 38 71 42 72 39 73 41 74 40 75 59 76 60 77
REMARK SMILES IDX 64 78 61 79 63 80 62 81 49 82 50 83 54 84 51 85 53 86 52 87
REMARK H PARENT 21 5 14 21 25 36 69 55 47 66
REMARK Flexibility Score: inf
ROOT
ATOM      1  C   UNL A   1      41.790  25.530  25.376  1.00  0.00     0.118 C 
ENDROOT
BRANCH   1   2
ATOM      2  N   UNL A   1      41.464  25.420  26.787  1.00  0.00    -0.352 N 
ATOM      3  C   UNL A   1      40.555  24.665  27.483  1.00  0.00     0.251 C 
ATOM      4  O   UNL A   1      40.577  24.755  28.712  1.00  0.00    -0.269 OA
ATOM      5  H   UNL A   1      42.007  26.008  27.362  1.00  0.00     0.163 HD
BRANCH   3   6
ATOM      6  C   UNL A   1      39.585  23.726  26.848  1.00  0.00     0.040 A 
ATOM      7  C   UNL A   1      37.579  22.064  25.751  1.00  0.00     0.125 A 
ATOM      8  C   UNL A   1      37.307  23.405  26.017  1.00  0.00     0.052 A 
ATOM      9  C   UNL A   1      38.882  21.591  25.942  1.00  0.00     0.052 A 
ATOM     10  C   UNL A   1      38.296  24.221  26.581  1.00  0.00     0.018 A 
ATOM     11  C   UNL A   1      39.882  22.418  26.465  1.00  0.00     0.018 A 
BRANCH   7  12
ATOM     12  N   UNL A   1      36.596  21.141  25.350  1.00  0.00    -0.234 N 
ATOM     13  C   UNL A   1      32.828  24.039  24.169  1.00  0.00     0.036 C 
ATOM     14  C   UNL A   1      33.698  23.032  24.005  1.00  0.00     0.110 C 
ATOM     15  S   UNL A   1      35.406  23.150  23.921  1.00  0.00     0.007 SA
ATOM     16  C   UNL A   1      33.317  21.597  24.134  1.00  0.00     0.348 C 
ATOM     17  C   UNL A   1      35.590  21.579  24.663  1.00  0.00     0.324 C 
ATOM     18  N   UNL A   1      34.431  20.862  24.495  1.00  0.00    -0.189 N 
ATOM     19  O   UNL A   1      32.164  21.193  24.057  1.00  0.00    -0.240 OA
ATOM     20  C   UNL A   1      34.315  19.488  24.928  1.00  0.00     0.301 C 
ATOM     21  H   UNL A   1      36.673  20.188  25.584  1.00  0.00     0.313 HD
BRANCH  13  22
ATOM     22  C   UNL A   1      33.214  25.456  24.318  1.00  0.00     0.022 A 
ATOM     23  C   UNL A   1      33.384  27.374  25.804  1.00  0.00     0.119 A 
ATOM     24  C   UNL A   1      33.665  28.202  24.723  1.00  0.00     0.050 A 
ATOM     25  C   UNL A   1      33.137  26.013  25.605  1.00  0.00     0.058 A 
ATOM     26  C   UNL A   1      33.780  27.659  23.446  1.00  0.00     0.051 A 
ATOM     27  C   UNL A   1      33.602  26.287  23.243  1.00  0.00     0.126 A 
BRANCH  23  28
ATOM     28  O   UNL A   1      33.277  27.984  27.025  1.00  0.00    -0.497 OA
ATOM     29  C   UNL A   1      32.098  28.776  27.144  1.00  0.00     0.278 C 
ENDBRANCH  23  28
BRANCH  27  30
ATOM     30  O   UNL A   1      33.728  25.897  21.934  1.00  0.00    -0.496 OA
ATOM     31  C   UNL A   1      32.526  25.957  21.173  1.00  0.00     0.278 C 
ENDBRANCH  27  30
ENDBRANCH  13  22
ENDBRANCH   7  12
ENDBRANCH   3   6
ENDBRANCH   1   2
BRANCH   1  32
ATOM     32  C   UNL A   1      43.210  25.037  25.092  1.00  0.00     0.042 C 
BRANCH  32  33
ATOM     33  C   UNL A   1      43.480  23.615  25.586  1.00  0.00     0.118 C 
BRANCH  33  34
ATOM     34  N   UNL A   1      44.856  23.436  26.026  1.00  0.00    -0.352 N 
ATOM     35  C   UNL A   1      45.564  24.061  27.021  1.00  0.00     0.251 C 
ATOM     36  H   UNL A   1      45.362  22.755  25.527  1.00  0.00     0.163 HD
ATOM     37  O   UNL A   1      46.780  23.894  27.084  1.00  0.00    -0.269 OA
BRANCH  35  38
ATOM     38  C   UNL A   1      44.899  24.936  28.014  1.00  0.00     0.039 A 
ATOM     39  C   UNL A   1      45.052  26.322  27.887  1.00  0.00     0.014 A 
ATOM     40  C   UNL A   1      44.197  24.417  29.105  1.00  0.00     0.014 A 
ATOM     41  C   UNL A   1      44.476  27.181  28.826  1.00  0.00     0.010 A 
ATOM     42  C   UNL A   1      43.564  25.276  30.004  1.00  0.00     0.010 A 
ATOM     43  C   UNL A   1      43.708  26.667  29.882  1.00  0.00    -0.014 A 
BRANCH  43  44
ATOM     44  C   UNL A   1      43.069  27.572  30.872  1.00  0.00     0.031 A 
ATOM     45  C   UNL A   1      41.757  28.239  30.561  1.00  0.00     0.074 A 
ATOM     46  C   UNL A   1      43.686  27.821  32.043  1.00  0.00     0.049 A 
ATOM     47  N   UNL A   1      41.054  29.065  31.296  1.00  0.00    -0.248 NA
ATOM     48  C   UNL A   1      41.166  27.958  29.243  1.00  0.00     0.031 C 
ATOM     49  C   UNL A   1      44.972  27.261  32.457  1.00  0.00     0.029 A 
ATOM     50  N   UNL A   1      43.308  28.608  33.101  1.00  0.00    -0.354 N 
ATOM     51  C   UNL A   1      39.950  29.411  30.526  1.00  0.00     0.074 A 
ATOM     52  C   UNL A   1      40.103  28.748  29.250  1.00  0.00     0.031 C 
ATOM     53  C   UNL A   1      45.259  27.689  33.697  1.00  0.00     0.029 A 
ATOM     54  C   UNL A   1      44.197  28.584  34.149  1.00  0.00     0.049 A 
ATOM     55  H   UNL A   1      42.479  29.139  33.110  1.00  0.00     0.167 HD
ATOM     56  C   UNL A   1      38.893  30.192  30.857  1.00  0.00     0.031 A 
ATOM     57  C   UNL A   1      44.161  29.207  35.341  1.00  0.00     0.031 A 
ATOM     58  C   UNL A   1      38.738  30.851  32.127  1.00  0.00     0.049 A 
ATOM     59  C   UNL A   1      42.993  30.091  35.676  1.00  0.00     0.074 A 
ATOM     60  C   UNL A   1      37.682  31.628  32.574  1.00  0.00     0.029 A 
ATOM     61  N   UNL A   1      39.671  30.816  33.152  1.00  0.00    -0.354 N 
ATOM     62  N   UNL A   1      41.928  30.359  34.960  1.00  0.00    -0.248 NA
ATOM     63  C   UNL A   1      43.019  30.748  36.990  1.00  0.00     0.031 C 
ATOM     64  C   UNL A   1      37.999  32.101  33.852  1.00  0.00     0.029 A 
ATOM     65  C   UNL A   1      39.226  31.575  34.221  1.00  0.00     0.049 A 
ATOM     66  H   UNL A   1      40.523  30.324  33.123  1.00  0.00     0.167 HD
ATOM     67  C   UNL A   1      41.143  31.192  35.747  1.00  0.00     0.074 A 
ATOM     68  C   UNL A   1      41.850  31.374  36.999  1.00  0.00     0.031 C 
ATOM     69  C   UNL A   1      39.942  31.752  35.459  1.00  0.00     0.031 A 
BRANCH  56  70
ATOM     70  C   UNL A   1      37.826  30.381  29.812  1.00  0.00    -0.014 A 
ATOM     71  C   UNL A   1      36.870  29.384  29.559  1.00  0.00     0.009 A 
ATOM     72  C   UNL A   1      37.770  31.575  29.077  1.00  0.00     0.009 A 
ATOM     73  C   UNL A   1      35.912  29.559  28.557  1.00  0.00     0.001 A 
ATOM     74  C   UNL A   1      36.791  31.759  28.097  1.00  0.00     0.001 A 
ATOM     75  C   UNL A   1      35.872  30.747  27.830  1.00  0.00     0.000 A 
ENDBRANCH  56  70
BRANCH  57  76
ATOM     76  C   UNL A   1      45.251  28.984  36.325  1.00  0.00    -0.014 A 
ATOM     77  C   UNL A   1      46.379  29.818  36.330  1.00  0.00     0.009 A 
ATOM     78  C   UNL A   1      45.165  27.951  37.270  1.00  0.00     0.009 A 
ATOM     79  C   UNL A   1      47.409  29.611  37.250  1.00  0.00     0.001 A 
ATOM     80  C   UNL A   1      46.185  27.762  38.206  1.00  0.00     0.001 A 
ATOM     81  C   UNL A   1      47.309  28.587  38.191  1.00  0.00     0.000 A 
ENDBRANCH  57  76
BRANCH  69  82
ATOM     82  C   UNL A   1      39.300  32.586  36.532  1.00  0.00    -0.014 A 
ATOM     83  C   UNL A   1      38.341  32.044  37.402  1.00  0.00     0.009 A 
ATOM     84  C   UNL A   1      39.689  33.924  36.695  1.00  0.00     0.009 A 
ATOM     85  C   UNL A   1      37.761  32.837  38.394  1.00  0.00     0.001 A 
ATOM     86  C   UNL A   1      39.128  34.706  37.706  1.00  0.00     0.001 A 
ATOM     87  C   UNL A   1      38.159  34.166  38.549  1.00  0.00     0.000 A 
ENDBRANCH  69  82
ENDBRANCH  43  44
ENDBRANCH  35  38
ENDBRANCH  33  34
ENDBRANCH  32  33
ENDBRANCH   1  32
TORSDOF 14
ENDMDL
MODEL 2
REMARK VINA RESULT:     -10.9      4.400     10.110
REMARK SMILES COc1ccc(OC)c(/C=C2\S/C(=[NH+]\c3ccc(C(=O)NCCCNC(=O)c4ccc(-c5c6nc(c(-c7ccccc7)c7ccc([nH]7)c(-c7ccccc7)c7nc(c(-c8ccccc8)c8ccc5[nH]8)C=C7)C=C6)cc4)cc3)N(C)C2=O)c1
REMARK SMILES IDX 22 1 21 2 19 3 20 4 18 6 15 7 16 8 77 9 17 10 76 11 14 12
REMARK SMILES IDX 10 13 11 14 12 15 80 16 13 17 78 18 81 19 79 20 9 22 3 23
REMARK SMILES IDX 4 24 82 25 5 26 6 27 2 28 1 29 7 30 8 31 23 32 24 33 25 34
REMARK SMILES IDX 26 35 27 37 28 38 29 39 75 40 30 41 74 42 31 43 32 44 33 45
REMARK SMILES IDX 68 46 34 47 73 48 67 49 69 50 35 51 72 52 66 53 65 54 36 56
REMARK SMILES IDX 58 57 43 58 57 59 44 60 47 61 56 62 70 63 45 64 46 65 55 67
REMARK SMILES IDX 71 68 48 69 37 70 38 71 42 72 39 73 41 74 40 75 59 76 60 77
REMARK SMILES IDX 64 78 61 79 63 80 62 81 49 82 50 83 54 84 51 85 53 86 52 87
REMARK H PARENT 21 5 14 21 25 36 69 55 47 66
REMARK Flexibility Score: inf
ROOT
ATOM      1  C   UNL A   1      35.904  30.496  31.156  1.00  0.00     0.118 C 
ENDROOT
BRANCH   1   2
ATOM      2  N   UNL A   1      36.885  30.624  30.092  1.00  0.00    -0.352 N 
ATOM      3  C   UNL A   1      36.786  30.653  28.724  1.00  0.00     0.251 C 
ATOM      4  O   UNL A   1      37.826  30.847  28.093  1.00  0.00    -0.269 OA
ATOM      5  H   UNL A   1      37.811  30.705  30.420  1.00  0.00     0.163 HD
BRANCH   3   6
ATOM      6  C   UNL A   1      35.505  30.507  27.974  1.00  0.00     0.040 A 
ATOM      7  C   UNL A   1      33.195  30.110  26.394  1.00  0.00     0.125 A 
ATOM      8  C   UNL A   1      34.200  29.144  26.418  1.00  0.00     0.052 A 
ATOM      9  C   UNL A   1      33.308  31.219  27.239  1.00  0.00     0.052 A 
ATOM     10  C   UNL A   1      35.354  29.353  27.184  1.00  0.00     0.018 A 
ATOM     11  C   UNL A   1      34.441  31.408  28.038  1.00  0.00     0.018 A 
BRANCH   7  12
ATOM     12  N   UNL A   1      32.092  30.056  25.522  1.00  0.00    -0.234 N 
ATOM     13  C   UNL A   1      31.546  25.245  24.786  1.00  0.00     0.036 C 
ATOM     14  C   UNL A   1      31.147  26.497  25.053  1.00  0.00     0.110 C 
ATOM     15  S   UNL A   1      31.659  27.485  26.357  1.00  0.00     0.007 SA
ATOM     16  C   UNL A   1      30.376  27.330  24.086  1.00  0.00     0.348 C 
ATOM     17  C   UNL A   1      31.474  28.927  25.386  1.00  0.00     0.324 C 
ATOM     18  N   UNL A   1      30.612  28.666  24.351  1.00  0.00    -0.189 N 
ATOM     19  O   UNL A   1      29.753  26.866  23.139  1.00  0.00    -0.240 OA
ATOM     20  C   UNL A   1      30.196  29.698  23.427  1.00  0.00     0.301 C 
ATOM     21  H   UNL A   1      31.799  30.856  25.030  1.00  0.00     0.313 HD
BRANCH  13  22
ATOM     22  C   UNL A   1      32.528  24.495  25.593  1.00  0.00     0.022 A 
ATOM     23  C   UNL A   1      34.836  23.764  25.827  1.00  0.00     0.119 A 
ATOM     24  C   UNL A   1      34.475  22.915  26.868  1.00  0.00     0.050 A 
ATOM     25  C   UNL A   1      33.869  24.534  25.175  1.00  0.00     0.058 A 
ATOM     26  C   UNL A   1      33.157  22.892  27.316  1.00  0.00     0.051 A 
ATOM     27  C   UNL A   1      32.192  23.708  26.717  1.00  0.00     0.126 A 
BRANCH  23  28
ATOM     28  O   UNL A   1      36.147  23.722  25.436  1.00  0.00    -0.497 OA
ATOM     29  C   UNL A   1      36.464  22.547  24.693  1.00  0.00     0.278 C 
ENDBRANCH  23  28
BRANCH  27  30
ATOM     30  O   UNL A   1      30.935  23.568  27.251  1.00  0.00    -0.496 OA
ATOM     31  C   UNL A   1      30.125  22.580  26.622  1.00  0.00     0.278 C 
ENDBRANCH  27  30
ENDBRANCH  13  22
ENDBRANCH   7  12
ENDBRANCH   3   6
ENDBRANCH   1   2
BRANCH   1  32
ATOM     32  C   UNL A   1      35.559  31.859  31.760  1.00  0.00     0.042 C 
BRANCH  32  33
ATOM     33  C   UNL A   1      35.901  31.979  33.245  1.00  0.00     0.118 C 
BRANCH  33  34
ATOM     34  N   UNL A   1      36.381  33.308  33.594  1.00  0.00    -0.352 N 
ATOM     35  C   UNL A   1      37.616  33.883  33.430  1.00  0.00     0.251 C 
ATOM     36  H   UNL A   1      35.710  33.890  34.018  1.00  0.00     0.163 HD
ATOM     37  O   UNL A   1      37.854  34.953  33.984  1.00  0.00    -0.269 OA
BRANCH  35  38
ATOM     38  C   UNL A   1      38.668  33.240  32.607  1.00  0.00     0.039 A 
ATOM     39  C   UNL A   1      38.717  33.539  31.240  1.00  0.00     0.014 A 
ATOM     40  C   UNL A   1      39.549  32.295  33.139  1.00  0.00     0.014 A 
ATOM     41  C   UNL A   1      39.666  32.923  30.421  1.00  0.00     0.010 A 
ATOM     42  C   UNL A   1      40.540  31.732  32.335  1.00  0.00     0.010 A 
ATOM     43  C   UNL A   1      40.601  32.029  30.965  1.00  0.00    -0.014 A 
BRANCH  43  44
ATOM     44  C   UNL A   1      41.631  31.387  30.108  1.00  0.00     0.031 A 
ATOM     45  C   UNL A   1      42.922  32.098  29.803  1.00  0.00     0.074 A 
ATOM     46  C   UNL A   1      41.392  30.174  29.574  1.00  0.00     0.049 A 
ATOM     47  N   UNL A   1      43.931  31.700  29.070  1.00  0.00    -0.248 NA
ATOM     48  C   UNL A   1      43.092  33.440  30.381  1.00  0.00     0.031 C 
ATOM     49  C   UNL A   1      40.173  29.390  29.768  1.00  0.00     0.029 A 
ATOM     50  N   UNL A   1      42.170  29.387  28.762  1.00  0.00    -0.354 N 
ATOM     51  C   UNL A   1      44.847  32.745  29.088  1.00  0.00     0.074 A 
ATOM     52  C   UNL A   1      44.250  33.814  29.859  1.00  0.00     0.031 C 
ATOM     53  C   UNL A   1      40.299  28.216  29.127  1.00  0.00     0.029 A 
ATOM     54  C   UNL A   1      41.590  28.182  28.446  1.00  0.00     0.049 A 
ATOM     55  H   UNL A   1      43.058  29.660  28.437  1.00  0.00     0.167 HD
ATOM     56  C   UNL A   1      46.082  32.805  28.532  1.00  0.00     0.031 A 
ATOM     57  C   UNL A   1      42.047  27.162  27.698  1.00  0.00     0.031 A 
ATOM     58  C   UNL A   1      46.678  31.744  27.765  1.00  0.00     0.049 A 
ATOM     59  C   UNL A   1      43.407  27.261  27.067  1.00  0.00     0.074 A 
ATOM     60  C   UNL A   1      47.940  31.691  27.197  1.00  0.00     0.029 A 
ATOM     61  N   UNL A   1      46.049  30.548  27.453  1.00  0.00    -0.354 N 
ATOM     62  N   UNL A   1      44.285  28.232  27.144  1.00  0.00    -0.248 NA
ATOM     63  C   UNL A   1      43.843  26.116  26.256  1.00  0.00     0.031 C 
ATOM     64  C   UNL A   1      48.056  30.483  26.502  1.00  0.00     0.029 A 
ATOM     65  C   UNL A   1      46.887  29.761  26.682  1.00  0.00     0.049 A 
ATOM     66  H   UNL A   1      45.141  30.297  27.738  1.00  0.00     0.167 HD
ATOM     67  C   UNL A   1      45.388  27.804  26.416  1.00  0.00     0.074 A 
ATOM     68  C   UNL A   1      45.072  26.481  25.916  1.00  0.00     0.031 C 
ATOM     69  C   UNL A   1      46.558  28.448  26.187  1.00  0.00     0.031 A 
BRANCH  56  70
ATOM     70  C   UNL A   1      46.861  34.078  28.728  1.00  0.00    -0.014 A 
ATOM     71  C   UNL A   1      46.751  35.146  27.822  1.00  0.00     0.009 A 
ATOM     72  C   UNL A   1      47.710  34.216  29.837  1.00  0.00     0.009 A 
ATOM     73  C   UNL A   1      47.512  36.304  27.995  1.00  0.00     0.001 A 
ATOM     74  C   UNL A   1      48.446  35.389  30.024  1.00  0.00     0.001 A 
ATOM     75  C   UNL A   1      48.356  36.426  29.097  1.00  0.00     0.000 A 
ENDBRANCH  56  70
BRANCH  57  76
ATOM     76  C   UNL A   1      41.223  25.936  27.536  1.00  0.00    -0.014 A 
ATOM     77  C   UNL A   1      41.564  24.761  28.222  1.00  0.00     0.009 A 
ATOM     78  C   UNL A   1      40.088  25.937  26.711  1.00  0.00     0.009 A 
ATOM     79  C   UNL A   1      40.795  23.605  28.071  1.00  0.00     0.001 A 
ATOM     80  C   UNL A   1      39.307  24.787  26.582  1.00  0.00     0.001 A 
ATOM     81  C   UNL A   1      39.665  23.620  27.256  1.00  0.00     0.000 A 
ENDBRANCH  57  76
BRANCH  69  82
ATOM     82  C   UNL A   1      47.599  27.715  25.388  1.00  0.00    -0.014 A 
ATOM     83  C   UNL A   1      48.586  26.937  26.014  1.00  0.00     0.009 A 
ATOM     84  C   UNL A   1      47.567  27.776  23.987  1.00  0.00     0.009 A 
ATOM     85  C   UNL A   1      49.540  26.261  25.251  1.00  0.00     0.001 A 
ATOM     86  C   UNL A   1      48.505  27.076  23.226  1.00  0.00     0.001 A 
ATOM     87  C   UNL A   1      49.496  26.327  23.858  1.00  0.00     0.000 A 
ENDBRANCH  69  82
ENDBRANCH  43  44
ENDBRANCH  35  38
ENDBRANCH  33  34
ENDBRANCH  32  33
ENDBRANCH   1  32
TORSDOF 14
ENDMDL
MODEL 3
REMARK VINA RESULT:     -10.8      0.429      5.627
REMARK SMILES COc1ccc(OC)c(/C=C2\S/C(=[NH+]\c3ccc(C(=O)NCCCNC(=O)c4ccc(-c5c6nc(c(-c7ccccc7)c7ccc([nH]7)c(-c7ccccc7)c7nc(c(-c8ccccc8)c8ccc5[nH]8)C=C7)C=C6)cc4)cc3)N(C)C2=O)c1
REMARK SMILES IDX 22 1 21 2 19 3 20 4 18 6 15 7 16 8 77 9 17 10 76 11 14 12
REMARK SMILES IDX 10 13 11 14 12 15 80 16 13 17 78 18 81 19 79 20 9 22 3 23
REMARK SMILES IDX 4 24 82 25 5 26 6 27 2 28 1 29 7 30 8 31 23 32 24 33 25 34
REMARK SMILES IDX 26 35 27 37 28 38 29 39 75 40 30 41 74 42 31 43 32 44 33 45
REMARK SMILES IDX 68 46 34 47 73 48 67 49 69 50 35 51 72 52 66 53 65 54 36 56
REMARK SMILES IDX 58 57 43 58 57 59 44 60 47 61 56 62 70 63 45 64 46 65 55 67
REMARK SMILES IDX 71 68 48 69 37 70 38 71 42 72 39 73 41 74 40 75 59 76 60 77
REMARK SMILES IDX 64 78 61 79 63 80 62 81 49 82 50 83 54 84 51 85 53 86 52 87
REMARK H PARENT 21 5 14 21 25 36 69 55 47 66
REMARK Flexibility Score: inf
ROOT
ATOM      1  C   UNL A   1      41.945  25.322  25.297  1.00  0.00     0.118 C 
ENDROOT
BRANCH   1   2
ATOM      2  N   UNL A   1      41.597  25.276  26.706  1.00  0.00    -0.352 N 
ATOM      3  C   UNL A   1      40.647  24.586  27.415  1.00  0.00     0.251 C 
ATOM      4  O   UNL A   1      40.658  24.719  28.640  1.00  0.00    -0.269 OA
ATOM      5  H   UNL A   1      42.158  25.861  27.267  1.00  0.00     0.163 HD
BRANCH   3   6
ATOM      6  C   UNL A   1      39.646  23.669  26.799  1.00  0.00     0.040 A 
ATOM      7  C   UNL A   1      37.584  22.046  25.746  1.00  0.00     0.125 A 
ATOM      8  C   UNL A   1      37.339  23.388  26.035  1.00  0.00     0.052 A 
ATOM      9  C   UNL A   1      38.885  21.554  25.891  1.00  0.00     0.052 A 
ATOM     10  C   UNL A   1      38.356  24.184  26.578  1.00  0.00     0.018 A 
ATOM     11  C   UNL A   1      39.912  22.361  26.393  1.00  0.00     0.018 A 
BRANCH   7  12
ATOM     12  N   UNL A   1      36.576  21.142  25.364  1.00  0.00    -0.234 N 
ATOM     13  C   UNL A   1      32.961  24.115  23.924  1.00  0.00     0.036 C 
ATOM     14  C   UNL A   1      33.794  23.069  23.838  1.00  0.00     0.110 C 
ATOM     15  S   UNL A   1      35.507  23.117  23.798  1.00  0.00     0.007 SA
ATOM     16  C   UNL A   1      33.352  21.658  24.030  1.00  0.00     0.348 C 
ATOM     17  C   UNL A   1      35.607  21.581  24.626  1.00  0.00     0.324 C 
ATOM     18  N   UNL A   1      34.426  20.901  24.462  1.00  0.00    -0.189 N 
ATOM     19  O   UNL A   1      32.186  21.295  23.940  1.00  0.00    -0.240 OA
ATOM     20  C   UNL A   1      34.244  19.558  24.963  1.00  0.00     0.301 C 
ATOM     21  H   UNL A   1      36.608  20.201  25.651  1.00  0.00     0.313 HD
BRANCH  13  22
ATOM     22  C   UNL A   1      33.398  25.522  24.009  1.00  0.00     0.022 A 
ATOM     23  C   UNL A   1      33.819  27.439  25.446  1.00  0.00     0.119 A 
ATOM     24  C   UNL A   1      33.969  28.257  24.332  1.00  0.00     0.050 A 
ATOM     25  C   UNL A   1      33.513  26.084  25.292  1.00  0.00     0.058 A 
ATOM     26  C   UNL A   1      33.894  27.708  23.055  1.00  0.00     0.051 A 
ATOM     27  C   UNL A   1      33.655  26.341  22.887  1.00  0.00     0.126 A 
BRANCH  23  28
ATOM     28  O   UNL A   1      33.896  28.054  26.667  1.00  0.00    -0.497 OA
ATOM     29  C   UNL A   1      32.786  28.912  26.923  1.00  0.00     0.278 C 
ENDBRANCH  23  28
BRANCH  27  30
ATOM     30  O   UNL A   1      33.590  25.944  21.574  1.00  0.00    -0.496 OA
ATOM     31  C   UNL A   1      32.283  25.954  21.011  1.00  0.00     0.278 C 
ENDBRANCH  27  30
ENDBRANCH  13  22
ENDBRANCH   7  12
ENDBRANCH   3   6
ENDBRANCH   1   2
BRANCH   1  32
ATOM     32  C   UNL A   1      43.383  24.854  25.063  1.00  0.00     0.042 C 
BRANCH  32  33
ATOM     33  C   UNL A   1      43.654  23.430  25.548  1.00  0.00     0.118 C 
BRANCH  33  34
ATOM     34  N   UNL A   1      45.029  23.252  25.992  1.00  0.00    -0.352 N 
ATOM     35  C   UNL A   1      45.734  23.879  26.988  1.00  0.00     0.251 C 
ATOM     36  H   UNL A   1      45.536  22.569  25.497  1.00  0.00     0.163 HD
ATOM     37  O   UNL A   1      46.949  23.711  27.055  1.00  0.00    -0.269 OA
BRANCH  35  38
ATOM     38  C   UNL A   1      45.065  24.757  27.977  1.00  0.00     0.039 A 
ATOM     39  C   UNL A   1      45.284  26.137  27.894  1.00  0.00     0.014 A 
ATOM     40  C   UNL A   1      44.297  24.241  29.023  1.00  0.00     0.014 A 
ATOM     41  C   UNL A   1      44.706  26.997  28.831  1.00  0.00     0.010 A 
ATOM     42  C   UNL A   1      43.664  25.105  29.918  1.00  0.00     0.010 A 
ATOM     43  C   UNL A   1      43.873  26.490  29.841  1.00  0.00    -0.014 A 
BRANCH  43  44
ATOM     44  C   UNL A   1      43.233  27.397  30.828  1.00  0.00     0.031 A 
ATOM     45  C   UNL A   1      43.869  27.637  32.170  1.00  0.00     0.074 A 
ATOM     46  C   UNL A   1      42.057  27.983  30.530  1.00  0.00     0.049 A 
ATOM     47  N   UNL A   1      43.453  28.387  33.160  1.00  0.00    -0.248 NA
ATOM     48  C   UNL A   1      45.127  26.926  32.444  1.00  0.00     0.031 C 
ATOM     49  C   UNL A   1      41.321  27.813  29.277  1.00  0.00     0.029 A 
ATOM     50  N   UNL A   1      41.277  28.843  31.261  1.00  0.00    -0.354 N 
ATOM     51  C   UNL A   1      44.388  28.227  34.175  1.00  0.00     0.074 A 
ATOM     52  C   UNL A   1      45.363  27.269  33.701  1.00  0.00     0.031 C 
ATOM     53  C   UNL A   1      40.218  28.578  29.308  1.00  0.00     0.029 A 
ATOM     54  C   UNL A   1      40.148  29.259  30.598  1.00  0.00     0.049 A 
ATOM     55  H   UNL A   1      41.506  29.136  32.172  1.00  0.00     0.167 HD
ATOM     56  C   UNL A   1      44.445  28.837  35.384  1.00  0.00     0.031 A 
ATOM     57  C   UNL A   1      39.169  30.099  30.981  1.00  0.00     0.031 A 
ATOM     58  C   UNL A   1      43.477  29.791  35.858  1.00  0.00     0.049 A 
ATOM     59  C   UNL A   1      39.237  30.741  32.337  1.00  0.00     0.074 A 
ATOM     60  C   UNL A   1      43.470  30.496  37.049  1.00  0.00     0.029 A 
ATOM     61  N   UNL A   1      42.338  30.168  35.163  1.00  0.00    -0.354 N 
ATOM     62  N   UNL A   1      40.160  30.625  33.261  1.00  0.00    -0.248 NA
ATOM     63  C   UNL A   1      38.132  31.641  32.697  1.00  0.00     0.031 C 
ATOM     64  C   UNL A   1      42.302  31.265  37.095  1.00  0.00     0.029 A 
ATOM     65  C   UNL A   1      41.610  31.080  35.909  1.00  0.00     0.049 A 
ATOM     66  H   UNL A   1      42.086  29.838  34.271  1.00  0.00     0.167 HD
ATOM     67  C   UNL A   1      39.763  31.458  34.299  1.00  0.00     0.074 A 
ATOM     68  C   UNL A   1      38.522  32.082  33.885  1.00  0.00     0.031 C 
ATOM     69  C   UNL A   1      40.375  31.688  35.487  1.00  0.00     0.031 A 
BRANCH  56  70
ATOM     70  C   UNL A   1      45.595  28.470  36.284  1.00  0.00    -0.014 A 
ATOM     71  C   UNL A   1      45.454  27.493  37.283  1.00  0.00     0.009 A 
ATOM     72  C   UNL A   1      46.838  29.103  36.126  1.00  0.00     0.009 A 
ATOM     73  C   UNL A   1      46.519  27.194  38.137  1.00  0.00     0.001 A 
ATOM     74  C   UNL A   1      47.909  28.778  36.961  1.00  0.00     0.001 A 
ATOM     75  C   UNL A   1      47.745  27.834  37.973  1.00  0.00     0.000 A 
ENDBRANCH  56  70
BRANCH  57  76
ATOM     76  C   UNL A   1      38.056  30.411  30.047  1.00  0.00    -0.014 A 
ATOM     77  C   UNL A   1      38.062  31.609  29.318  1.00  0.00     0.009 A 
ATOM     78  C   UNL A   1      36.993  29.512  29.870  1.00  0.00     0.009 A 
ATOM     79  C   UNL A   1      37.017  31.911  28.442  1.00  0.00     0.001 A 
ATOM     80  C   UNL A   1      35.962  29.804  28.975  1.00  0.00     0.001 A 
ATOM     81  C   UNL A   1      35.971  31.006  28.267  1.00  0.00     0.000 A 
ENDBRANCH  57  76
BRANCH  69  82
ATOM     82  C   UNL A   1      39.728  32.684  36.409  1.00  0.00    -0.014 A 
ATOM     83  C   UNL A   1      38.873  32.273  37.444  1.00  0.00     0.009 A 
ATOM     84  C   UNL A   1      40.010  34.050  36.261  1.00  0.00     0.009 A 
ATOM     85  C   UNL A   1      38.288  33.216  38.291  1.00  0.00     0.001 A 
ATOM     86  C   UNL A   1      39.445  34.988  37.127  1.00  0.00     0.001 A 
ATOM     87  C   UNL A   1      38.578  34.572  38.135  1.00  0.00     0.000 A 
ENDBRANCH  69  82
ENDBRANCH  43  44
ENDBRANCH  35  38
ENDBRANCH  33  34
ENDBRANCH  32  33
ENDBRANCH   1  32
TORSDOF 14
ENDMDL
