MODEL 1
REMARK VINA RESULT:     -13.4      0.000      0.000
REMARK SMILES Cc1c(NC(=O)c2ccc(-c3cccc(Cl)c3)o2)cccc1C(=O)NCCCNC(=O)c1ccc(-c2c3nc(c(-c4ccccc4)c4ccc([nH]4)c(-c4ccccc4)c4nc(c(-c5ccccc5)c5ccc2[nH]5)C=C4)C=C3)cc1
REMARK SMILES IDX 26 1 25 2 23 3 24 4 22 6 1 7 2 8 3 9 19 10 21 11 20 12 4 13
REMARK SMILES IDX 5 14 6 16 7 17 8 18 18 19 9 20 10 21 11 22 12 23 17 24 13 25
REMARK SMILES IDX 15 26 14 27 16 28 27 29 28 30 29 31 30 32 31 34 32 35 33 36
REMARK SMILES IDX 79 37 34 38 78 39 35 40 36 41 37 42 72 43 38 44 77 45 71 46
REMARK SMILES IDX 73 47 39 48 76 49 70 50 69 51 40 53 62 54 47 55 61 56 48 57
REMARK SMILES IDX 51 58 60 59 74 60 49 61 50 62 59 64 75 65 52 66 41 67 42 68
REMARK SMILES IDX 46 69 43 70 45 71 44 72 63 73 64 74 68 75 65 76 67 77 66 78
REMARK SMILES IDX 53 79 54 80 58 81 55 82 57 83 56 84
REMARK H PARENT 25 5 4 15 29 33 73 52 51 63
REMARK Flexibility Score: inf
ROOT
ATOM      1  C   UNL A   1      32.093  30.396  26.334  1.00  0.00     0.118 C 
ENDROOT
BRANCH   1   2
ATOM      2  N   UNL A   1      32.793  30.027  25.113  1.00  0.00    -0.352 N 
ATOM      3  C   UNL A   1      32.623  28.987  24.228  1.00  0.00     0.251 C 
ATOM      4  O   UNL A   1      33.344  28.954  23.231  1.00  0.00    -0.269 OA
ATOM      5  H   UNL A   1      33.527  30.637  24.874  1.00  0.00     0.163 HD
BRANCH   3   6
ATOM      6  C   UNL A   1      31.555  27.951  24.361  1.00  0.00     0.044 A 
ATOM      7  C   UNL A   1      32.747  26.494  26.081  1.00  0.00     0.047 C 
ATOM      8  C   UNL A   1      31.537  26.895  25.290  1.00  0.00    -0.015 A 
ATOM      9  C   UNL A   1      30.402  26.058  25.377  1.00  0.00     0.045 A 
ATOM     10  C   UNL A   1      29.399  26.144  24.410  1.00  0.00     0.026 A 
ATOM     11  C   UNL A   1      30.545  28.001  23.384  1.00  0.00     0.014 A 
ATOM     12  C   UNL A   1      29.495  27.084  23.388  1.00  0.00     0.003 A 
BRANCH   9  13
ATOM     13  N   UNL A   1      30.307  25.206  26.498  1.00  0.00    -0.319 N 
ATOM     14  C   UNL A   1      30.517  23.857  26.625  1.00  0.00     0.291 C 
ATOM     15  H   UNL A   1      30.045  25.659  27.332  1.00  0.00     0.170 HD
ATOM     16  O   UNL A   1      30.067  23.290  27.624  1.00  0.00    -0.265 OA
BRANCH  14  17
ATOM     17  C   UNL A   1      31.347  23.204  25.650  1.00  0.00     0.192 A 
ATOM     18  C   UNL A   1      31.065  22.645  24.417  1.00  0.00     0.057 A 
ATOM     19  O   UNL A   1      32.667  23.043  25.938  1.00  0.00    -0.451 OA
ATOM     20  C   UNL A   1      32.283  22.109  23.933  1.00  0.00     0.052 A 
ATOM     21  C   UNL A   1      33.227  22.354  24.908  1.00  0.00     0.135 A 
BRANCH  21  22
ATOM     22  C   UNL A   1      34.634  22.044  25.072  1.00  0.00     0.019 A 
ATOM     23  C   UNL A   1      35.111  20.748  24.846  1.00  0.00     0.012 A 
ATOM     24  C   UNL A   1      35.532  23.047  25.466  1.00  0.00     0.032 A 
ATOM     25  C   UNL A   1      36.469  20.461  25.001  1.00  0.00     0.002 A 
ATOM     26  C   UNL A   1      36.882  22.752  25.632  1.00  0.00     0.041 A 
ATOM     27  C   UNL A   1      37.355  21.463  25.398  1.00  0.00     0.020 A 
ATOM     28  Cl  UNL A   1      37.968  23.987  26.135  1.00  0.00    -0.084 Cl
ENDBRANCH  21  22
ENDBRANCH  14  17
ENDBRANCH   9  13
ENDBRANCH   3   6
ENDBRANCH   1   2
BRANCH   1  29
ATOM     29  C   UNL A   1      32.960  31.266  27.250  1.00  0.00     0.042 C 
BRANCH  29  30
ATOM     30  C   UNL A   1      34.277  30.653  27.690  1.00  0.00     0.118 C 
BRANCH  30  31
ATOM     31  N   UNL A   1      34.855  31.354  28.844  1.00  0.00    -0.352 N 
ATOM     32  C   UNL A   1      36.049  31.092  29.493  1.00  0.00     0.251 C 
ATOM     33  H   UNL A   1      34.327  32.104  29.202  1.00  0.00     0.163 HD
ATOM     34  O   UNL A   1      36.499  31.844  30.345  1.00  0.00    -0.269 OA
BRANCH  32  35
ATOM     35  C   UNL A   1      36.821  29.929  29.019  1.00  0.00     0.039 A 
ATOM     36  C   UNL A   1      37.178  28.984  29.981  1.00  0.00     0.014 A 
ATOM     37  C   UNL A   1      37.509  30.043  27.813  1.00  0.00     0.014 A 
ATOM     38  C   UNL A   1      38.406  28.351  29.860  1.00  0.00     0.010 A 
ATOM     39  C   UNL A   1      38.766  29.477  27.735  1.00  0.00     0.010 A 
ATOM     40  C   UNL A   1      39.245  28.705  28.800  1.00  0.00    -0.014 A 
BRANCH  40  41
ATOM     41  C   UNL A   1      40.660  28.361  28.797  1.00  0.00     0.031 A 
ATOM     42  C   UNL A   1      41.071  27.054  28.263  1.00  0.00     0.074 A 
ATOM     43  C   UNL A   1      41.599  29.147  29.373  1.00  0.00     0.049 A 
ATOM     44  N   UNL A   1      41.977  26.310  28.800  1.00  0.00    -0.248 NA
ATOM     45  C   UNL A   1      40.429  26.463  27.098  1.00  0.00     0.031 C 
ATOM     46  C   UNL A   1      43.043  28.924  29.367  1.00  0.00     0.029 A 
ATOM     47  N   UNL A   1      41.420  30.165  30.307  1.00  0.00    -0.354 N 
ATOM     48  C   UNL A   1      42.256  25.316  27.894  1.00  0.00     0.074 A 
ATOM     49  C   UNL A   1      41.196  25.386  26.912  1.00  0.00     0.031 C 
ATOM     50  C   UNL A   1      43.567  29.504  30.459  1.00  0.00     0.029 A 
ATOM     51  C   UNL A   1      42.468  30.047  31.237  1.00  0.00     0.049 A 
ATOM     52  H   UNL A   1      40.700  30.837  30.314  1.00  0.00     0.167 HD
ATOM     53  C   UNL A   1      43.438  24.642  27.962  1.00  0.00     0.031 A 
ATOM     54  C   UNL A   1      42.279  29.900  32.578  1.00  0.00     0.031 A 
ATOM     55  C   UNL A   1      44.277  25.084  29.075  1.00  0.00     0.049 A 
ATOM     56  C   UNL A   1      42.894  28.636  33.146  1.00  0.00     0.074 A 
ATOM     57  C   UNL A   1      45.404  25.888  29.158  1.00  0.00     0.029 A 
ATOM     58  N   UNL A   1      43.828  24.922  30.378  1.00  0.00    -0.354 N 
ATOM     59  N   UNL A   1      43.521  27.735  32.445  1.00  0.00    -0.248 NA
ATOM     60  C   UNL A   1      42.726  28.230  34.539  1.00  0.00     0.031 C 
ATOM     61  C   UNL A   1      45.636  26.197  30.526  1.00  0.00     0.029 A 
ATOM     62  C   UNL A   1      44.655  25.577  31.275  1.00  0.00     0.049 A 
ATOM     63  H   UNL A   1      43.027  24.408  30.632  1.00  0.00     0.167 HD
ATOM     64  C   UNL A   1      43.784  26.633  33.226  1.00  0.00     0.074 A 
ATOM     65  C   UNL A   1      43.264  26.998  34.532  1.00  0.00     0.031 C 
ATOM     66  C   UNL A   1      44.360  25.507  32.703  1.00  0.00     0.031 A 
BRANCH  53  67
ATOM     67  C   UNL A   1      43.939  23.806  26.809  1.00  0.00    -0.014 A 
ATOM     68  C   UNL A   1      44.757  24.387  25.825  1.00  0.00     0.009 A 
ATOM     69  C   UNL A   1      43.595  22.458  26.608  1.00  0.00     0.009 A 
ATOM     70  C   UNL A   1      45.100  23.706  24.650  1.00  0.00     0.001 A 
ATOM     71  C   UNL A   1      43.888  21.786  25.413  1.00  0.00     0.001 A 
ATOM     72  C   UNL A   1      44.631  22.419  24.426  1.00  0.00     0.000 A 
ENDBRANCH  53  67
BRANCH  54  73
ATOM     73  C   UNL A   1      41.026  30.529  33.072  1.00  0.00    -0.014 A 
ATOM     74  C   UNL A   1      41.003  31.932  33.197  1.00  0.00     0.009 A 
ATOM     75  C   UNL A   1      39.809  29.837  33.009  1.00  0.00     0.009 A 
ATOM     76  C   UNL A   1      39.798  32.634  33.114  1.00  0.00     0.001 A 
ATOM     77  C   UNL A   1      38.606  30.546  32.939  1.00  0.00     0.001 A 
ATOM     78  C   UNL A   1      38.604  31.941  32.946  1.00  0.00     0.000 A 
ENDBRANCH  54  73
BRANCH  66  79
ATOM     79  C   UNL A   1      44.696  24.214  33.430  1.00  0.00    -0.014 A 
ATOM     80  C   UNL A   1      43.795  23.183  33.716  1.00  0.00     0.009 A 
ATOM     81  C   UNL A   1      46.012  24.027  33.921  1.00  0.00     0.009 A 
ATOM     82  C   UNL A   1      44.198  22.008  34.374  1.00  0.00     0.001 A 
ATOM     83  C   UNL A   1      46.420  22.868  34.587  1.00  0.00     0.001 A 
ATOM     84  C   UNL A   1      45.512  21.846  34.801  1.00  0.00     0.000 A 
ENDBRANCH  66  79
ENDBRANCH  40  41
ENDBRANCH  32  35
ENDBRANCH  30  31
ENDBRANCH  29  30
ENDBRANCH   1  29
TORSDOF 13
ENDMDL
MODEL 2
REMARK VINA RESULT:     -13.1      3.192      8.409
REMARK SMILES Cc1c(NC(=O)c2ccc(-c3cccc(Cl)c3)o2)cccc1C(=O)NCCCNC(=O)c1ccc(-c2c3nc(c(-c4ccccc4)c4ccc([nH]4)c(-c4ccccc4)c4nc(c(-c5ccccc5)c5ccc2[nH]5)C=C4)C=C3)cc1
REMARK SMILES IDX 26 1 25 2 23 3 24 4 22 6 1 7 2 8 3 9 19 10 21 11 20 12 4 13
REMARK SMILES IDX 5 14 6 16 7 17 8 18 18 19 9 20 10 21 11 22 12 23 17 24 13 25
REMARK SMILES IDX 15 26 14 27 16 28 27 29 28 30 29 31 30 32 31 34 32 35 33 36
REMARK SMILES IDX 79 37 34 38 78 39 35 40 36 41 37 42 72 43 38 44 77 45 71 46
REMARK SMILES IDX 73 47 39 48 76 49 70 50 69 51 40 53 62 54 47 55 61 56 48 57
REMARK SMILES IDX 51 58 60 59 74 60 49 61 50 62 59 64 75 65 52 66 41 67 42 68
REMARK SMILES IDX 46 69 43 70 45 71 44 72 63 73 64 74 68 75 65 76 67 77 66 78
REMARK SMILES IDX 53 79 54 80 58 81 55 82 57 83 56 84
REMARK H PARENT 25 5 4 15 29 33 73 52 51 63
REMARK Flexibility Score: inf
ROOT
ATOM      1  C   UNL A   1      37.253  21.987  25.468  1.00  0.00     0.118 C 
ENDROOT
BRANCH   1   2
ATOM      2  N   UNL A   1      36.267  21.837  26.526  1.00  0.00    -0.352 N 
ATOM      3  C   UNL A   1      34.890  21.854  26.518  1.00  0.00     0.251 C 
ATOM      4  O   UNL A   1      34.305  21.642  27.580  1.00  0.00    -0.269 OA
ATOM      5  H   UNL A   1      36.658  21.694  27.418  1.00  0.00     0.163 HD
BRANCH   3   6
ATOM      6  C   UNL A   1      34.071  22.022  25.281  1.00  0.00     0.044 A 
ATOM      7  C   UNL A   1      34.789  24.412  24.755  1.00  0.00     0.047 C 
ATOM      8  C   UNL A   1      34.116  23.119  24.401  1.00  0.00    -0.015 A 
ATOM      9  C   UNL A   1      33.364  23.088  23.205  1.00  0.00     0.045 A 
ATOM     10  C   UNL A   1      32.425  22.075  22.999  1.00  0.00     0.026 A 
ATOM     11  C   UNL A   1      33.100  21.029  25.065  1.00  0.00     0.014 A 
ATOM     12  C   UNL A   1      32.261  21.073  23.952  1.00  0.00     0.003 A 
BRANCH   9  13
ATOM     13  N   UNL A   1      33.656  24.063  22.228  1.00  0.00    -0.319 N 
ATOM     14  C   UNL A   1      33.039  25.250  21.928  1.00  0.00     0.291 C 
ATOM     15  H   UNL A   1      34.438  23.857  21.667  1.00  0.00     0.170 HD
ATOM     16  O   UNL A   1      33.282  25.772  20.836  1.00  0.00    -0.265 OA
BRANCH  14  17
ATOM     17  C   UNL A   1      32.238  25.876  22.944  1.00  0.00     0.192 A 
ATOM     18  C   UNL A   1      30.896  25.771  23.264  1.00  0.00     0.057 A 
ATOM     19  O   UNL A   1      32.839  26.776  23.769  1.00  0.00    -0.451 OA
ATOM     20  C   UNL A   1      30.671  26.664  24.339  1.00  0.00     0.052 A 
ATOM     21  C   UNL A   1      31.882  27.273  24.596  1.00  0.00     0.135 A 
BRANCH  21  22
ATOM     22  C   UNL A   1      32.339  28.295  25.518  1.00  0.00     0.019 A 
ATOM     23  C   UNL A   1      33.440  28.065  26.350  1.00  0.00     0.012 A 
ATOM     24  C   UNL A   1      31.672  29.527  25.585  1.00  0.00     0.032 A 
ATOM     25  C   UNL A   1      33.876  29.057  27.231  1.00  0.00     0.002 A 
ATOM     26  C   UNL A   1      32.103  30.507  26.474  1.00  0.00     0.041 A 
ATOM     27  C   UNL A   1      33.204  30.279  27.296  1.00  0.00     0.020 A 
ATOM     28  Cl  UNL A   1      31.265  32.006  26.560  1.00  0.00    -0.084 Cl
ENDBRANCH  21  22
ENDBRANCH  14  17
ENDBRANCH   9  13
ENDBRANCH   3   6
ENDBRANCH   1   2
BRANCH   1  29
ATOM     29  C   UNL A   1      38.254  23.106  25.773  1.00  0.00     0.042 C 
BRANCH  29  30
ATOM     30  C   UNL A   1      39.514  22.683  26.506  1.00  0.00     0.118 C 
BRANCH  30  31
ATOM     31  N   UNL A   1      40.157  21.523  25.876  1.00  0.00    -0.352 N 
ATOM     32  C   UNL A   1      41.484  21.136  25.951  1.00  0.00     0.251 C 
ATOM     33  H   UNL A   1      39.572  20.947  25.333  1.00  0.00     0.163 HD
ATOM     34  O   UNL A   1      41.869  20.062  25.511  1.00  0.00    -0.269 OA
BRANCH  32  35
ATOM     35  C   UNL A   1      42.392  22.022  26.701  1.00  0.00     0.039 A 
ATOM     36  C   UNL A   1      42.424  21.853  28.086  1.00  0.00     0.014 A 
ATOM     37  C   UNL A   1      42.801  23.209  26.098  1.00  0.00     0.014 A 
ATOM     38  C   UNL A   1      42.587  22.976  28.885  1.00  0.00     0.010 A 
ATOM     39  C   UNL A   1      42.880  24.338  26.891  1.00  0.00     0.010 A 
ATOM     40  C   UNL A   1      42.684  24.228  28.273  1.00  0.00    -0.014 A 
BRANCH  40  41
ATOM     41  C   UNL A   1      42.503  25.463  29.025  1.00  0.00     0.031 A 
ATOM     42  C   UNL A   1      41.350  26.320  28.715  1.00  0.00     0.074 A 
ATOM     43  C   UNL A   1      43.418  25.910  29.916  1.00  0.00     0.049 A 
ATOM     44  N   UNL A   1      41.404  27.607  28.658  1.00  0.00    -0.248 NA
ATOM     45  C   UNL A   1      40.046  25.765  28.380  1.00  0.00     0.031 C 
ATOM     46  C   UNL A   1      43.301  27.095  30.763  1.00  0.00     0.029 A 
ATOM     47  N   UNL A   1      44.753  25.534  30.047  1.00  0.00    -0.354 N 
ATOM     48  C   UNL A   1      40.107  28.053  28.599  1.00  0.00     0.074 A 
ATOM     49  C   UNL A   1      39.312  26.878  28.315  1.00  0.00     0.031 C 
ATOM     50  C   UNL A   1      44.536  27.543  31.040  1.00  0.00     0.029 A 
ATOM     51  C   UNL A   1      45.478  26.709  30.315  1.00  0.00     0.049 A 
ATOM     52  H   UNL A   1      45.119  24.623  29.967  1.00  0.00     0.167 HD
ATOM     53  C   UNL A   1      39.805  29.331  28.962  1.00  0.00     0.031 A 
ATOM     54  C   UNL A   1      46.525  27.143  29.561  1.00  0.00     0.031 A 
ATOM     55  C   UNL A   1      40.985  30.098  29.360  1.00  0.00     0.049 A 
ATOM     56  C   UNL A   1      46.323  28.527  28.975  1.00  0.00     0.074 A 
ATOM     57  C   UNL A   1      41.497  30.492  30.587  1.00  0.00     0.029 A 
ATOM     58  N   UNL A   1      41.992  30.336  28.433  1.00  0.00    -0.354 N 
ATOM     59  N   UNL A   1      45.250  29.248  29.128  1.00  0.00    -0.248 NA
ATOM     60  C   UNL A   1      47.274  29.145  28.054  1.00  0.00     0.031 C 
ATOM     61  C   UNL A   1      42.816  30.983  30.387  1.00  0.00     0.029 A 
ATOM     62  C   UNL A   1      43.105  30.892  29.040  1.00  0.00     0.049 A 
ATOM     63  H   UNL A   1      41.922  30.137  27.472  1.00  0.00     0.167 HD
ATOM     64  C   UNL A   1      45.312  30.358  28.317  1.00  0.00     0.074 A 
ATOM     65  C   UNL A   1      46.605  30.244  27.666  1.00  0.00     0.031 C 
ATOM     66  C   UNL A   1      44.267  31.237  28.226  1.00  0.00     0.031 A 
BRANCH  53  67
ATOM     67  C   UNL A   1      38.386  29.759  29.250  1.00  0.00    -0.014 A 
ATOM     68  C   UNL A   1      37.770  30.730  28.444  1.00  0.00     0.009 A 
ATOM     69  C   UNL A   1      37.628  29.283  30.334  1.00  0.00     0.009 A 
ATOM     70  C   UNL A   1      36.527  31.287  28.774  1.00  0.00     0.001 A 
ATOM     71  C   UNL A   1      36.409  29.871  30.702  1.00  0.00     0.001 A 
ATOM     72  C   UNL A   1      35.866  30.885  29.927  1.00  0.00     0.000 A 
ENDBRANCH  53  67
BRANCH  54  73
ATOM     73  C   UNL A   1      47.274  26.043  28.897  1.00  0.00    -0.014 A 
ATOM     74  C   UNL A   1      46.866  25.663  27.603  1.00  0.00     0.009 A 
ATOM     75  C   UNL A   1      48.560  25.694  29.330  1.00  0.00     0.009 A 
ATOM     76  C   UNL A   1      47.773  25.078  26.715  1.00  0.00     0.001 A 
ATOM     77  C   UNL A   1      49.458  25.097  28.439  1.00  0.00     0.001 A 
ATOM     78  C   UNL A   1      49.079  24.832  27.123  1.00  0.00     0.000 A 
ENDBRANCH  54  73
BRANCH  66  79
ATOM     79  C   UNL A   1      44.181  32.491  27.369  1.00  0.00    -0.014 A 
ATOM     80  C   UNL A   1      44.281  32.533  25.974  1.00  0.00     0.009 A 
ATOM     81  C   UNL A   1      44.042  33.748  28.008  1.00  0.00     0.009 A 
ATOM     82  C   UNL A   1      44.167  33.737  25.259  1.00  0.00     0.001 A 
ATOM     83  C   UNL A   1      43.939  34.953  27.306  1.00  0.00     0.001 A 
ATOM     84  C   UNL A   1      43.986  34.946  25.922  1.00  0.00     0.000 A 
ENDBRANCH  66  79
ENDBRANCH  40  41
ENDBRANCH  32  35
ENDBRANCH  30  31
ENDBRANCH  29  30
ENDBRANCH   1  29
TORSDOF 13
ENDMDL
MODEL 3
REMARK VINA RESULT:     -13.0      1.681      2.103
REMARK SMILES Cc1c(NC(=O)c2ccc(-c3cccc(Cl)c3)o2)cccc1C(=O)NCCCNC(=O)c1ccc(-c2c3nc(c(-c4ccccc4)c4ccc([nH]4)c(-c4ccccc4)c4nc(c(-c5ccccc5)c5ccc2[nH]5)C=C4)C=C3)cc1
REMARK SMILES IDX 26 1 25 2 23 3 24 4 22 6 1 7 2 8 3 9 19 10 21 11 20 12 4 13
REMARK SMILES IDX 5 14 6 16 7 17 8 18 18 19 9 20 10 21 11 22 12 23 17 24 13 25
REMARK SMILES IDX 15 26 14 27 16 28 27 29 28 30 29 31 30 32 31 34 32 35 33 36
REMARK SMILES IDX 79 37 34 38 78 39 35 40 36 41 37 42 72 43 38 44 77 45 71 46
REMARK SMILES IDX 73 47 39 48 76 49 70 50 69 51 40 53 62 54 47 55 61 56 48 57
REMARK SMILES IDX 51 58 60 59 74 60 49 61 50 62 59 64 75 65 52 66 41 67 42 68
REMARK SMILES IDX 46 69 43 70 45 71 44 72 63 73 64 74 68 75 65 76 67 77 66 78
REMARK SMILES IDX 53 79 54 80 58 81 55 82 57 83 56 84
REMARK H PARENT 25 5 4 15 29 33 73 52 51 63
REMARK Flexibility Score: inf
ROOT
ATOM      1  C   UNL A   1      33.321  29.190  25.275  1.00  0.00     0.118 C 
ENDROOT
BRANCH   1   2
ATOM      2  N   UNL A   1      32.102  29.672  24.645  1.00  0.00    -0.352 N 
ATOM      3  C   UNL A   1      31.001  29.019  24.140  1.00  0.00     0.251 C 
ATOM      4  O   UNL A   1      30.074  29.703  23.704  1.00  0.00    -0.269 OA
ATOM      5  H   UNL A   1      32.056  30.652  24.566  1.00  0.00     0.163 HD
BRANCH   3   6
ATOM      6  C   UNL A   1      30.828  27.537  24.175  1.00  0.00     0.044 A 
ATOM      7  C   UNL A   1      30.968  27.265  26.706  1.00  0.00     0.047 C 
ATOM      8  C   UNL A   1      30.676  26.747  25.329  1.00  0.00    -0.015 A 
ATOM      9  C   UNL A   1      30.405  25.366  25.202  1.00  0.00     0.045 A 
ATOM     10  C   UNL A   1      30.496  24.751  23.952  1.00  0.00     0.026 A 
ATOM     11  C   UNL A   1      30.941  26.890  22.931  1.00  0.00     0.014 A 
ATOM     12  C   UNL A   1      30.810  25.506  22.825  1.00  0.00     0.003 A 
BRANCH   9  13
ATOM     13  N   UNL A   1      29.980  24.678  26.359  1.00  0.00    -0.319 N 
ATOM     14  C   UNL A   1      30.248  23.408  26.801  1.00  0.00     0.291 C 
ATOM     15  H   UNL A   1      29.391  25.200  26.949  1.00  0.00     0.170 HD
ATOM     16  O   UNL A   1      29.514  22.928  27.669  1.00  0.00    -0.265 OA
BRANCH  14  17
ATOM     17  C   UNL A   1      31.433  22.756  26.315  1.00  0.00     0.192 A 
ATOM     18  C   UNL A   1      32.755  23.158  26.255  1.00  0.00     0.057 A 
ATOM     19  O   UNL A   1      31.304  21.516  25.770  1.00  0.00    -0.451 OA
ATOM     20  C   UNL A   1      33.466  22.104  25.632  1.00  0.00     0.052 A 
ATOM     21  C   UNL A   1      32.533  21.134  25.332  1.00  0.00     0.135 A 
BRANCH  21  22
ATOM     22  C   UNL A   1      32.573  19.845  24.669  1.00  0.00     0.019 A 
ATOM     23  C   UNL A   1      32.387  19.747  23.286  1.00  0.00     0.012 A 
ATOM     24  C   UNL A   1      32.796  18.679  25.416  1.00  0.00     0.032 A 
ATOM     25  C   UNL A   1      32.433  18.501  22.656  1.00  0.00     0.002 A 
ATOM     26  C   UNL A   1      32.828  17.439  24.785  1.00  0.00     0.041 A 
ATOM     27  C   UNL A   1      32.651  17.345  23.407  1.00  0.00     0.020 A 
ATOM     28  Cl  UNL A   1      33.083  16.016  25.716  1.00  0.00    -0.084 Cl
ENDBRANCH  21  22
ENDBRANCH  14  17
ENDBRANCH   9  13
ENDBRANCH   3   6
ENDBRANCH   1   2
BRANCH   1  29
ATOM     29  C   UNL A   1      33.912  30.220  26.242  1.00  0.00     0.042 C 
BRANCH  29  30
ATOM     30  C   UNL A   1      33.984  29.795  27.698  1.00  0.00     0.118 C 
BRANCH  30  31
ATOM     31  N   UNL A   1      34.576  30.835  28.549  1.00  0.00    -0.352 N 
ATOM     32  C   UNL A   1      35.872  30.911  29.030  1.00  0.00     0.251 C 
ATOM     33  H   UNL A   1      33.977  31.571  28.811  1.00  0.00     0.163 HD
ATOM     34  O   UNL A   1      36.291  31.908  29.601  1.00  0.00    -0.269 OA
BRANCH  32  35
ATOM     35  C   UNL A   1      36.766  29.784  28.709  1.00  0.00     0.039 A 
ATOM     36  C   UNL A   1      37.131  28.956  29.771  1.00  0.00     0.014 A 
ATOM     37  C   UNL A   1      37.524  29.857  27.542  1.00  0.00     0.014 A 
ATOM     38  C   UNL A   1      38.412  28.423  29.783  1.00  0.00     0.010 A 
ATOM     39  C   UNL A   1      38.825  29.397  27.593  1.00  0.00     0.010 A 
ATOM     40  C   UNL A   1      39.290  28.760  28.749  1.00  0.00    -0.014 A 
BRANCH  40  41
ATOM     41  C   UNL A   1      40.725  28.541  28.864  1.00  0.00     0.031 A 
ATOM     42  C   UNL A   1      41.303  27.317  28.290  1.00  0.00     0.074 A 
ATOM     43  C   UNL A   1      41.530  29.360  29.580  1.00  0.00     0.049 A 
ATOM     44  N   UNL A   1      42.221  26.616  28.866  1.00  0.00    -0.248 NA
ATOM     45  C   UNL A   1      40.830  26.759  27.032  1.00  0.00     0.031 C 
ATOM     46  C   UNL A   1      42.982  29.263  29.704  1.00  0.00     0.029 A 
ATOM     47  N   UNL A   1      41.171  30.288  30.556  1.00  0.00    -0.354 N 
ATOM     48  C   UNL A   1      42.674  25.719  27.930  1.00  0.00     0.074 A 
ATOM     49  C   UNL A   1      41.709  25.769  26.854  1.00  0.00     0.031 C 
ATOM     50  C   UNL A   1      43.346  29.805  30.877  1.00  0.00     0.029 A 
ATOM     51  C   UNL A   1      42.134  30.193  31.575  1.00  0.00     0.049 A 
ATOM     52  H   UNL A   1      40.394  30.893  30.535  1.00  0.00     0.167 HD
ATOM     53  C   UNL A   1      43.902  25.146  28.070  1.00  0.00     0.031 A 
ATOM     54  C   UNL A   1      41.836  29.933  32.879  1.00  0.00     0.031 A 
ATOM     55  C   UNL A   1      44.590  25.576  29.287  1.00  0.00     0.049 A 
ATOM     56  C   UNL A   1      42.510  28.688  33.423  1.00  0.00     0.074 A 
ATOM     57  C   UNL A   1      45.624  26.466  29.534  1.00  0.00     0.029 A 
ATOM     58  N   UNL A   1      44.038  25.281  30.527  1.00  0.00    -0.354 N 
ATOM     59  N   UNL A   1      43.281  27.898  32.730  1.00  0.00    -0.248 NA
ATOM     60  C   UNL A   1      42.252  28.167  34.763  1.00  0.00     0.031 C 
ATOM     61  C   UNL A   1      45.698  26.693  30.935  1.00  0.00     0.029 A 
ATOM     62  C   UNL A   1      44.714  25.938  31.541  1.00  0.00     0.049 A 
ATOM     63  H   UNL A   1      43.269  24.683  30.666  1.00  0.00     0.167 HD
ATOM     64  C   UNL A   1      43.571  26.769  33.461  1.00  0.00     0.074 A 
ATOM     65  C   UNL A   1      42.901  26.991  34.729  1.00  0.00     0.031 C 
ATOM     66  C   UNL A   1      44.295  25.738  32.926  1.00  0.00     0.031 A 
BRANCH  53  67
ATOM     67  C   UNL A   1      44.584  24.443  26.921  1.00  0.00    -0.014 A 
ATOM     68  C   UNL A   1      44.787  23.054  26.970  1.00  0.00     0.009 A 
ATOM     69  C   UNL A   1      45.098  25.103  25.791  1.00  0.00     0.009 A 
ATOM     70  C   UNL A   1      45.568  22.385  26.018  1.00  0.00     0.001 A 
ATOM     71  C   UNL A   1      45.923  24.453  24.863  1.00  0.00     0.001 A 
ATOM     72  C   UNL A   1      46.170  23.093  24.986  1.00  0.00     0.000 A 
ENDBRANCH  53  67
BRANCH  54  73
ATOM     73  C   UNL A   1      40.489  30.413  33.286  1.00  0.00    -0.014 A 
ATOM     74  C   UNL A   1      40.265  31.804  33.290  1.00  0.00     0.009 A 
ATOM     75  C   UNL A   1      39.385  29.550  33.252  1.00  0.00     0.009 A 
ATOM     76  C   UNL A   1      38.977  32.316  33.117  1.00  0.00     0.001 A 
ATOM     77  C   UNL A   1      38.097  30.072  33.092  1.00  0.00     0.001 A 
ATOM     78  C   UNL A   1      37.899  31.448  32.979  1.00  0.00     0.000 A 
ENDBRANCH  54  73
BRANCH  66  79
ATOM     79  C   UNL A   1      44.681  24.429  33.597  1.00  0.00    -0.014 A 
ATOM     80  C   UNL A   1      43.810  23.373  33.884  1.00  0.00     0.009 A 
ATOM     81  C   UNL A   1      46.018  24.251  34.031  1.00  0.00     0.009 A 
ATOM     82  C   UNL A   1      44.258  22.185  34.488  1.00  0.00     0.001 A 
ATOM     83  C   UNL A   1      46.471  23.078  34.644  1.00  0.00     0.001 A 
ATOM     84  C   UNL A   1      45.589  22.033  34.859  1.00  0.00     0.000 A 
ENDBRANCH  66  79
ENDBRANCH  40  41
ENDBRANCH  32  35
ENDBRANCH  30  31
ENDBRANCH  29  30
ENDBRANCH   1  29
TORSDOF 13
ENDMDL
