MODEL 1
REMARK VINA RESULT:      -9.7      0.000      0.000
REMARK SMILES CCc1ccc2[nH]c(C(=O)c3cc(C)ccn3)c(CC(=O)NCCCNC(=O)c3ccc(-c4c5nc(c(-c6ccccc6)c6ccc([nH]6)c(-c6ccccc6)c6nc(c(-c7ccccc7)c7ccc4[nH]7)C=C6)C=C5)cc3)c2c1
REMARK SMILES IDX 23 1 22 2 20 3 21 4 19 6 18 7 3 8 4 9 78 10 5 11 77 12 6 13
REMARK SMILES IDX 7 14 8 15 2 17 1 18 9 19 10 20 11 21 12 22 17 23 13 24 16 25
REMARK SMILES IDX 14 26 15 27 24 28 25 29 26 30 27 31 28 33 29 34 30 35 76 36
REMARK SMILES IDX 31 37 75 38 32 39 33 40 34 41 69 42 35 43 74 44 68 45 70 46
REMARK SMILES IDX 36 47 73 48 67 49 66 50 37 52 59 53 44 54 58 55 45 56 48 57
REMARK SMILES IDX 57 58 71 59 46 60 47 61 56 63 72 64 49 65 38 66 39 67 43 68
REMARK SMILES IDX 40 69 42 70 41 71 60 72 61 73 65 74 62 75 64 76 63 77 50 78
REMARK SMILES IDX 51 79 55 80 52 81 54 82 53 83
REMARK H PARENT 22 5 7 16 26 32 70 51 48 62
REMARK Flexibility Score: inf
ROOT
ATOM      1  C   UNL A   1      34.597  35.814  33.144  1.00  0.00     0.117 C 
ENDROOT
BRANCH   1   2
ATOM      2  N   UNL A   1      34.660  34.896  34.262  1.00  0.00    -0.356 N 
ATOM      3  C   UNL A   1      35.741  34.319  34.862  1.00  0.00     0.224 C 
ATOM      4  O   UNL A   1      35.536  33.742  35.932  1.00  0.00    -0.275 OA
ATOM      5  H   UNL A   1      33.788  34.650  34.648  1.00  0.00     0.163 HD
BRANCH   3   6
ATOM      6  C   UNL A   1      37.149  34.498  34.305  1.00  0.00     0.138 C 
BRANCH   6   7
ATOM      7  C   UNL A   1      38.224  33.713  35.013  1.00  0.00    -0.002 A 
ATOM      8  C   UNL A   1      40.053  35.605  37.825  1.00  0.00    -0.048 A 
ATOM      9  C   UNL A   1      40.929  34.559  38.131  1.00  0.00     0.006 A 
ATOM     10  C   UNL A   1      39.095  35.418  36.812  1.00  0.00     0.014 A 
ATOM     11  C   UNL A   1      40.893  33.343  37.439  1.00  0.00     0.027 A 
ATOM     12  C   UNL A   1      39.035  34.202  36.095  1.00  0.00     0.004 A 
ATOM     13  C   UNL A   1      39.935  33.198  36.430  1.00  0.00     0.046 A 
ATOM     14  N   UNL A   1      39.674  32.133  35.605  1.00  0.00    -0.352 N 
ATOM     15  C   UNL A   1      38.579  32.379  34.802  1.00  0.00     0.093 A 
ATOM     16  H   UNL A   1      40.199  31.301  35.590  1.00  0.00     0.167 HD
BRANCH   8  17
ATOM     17  C   UNL A   1      40.081  36.905  38.596  1.00  0.00     0.032 C 
ATOM     18  C   UNL A   1      39.104  36.955  39.763  1.00  0.00     0.009 C 
ENDBRANCH   8  17
BRANCH  15  19
ATOM     19  C   UNL A   1      37.960  31.401  33.913  1.00  0.00     0.227 C 
ATOM     20  O   UNL A   1      36.780  31.450  33.569  1.00  0.00    -0.285 OA
BRANCH  19  21
ATOM     21  C   UNL A   1      38.764  30.242  33.444  1.00  0.00     0.113 A 
ATOM     22  C   UNL A   1      38.140  29.202  32.758  1.00  0.00     0.036 A 
ATOM     23  N   UNL A   1      40.092  30.278  33.720  1.00  0.00    -0.253 NA
ATOM     24  C   UNL A   1      38.924  28.129  32.327  1.00  0.00    -0.047 A 
ATOM     25  C   UNL A   1      40.830  29.250  33.258  1.00  0.00     0.112 A 
ATOM     26  C   UNL A   1      38.321  26.971  31.591  1.00  0.00     0.044 C 
ATOM     27  C   UNL A   1      40.300  28.167  32.572  1.00  0.00     0.023 A 
ENDBRANCH  19  21
ENDBRANCH  15  19
ENDBRANCH   6   7
ENDBRANCH   3   6
ENDBRANCH   1   2
BRANCH   1  28
ATOM     28  C   UNL A   1      33.384  35.581  32.248  1.00  0.00     0.042 C 
BRANCH  28  29
ATOM     29  C   UNL A   1      33.453  36.286  30.896  1.00  0.00     0.118 C 
BRANCH  29  30
ATOM     30  N   UNL A   1      32.781  35.548  29.835  1.00  0.00    -0.352 N 
ATOM     31  C   UNL A   1      33.221  34.521  29.038  1.00  0.00     0.251 C 
ATOM     32  H   UNL A   1      31.855  35.835  29.660  1.00  0.00     0.163 HD
ATOM     33  O   UNL A   1      32.530  34.156  28.091  1.00  0.00    -0.269 OA
BRANCH  31  34
ATOM     34  C   UNL A   1      34.521  33.858  29.287  1.00  0.00     0.039 A 
ATOM     35  C   UNL A   1      35.614  34.216  28.490  1.00  0.00     0.014 A 
ATOM     36  C   UNL A   1      34.664  32.856  30.251  1.00  0.00     0.014 A 
ATOM     37  C   UNL A   1      36.860  33.618  28.700  1.00  0.00     0.010 A 
ATOM     38  C   UNL A   1      35.920  32.305  30.502  1.00  0.00     0.010 A 
ATOM     39  C   UNL A   1      37.030  32.681  29.731  1.00  0.00    -0.014 A 
BRANCH  39  40
ATOM     40  C   UNL A   1      38.363  32.096  30.023  1.00  0.00     0.031 A 
ATOM     41  C   UNL A   1      39.374  32.863  30.831  1.00  0.00     0.074 A 
ATOM     42  C   UNL A   1      38.692  30.897  29.504  1.00  0.00     0.049 A 
ATOM     43  N   UNL A   1      40.610  32.544  31.123  1.00  0.00    -0.248 NA
ATOM     44  C   UNL A   1      38.947  34.167  31.361  1.00  0.00     0.031 C 
ATOM     45  C   UNL A   1      37.817  30.063  28.676  1.00  0.00     0.029 A 
ATOM     46  N   UNL A   1      39.856  30.175  29.589  1.00  0.00    -0.354 N 
ATOM     47  C   UNL A   1      41.113  33.613  31.851  1.00  0.00     0.074 A 
ATOM     48  C   UNL A   1      40.062  34.605  31.927  1.00  0.00     0.031 C 
ATOM     49  C   UNL A   1      38.468  28.936  28.348  1.00  0.00     0.029 A 
ATOM     50  C   UNL A   1      39.814  28.983  28.908  1.00  0.00     0.049 A 
ATOM     51  H   UNL A   1      40.645  30.483  30.092  1.00  0.00     0.167 HD
ATOM     52  C   UNL A   1      42.337  33.754  32.417  1.00  0.00     0.031 A 
ATOM     53  C   UNL A   1      40.757  28.036  28.746  1.00  0.00     0.031 A 
ATOM     54  C   UNL A   1      43.379  32.766  32.359  1.00  0.00     0.049 A 
ATOM     55  C   UNL A   1      42.105  28.216  29.382  1.00  0.00     0.074 A 
ATOM     56  C   UNL A   1      44.631  32.797  32.950  1.00  0.00     0.029 A 
ATOM     57  N   UNL A   1      43.292  31.566  31.671  1.00  0.00    -0.354 N 
ATOM     58  N   UNL A   1      42.547  29.211  30.112  1.00  0.00    -0.248 NA
ATOM     59  C   UNL A   1      43.082  27.136  29.178  1.00  0.00     0.031 C 
ATOM     60  C   UNL A   1      45.316  31.631  32.587  1.00  0.00     0.029 A 
ATOM     61  C   UNL A   1      44.474  30.857  31.806  1.00  0.00     0.049 A 
ATOM     62  H   UNL A   1      42.506  31.264  31.161  1.00  0.00     0.167 HD
ATOM     63  C   UNL A   1      43.842  28.868  30.474  1.00  0.00     0.074 A 
ATOM     64  C   UNL A   1      44.112  27.569  29.893  1.00  0.00     0.031 C 
ATOM     65  C   UNL A   1      44.728  29.567  31.222  1.00  0.00     0.031 A 
BRANCH  52  66
ATOM     66  C   UNL A   1      42.615  35.039  33.146  1.00  0.00    -0.014 A 
ATOM     67  C   UNL A   1      43.253  36.113  32.507  1.00  0.00     0.009 A 
ATOM     68  C   UNL A   1      42.201  35.188  34.479  1.00  0.00     0.009 A 
ATOM     69  C   UNL A   1      43.501  37.300  33.199  1.00  0.00     0.001 A 
ATOM     70  C   UNL A   1      42.429  36.385  35.161  1.00  0.00     0.001 A 
ATOM     71  C   UNL A   1      43.087  37.436  34.523  1.00  0.00     0.000 A 
ENDBRANCH  52  66
BRANCH  53  72
ATOM     72  C   UNL A   1      40.452  26.817  27.955  1.00  0.00    -0.014 A 
ATOM     73  C   UNL A   1      39.742  25.754  28.535  1.00  0.00     0.009 A 
ATOM     74  C   UNL A   1      40.868  26.710  26.619  1.00  0.00     0.009 A 
ATOM     75  C   UNL A   1      39.472  24.600  27.799  1.00  0.00     0.001 A 
ATOM     76  C   UNL A   1      40.577  25.563  25.878  1.00  0.00     0.001 A 
ATOM     77  C   UNL A   1      39.887  24.506  26.471  1.00  0.00     0.000 A 
ENDBRANCH  53  72
BRANCH  65  78
ATOM     78  C   UNL A   1      46.060  28.927  31.483  1.00  0.00    -0.014 A 
ATOM     79  C   UNL A   1      47.178  29.231  30.690  1.00  0.00     0.009 A 
ATOM     80  C   UNL A   1      46.207  28.038  32.558  1.00  0.00     0.009 A 
ATOM     81  C   UNL A   1      48.412  28.633  30.955  1.00  0.00     0.001 A 
ATOM     82  C   UNL A   1      47.447  27.460  32.835  1.00  0.00     0.001 A 
ATOM     83  C   UNL A   1      48.546  27.752  32.028  1.00  0.00     0.000 A 
ENDBRANCH  65  78
ENDBRANCH  39  40
ENDBRANCH  31  34
ENDBRANCH  29  30
ENDBRANCH  28  29
ENDBRANCH   1  28
TORSDOF 14
ENDMDL
MODEL 2
REMARK VINA RESULT:      -9.6      0.389      5.815
REMARK SMILES CCc1ccc2[nH]c(C(=O)c3cc(C)ccn3)c(CC(=O)NCCCNC(=O)c3ccc(-c4c5nc(c(-c6ccccc6)c6ccc([nH]6)c(-c6ccccc6)c6nc(c(-c7ccccc7)c7ccc4[nH]7)C=C6)C=C5)cc3)c2c1
REMARK SMILES IDX 23 1 22 2 20 3 21 4 19 6 18 7 3 8 4 9 78 10 5 11 77 12 6 13
REMARK SMILES IDX 7 14 8 15 2 17 1 18 9 19 10 20 11 21 12 22 17 23 13 24 16 25
REMARK SMILES IDX 14 26 15 27 24 28 25 29 26 30 27 31 28 33 29 34 30 35 76 36
REMARK SMILES IDX 31 37 75 38 32 39 33 40 34 41 69 42 35 43 74 44 68 45 70 46
REMARK SMILES IDX 36 47 73 48 67 49 66 50 37 52 59 53 44 54 58 55 45 56 48 57
REMARK SMILES IDX 57 58 71 59 46 60 47 61 56 63 72 64 49 65 38 66 39 67 43 68
REMARK SMILES IDX 40 69 42 70 41 71 60 72 61 73 65 74 62 75 64 76 63 77 50 78
REMARK SMILES IDX 51 79 55 80 52 81 54 82 53 83
REMARK H PARENT 22 5 7 16 26 32 70 51 48 62
REMARK Flexibility Score: inf
ROOT
ATOM      1  C   UNL A   1      34.706  35.660  32.881  1.00  0.00     0.117 C 
ENDROOT
BRANCH   1   2
ATOM      2  N   UNL A   1      34.658  34.877  34.098  1.00  0.00    -0.356 N 
ATOM      3  C   UNL A   1      35.675  34.374  34.856  1.00  0.00     0.224 C 
ATOM      4  O   UNL A   1      35.368  33.923  35.962  1.00  0.00    -0.275 OA
ATOM      5  H   UNL A   1      33.752  34.677  34.429  1.00  0.00     0.163 HD
BRANCH   3   6
ATOM      6  C   UNL A   1      37.129  34.488  34.413  1.00  0.00     0.138 C 
BRANCH   6   7
ATOM      7  C   UNL A   1      38.103  33.629  35.179  1.00  0.00    -0.002 A 
ATOM      8  C   UNL A   1      39.761  35.331  38.210  1.00  0.00    -0.048 A 
ATOM      9  C   UNL A   1      40.560  34.234  38.548  1.00  0.00     0.006 A 
ATOM     10  C   UNL A   1      38.888  35.225  37.113  1.00  0.00     0.014 A 
ATOM     11  C   UNL A   1      40.531  33.047  37.807  1.00  0.00     0.027 A 
ATOM     12  C   UNL A   1      38.837  34.040  36.344  1.00  0.00     0.004 A 
ATOM     13  C   UNL A   1      39.660  32.983  36.716  1.00  0.00     0.046 A 
ATOM     14  N   UNL A   1      39.425  31.962  35.829  1.00  0.00    -0.352 N 
ATOM     15  C   UNL A   1      38.417  32.288  34.946  1.00  0.00     0.093 A 
ATOM     16  H   UNL A   1      39.913  31.107  35.826  1.00  0.00     0.167 HD
BRANCH   8  17
ATOM     17  C   UNL A   1      39.779  36.600  39.031  1.00  0.00     0.032 C 
ATOM     18  C   UNL A   1      41.143  37.272  39.101  1.00  0.00     0.009 C 
ENDBRANCH   8  17
BRANCH  15  19
ATOM     19  C   UNL A   1      37.835  31.372  33.969  1.00  0.00     0.227 C 
ATOM     20  O   UNL A   1      36.678  31.462  33.562  1.00  0.00    -0.285 OA
BRANCH  19  21
ATOM     21  C   UNL A   1      38.647  30.227  33.481  1.00  0.00     0.113 A 
ATOM     22  C   UNL A   1      38.033  29.200  32.768  1.00  0.00     0.036 A 
ATOM     23  N   UNL A   1      39.973  30.263  33.767  1.00  0.00    -0.253 NA
ATOM     24  C   UNL A   1      38.824  28.140  32.320  1.00  0.00    -0.047 A 
ATOM     25  C   UNL A   1      40.719  29.248  33.288  1.00  0.00     0.112 A 
ATOM     26  C   UNL A   1      38.232  26.996  31.554  1.00  0.00     0.044 C 
ATOM     27  C   UNL A   1      40.198  28.179  32.575  1.00  0.00     0.023 A 
ENDBRANCH  19  21
ENDBRANCH  15  19
ENDBRANCH   6   7
ENDBRANCH   3   6
ENDBRANCH   1   2
BRANCH   1  28
ATOM     28  C   UNL A   1      33.381  35.670  32.126  1.00  0.00     0.042 C 
BRANCH  28  29
ATOM     29  C   UNL A   1      33.455  36.276  30.726  1.00  0.00     0.118 C 
BRANCH  29  30
ATOM     30  N   UNL A   1      32.792  35.461  29.717  1.00  0.00    -0.352 N 
ATOM     31  C   UNL A   1      33.252  34.406  28.972  1.00  0.00     0.251 C 
ATOM     32  H   UNL A   1      31.855  35.711  29.540  1.00  0.00     0.163 HD
ATOM     33  O   UNL A   1      32.561  33.969  28.056  1.00  0.00    -0.269 OA
BRANCH  31  34
ATOM     34  C   UNL A   1      34.575  33.796  29.237  1.00  0.00     0.039 A 
ATOM     35  C   UNL A   1      35.648  34.148  28.411  1.00  0.00     0.014 A 
ATOM     36  C   UNL A   1      34.759  32.846  30.246  1.00  0.00     0.014 A 
ATOM     37  C   UNL A   1      36.914  33.600  28.636  1.00  0.00     0.010 A 
ATOM     38  C   UNL A   1      36.034  32.347  30.509  1.00  0.00     0.010 A 
ATOM     39  C   UNL A   1      37.124  32.719  29.708  1.00  0.00    -0.014 A 
BRANCH  39  40
ATOM     40  C   UNL A   1      38.478  32.191  30.013  1.00  0.00     0.031 A 
ATOM     41  C   UNL A   1      38.920  30.862  29.466  1.00  0.00     0.074 A 
ATOM     42  C   UNL A   1      39.289  32.879  30.840  1.00  0.00     0.049 A 
ATOM     43  N   UNL A   1      40.035  30.210  29.684  1.00  0.00    -0.248 NA
ATOM     44  C   UNL A   1      37.980  30.166  28.574  1.00  0.00     0.031 C 
ATOM     45  C   UNL A   1      38.971  34.164  31.464  1.00  0.00     0.029 A 
ATOM     46  N   UNL A   1      40.548  32.587  31.303  1.00  0.00    -0.354 N 
ATOM     47  C   UNL A   1      39.921  29.021  28.977  1.00  0.00     0.074 A 
ATOM     48  C   UNL A   1      38.616  29.025  28.351  1.00  0.00     0.031 C 
ATOM     49  C   UNL A   1      40.014  34.559  32.212  1.00  0.00     0.029 A 
ATOM     50  C   UNL A   1      41.057  33.541  32.150  1.00  0.00     0.049 A 
ATOM     51  H   UNL A   1      41.039  31.771  31.052  1.00  0.00     0.167 HD
ATOM     52  C   UNL A   1      40.824  28.019  28.849  1.00  0.00     0.031 A 
ATOM     53  C   UNL A   1      42.229  33.589  32.810  1.00  0.00     0.031 A 
ATOM     54  C   UNL A   1      42.129  28.016  29.455  1.00  0.00     0.049 A 
ATOM     55  C   UNL A   1      43.213  32.465  32.652  1.00  0.00     0.074 A 
ATOM     56  C   UNL A   1      43.133  27.072  29.336  1.00  0.00     0.029 A 
ATOM     57  N   UNL A   1      42.610  29.008  30.295  1.00  0.00    -0.354 N 
ATOM     58  N   UNL A   1      43.110  31.372  31.937  1.00  0.00    -0.248 NA
ATOM     59  C   UNL A   1      44.480  32.588  33.388  1.00  0.00     0.031 C 
ATOM     60  C   UNL A   1      44.210  27.474  30.134  1.00  0.00     0.029 A 
ATOM     61  C   UNL A   1      43.890  28.689  30.716  1.00  0.00     0.049 A 
ATOM     62  H   UNL A   1      42.115  29.819  30.553  1.00  0.00     0.167 HD
ATOM     63  C   UNL A   1      44.305  30.689  32.116  1.00  0.00     0.074 A 
ATOM     64  C   UNL A   1      45.123  31.495  32.999  1.00  0.00     0.031 C 
ATOM     65  C   UNL A   1      44.691  29.500  31.595  1.00  0.00     0.031 A 
BRANCH  52  66
ATOM     66  C   UNL A   1      40.424  26.831  28.021  1.00  0.00    -0.014 A 
ATOM     67  C   UNL A   1      40.838  26.703  26.686  1.00  0.00     0.009 A 
ATOM     68  C   UNL A   1      39.653  25.808  28.595  1.00  0.00     0.009 A 
ATOM     69  C   UNL A   1      40.459  25.591  25.932  1.00  0.00     0.001 A 
ATOM     70  C   UNL A   1      39.295  24.685  27.845  1.00  0.00     0.001 A 
ATOM     71  C   UNL A   1      39.692  24.582  26.512  1.00  0.00     0.000 A 
ENDBRANCH  52  66
BRANCH  53  72
ATOM     72  C   UNL A   1      42.545  34.754  33.672  1.00  0.00    -0.014 A 
ATOM     73  C   UNL A   1      43.134  35.904  33.124  1.00  0.00     0.009 A 
ATOM     74  C   UNL A   1      42.260  34.724  35.046  1.00  0.00     0.009 A 
ATOM     75  C   UNL A   1      43.451  36.992  33.937  1.00  0.00     0.001 A 
ATOM     76  C   UNL A   1      42.557  35.824  35.854  1.00  0.00     0.001 A 
ATOM     77  C   UNL A   1      43.159  36.953  35.300  1.00  0.00     0.000 A 
ENDBRANCH  53  72
BRANCH  65  78
ATOM     78  C   UNL A   1      46.069  29.015  31.939  1.00  0.00    -0.014 A 
ATOM     79  C   UNL A   1      46.289  28.183  33.047  1.00  0.00     0.009 A 
ATOM     80  C   UNL A   1      47.154  29.365  31.122  1.00  0.00     0.009 A 
ATOM     81  C   UNL A   1      47.576  27.733  33.346  1.00  0.00     0.001 A 
ATOM     82  C   UNL A   1      48.436  28.896  31.409  1.00  0.00     0.001 A 
ATOM     83  C   UNL A   1      48.647  28.087  32.524  1.00  0.00     0.000 A 
ENDBRANCH  65  78
ENDBRANCH  39  40
ENDBRANCH  31  34
ENDBRANCH  29  30
ENDBRANCH  28  29
ENDBRANCH   1  28
TORSDOF 14
ENDMDL
MODEL 3
REMARK VINA RESULT:      -9.5      5.936     11.922
REMARK SMILES CCc1ccc2[nH]c(C(=O)c3cc(C)ccn3)c(CC(=O)NCCCNC(=O)c3ccc(-c4c5nc(c(-c6ccccc6)c6ccc([nH]6)c(-c6ccccc6)c6nc(c(-c7ccccc7)c7ccc4[nH]7)C=C6)C=C5)cc3)c2c1
REMARK SMILES IDX 23 1 22 2 20 3 21 4 19 6 18 7 3 8 4 9 78 10 5 11 77 12 6 13
REMARK SMILES IDX 7 14 8 15 2 17 1 18 9 19 10 20 11 21 12 22 17 23 13 24 16 25
REMARK SMILES IDX 14 26 15 27 24 28 25 29 26 30 27 31 28 33 29 34 30 35 76 36
REMARK SMILES IDX 31 37 75 38 32 39 33 40 34 41 69 42 35 43 74 44 68 45 70 46
REMARK SMILES IDX 36 47 73 48 67 49 66 50 37 52 59 53 44 54 58 55 45 56 48 57
REMARK SMILES IDX 57 58 71 59 46 60 47 61 56 63 72 64 49 65 38 66 39 67 43 68
REMARK SMILES IDX 40 69 42 70 41 71 60 72 61 73 65 74 62 75 64 76 63 77 50 78
REMARK SMILES IDX 51 79 55 80 52 81 54 82 53 83
REMARK H PARENT 22 5 7 16 26 32 70 51 48 62
REMARK Flexibility Score: inf
ROOT
ATOM      1  C   UNL A   1      36.088  20.477  24.777  1.00  0.00     0.117 C 
ENDROOT
BRANCH   1   2
ATOM      2  N   UNL A   1      35.666  21.146  25.990  1.00  0.00    -0.356 N 
ATOM      3  C   UNL A   1      34.940  22.291  26.151  1.00  0.00     0.224 C 
ATOM      4  O   UNL A   1      34.533  22.530  27.291  1.00  0.00    -0.275 OA
ATOM      5  H   UNL A   1      35.945  20.708  26.826  1.00  0.00     0.163 HD
BRANCH   3   6
ATOM      6  C   UNL A   1      34.540  23.154  24.960  1.00  0.00     0.138 C 
BRANCH   6   7
ATOM      7  C   UNL A   1      33.074  23.495  24.877  1.00  0.00    -0.002 A 
ATOM      8  C   UNL A   1      32.067  26.823  26.534  1.00  0.00    -0.048 A 
ATOM      9  C   UNL A   1      30.702  26.691  26.261  1.00  0.00     0.006 A 
ATOM     10  C   UNL A   1      32.950  25.819  26.096  1.00  0.00     0.014 A 
ATOM     11  C   UNL A   1      30.191  25.576  25.586  1.00  0.00     0.027 A 
ATOM     12  C   UNL A   1      32.464  24.681  25.414  1.00  0.00     0.004 A 
ATOM     13  C   UNL A   1      31.097  24.593  25.176  1.00  0.00     0.046 A 
ATOM     14  N   UNL A   1      30.882  23.416  24.505  1.00  0.00    -0.352 N 
ATOM     15  C   UNL A   1      32.071  22.775  24.223  1.00  0.00     0.093 A 
ATOM     16  H   UNL A   1      29.993  23.074  24.256  1.00  0.00     0.167 HD
BRANCH   8  17
ATOM     17  C   UNL A   1      32.614  28.042  27.240  1.00  0.00     0.032 C 
ATOM     18  C   UNL A   1      31.852  29.325  26.939  1.00  0.00     0.009 C 
ENDBRANCH   8  17
BRANCH  15  19
ATOM     19  C   UNL A   1      32.197  21.574  23.404  1.00  0.00     0.227 C 
ATOM     20  O   UNL A   1      32.000  21.559  22.190  1.00  0.00    -0.285 OA
BRANCH  19  21
ATOM     21  C   UNL A   1      32.515  20.280  24.063  1.00  0.00     0.113 A 
ATOM     22  C   UNL A   1      32.971  19.209  23.298  1.00  0.00     0.036 A 
ATOM     23  N   UNL A   1      32.338  20.230  25.407  1.00  0.00    -0.253 NA
ATOM     24  C   UNL A   1      33.264  18.009  23.949  1.00  0.00    -0.047 A 
ATOM     25  C   UNL A   1      32.666  19.073  26.014  1.00  0.00     0.112 A 
ATOM     26  C   UNL A   1      33.751  16.811  23.190  1.00  0.00     0.044 C 
ATOM     27  C   UNL A   1      33.121  17.950  25.338  1.00  0.00     0.023 A 
ENDBRANCH  19  21
ENDBRANCH  15  19
ENDBRANCH   6   7
ENDBRANCH   3   6
ENDBRANCH   1   2
BRANCH   1  28
ATOM     28  C   UNL A   1      37.274  19.543  24.994  1.00  0.00     0.042 C 
BRANCH  28  29
ATOM     29  C   UNL A   1      38.569  20.246  25.392  1.00  0.00     0.118 C 
BRANCH  29  30
ATOM     30  N   UNL A   1      39.677  19.324  25.602  1.00  0.00    -0.352 N 
ATOM     31  C   UNL A   1      40.952  19.543  26.058  1.00  0.00     0.251 C 
ATOM     32  H   UNL A   1      39.476  18.386  25.379  1.00  0.00     0.163 HD
ATOM     33  O   UNL A   1      41.776  18.633  26.001  1.00  0.00    -0.269 OA
BRANCH  31  34
ATOM     34  C   UNL A   1      41.360  20.859  26.598  1.00  0.00     0.039 A 
ATOM     35  C   UNL A   1      41.917  21.796  25.720  1.00  0.00     0.014 A 
ATOM     36  C   UNL A   1      41.254  21.161  27.958  1.00  0.00     0.014 A 
ATOM     37  C   UNL A   1      42.307  23.052  26.191  1.00  0.00     0.010 A 
ATOM     38  C   UNL A   1      41.585  22.436  28.417  1.00  0.00     0.010 A 
ATOM     39  C   UNL A   1      42.114  23.394  27.539  1.00  0.00    -0.014 A 
BRANCH  39  40
ATOM     40  C   UNL A   1      42.445  24.751  28.041  1.00  0.00     0.031 A 
ATOM     41  C   UNL A   1      43.848  25.089  28.463  1.00  0.00     0.074 A 
ATOM     42  C   UNL A   1      41.465  25.667  28.179  1.00  0.00     0.049 A 
ATOM     43  N   UNL A   1      44.306  26.195  28.993  1.00  0.00    -0.248 NA
ATOM     44  C   UNL A   1      44.864  24.039  28.288  1.00  0.00     0.031 C 
ATOM     45  C   UNL A   1      40.057  25.459  27.837  1.00  0.00     0.029 A 
ATOM     46  N   UNL A   1      41.506  26.954  28.654  1.00  0.00    -0.354 N 
ATOM     47  C   UNL A   1      45.655  25.968  29.233  1.00  0.00     0.074 A 
ATOM     48  C   UNL A   1      45.934  24.608  28.824  1.00  0.00     0.031 C 
ATOM     49  C   UNL A   1      39.372  26.585  28.094  1.00  0.00     0.029 A 
ATOM     50  C   UNL A   1      40.283  27.579  28.651  1.00  0.00     0.049 A 
ATOM     51  H   UNL A   1      42.334  27.387  28.966  1.00  0.00     0.167 HD
ATOM     52  C   UNL A   1      46.582  26.818  29.737  1.00  0.00     0.031 A 
ATOM     53  C   UNL A   1      39.931  28.813  29.059  1.00  0.00     0.031 A 
ATOM     54  C   UNL A   1      46.316  28.175  30.130  1.00  0.00     0.049 A 
ATOM     55  C   UNL A   1      40.978  29.735  29.616  1.00  0.00     0.074 A 
ATOM     56  C   UNL A   1      47.204  29.128  30.598  1.00  0.00     0.029 A 
ATOM     57  N   UNL A   1      45.066  28.774  30.098  1.00  0.00    -0.354 N 
ATOM     58  N   UNL A   1      42.259  29.521  29.786  1.00  0.00    -0.248 NA
ATOM     59  C   UNL A   1      40.528  31.073  30.027  1.00  0.00     0.031 C 
ATOM     60  C   UNL A   1      46.484  30.294  30.886  1.00  0.00     0.029 A 
ATOM     61  C   UNL A   1      45.157  30.078  30.557  1.00  0.00     0.049 A 
ATOM     62  H   UNL A   1      44.238  28.337  29.795  1.00  0.00     0.167 HD
ATOM     63  C   UNL A   1      42.774  30.703  30.301  1.00  0.00     0.074 A 
ATOM     64  C   UNL A   1      41.669  31.634  30.406  1.00  0.00     0.031 C 
ATOM     65  C   UNL A   1      44.049  30.991  30.656  1.00  0.00     0.031 A 
BRANCH  52  66
ATOM     66  C   UNL A   1      47.981  26.293  29.900  1.00  0.00    -0.014 A 
ATOM     67  C   UNL A   1      48.914  26.377  28.854  1.00  0.00     0.009 A 
ATOM     68  C   UNL A   1      48.382  25.742  31.127  1.00  0.00     0.009 A 
ATOM     69  C   UNL A   1      50.211  25.887  29.024  1.00  0.00     0.001 A 
ATOM     70  C   UNL A   1      49.687  25.275  31.301  1.00  0.00     0.001 A 
ATOM     71  C   UNL A   1      50.597  25.341  30.247  1.00  0.00     0.000 A 
ENDBRANCH  52  66
BRANCH  53  72
ATOM     72  C   UNL A   1      38.520  29.256  28.942  1.00  0.00    -0.014 A 
ATOM     73  C   UNL A   1      37.662  29.194  30.051  1.00  0.00     0.009 A 
ATOM     74  C   UNL A   1      38.022  29.741  27.723  1.00  0.00     0.009 A 
ATOM     75  C   UNL A   1      36.329  29.591  29.937  1.00  0.00     0.001 A 
ATOM     76  C   UNL A   1      36.695  30.160  27.617  1.00  0.00     0.001 A 
ATOM     77  C   UNL A   1      35.848  30.077  28.721  1.00  0.00     0.000 A 
ENDBRANCH  53  72
BRANCH  65  78
ATOM     78  C   UNL A   1      44.324  32.379  31.158  1.00  0.00    -0.014 A 
ATOM     79  C   UNL A   1      44.269  32.677  32.528  1.00  0.00     0.009 A 
ATOM     80  C   UNL A   1      44.679  33.389  30.253  1.00  0.00     0.009 A 
ATOM     81  C   UNL A   1      44.538  33.971  32.978  1.00  0.00     0.001 A 
ATOM     82  C   UNL A   1      44.970  34.676  30.707  1.00  0.00     0.001 A 
ATOM     83  C   UNL A   1      44.892  34.968  32.068  1.00  0.00     0.000 A 
ENDBRANCH  65  78
ENDBRANCH  39  40
ENDBRANCH  31  34
ENDBRANCH  29  30
ENDBRANCH  28  29
ENDBRANCH   1  28
TORSDOF 14
ENDMDL
