MODEL 1
REMARK VINA RESULT:     -13.0      0.000      0.000
REMARK SMILES O=C(NCCCNC(=O)[C@H]1Cc2c([nH]c3ccccc23)[C@H](c2c[nH]c3ccccc23)[NH2+]1)c1ccc(-c2c3nc(c(-c4ccccc4)c4ccc([nH]4)c(-c4ccccc4)c4nc(c(-c5ccccc5)c5ccc2[nH]5)C=C4)C=C3)cc1
REMARK SMILES IDX 4 1 3 2 1 3 2 4 32 6 33 7 79 8 34 9 78 10 35 11 36 12 37 13
REMARK SMILES IDX 72 14 38 15 77 16 71 17 73 18 39 19 76 20 70 21 69 22 40 24
REMARK SMILES IDX 62 25 47 26 61 27 48 28 51 29 60 30 74 31 49 32 50 33 59 35
REMARK SMILES IDX 75 36 52 37 41 38 42 39 46 40 43 41 45 42 44 43 63 44 64 45
REMARK SMILES IDX 68 46 65 47 67 48 66 49 53 50 54 51 58 52 55 53 57 54 56 55
REMARK SMILES IDX 5 56 6 57 7 58 8 59 9 61 10 62 11 63 31 64 12 65 21 66 13 69
REMARK SMILES IDX 20 70 14 71 15 72 19 73 16 75 18 76 17 77 22 78 23 79 30 80
REMARK SMILES IDX 24 81 25 82 29 83 26 85 28 86 27 87
REMARK H PARENT 3 5 73 23 51 34 7 60 31 67 31 68 14 74 24 84
REMARK Flexibility Score: inf
ROOT
ATOM      1  C   UNL A   1      32.718  32.856  27.241  1.00  0.00     0.118 C 
ENDROOT
BRANCH   1   2
ATOM      2  N   UNL A   1      32.543  34.245  27.660  1.00  0.00    -0.352 N 
ATOM      3  O   UNL A   1      32.564  35.956  29.118  1.00  0.00    -0.269 OA
ATOM      4  C   UNL A   1      33.084  34.917  28.724  1.00  0.00     0.251 C 
ATOM      5  H   UNL A   1      31.944  34.780  27.089  1.00  0.00     0.163 HD
BRANCH   4   6
ATOM      6  C   UNL A   1      34.304  34.406  29.378  1.00  0.00     0.039 A 
ATOM      7  C   UNL A   1      34.210  33.650  30.550  1.00  0.00     0.014 A 
ATOM      8  C   UNL A   1      35.544  34.610  28.767  1.00  0.00     0.014 A 
ATOM      9  C   UNL A   1      35.362  33.195  31.174  1.00  0.00     0.010 A 
ATOM     10  C   UNL A   1      36.694  34.072  29.347  1.00  0.00     0.010 A 
ATOM     11  C   UNL A   1      36.610  33.372  30.560  1.00  0.00    -0.014 A 
BRANCH  11  12
ATOM     12  C   UNL A   1      37.804  32.731  31.153  1.00  0.00     0.031 A 
ATOM     13  C   UNL A   1      38.440  31.540  30.504  1.00  0.00     0.074 A 
ATOM     14  C   UNL A   1      38.299  33.235  32.299  1.00  0.00     0.049 A 
ATOM     15  N   UNL A   1      39.460  30.830  30.913  1.00  0.00    -0.248 NA
ATOM     16  C   UNL A   1      37.848  31.076  29.240  1.00  0.00     0.031 C 
ATOM     17  C   UNL A   1      37.750  34.389  33.018  1.00  0.00     0.029 A 
ATOM     18  N   UNL A   1      39.370  32.849  33.059  1.00  0.00    -0.354 N 
ATOM     19  C   UNL A   1      39.617  29.821  29.973  1.00  0.00     0.074 A 
ATOM     20  C   UNL A   1      38.574  29.997  28.985  1.00  0.00     0.031 C 
ATOM     21  C   UNL A   1      38.503  34.631  34.099  1.00  0.00     0.029 A 
ATOM     22  C   UNL A   1      39.541  33.611  34.187  1.00  0.00     0.049 A 
ATOM     23  H   UNL A   1      39.960  32.097  32.820  1.00  0.00     0.167 HD
ATOM     24  C   UNL A   1      40.546  28.837  29.944  1.00  0.00     0.031 A 
ATOM     25  C   UNL A   1      40.413  33.487  35.203  1.00  0.00     0.031 A 
ATOM     26  C   UNL A   1      41.574  28.671  30.938  1.00  0.00     0.049 A 
ATOM     27  C   UNL A   1      41.412  32.370  35.165  1.00  0.00     0.074 A 
ATOM     28  C   UNL A   1      42.592  27.734  30.980  1.00  0.00     0.029 A 
ATOM     29  N   UNL A   1      41.706  29.457  32.074  1.00  0.00    -0.354 N 
ATOM     30  N   UNL A   1      41.576  31.448  34.248  1.00  0.00    -0.248 NA
ATOM     31  C   UNL A   1      42.343  32.276  36.296  1.00  0.00     0.031 C 
ATOM     32  C   UNL A   1      43.304  27.918  32.170  1.00  0.00     0.029 A 
ATOM     33  C   UNL A   1      42.768  29.006  32.842  1.00  0.00     0.049 A 
ATOM     34  H   UNL A   1      41.130  30.222  32.302  1.00  0.00     0.167 HD
ATOM     35  C   UNL A   1      42.639  30.670  34.682  1.00  0.00     0.074 A 
ATOM     36  C   UNL A   1      43.089  31.240  35.938  1.00  0.00     0.031 C 
ATOM     37  C   UNL A   1      43.193  29.584  34.092  1.00  0.00     0.031 A 
BRANCH  24  38
ATOM     38  C   UNL A   1      40.458  27.837  28.824  1.00  0.00    -0.014 A 
ATOM     39  C   UNL A   1      41.122  28.040  27.602  1.00  0.00     0.009 A 
ATOM     40  C   UNL A   1      39.706  26.665  28.999  1.00  0.00     0.009 A 
ATOM     41  C   UNL A   1      40.996  27.111  26.566  1.00  0.00     0.001 A 
ATOM     42  C   UNL A   1      39.605  25.725  27.973  1.00  0.00     0.001 A 
ATOM     43  C   UNL A   1      40.240  25.954  26.753  1.00  0.00     0.000 A 
ENDBRANCH  24  38
BRANCH  25  44
ATOM     44  C   UNL A   1      40.337  34.435  36.343  1.00  0.00    -0.014 A 
ATOM     45  C   UNL A   1      41.017  35.660  36.304  1.00  0.00     0.009 A 
ATOM     46  C   UNL A   1      39.522  34.144  37.449  1.00  0.00     0.009 A 
ATOM     47  C   UNL A   1      40.887  36.572  37.354  1.00  0.00     0.001 A 
ATOM     48  C   UNL A   1      39.371  35.069  38.484  1.00  0.00     0.001 A 
ATOM     49  C   UNL A   1      40.058  36.280  38.438  1.00  0.00     0.000 A 
ENDBRANCH  25  44
BRANCH  37  50
ATOM     50  C   UNL A   1      44.365  28.952  34.785  1.00  0.00    -0.014 A 
ATOM     51  C   UNL A   1      44.189  27.919  35.716  1.00  0.00     0.009 A 
ATOM     52  C   UNL A   1      45.667  29.362  34.455  1.00  0.00     0.009 A 
ATOM     53  C   UNL A   1      45.296  27.319  36.319  1.00  0.00     0.001 A 
ATOM     54  C   UNL A   1      46.772  28.743  35.040  1.00  0.00     0.001 A 
ATOM     55  C   UNL A   1      46.585  27.727  35.975  1.00  0.00     0.000 A 
ENDBRANCH  37  50
ENDBRANCH  11  12
ENDBRANCH   4   6
ENDBRANCH   1   2
BRANCH   1  56
ATOM     56  C   UNL A   1      31.416  32.282  26.694  1.00  0.00     0.042 C 
BRANCH  56  57
ATOM     57  C   UNL A   1      31.522  30.775  26.483  1.00  0.00     0.118 C 
BRANCH  57  58
ATOM     58  N   UNL A   1      32.801  30.266  26.942  1.00  0.00    -0.351 N 
ATOM     59  C   UNL A   1      33.357  29.026  27.023  1.00  0.00     0.278 C 
ATOM     60  H   UNL A   1      33.400  30.975  27.269  1.00  0.00     0.163 HD
ATOM     61  O   UNL A   1      34.424  28.986  27.652  1.00  0.00    -0.268 OA
BRANCH  59  62
ATOM     62  C   UNL A   1      32.841  27.768  26.285  1.00  0.00     0.277 C 
ATOM     63  C   UNL A   1      34.017  26.755  26.168  1.00  0.00     0.114 C 
ATOM     64  N   UNL A   1      31.623  27.160  26.891  1.00  0.00    -0.324 N 
ATOM     65  C   UNL A   1      33.523  25.470  25.602  1.00  0.00    -0.006 A 
ATOM     66  C   UNL A   1      31.072  26.040  26.108  1.00  0.00     0.264 C 
ATOM     67  H   UNL A   1      30.906  27.882  26.969  1.00  0.00     0.347 HD
ATOM     68  H   UNL A   1      31.894  26.786  27.800  1.00  0.00     0.347 HD
ATOM     69  C   UNL A   1      32.175  25.177  25.591  1.00  0.00     0.083 A 
ATOM     70  C   UNL A   1      34.218  24.361  25.051  1.00  0.00     0.003 A 
ATOM     71  N   UNL A   1      32.028  23.912  25.094  1.00  0.00    -0.353 N 
ATOM     72  C   UNL A   1      33.257  23.391  24.754  1.00  0.00     0.046 A 
ATOM     73  C   UNL A   1      35.571  24.074  24.787  1.00  0.00     0.010 A 
ATOM     74  H   UNL A   1      31.168  23.441  24.993  1.00  0.00     0.166 HD
ATOM     75  C   UNL A   1      33.586  22.140  24.219  1.00  0.00     0.026 A 
ATOM     76  C   UNL A   1      35.915  22.832  24.239  1.00  0.00     0.001 A 
ATOM     77  C   UNL A   1      34.935  21.880  23.966  1.00  0.00     0.002 A 
BRANCH  66  78
ATOM     78  C   UNL A   1      30.050  26.472  25.055  1.00  0.00     0.041 A 
ATOM     79  C   UNL A   1      28.833  25.819  24.900  1.00  0.00     0.093 A 
ATOM     80  C   UNL A   1      30.006  27.585  24.113  1.00  0.00     0.009 A 
ATOM     81  N   UNL A   1      28.100  26.435  23.930  1.00  0.00    -0.361 N 
ATOM     82  C   UNL A   1      28.774  27.528  23.450  1.00  0.00     0.046 A 
ATOM     83  C   UNL A   1      30.852  28.660  23.748  1.00  0.00     0.011 A 
ATOM     84  H   UNL A   1      27.215  26.138  23.618  1.00  0.00     0.166 HD
ATOM     85  C   UNL A   1      28.365  28.461  22.485  1.00  0.00     0.026 A 
ATOM     86  C   UNL A   1      30.463  29.606  22.791  1.00  0.00     0.001 A 
ATOM     87  C   UNL A   1      29.230  29.507  22.168  1.00  0.00     0.002 A 
ENDBRANCH  66  78
ENDBRANCH  59  62
ENDBRANCH  57  58
ENDBRANCH  56  57
ENDBRANCH   1  56
TORSDOF 11
ENDMDL
MODEL 2
REMARK VINA RESULT:     -12.9      4.980     10.056
REMARK SMILES O=C(NCCCNC(=O)[C@H]1Cc2c([nH]c3ccccc23)[C@H](c2c[nH]c3ccccc23)[NH2+]1)c1ccc(-c2c3nc(c(-c4ccccc4)c4ccc([nH]4)c(-c4ccccc4)c4nc(c(-c5ccccc5)c5ccc2[nH]5)C=C4)C=C3)cc1
REMARK SMILES IDX 4 1 3 2 1 3 2 4 32 6 33 7 79 8 34 9 78 10 35 11 36 12 37 13
REMARK SMILES IDX 72 14 38 15 77 16 71 17 73 18 39 19 76 20 70 21 69 22 40 24
REMARK SMILES IDX 62 25 47 26 61 27 48 28 51 29 60 30 74 31 49 32 50 33 59 35
REMARK SMILES IDX 75 36 52 37 41 38 42 39 46 40 43 41 45 42 44 43 63 44 64 45
REMARK SMILES IDX 68 46 65 47 67 48 66 49 53 50 54 51 58 52 55 53 57 54 56 55
REMARK SMILES IDX 5 56 6 57 7 58 8 59 9 61 10 62 11 63 31 64 12 65 21 66 13 69
REMARK SMILES IDX 20 70 14 71 15 72 19 73 16 75 18 76 17 77 22 78 23 79 30 80
REMARK SMILES IDX 24 81 25 82 29 83 26 85 28 86 27 87
REMARK H PARENT 3 5 73 23 51 34 7 60 31 67 31 68 14 74 24 84
REMARK Flexibility Score: inf
ROOT
ATOM      1  C   UNL A   1      39.324  20.061  25.985  1.00  0.00     0.118 C 
ENDROOT
BRANCH   1   2
ATOM      2  N   UNL A   1      40.438  19.117  26.032  1.00  0.00    -0.352 N 
ATOM      3  O   UNL A   1      42.568  18.457  25.746  1.00  0.00    -0.269 OA
ATOM      4  C   UNL A   1      41.788  19.351  26.056  1.00  0.00     0.251 C 
ATOM      5  H   UNL A   1      40.179  18.167  26.050  1.00  0.00     0.163 HD
BRANCH   4   6
ATOM      6  C   UNL A   1      42.303  20.668  26.478  1.00  0.00     0.039 A 
ATOM      7  C   UNL A   1      42.725  21.597  25.523  1.00  0.00     0.014 A 
ATOM      8  C   UNL A   1      42.280  21.009  27.833  1.00  0.00     0.014 A 
ATOM      9  C   UNL A   1      43.232  22.823  25.927  1.00  0.00     0.010 A 
ATOM     10  C   UNL A   1      42.703  22.278  28.230  1.00  0.00     0.010 A 
ATOM     11  C   UNL A   1      43.193  23.188  27.280  1.00  0.00    -0.014 A 
BRANCH  11  12
ATOM     12  C   UNL A   1      43.577  24.562  27.670  1.00  0.00     0.031 A 
ATOM     13  C   UNL A   1      42.538  25.579  28.031  1.00  0.00     0.074 A 
ATOM     14  C   UNL A   1      44.884  24.884  27.679  1.00  0.00     0.049 A 
ATOM     15  N   UNL A   1      42.696  26.837  28.350  1.00  0.00    -0.248 NA
ATOM     16  C   UNL A   1      41.137  25.130  28.021  1.00  0.00     0.031 C 
ATOM     17  C   UNL A   1      45.979  23.970  27.336  1.00  0.00     0.029 A 
ATOM     18  N   UNL A   1      45.516  26.058  27.987  1.00  0.00    -0.354 N 
ATOM     19  C   UNL A   1      41.419  27.339  28.553  1.00  0.00     0.074 A 
ATOM     20  C   UNL A   1      40.494  26.254  28.299  1.00  0.00     0.031 C 
ATOM     21  C   UNL A   1      47.147  24.611  27.477  1.00  0.00     0.029 A 
ATOM     22  C   UNL A   1      46.880  25.995  27.851  1.00  0.00     0.049 A 
ATOM     23  H   UNL A   1      45.039  26.869  28.277  1.00  0.00     0.167 HD
ATOM     24  C   UNL A   1      41.055  28.592  28.914  1.00  0.00     0.031 A 
ATOM     25  C   UNL A   1      47.818  26.951  27.977  1.00  0.00     0.031 A 
ATOM     26  C   UNL A   1      41.987  29.662  29.157  1.00  0.00     0.049 A 
ATOM     27  C   UNL A   1      47.388  28.338  28.347  1.00  0.00     0.074 A 
ATOM     28  C   UNL A   1      41.727  30.957  29.569  1.00  0.00     0.029 A 
ATOM     29  N   UNL A   1      43.362  29.561  28.996  1.00  0.00    -0.354 N 
ATOM     30  N   UNL A   1      46.179  28.789  28.577  1.00  0.00    -0.248 NA
ATOM     31  C   UNL A   1      48.447  29.347  28.474  1.00  0.00     0.031 C 
ATOM     32  C   UNL A   1      42.939  31.655  29.602  1.00  0.00     0.029 A 
ATOM     33  C   UNL A   1      43.961  30.780  29.268  1.00  0.00     0.049 A 
ATOM     34  H   UNL A   1      43.841  28.744  28.728  1.00  0.00     0.167 HD
ATOM     35  C   UNL A   1      46.329  30.131  28.891  1.00  0.00     0.074 A 
ATOM     36  C   UNL A   1      47.750  30.416  28.835  1.00  0.00     0.031 C 
ATOM     37  C   UNL A   1      45.376  31.043  29.199  1.00  0.00     0.031 A 
BRANCH  24  38
ATOM     38  C   UNL A   1      39.582  28.880  29.019  1.00  0.00    -0.014 A 
ATOM     39  C   UNL A   1      38.876  28.677  30.216  1.00  0.00     0.009 A 
ATOM     40  C   UNL A   1      38.892  29.375  27.902  1.00  0.00     0.009 A 
ATOM     41  C   UNL A   1      37.502  28.921  30.277  1.00  0.00     0.001 A 
ATOM     42  C   UNL A   1      37.525  29.645  27.973  1.00  0.00     0.001 A 
ATOM     43  C   UNL A   1      36.828  29.407  29.156  1.00  0.00     0.000 A 
ENDBRANCH  24  38
BRANCH  25  44
ATOM     44  C   UNL A   1      49.239  26.612  27.715  1.00  0.00    -0.014 A 
ATOM     45  C   UNL A   1      50.084  26.209  28.758  1.00  0.00     0.009 A 
ATOM     46  C   UNL A   1      49.736  26.623  26.402  1.00  0.00     0.009 A 
ATOM     47  C   UNL A   1      51.402  25.830  28.490  1.00  0.00     0.001 A 
ATOM     48  C   UNL A   1      51.044  26.218  26.133  1.00  0.00     0.001 A 
ATOM     49  C   UNL A   1      51.877  25.826  27.178  1.00  0.00     0.000 A 
ENDBRANCH  25  44
BRANCH  37  50
ATOM     50  C   UNL A   1      45.841  32.433  29.525  1.00  0.00    -0.014 A 
ATOM     51  C   UNL A   1      45.928  33.421  28.535  1.00  0.00     0.009 A 
ATOM     52  C   UNL A   1      46.138  32.769  30.856  1.00  0.00     0.009 A 
ATOM     53  C   UNL A   1      46.324  34.718  28.869  1.00  0.00     0.001 A 
ATOM     54  C   UNL A   1      46.508  34.071  31.190  1.00  0.00     0.001 A 
ATOM     55  C   UNL A   1      46.607  35.042  30.196  1.00  0.00     0.000 A 
ENDBRANCH  37  50
ENDBRANCH  11  12
ENDBRANCH   4   6
ENDBRANCH   1   2
BRANCH   1  56
ATOM     56  C   UNL A   1      38.267  19.609  24.983  1.00  0.00     0.042 C 
BRANCH  56  57
ATOM     57  C   UNL A   1      37.288  20.734  24.666  1.00  0.00     0.118 C 
BRANCH  57  58
ATOM     58  N   UNL A   1      37.628  21.949  25.384  1.00  0.00    -0.351 N 
ATOM     59  C   UNL A   1      37.101  23.203  25.435  1.00  0.00     0.278 C 
ATOM     60  H   UNL A   1      38.417  21.842  25.963  1.00  0.00     0.163 HD
ATOM     61  O   UNL A   1      37.800  24.025  26.045  1.00  0.00    -0.268 OA
BRANCH  59  62
ATOM     62  C   UNL A   1      35.689  23.597  24.938  1.00  0.00     0.277 C 
ATOM     63  C   UNL A   1      35.335  24.990  25.535  1.00  0.00     0.114 C 
ATOM     64  N   UNL A   1      35.528  23.553  23.458  1.00  0.00    -0.324 N 
ATOM     65  C   UNL A   1      34.051  25.476  24.959  1.00  0.00    -0.006 A 
ATOM     66  C   UNL A   1      34.149  23.809  23.009  1.00  0.00     0.264 C 
ATOM     67  H   UNL A   1      35.808  22.628  23.130  1.00  0.00     0.347 HD
ATOM     68  H   UNL A   1      36.113  24.293  23.070  1.00  0.00     0.347 HD
ATOM     69  C   UNL A   1      33.540  24.914  23.807  1.00  0.00     0.083 A 
ATOM     70  C   UNL A   1      33.176  26.517  25.366  1.00  0.00     0.003 A 
ATOM     71  N   UNL A   1      32.409  25.607  23.473  1.00  0.00    -0.353 N 
ATOM     72  C   UNL A   1      32.163  26.589  24.407  1.00  0.00     0.046 A 
ATOM     73  C   UNL A   1      33.151  27.421  26.446  1.00  0.00     0.010 A 
ATOM     74  H   UNL A   1      31.853  25.430  22.680  1.00  0.00     0.166 HD
ATOM     75  C   UNL A   1      31.131  27.532  24.468  1.00  0.00     0.026 A 
ATOM     76  C   UNL A   1      32.117  28.362  26.527  1.00  0.00     0.001 A 
ATOM     77  C   UNL A   1      31.126  28.418  25.549  1.00  0.00     0.002 A 
BRANCH  66  78
ATOM     78  C   UNL A   1      33.292  22.546  22.907  1.00  0.00     0.041 A 
ATOM     79  C   UNL A   1      32.416  22.334  21.848  1.00  0.00     0.093 A 
ATOM     80  C   UNL A   1      33.219  21.330  23.709  1.00  0.00     0.009 A 
ATOM     81  N   UNL A   1      31.820  21.116  21.982  1.00  0.00    -0.361 N 
ATOM     82  C   UNL A   1      32.305  20.469  23.088  1.00  0.00     0.046 A 
ATOM     83  C   UNL A   1      33.836  20.831  24.883  1.00  0.00     0.011 A 
ATOM     84  H   UNL A   1      31.137  20.753  21.373  1.00  0.00     0.166 HD
ATOM     85  C   UNL A   1      31.997  19.185  23.565  1.00  0.00     0.026 A 
ATOM     86  C   UNL A   1      33.547  19.550  25.374  1.00  0.00     0.001 A 
ATOM     87  C   UNL A   1      32.638  18.737  24.719  1.00  0.00     0.002 A 
ENDBRANCH  66  78
ENDBRANCH  59  62
ENDBRANCH  57  58
ENDBRANCH  56  57
ENDBRANCH   1  56
TORSDOF 11
ENDMDL
MODEL 3
REMARK VINA RESULT:     -12.9      2.801      7.411
REMARK SMILES O=C(NCCCNC(=O)[C@H]1Cc2c([nH]c3ccccc23)[C@H](c2c[nH]c3ccccc23)[NH2+]1)c1ccc(-c2c3nc(c(-c4ccccc4)c4ccc([nH]4)c(-c4ccccc4)c4nc(c(-c5ccccc5)c5ccc2[nH]5)C=C4)C=C3)cc1
REMARK SMILES IDX 4 1 3 2 1 3 2 4 32 6 33 7 79 8 34 9 78 10 35 11 36 12 37 13
REMARK SMILES IDX 72 14 38 15 77 16 71 17 73 18 39 19 76 20 70 21 69 22 40 24
REMARK SMILES IDX 62 25 47 26 61 27 48 28 51 29 60 30 74 31 49 32 50 33 59 35
REMARK SMILES IDX 75 36 52 37 41 38 42 39 46 40 43 41 45 42 44 43 63 44 64 45
REMARK SMILES IDX 68 46 65 47 67 48 66 49 53 50 54 51 58 52 55 53 57 54 56 55
REMARK SMILES IDX 5 56 6 57 7 58 8 59 9 61 10 62 11 63 31 64 12 65 21 66 13 69
REMARK SMILES IDX 20 70 14 71 15 72 19 73 16 75 18 76 17 77 22 78 23 79 30 80
REMARK SMILES IDX 24 81 25 82 29 83 26 85 28 86 27 87
REMARK H PARENT 3 5 73 23 51 34 7 60 31 67 31 68 14 74 24 84
REMARK Flexibility Score: inf
ROOT
ATOM      1  C   UNL A   1      40.408  23.226  27.062  1.00  0.00     0.118 C 
ENDROOT
BRANCH   1   2
ATOM      2  N   UNL A   1      41.143  24.017  26.079  1.00  0.00    -0.352 N 
ATOM      3  O   UNL A   1      41.672  25.885  24.944  1.00  0.00    -0.269 OA
ATOM      4  C   UNL A   1      41.335  25.372  26.007  1.00  0.00     0.251 C 
ATOM      5  H   UNL A   1      41.564  23.497  25.357  1.00  0.00     0.163 HD
BRANCH   4   6
ATOM      6  C   UNL A   1      41.163  26.209  27.210  1.00  0.00     0.039 A 
ATOM      7  C   UNL A   1      41.979  27.324  27.415  1.00  0.00     0.014 A 
ATOM      8  C   UNL A   1      40.118  25.927  28.094  1.00  0.00     0.014 A 
ATOM      9  C   UNL A   1      41.829  28.091  28.560  1.00  0.00     0.010 A 
ATOM     10  C   UNL A   1      39.909  26.755  29.198  1.00  0.00     0.010 A 
ATOM     11  C   UNL A   1      40.771  27.834  29.443  1.00  0.00    -0.014 A 
BRANCH  11  12
ATOM     12  C   UNL A   1      40.523  28.767  30.565  1.00  0.00     0.031 A 
ATOM     13  C   UNL A   1      39.442  29.801  30.482  1.00  0.00     0.074 A 
ATOM     14  C   UNL A   1      41.303  28.674  31.659  1.00  0.00     0.049 A 
ATOM     15  N   UNL A   1      39.121  30.723  31.351  1.00  0.00    -0.248 NA
ATOM     16  C   UNL A   1      38.623  29.809  29.260  1.00  0.00     0.031 C 
ATOM     17  C   UNL A   1      42.390  27.707  31.839  1.00  0.00     0.029 A 
ATOM     18  N   UNL A   1      41.303  29.395  32.822  1.00  0.00    -0.354 N 
ATOM     19  C   UNL A   1      38.082  31.440  30.773  1.00  0.00     0.074 A 
ATOM     20  C   UNL A   1      37.841  30.858  29.470  1.00  0.00     0.031 C 
ATOM     21  C   UNL A   1      42.934  27.879  33.051  1.00  0.00     0.029 A 
ATOM     22  C   UNL A   1      42.283  29.009  33.702  1.00  0.00     0.049 A 
ATOM     23  H   UNL A   1      40.663  30.120  33.010  1.00  0.00     0.167 HD
ATOM     24  C   UNL A   1      37.398  32.489  31.286  1.00  0.00     0.031 A 
ATOM     25  C   UNL A   1      42.647  29.527  34.888  1.00  0.00     0.031 A 
ATOM     26  C   UNL A   1      37.654  33.060  32.582  1.00  0.00     0.049 A 
ATOM     27  C   UNL A   1      41.895  30.709  35.421  1.00  0.00     0.074 A 
ATOM     28  C   UNL A   1      36.989  34.096  33.216  1.00  0.00     0.029 A 
ATOM     29  N   UNL A   1      38.665  32.649  33.439  1.00  0.00    -0.354 N 
ATOM     30  N   UNL A   1      40.886  31.350  34.883  1.00  0.00    -0.248 NA
ATOM     31  C   UNL A   1      42.328  31.237  36.721  1.00  0.00     0.031 C 
ATOM     32  C   UNL A   1      37.636  34.349  34.431  1.00  0.00     0.029 A 
ATOM     33  C   UNL A   1      38.665  33.432  34.582  1.00  0.00     0.049 A 
ATOM     34  H   UNL A   1      39.291  31.910  33.262  1.00  0.00     0.167 HD
ATOM     35  C   UNL A   1      40.551  32.351  35.783  1.00  0.00     0.074 A 
ATOM     36  C   UNL A   1      41.457  32.220  36.908  1.00  0.00     0.031 C 
ATOM     37  C   UNL A   1      39.581  33.290  35.686  1.00  0.00     0.031 A 
BRANCH  24  38
ATOM     38  C   UNL A   1      36.339  33.113  30.419  1.00  0.00    -0.014 A 
ATOM     39  C   UNL A   1      36.667  33.998  29.378  1.00  0.00     0.009 A 
ATOM     40  C   UNL A   1      34.989  32.801  30.642  1.00  0.00     0.009 A 
ATOM     41  C   UNL A   1      35.661  34.589  28.609  1.00  0.00     0.001 A 
ATOM     42  C   UNL A   1      33.988  33.371  29.854  1.00  0.00     0.001 A 
ATOM     43  C   UNL A   1      34.323  34.273  28.847  1.00  0.00     0.000 A 
ENDBRANCH  24  38
BRANCH  25  44
ATOM     44  C   UNL A   1      43.799  28.935  35.615  1.00  0.00    -0.014 A 
ATOM     45  C   UNL A   1      43.611  27.888  36.526  1.00  0.00     0.009 A 
ATOM     46  C   UNL A   1      45.105  29.375  35.342  1.00  0.00     0.009 A 
ATOM     47  C   UNL A   1      44.709  27.296  37.155  1.00  0.00     0.001 A 
ATOM     48  C   UNL A   1      46.202  28.763  35.950  1.00  0.00     0.001 A 
ATOM     49  C   UNL A   1      46.003  27.728  36.860  1.00  0.00     0.000 A 
ENDBRANCH  25  44
BRANCH  37  50
ATOM     50  C   UNL A   1      39.430  34.239  36.840  1.00  0.00    -0.014 A 
ATOM     51  C   UNL A   1      38.749  33.863  38.006  1.00  0.00     0.009 A 
ATOM     52  C   UNL A   1      40.031  35.506  36.776  1.00  0.00     0.009 A 
ATOM     53  C   UNL A   1      38.655  34.747  39.082  1.00  0.00     0.001 A 
ATOM     54  C   UNL A   1      39.958  36.378  37.863  1.00  0.00     0.001 A 
ATOM     55  C   UNL A   1      39.266  36.000  39.012  1.00  0.00     0.000 A 
ENDBRANCH  37  50
ENDBRANCH  11  12
ENDBRANCH   4   6
ENDBRANCH   1   2
BRANCH   1  56
ATOM     56  C   UNL A   1      39.234  22.501  26.414  1.00  0.00     0.042 C 
BRANCH  56  57
ATOM     57  C   UNL A   1      38.018  23.413  26.294  1.00  0.00     0.118 C 
BRANCH  57  58
ATOM     58  N   UNL A   1      37.651  23.625  24.906  1.00  0.00    -0.351 N 
ATOM     59  C   UNL A   1      36.689  23.116  24.088  1.00  0.00     0.278 C 
ATOM     60  H   UNL A   1      38.226  24.284  24.455  1.00  0.00     0.163 HD
ATOM     61  O   UNL A   1      36.819  23.426  22.895  1.00  0.00    -0.268 OA
BRANCH  59  62
ATOM     62  C   UNL A   1      35.432  22.348  24.562  1.00  0.00     0.277 C 
ATOM     63  C   UNL A   1      35.675  20.828  24.333  1.00  0.00     0.114 C 
ATOM     64  N   UNL A   1      35.019  22.656  25.960  1.00  0.00    -0.324 N 
ATOM     65  C   UNL A   1      34.553  20.043  24.918  1.00  0.00    -0.006 A 
ATOM     66  C   UNL A   1      33.753  22.014  26.354  1.00  0.00     0.264 C 
ATOM     67  H   UNL A   1      34.910  23.667  26.050  1.00  0.00     0.347 HD
ATOM     68  H   UNL A   1      35.745  22.290  26.575  1.00  0.00     0.347 HD
ATOM     69  C   UNL A   1      33.697  20.616  25.835  1.00  0.00     0.083 A 
ATOM     70  C   UNL A   1      34.164  18.689  24.738  1.00  0.00     0.003 A 
ATOM     71  N   UNL A   1      32.828  19.646  26.254  1.00  0.00    -0.353 N 
ATOM     72  C   UNL A   1      33.089  18.462  25.600  1.00  0.00     0.046 A 
ATOM     73  C   UNL A   1      34.627  17.625  23.940  1.00  0.00     0.010 A 
ATOM     74  H   UNL A   1      32.119  19.776  26.926  1.00  0.00     0.166 HD
ATOM     75  C   UNL A   1      32.462  17.216  25.714  1.00  0.00     0.026 A 
ATOM     76  C   UNL A   1      34.001  16.376  24.033  1.00  0.00     0.001 A 
ATOM     77  C   UNL A   1      32.938  16.176  24.912  1.00  0.00     0.002 A 
BRANCH  66  78
ATOM     78  C   UNL A   1      32.516  22.860  26.048  1.00  0.00     0.041 A 
ATOM     79  C   UNL A   1      31.272  22.286  25.813  1.00  0.00     0.093 A 
ATOM     80  C   UNL A   1      32.281  24.299  26.015  1.00  0.00     0.009 A 
ATOM     81  N   UNL A   1      30.343  23.264  25.615  1.00  0.00    -0.361 N 
ATOM     82  C   UNL A   1      30.919  24.500  25.757  1.00  0.00     0.046 A 
ATOM     83  C   UNL A   1      33.053  25.474  26.195  1.00  0.00     0.011 A 
ATOM     84  H   UNL A   1      29.396  23.107  25.400  1.00  0.00     0.166 HD
ATOM     85  C   UNL A   1      30.319  25.766  25.681  1.00  0.00     0.026 A 
ATOM     86  C   UNL A   1      32.474  26.748  26.128  1.00  0.00     0.001 A 
ATOM     87  C   UNL A   1      31.120  26.890  25.875  1.00  0.00     0.002 A 
ENDBRANCH  66  78
ENDBRANCH  59  62
ENDBRANCH  57  58
ENDBRANCH  56  57
ENDBRANCH   1  56
TORSDOF 11
ENDMDL
