MODEL 1
REMARK VINA RESULT:     -12.1      0.000      0.000
REMARK SMILES CC(C)Cc1cc2c(cc1Cl)C=C(C(=O)NCCCNC(=O)c1ccc(-c3c4nc(c(-c5ccccc5)c5ccc([nH]5)c(-c5ccccc5)c5nc(c(-c6ccccc6)c6ccc3[nH]6)C=C5)C=C4)cc1)[C@@H](C(F)(F)F)O2
REMARK SMILES IDX 18 1 17 2 16 3 14 4 15 5 13 7 5 8 6 9 10 10 7 11 9 12 11 13
REMARK SMILES IDX 8 14 76 15 12 16 71 17 4 18 2 19 1 20 3 21 72 22 73 23 74 24
REMARK SMILES IDX 75 25 19 26 20 27 21 28 22 30 23 31 24 32 70 33 25 34 69 35
REMARK SMILES IDX 26 36 27 37 28 38 63 39 29 40 68 41 62 42 64 43 30 44 67 45
REMARK SMILES IDX 61 46 60 47 31 49 53 50 38 51 52 52 39 53 42 54 51 55 65 56
REMARK SMILES IDX 40 57 41 58 50 60 66 61 43 62 32 63 33 64 37 65 34 66 36 67
REMARK SMILES IDX 35 68 54 69 55 70 59 71 56 72 58 73 57 74 44 75 45 76 49 77
REMARK SMILES IDX 46 78 48 79 47 80
REMARK H PARENT 16 6 20 29 64 48 42 59
REMARK Flexibility Score: inf
ROOT
ATOM      1  C   UNL A   1      37.783  19.977  24.803  1.00  0.00     0.042 C 
ENDROOT
BRANCH   1   2
ATOM      2  C   UNL A   1      36.463  20.644  25.153  1.00  0.00     0.118 C 
BRANCH   2   3
ATOM      3  N   UNL A   1      35.333  19.740  24.988  1.00  0.00    -0.352 N 
ATOM      4  C   UNL A   1      33.986  19.838  24.876  1.00  0.00     0.251 C 
ATOM      5  O   UNL A   1      33.386  18.767  24.754  1.00  0.00    -0.270 OA
ATOM      6  H   UNL A   1      35.627  18.801  24.946  1.00  0.00     0.163 HD
BRANCH   4   7
ATOM      7  C   UNL A   1      33.220  21.118  24.897  1.00  0.00     0.067 C 
ATOM      8  C   UNL A   1      30.875  25.439  23.706  1.00  0.00    -0.025 A 
ATOM      9  C   UNL A   1      30.941  24.602  24.822  1.00  0.00     0.052 A 
ATOM     10  C   UNL A   1      31.677  25.099  22.600  1.00  0.00     0.045 A 
ATOM     11  C   UNL A   1      31.670  23.421  24.803  1.00  0.00     0.128 A 
ATOM     12  C   UNL A   1      32.467  23.934  22.608  1.00  0.00     0.032 A 
ATOM     13  Cl  UNL A   1      31.748  26.083  21.180  1.00  0.00    -0.084 Cl
ATOM     14  C   UNL A   1      32.451  23.076  23.709  1.00  0.00     0.019 A 
ATOM     15  O   UNL A   1      31.495  22.622  25.889  1.00  0.00    -0.475 OA
ATOM     16  C   UNL A   1      33.194  21.820  23.747  1.00  0.00     0.025 C 
ATOM     17  C   UNL A   1      32.515  21.627  26.121  1.00  0.00     0.314 C 
BRANCH   8  18
ATOM     18  C   UNL A   1      29.972  26.655  23.782  1.00  0.00     0.040 C 
BRANCH  18  19
ATOM     19  C   UNL A   1      30.694  28.032  23.743  1.00  0.00    -0.013 C 
ATOM     20  C   UNL A   1      29.784  29.221  23.401  1.00  0.00     0.008 C 
ATOM     21  C   UNL A   1      31.334  28.308  25.108  1.00  0.00     0.008 C 
ENDBRANCH  18  19
ENDBRANCH   8  18
BRANCH  17  22
ATOM     22  C   UNL A   1      33.469  22.174  27.199  1.00  0.00     0.429 C 
ATOM     23  F   UNL A   1      32.757  22.653  28.250  1.00  0.00    -0.167 F 
ATOM     24  F   UNL A   1      34.299  21.228  27.697  1.00  0.00    -0.167 F 
ATOM     25  F   UNL A   1      34.246  23.180  26.742  1.00  0.00    -0.167 F 
ENDBRANCH  17  22
ENDBRANCH   4   7
ENDBRANCH   2   3
ENDBRANCH   1   2
BRANCH   1  26
ATOM     26  C   UNL A   1      38.902  20.411  25.739  1.00  0.00     0.118 C 
BRANCH  26  27
ATOM     27  N   UNL A   1      39.976  19.420  25.807  1.00  0.00    -0.352 N 
ATOM     28  C   UNL A   1      41.319  19.568  26.067  1.00  0.00     0.251 C 
ATOM     29  H   UNL A   1      39.690  18.493  25.639  1.00  0.00     0.163 HD
ATOM     30  O   UNL A   1      42.089  18.646  25.851  1.00  0.00    -0.269 OA
BRANCH  28  31
ATOM     31  C   UNL A   1      41.826  20.854  26.591  1.00  0.00     0.039 A 
ATOM     32  C   UNL A   1      41.894  21.073  27.965  1.00  0.00     0.014 A 
ATOM     33  C   UNL A   1      42.236  21.849  25.700  1.00  0.00     0.014 A 
ATOM     34  C   UNL A   1      42.165  22.346  28.443  1.00  0.00     0.010 A 
ATOM     35  C   UNL A   1      42.627  23.098  26.190  1.00  0.00     0.010 A 
ATOM     36  C   UNL A   1      42.544  23.372  27.563  1.00  0.00    -0.014 A 
BRANCH  36  37
ATOM     37  C   UNL A   1      42.858  24.712  28.120  1.00  0.00     0.031 A 
ATOM     38  C   UNL A   1      44.279  25.123  28.390  1.00  0.00     0.074 A 
ATOM     39  C   UNL A   1      41.850  25.586  28.313  1.00  0.00     0.049 A 
ATOM     40  N   UNL A   1      44.726  26.265  28.848  1.00  0.00    -0.248 NA
ATOM     41  C   UNL A   1      45.337  24.134  28.121  1.00  0.00     0.031 C 
ATOM     42  C   UNL A   1      40.432  25.302  28.072  1.00  0.00     0.029 A 
ATOM     43  N   UNL A   1      41.860  26.896  28.717  1.00  0.00    -0.354 N 
ATOM     44  C   UNL A   1      46.104  26.121  28.948  1.00  0.00     0.074 A 
ATOM     45  C   UNL A   1      46.424  24.779  28.522  1.00  0.00     0.031 C 
ATOM     46  C   UNL A   1      39.721  26.420  28.267  1.00  0.00     0.029 A 
ATOM     47  C   UNL A   1      40.614  27.476  28.726  1.00  0.00     0.049 A 
ATOM     48  H   UNL A   1      42.681  27.375  28.976  1.00  0.00     0.167 HD
ATOM     49  C   UNL A   1      47.018  27.035  29.353  1.00  0.00     0.031 A 
ATOM     50  C   UNL A   1      40.223  28.714  29.081  1.00  0.00     0.031 A 
ATOM     51  C   UNL A   1      46.696  28.380  29.748  1.00  0.00     0.049 A 
ATOM     52  C   UNL A   1      41.256  29.699  29.541  1.00  0.00     0.074 A 
ATOM     53  C   UNL A   1      47.560  29.384  30.147  1.00  0.00     0.029 A 
ATOM     54  N   UNL A   1      45.416  28.912  29.786  1.00  0.00    -0.354 N 
ATOM     55  N   UNL A   1      42.555  29.546  29.623  1.00  0.00    -0.248 NA
ATOM     56  C   UNL A   1      40.775  31.022  29.961  1.00  0.00     0.031 C 
ATOM     57  C   UNL A   1      46.800  30.506  30.481  1.00  0.00     0.029 A 
ATOM     58  C   UNL A   1      45.468  30.222  30.228  1.00  0.00     0.049 A 
ATOM     59  H   UNL A   1      44.595  28.429  29.537  1.00  0.00     0.167 HD
ATOM     60  C   UNL A   1      43.048  30.751  30.101  1.00  0.00     0.074 A 
ATOM     61  C   UNL A   1      41.912  31.635  30.263  1.00  0.00     0.031 C 
ATOM     62  C   UNL A   1      44.328  31.089  30.387  1.00  0.00     0.031 A 
BRANCH  49  63
ATOM     63  C   UNL A   1      48.463  26.626  29.409  1.00  0.00    -0.014 A 
ATOM     64  C   UNL A   1      48.977  26.059  30.587  1.00  0.00     0.009 A 
ATOM     65  C   UNL A   1      49.341  26.911  28.353  1.00  0.00     0.009 A 
ATOM     66  C   UNL A   1      50.344  25.809  30.717  1.00  0.00     0.001 A 
ATOM     67  C   UNL A   1      50.705  26.636  28.476  1.00  0.00     0.001 A 
ATOM     68  C   UNL A   1      51.207  26.097  29.661  1.00  0.00     0.000 A 
ENDBRANCH  49  63
BRANCH  50  69
ATOM     69  C   UNL A   1      38.778  29.062  29.028  1.00  0.00    -0.014 A 
ATOM     70  C   UNL A   1      38.218  29.574  27.845  1.00  0.00     0.009 A 
ATOM     71  C   UNL A   1      37.969  28.949  30.166  1.00  0.00     0.009 A 
ATOM     72  C   UNL A   1      36.887  29.995  27.812  1.00  0.00     0.001 A 
ATOM     73  C   UNL A   1      36.627  29.338  30.120  1.00  0.00     0.001 A 
ATOM     74  C   UNL A   1      36.092  29.873  28.948  1.00  0.00     0.000 A 
ENDBRANCH  50  69
BRANCH  62  75
ATOM     75  C   UNL A   1      44.587  32.473  30.904  1.00  0.00    -0.014 A 
ATOM     76  C   UNL A   1      44.919  33.502  30.008  1.00  0.00     0.009 A 
ATOM     77  C   UNL A   1      44.613  32.734  32.282  1.00  0.00     0.009 A 
ATOM     78  C   UNL A   1      45.290  34.761  30.482  1.00  0.00     0.001 A 
ATOM     79  C   UNL A   1      44.958  34.002  32.752  1.00  0.00     0.001 A 
ATOM     80  C   UNL A   1      45.305  35.011  31.853  1.00  0.00     0.000 A 
ENDBRANCH  62  75
ENDBRANCH  36  37
ENDBRANCH  28  31
ENDBRANCH  26  27
ENDBRANCH   1  26
TORSDOF 13
ENDMDL
MODEL 2
REMARK VINA RESULT:     -12.0      0.228      5.912
REMARK SMILES CC(C)Cc1cc2c(cc1Cl)C=C(C(=O)NCCCNC(=O)c1ccc(-c3c4nc(c(-c5ccccc5)c5ccc([nH]5)c(-c5ccccc5)c5nc(c(-c6ccccc6)c6ccc3[nH]6)C=C5)C=C4)cc1)[C@@H](C(F)(F)F)O2
REMARK SMILES IDX 18 1 17 2 16 3 14 4 15 5 13 7 5 8 6 9 10 10 7 11 9 12 11 13
REMARK SMILES IDX 8 14 76 15 12 16 71 17 4 18 2 19 1 20 3 21 72 22 73 23 74 24
REMARK SMILES IDX 75 25 19 26 20 27 21 28 22 30 23 31 24 32 70 33 25 34 69 35
REMARK SMILES IDX 26 36 27 37 28 38 63 39 29 40 68 41 62 42 64 43 30 44 67 45
REMARK SMILES IDX 61 46 60 47 31 49 53 50 38 51 52 52 39 53 42 54 51 55 65 56
REMARK SMILES IDX 40 57 41 58 50 60 66 61 43 62 32 63 33 64 37 65 34 66 36 67
REMARK SMILES IDX 35 68 54 69 55 70 59 71 56 72 58 73 57 74 44 75 45 76 49 77
REMARK SMILES IDX 46 78 48 79 47 80
REMARK H PARENT 16 6 20 29 64 48 42 59
REMARK Flexibility Score: inf
ROOT
ATOM      1  C   UNL A   1      37.803  19.904  24.806  1.00  0.00     0.042 C 
ENDROOT
BRANCH   1   2
ATOM      2  C   UNL A   1      36.490  20.606  25.113  1.00  0.00     0.118 C 
BRANCH   2   3
ATOM      3  N   UNL A   1      35.347  19.711  24.984  1.00  0.00    -0.352 N 
ATOM      4  C   UNL A   1      34.000  19.822  24.897  1.00  0.00     0.251 C 
ATOM      5  O   UNL A   1      33.387  18.755  24.803  1.00  0.00    -0.270 OA
ATOM      6  H   UNL A   1      35.632  18.769  24.951  1.00  0.00     0.163 HD
BRANCH   4   7
ATOM      7  C   UNL A   1      33.247  21.110  24.913  1.00  0.00     0.067 C 
ATOM      8  C   UNL A   1      30.934  25.443  23.703  1.00  0.00    -0.025 A 
ATOM      9  C   UNL A   1      31.003  24.615  24.827  1.00  0.00     0.052 A 
ATOM     10  C   UNL A   1      31.721  25.084  22.593  1.00  0.00     0.045 A 
ATOM     11  C   UNL A   1      31.719  23.427  24.812  1.00  0.00     0.128 A 
ATOM     12  C   UNL A   1      32.500  23.911  22.604  1.00  0.00     0.032 A 
ATOM     13  Cl  UNL A   1      31.788  26.053  21.163  1.00  0.00    -0.084 Cl
ATOM     14  C   UNL A   1      32.486  23.063  23.714  1.00  0.00     0.019 A 
ATOM     15  O   UNL A   1      31.548  22.641  25.907  1.00  0.00    -0.475 OA
ATOM     16  C   UNL A   1      33.217  21.801  23.756  1.00  0.00     0.025 C 
ATOM     17  C   UNL A   1      32.560  21.637  26.139  1.00  0.00     0.314 C 
BRANCH   8  18
ATOM     18  C   UNL A   1      30.045  26.668  23.777  1.00  0.00     0.040 C 
BRANCH  18  19
ATOM     19  C   UNL A   1      30.784  28.037  23.776  1.00  0.00    -0.013 C 
ATOM     20  C   UNL A   1      29.907  29.236  23.384  1.00  0.00     0.008 C 
ATOM     21  C   UNL A   1      31.353  28.307  25.173  1.00  0.00     0.008 C 
ENDBRANCH  18  19
ENDBRANCH   8  18
BRANCH  17  22
ATOM     22  C   UNL A   1      33.530  22.185  27.202  1.00  0.00     0.429 C 
ATOM     23  F   UNL A   1      34.314  23.153  26.661  1.00  0.00    -0.167 F 
ATOM     24  F   UNL A   1      32.895  22.749  28.254  1.00  0.00    -0.167 F 
ATOM     25  F   UNL A   1      34.348  21.232  27.699  1.00  0.00    -0.167 F 
ENDBRANCH  17  22
ENDBRANCH   4   7
ENDBRANCH   2   3
ENDBRANCH   1   2
BRANCH   1  26
ATOM     26  C   UNL A   1      38.930  20.397  25.702  1.00  0.00     0.118 C 
BRANCH  26  27
ATOM     27  N   UNL A   1      40.001  19.408  25.829  1.00  0.00    -0.352 N 
ATOM     28  C   UNL A   1      41.339  19.565  26.112  1.00  0.00     0.251 C 
ATOM     29  H   UNL A   1      39.717  18.476  25.690  1.00  0.00     0.163 HD
ATOM     30  O   UNL A   1      42.111  18.635  25.946  1.00  0.00    -0.269 OA
BRANCH  28  31
ATOM     31  C   UNL A   1      41.836  20.869  26.598  1.00  0.00     0.039 A 
ATOM     32  C   UNL A   1      41.845  21.153  27.961  1.00  0.00     0.014 A 
ATOM     33  C   UNL A   1      42.298  21.817  25.680  1.00  0.00     0.014 A 
ATOM     34  C   UNL A   1      42.109  22.444  28.391  1.00  0.00     0.010 A 
ATOM     35  C   UNL A   1      42.681  23.084  26.129  1.00  0.00     0.010 A 
ATOM     36  C   UNL A   1      42.539  23.424  27.482  1.00  0.00    -0.014 A 
BRANCH  36  37
ATOM     37  C   UNL A   1      42.844  24.785  27.990  1.00  0.00     0.031 A 
ATOM     38  C   UNL A   1      41.747  25.786  28.228  1.00  0.00     0.074 A 
ATOM     39  C   UNL A   1      44.119  25.089  28.304  1.00  0.00     0.049 A 
ATOM     40  N   UNL A   1      41.841  27.006  28.695  1.00  0.00    -0.248 NA
ATOM     41  C   UNL A   1      40.370  25.377  27.902  1.00  0.00     0.031 C 
ATOM     42  C   UNL A   1      45.266  24.192  28.127  1.00  0.00     0.029 A 
ATOM     43  N   UNL A   1      44.664  26.213  28.870  1.00  0.00    -0.354 N 
ATOM     44  C   UNL A   1      40.548  27.515  28.689  1.00  0.00     0.074 A 
ATOM     45  C   UNL A   1      39.687  26.484  28.158  1.00  0.00     0.031 C 
ATOM     46  C   UNL A   1      46.361  24.773  28.636  1.00  0.00     0.029 A 
ATOM     47  C   UNL A   1      46.015  26.111  29.098  1.00  0.00     0.049 A 
ATOM     48  H   UNL A   1      44.138  27.015  29.090  1.00  0.00     0.167 HD
ATOM     49  C   UNL A   1      40.123  28.733  29.099  1.00  0.00     0.031 A 
ATOM     50  C   UNL A   1      46.891  26.999  29.604  1.00  0.00     0.031 A 
ATOM     51  C   UNL A   1      40.982  29.744  29.656  1.00  0.00     0.049 A 
ATOM     52  C   UNL A   1      46.392  28.347  30.034  1.00  0.00     0.074 A 
ATOM     53  C   UNL A   1      40.633  30.999  30.123  1.00  0.00     0.029 A 
ATOM     54  N   UNL A   1      42.351  29.617  29.826  1.00  0.00    -0.354 N 
ATOM     55  N   UNL A   1      45.166  28.808  30.027  1.00  0.00    -0.248 NA
ATOM     56  C   UNL A   1      47.392  29.297  30.539  1.00  0.00     0.031 C 
ATOM     57  C   UNL A   1      41.799  31.652  30.526  1.00  0.00     0.029 A 
ATOM     58  C   UNL A   1      42.865  30.782  30.368  1.00  0.00     0.049 A 
ATOM     59  H   UNL A   1      42.879  28.818  29.596  1.00  0.00     0.167 HD
ATOM     60  C   UNL A   1      45.244  30.100  30.525  1.00  0.00     0.074 A 
ATOM     61  C   UNL A   1      46.634  30.340  30.854  1.00  0.00     0.031 C 
ATOM     62  C   UNL A   1      44.252  31.006  30.687  1.00  0.00     0.031 A 
BRANCH  49  63
ATOM     63  C   UNL A   1      38.664  29.066  28.959  1.00  0.00    -0.014 A 
ATOM     64  C   UNL A   1      38.196  29.636  27.764  1.00  0.00     0.009 A 
ATOM     65  C   UNL A   1      37.780  28.936  30.041  1.00  0.00     0.009 A 
ATOM     66  C   UNL A   1      36.881  30.091  27.662  1.00  0.00     0.001 A 
ATOM     67  C   UNL A   1      36.457  29.369  29.927  1.00  0.00     0.001 A 
ATOM     68  C   UNL A   1      36.012  29.957  28.743  1.00  0.00     0.000 A 
ENDBRANCH  49  63
BRANCH  50  69
ATOM     69  C   UNL A   1      48.327  26.628  29.702  1.00  0.00    -0.014 A 
ATOM     70  C   UNL A   1      49.200  26.890  28.632  1.00  0.00     0.009 A 
ATOM     71  C   UNL A   1      48.821  25.956  30.829  1.00  0.00     0.009 A 
ATOM     72  C   UNL A   1      50.527  26.459  28.673  1.00  0.00     0.001 A 
ATOM     73  C   UNL A   1      50.160  25.557  30.882  1.00  0.00     0.001 A 
ATOM     74  C   UNL A   1      51.006  25.796  29.800  1.00  0.00     0.000 A 
ENDBRANCH  50  69
BRANCH  62  75
ATOM     75  C   UNL A   1      44.616  32.350  31.247  1.00  0.00    -0.014 A 
ATOM     76  C   UNL A   1      44.514  32.581  32.628  1.00  0.00     0.009 A 
ATOM     77  C   UNL A   1      44.952  33.416  30.400  1.00  0.00     0.009 A 
ATOM     78  C   UNL A   1      44.723  33.859  33.149  1.00  0.00     0.001 A 
ATOM     79  C   UNL A   1      45.188  34.687  30.927  1.00  0.00     0.001 A 
ATOM     80  C   UNL A   1      45.064  34.909  32.298  1.00  0.00     0.000 A 
ENDBRANCH  62  75
ENDBRANCH  36  37
ENDBRANCH  28  31
ENDBRANCH  26  27
ENDBRANCH   1  26
TORSDOF 13
ENDMDL
MODEL 3
REMARK VINA RESULT:     -11.9      1.466      6.152
REMARK SMILES CC(C)Cc1cc2c(cc1Cl)C=C(C(=O)NCCCNC(=O)c1ccc(-c3c4nc(c(-c5ccccc5)c5ccc([nH]5)c(-c5ccccc5)c5nc(c(-c6ccccc6)c6ccc3[nH]6)C=C5)C=C4)cc1)[C@@H](C(F)(F)F)O2
REMARK SMILES IDX 18 1 17 2 16 3 14 4 15 5 13 7 5 8 6 9 10 10 7 11 9 12 11 13
REMARK SMILES IDX 8 14 76 15 12 16 71 17 4 18 2 19 1 20 3 21 72 22 73 23 74 24
REMARK SMILES IDX 75 25 19 26 20 27 21 28 22 30 23 31 24 32 70 33 25 34 69 35
REMARK SMILES IDX 26 36 27 37 28 38 63 39 29 40 68 41 62 42 64 43 30 44 67 45
REMARK SMILES IDX 61 46 60 47 31 49 53 50 38 51 52 52 39 53 42 54 51 55 65 56
REMARK SMILES IDX 40 57 41 58 50 60 66 61 43 62 32 63 33 64 37 65 34 66 36 67
REMARK SMILES IDX 35 68 54 69 55 70 59 71 56 72 58 73 57 74 44 75 45 76 49 77
REMARK SMILES IDX 46 78 48 79 47 80
REMARK H PARENT 16 6 20 29 64 48 42 59
REMARK Flexibility Score: inf
ROOT
ATOM      1  C   UNL A   1      37.786  19.857  24.990  1.00  0.00     0.042 C 
ENDROOT
BRANCH   1   2
ATOM      2  C   UNL A   1      36.727  20.926  24.777  1.00  0.00     0.118 C 
BRANCH   2   3
ATOM      3  N   UNL A   1      35.843  21.057  25.928  1.00  0.00    -0.352 N 
ATOM      4  C   UNL A   1      34.804  21.842  26.302  1.00  0.00     0.251 C 
ATOM      5  O   UNL A   1      34.333  21.600  27.417  1.00  0.00    -0.270 OA
ATOM      6  H   UNL A   1      36.059  20.395  26.624  1.00  0.00     0.163 HD
BRANCH   4   7
ATOM      7  C   UNL A   1      34.224  22.941  25.476  1.00  0.00     0.067 C 
ATOM      8  C   UNL A   1      32.357  27.326  23.780  1.00  0.00    -0.025 A 
ATOM      9  C   UNL A   1      32.782  26.123  23.211  1.00  0.00     0.052 A 
ATOM     10  C   UNL A   1      32.365  27.410  25.186  1.00  0.00     0.045 A 
ATOM     11  C   UNL A   1      33.305  25.097  23.986  1.00  0.00     0.128 A 
ATOM     12  C   UNL A   1      32.833  26.341  25.973  1.00  0.00     0.032 A 
ATOM     13  Cl  UNL A   1      31.798  28.810  26.026  1.00  0.00    -0.084 Cl
ATOM     14  C   UNL A   1      33.326  25.181  25.371  1.00  0.00     0.019 A 
ATOM     15  O   UNL A   1      33.844  24.066  23.283  1.00  0.00    -0.475 OA
ATOM     16  C   UNL A   1      33.889  24.070  26.132  1.00  0.00     0.025 C 
ATOM     17  C   UNL A   1      34.004  22.821  23.996  1.00  0.00     0.314 C 
BRANCH   8  18
ATOM     18  C   UNL A   1      31.897  28.429  22.848  1.00  0.00     0.040 C 
BRANCH  18  19
ATOM     19  C   UNL A   1      30.418  28.338  22.375  1.00  0.00    -0.013 C 
ATOM     20  C   UNL A   1      29.455  27.721  23.401  1.00  0.00     0.008 C 
ATOM     21  C   UNL A   1      29.906  29.743  22.036  1.00  0.00     0.008 C 
ENDBRANCH  18  19
ENDBRANCH   8  18
BRANCH  17  22
ATOM     22  C   UNL A   1      32.822  21.908  23.621  1.00  0.00     0.429 C 
ATOM     23  F   UNL A   1      32.487  22.093  22.319  1.00  0.00    -0.167 F 
ATOM     24  F   UNL A   1      33.108  20.593  23.760  1.00  0.00    -0.167 F 
ATOM     25  F   UNL A   1      31.720  22.155  24.362  1.00  0.00    -0.167 F 
ENDBRANCH  17  22
ENDBRANCH   4   7
ENDBRANCH   2   3
ENDBRANCH   1   2
BRANCH   1  26
ATOM     26  C   UNL A   1      38.959  20.376  25.809  1.00  0.00     0.118 C 
BRANCH  26  27
ATOM     27  N   UNL A   1      40.042  19.398  25.897  1.00  0.00    -0.352 N 
ATOM     28  C   UNL A   1      41.391  19.568  26.111  1.00  0.00     0.251 C 
ATOM     29  H   UNL A   1      39.759  18.462  25.786  1.00  0.00     0.163 HD
ATOM     30  O   UNL A   1      42.162  18.641  25.921  1.00  0.00    -0.269 OA
BRANCH  28  31
ATOM     31  C   UNL A   1      41.901  20.883  26.553  1.00  0.00     0.039 A 
ATOM     32  C   UNL A   1      41.958  21.194  27.909  1.00  0.00     0.014 A 
ATOM     33  C   UNL A   1      42.327  21.813  25.601  1.00  0.00     0.014 A 
ATOM     34  C   UNL A   1      42.233  22.494  28.303  1.00  0.00     0.010 A 
ATOM     35  C   UNL A   1      42.723  23.090  26.010  1.00  0.00     0.010 A 
ATOM     36  C   UNL A   1      42.628  23.456  27.360  1.00  0.00    -0.014 A 
BRANCH  36  37
ATOM     37  C   UNL A   1      42.947  24.828  27.829  1.00  0.00     0.031 A 
ATOM     38  C   UNL A   1      41.854  25.821  28.118  1.00  0.00     0.074 A 
ATOM     39  C   UNL A   1      44.235  25.150  28.063  1.00  0.00     0.049 A 
ATOM     40  N   UNL A   1      41.962  27.048  28.560  1.00  0.00    -0.248 NA
ATOM     41  C   UNL A   1      40.466  25.392  27.879  1.00  0.00     0.031 C 
ATOM     42  C   UNL A   1      45.379  24.263  27.832  1.00  0.00     0.029 A 
ATOM     43  N   UNL A   1      44.799  26.288  28.579  1.00  0.00    -0.354 N 
ATOM     44  C   UNL A   1      40.666  27.544  28.623  1.00  0.00     0.074 A 
ATOM     45  C   UNL A   1      39.786  26.497  28.159  1.00  0.00     0.031 C 
ATOM     46  C   UNL A   1      46.495  24.862  28.267  1.00  0.00     0.029 A 
ATOM     47  C   UNL A   1      46.163  26.204  28.729  1.00  0.00     0.049 A 
ATOM     48  H   UNL A   1      44.278  27.088  28.819  1.00  0.00     0.167 HD
ATOM     49  C   UNL A   1      40.251  28.764  29.040  1.00  0.00     0.031 A 
ATOM     50  C   UNL A   1      47.057  27.109  29.170  1.00  0.00     0.031 A 
ATOM     51  C   UNL A   1      41.130  29.792  29.530  1.00  0.00     0.049 A 
ATOM     52  C   UNL A   1      46.569  28.457  29.609  1.00  0.00     0.074 A 
ATOM     53  C   UNL A   1      40.795  31.050  29.999  1.00  0.00     0.029 A 
ATOM     54  N   UNL A   1      42.508  29.682  29.621  1.00  0.00    -0.354 N 
ATOM     55  N   UNL A   1      45.339  28.905  29.668  1.00  0.00    -0.248 NA
ATOM     56  C   UNL A   1      47.586  29.426  30.040  1.00  0.00     0.031 C 
ATOM     57  C   UNL A   1      41.975  31.722  30.323  1.00  0.00     0.029 A 
ATOM     58  C   UNL A   1      43.040  30.860  30.116  1.00  0.00     0.049 A 
ATOM     59  H   UNL A   1      43.031  28.885  29.372  1.00  0.00     0.167 HD
ATOM     60  C   UNL A   1      45.431  30.205  30.142  1.00  0.00     0.074 A 
ATOM     61  C   UNL A   1      46.836  30.464  30.384  1.00  0.00     0.031 C 
ATOM     62  C   UNL A   1      44.440  31.104  30.349  1.00  0.00     0.031 A 
BRANCH  49  63
ATOM     63  C   UNL A   1      38.783  29.080  28.982  1.00  0.00    -0.014 A 
ATOM     64  C   UNL A   1      38.241  29.635  27.811  1.00  0.00     0.009 A 
ATOM     65  C   UNL A   1      37.964  28.947  30.113  1.00  0.00     0.009 A 
ATOM     66  C   UNL A   1      36.917  30.075  27.781  1.00  0.00     0.001 A 
ATOM     67  C   UNL A   1      36.632  29.365  30.072  1.00  0.00     0.001 A 
ATOM     68  C   UNL A   1      36.113  29.939  28.912  1.00  0.00     0.000 A 
ENDBRANCH  49  63
BRANCH  50  69
ATOM     69  C   UNL A   1      48.500  26.754  29.189  1.00  0.00    -0.014 A 
ATOM     70  C   UNL A   1      49.311  27.032  28.075  1.00  0.00     0.009 A 
ATOM     71  C   UNL A   1      49.062  26.081  30.283  1.00  0.00     0.009 A 
ATOM     72  C   UNL A   1      50.643  26.617  28.042  1.00  0.00     0.001 A 
ATOM     73  C   UNL A   1      50.406  25.698  30.261  1.00  0.00     0.001 A 
ATOM     74  C   UNL A   1      51.190  25.953  29.137  1.00  0.00     0.000 A 
ENDBRANCH  50  69
BRANCH  62  75
ATOM     75  C   UNL A   1      44.822  32.460  30.867  1.00  0.00    -0.014 A 
ATOM     76  C   UNL A   1      45.169  33.478  29.965  1.00  0.00     0.009 A 
ATOM     77  C   UNL A   1      44.946  32.696  32.244  1.00  0.00     0.009 A 
ATOM     78  C   UNL A   1      45.652  34.702  30.431  1.00  0.00     0.001 A 
ATOM     79  C   UNL A   1      45.402  33.931  32.708  1.00  0.00     0.001 A 
ATOM     80  C   UNL A   1      45.763  34.928  31.802  1.00  0.00     0.000 A 
ENDBRANCH  62  75
ENDBRANCH  36  37
ENDBRANCH  28  31
ENDBRANCH  26  27
ENDBRANCH   1  26
TORSDOF 13
ENDMDL
