MODEL 1
REMARK VINA RESULT:     -10.6      0.000      0.000
REMARK SMILES C[C@H](NC(N)=O)C(=O)N[C@@H](CO)C(=O)NCCCNC(=O)c1ccc(-c2c3nc(c(-c4ccccc4)c4ccc([nH]4)c(-c4ccccc4)c4nc(c(-c5ccccc5)c5ccc2[nH]5)C=C4)C=C3)cc1
REMARK SMILES IDX 16 1 15 2 13 3 14 4 10 6 9 7 7 8 8 9 2 11 1 12 3 13 4 14
REMARK SMILES IDX 5 16 6 17 11 20 12 21 17 23 18 24 19 25 20 26 21 28 22 29
REMARK SMILES IDX 23 30 69 31 24 32 68 33 25 34 26 35 27 36 62 37 28 38 67 39
REMARK SMILES IDX 61 40 63 41 29 42 66 43 60 44 59 45 30 47 52 48 37 49 51 50
REMARK SMILES IDX 38 51 41 52 50 53 64 54 39 55 40 56 49 58 65 59 42 60 31 61
REMARK SMILES IDX 32 62 36 63 33 64 35 65 34 66 53 67 54 68 58 69 55 70 57 71
REMARK SMILES IDX 56 72 43 73 44 74 48 75 45 76 47 77 46 78
REMARK H PARENT 15 5 9 10 3 15 5 18 5 19 12 22 19 27 63 46 41 57
REMARK Flexibility Score: inf
ROOT
ATOM      1  C   UNL A   1      36.451  21.204  24.853  1.00  0.00     0.117 C 
ENDROOT
BRANCH   1   2
ATOM      2  N   UNL A   1      35.703  21.405  26.079  1.00  0.00    -0.354 N 
ATOM      3  C   UNL A   1      34.373  21.295  26.340  1.00  0.00     0.244 C 
ATOM      4  O   UNL A   1      34.029  21.343  27.528  1.00  0.00    -0.273 OA
ATOM      5  H   UNL A   1      36.250  21.665  26.855  1.00  0.00     0.163 HD
BRANCH   3   6
ATOM      6  C   UNL A   1      33.314  21.053  25.248  1.00  0.00     0.197 C 
BRANCH   6   7
ATOM      7  N   UNL A   1      32.517  19.850  25.491  1.00  0.00    -0.340 N 
ATOM      8  C   UNL A   1      32.786  18.545  25.194  1.00  0.00     0.243 C 
ATOM      9  O   UNL A   1      32.168  17.700  25.850  1.00  0.00    -0.273 OA
ATOM     10  H   UNL A   1      31.652  20.006  25.936  1.00  0.00     0.164 HD
BRANCH   8  11
ATOM     11  C   UNL A   1      33.900  18.130  24.207  1.00  0.00     0.170 C 
ATOM     12  C   UNL A   1      33.389  17.166  23.141  1.00  0.00     0.041 C 
BRANCH  11  13
ATOM     13  N   UNL A   1      35.080  17.593  24.884  1.00  0.00    -0.327 N 
ATOM     14  C   UNL A   1      35.162  16.282  25.235  1.00  0.00     0.312 C 
ATOM     15  H   UNL A   1      35.831  18.194  25.090  1.00  0.00     0.166 HD
ATOM     16  N   UNL A   1      36.302  15.976  25.891  1.00  0.00    -0.352 N 
ATOM     17  O   UNL A   1      34.309  15.433  25.015  1.00  0.00    -0.249 OA
ATOM     18  H   UNL A   1      36.977  16.674  26.058  1.00  0.00     0.161 HD
ATOM     19  H   UNL A   1      36.460  15.055  26.201  1.00  0.00     0.161 HD
ENDBRANCH  11  13
ENDBRANCH   8  11
ENDBRANCH   6   7
BRANCH   6  20
ATOM     20  C   UNL A   1      32.481  22.303  24.938  1.00  0.00     0.191 C 
BRANCH  20  21
ATOM     21  O   UNL A   1      32.358  22.593  23.551  1.00  0.00    -0.394 OA
ATOM     22  H   UNL A   1      32.598  21.808  23.033  1.00  0.00     0.210 HD
ENDBRANCH  20  21
ENDBRANCH   6  20
ENDBRANCH   3   6
ENDBRANCH   1   2
BRANCH   1  23
ATOM     23  C   UNL A   1      37.509  20.122  24.989  1.00  0.00     0.042 C 
BRANCH  23  24
ATOM     24  C   UNL A   1      38.757  20.566  25.737  1.00  0.00     0.118 C 
BRANCH  24  25
ATOM     25  N   UNL A   1      39.790  19.538  25.776  1.00  0.00    -0.352 N 
ATOM     26  C   UNL A   1      41.132  19.636  26.053  1.00  0.00     0.251 C 
ATOM     27  H   UNL A   1      39.476  18.628  25.571  1.00  0.00     0.163 HD
ATOM     28  O   UNL A   1      41.870  18.676  25.850  1.00  0.00    -0.269 OA
BRANCH  26  29
ATOM     29  C   UNL A   1      41.697  20.902  26.567  1.00  0.00     0.039 A 
ATOM     30  C   UNL A   1      42.166  21.855  25.659  1.00  0.00     0.014 A 
ATOM     31  C   UNL A   1      41.768  21.150  27.939  1.00  0.00     0.014 A 
ATOM     32  C   UNL A   1      42.628  23.087  26.128  1.00  0.00     0.010 A 
ATOM     33  C   UNL A   1      42.125  22.413  28.395  1.00  0.00     0.010 A 
ATOM     34  C   UNL A   1      42.567  23.393  27.497  1.00  0.00    -0.014 A 
BRANCH  34  35
ATOM     35  C   UNL A   1      42.966  24.728  28.013  1.00  0.00     0.031 A 
ATOM     36  C   UNL A   1      41.923  25.784  28.260  1.00  0.00     0.074 A 
ATOM     37  C   UNL A   1      44.271  25.012  28.190  1.00  0.00     0.049 A 
ATOM     38  N   UNL A   1      42.080  27.026  28.640  1.00  0.00    -0.248 NA
ATOM     39  C   UNL A   1      40.520  25.404  28.021  1.00  0.00     0.031 C 
ATOM     40  C   UNL A   1      45.384  24.092  27.944  1.00  0.00     0.029 A 
ATOM     41  N   UNL A   1      44.884  26.164  28.616  1.00  0.00    -0.354 N 
ATOM     42  C   UNL A   1      40.805  27.577  28.666  1.00  0.00     0.074 A 
ATOM     43  C   UNL A   1      39.892  26.555  28.207  1.00  0.00     0.031 C 
ATOM     44  C   UNL A   1      46.538  24.703  28.255  1.00  0.00     0.029 A 
ATOM     45  C   UNL A   1      46.253  26.071  28.674  1.00  0.00     0.049 A 
ATOM     46  H   UNL A   1      44.389  26.981  28.856  1.00  0.00     0.167 HD
ATOM     47  C   UNL A   1      40.423  28.815  29.059  1.00  0.00     0.031 A 
ATOM     48  C   UNL A   1      47.179  26.987  29.017  1.00  0.00     0.031 A 
ATOM     49  C   UNL A   1      41.330  29.829  29.526  1.00  0.00     0.049 A 
ATOM     50  C   UNL A   1      46.730  28.362  29.430  1.00  0.00     0.074 A 
ATOM     51  C   UNL A   1      41.036  31.096  29.999  1.00  0.00     0.029 A 
ATOM     52  N   UNL A   1      42.709  29.691  29.574  1.00  0.00    -0.354 N 
ATOM     53  N   UNL A   1      45.514  28.843  29.517  1.00  0.00    -0.248 NA
ATOM     54  C   UNL A   1      47.784  29.316  29.803  1.00  0.00     0.031 C 
ATOM     55  C   UNL A   1      42.243  31.747  30.278  1.00  0.00     0.029 A 
ATOM     56  C   UNL A   1      43.282  30.860  30.044  1.00  0.00     0.049 A 
ATOM     57  H   UNL A   1      43.206  28.882  29.313  1.00  0.00     0.167 HD
ATOM     58  C   UNL A   1      45.654  30.143  29.985  1.00  0.00     0.074 A 
ATOM     59  C   UNL A   1      47.071  30.369  30.179  1.00  0.00     0.031 C 
ATOM     60  C   UNL A   1      44.695  31.068  30.234  1.00  0.00     0.031 A 
BRANCH  47  61
ATOM     61  C   UNL A   1      38.956  29.142  28.995  1.00  0.00    -0.014 A 
ATOM     62  C   UNL A   1      38.369  29.641  27.820  1.00  0.00     0.009 A 
ATOM     63  C   UNL A   1      38.140  28.915  30.115  1.00  0.00     0.009 A 
ATOM     64  C   UNL A   1      37.006  29.942  27.781  1.00  0.00     0.001 A 
ATOM     65  C   UNL A   1      36.771  29.185  30.062  1.00  0.00     0.001 A 
ATOM     66  C   UNL A   1      36.208  29.708  28.899  1.00  0.00     0.000 A 
ENDBRANCH  47  61
BRANCH  48  67
ATOM     67  C   UNL A   1      48.624  26.634  28.999  1.00  0.00    -0.014 A 
ATOM     68  C   UNL A   1      49.205  25.948  30.076  1.00  0.00     0.009 A 
ATOM     69  C   UNL A   1      49.433  26.991  27.909  1.00  0.00     0.009 A 
ATOM     70  C   UNL A   1      50.572  25.657  30.077  1.00  0.00     0.001 A 
ATOM     71  C   UNL A   1      50.792  26.669  27.898  1.00  0.00     0.001 A 
ATOM     72  C   UNL A   1      51.362  26.013  28.987  1.00  0.00     0.000 A 
ENDBRANCH  48  67
BRANCH  60  73
ATOM     73  C   UNL A   1      45.140  32.393  30.786  1.00  0.00    -0.014 A 
ATOM     74  C   UNL A   1      45.276  32.604  32.167  1.00  0.00     0.009 A 
ATOM     75  C   UNL A   1      45.471  33.434  29.904  1.00  0.00     0.009 A 
ATOM     76  C   UNL A   1      45.700  33.842  32.653  1.00  0.00     0.001 A 
ATOM     77  C   UNL A   1      45.928  34.659  30.391  1.00  0.00     0.001 A 
ATOM     78  C   UNL A   1      46.031  34.866  31.766  1.00  0.00     0.000 A 
ENDBRANCH  60  73
ENDBRANCH  34  35
ENDBRANCH  26  29
ENDBRANCH  24  25
ENDBRANCH  23  24
ENDBRANCH   1  23
TORSDOF 15
ENDMDL
MODEL 2
REMARK VINA RESULT:     -10.5      5.782     10.101
REMARK SMILES C[C@H](NC(N)=O)C(=O)N[C@@H](CO)C(=O)NCCCNC(=O)c1ccc(-c2c3nc(c(-c4ccccc4)c4ccc([nH]4)c(-c4ccccc4)c4nc(c(-c5ccccc5)c5ccc2[nH]5)C=C4)C=C3)cc1
REMARK SMILES IDX 16 1 15 2 13 3 14 4 10 6 9 7 7 8 8 9 2 11 1 12 3 13 4 14
REMARK SMILES IDX 5 16 6 17 11 20 12 21 17 23 18 24 19 25 20 26 21 28 22 29
REMARK SMILES IDX 23 30 69 31 24 32 68 33 25 34 26 35 27 36 62 37 28 38 67 39
REMARK SMILES IDX 61 40 63 41 29 42 66 43 60 44 59 45 30 47 52 48 37 49 51 50
REMARK SMILES IDX 38 51 41 52 50 53 64 54 39 55 40 56 49 58 65 59 42 60 31 61
REMARK SMILES IDX 32 62 36 63 33 64 35 65 34 66 53 67 54 68 58 69 55 70 57 71
REMARK SMILES IDX 56 72 43 73 44 74 48 75 45 76 47 77 46 78
REMARK H PARENT 15 5 9 10 3 15 5 18 5 19 12 22 19 27 63 46 41 57
REMARK Flexibility Score: inf
ROOT
ATOM      1  C   UNL A   1      31.404  30.885  26.062  1.00  0.00     0.117 C 
ENDROOT
BRANCH   1   2
ATOM      2  N   UNL A   1      32.579  30.246  26.622  1.00  0.00    -0.354 N 
ATOM      3  C   UNL A   1      33.036  28.970  26.515  1.00  0.00     0.244 C 
ATOM      4  O   UNL A   1      34.172  28.743  26.947  1.00  0.00    -0.273 OA
ATOM      5  H   UNL A   1      33.142  30.835  27.174  1.00  0.00     0.163 HD
BRANCH   3   6
ATOM      6  C   UNL A   1      32.240  27.841  25.833  1.00  0.00     0.197 C 
BRANCH   6   7
ATOM      7  N   UNL A   1      33.090  26.945  25.048  1.00  0.00    -0.340 N 
ATOM      8  C   UNL A   1      32.987  26.558  23.743  1.00  0.00     0.243 C 
ATOM      9  O   UNL A   1      34.024  26.140  23.217  1.00  0.00    -0.273 OA
ATOM     10  H   UNL A   1      33.853  26.560  25.538  1.00  0.00     0.164 HD
BRANCH   8  11
ATOM     11  C   UNL A   1      31.698  26.762  22.915  1.00  0.00     0.170 C 
ATOM     12  C   UNL A   1      31.420  25.580  21.992  1.00  0.00     0.041 C 
BRANCH  11  13
ATOM     13  N   UNL A   1      31.700  28.023  22.174  1.00  0.00    -0.327 N 
ATOM     14  C   UNL A   1      30.797  29.004  22.440  1.00  0.00     0.312 C 
ATOM     15  H   UNL A   1      32.369  28.164  21.467  1.00  0.00     0.166 HD
ATOM     16  N   UNL A   1      30.920  30.077  21.628  1.00  0.00    -0.352 N 
ATOM     17  O   UNL A   1      29.935  28.960  23.306  1.00  0.00    -0.249 OA
ATOM     18  H   UNL A   1      31.623  30.093  20.937  1.00  0.00     0.161 HD
ATOM     19  H   UNL A   1      30.310  30.842  21.726  1.00  0.00     0.161 HD
ENDBRANCH  11  13
ENDBRANCH   8  11
ENDBRANCH   6   7
BRANCH   6  20
ATOM     20  C   UNL A   1      31.288  27.118  26.795  1.00  0.00     0.191 C 
BRANCH  20  21
ATOM     21  O   UNL A   1      31.028  27.827  28.000  1.00  0.00    -0.394 OA
ATOM     22  H   UNL A   1      30.808  28.749  27.792  1.00  0.00     0.210 HD
ENDBRANCH  20  21
ENDBRANCH   6  20
ENDBRANCH   3   6
ENDBRANCH   1   2
BRANCH   1  23
ATOM     23  C   UNL A   1      31.267  32.334  26.500  1.00  0.00     0.042 C 
BRANCH  23  24
ATOM     24  C   UNL A   1      32.474  32.870  27.256  1.00  0.00     0.118 C 
BRANCH  24  25
ATOM     25  N   UNL A   1      32.317  34.261  27.661  1.00  0.00    -0.352 N 
ATOM     26  C   UNL A   1      32.973  34.986  28.626  1.00  0.00     0.251 C 
ATOM     27  H   UNL A   1      31.630  34.762  27.164  1.00  0.00     0.163 HD
ATOM     28  O   UNL A   1      32.561  36.100  28.940  1.00  0.00    -0.269 OA
BRANCH  26  29
ATOM     29  C   UNL A   1      34.155  34.419  29.309  1.00  0.00     0.039 A 
ATOM     30  C   UNL A   1      33.981  33.742  30.519  1.00  0.00     0.014 A 
ATOM     31  C   UNL A   1      35.432  34.555  28.762  1.00  0.00     0.014 A 
ATOM     32  C   UNL A   1      35.077  33.133  31.134  1.00  0.00     0.010 A 
ATOM     33  C   UNL A   1      36.499  33.860  29.317  1.00  0.00     0.010 A 
ATOM     34  C   UNL A   1      36.336  33.148  30.513  1.00  0.00    -0.014 A 
BRANCH  34  35
ATOM     35  C   UNL A   1      37.499  32.432  31.099  1.00  0.00     0.031 A 
ATOM     36  C   UNL A   1      38.128  32.929  32.373  1.00  0.00     0.074 A 
ATOM     37  C   UNL A   1      38.032  31.379  30.448  1.00  0.00     0.049 A 
ATOM     38  N   UNL A   1      39.188  32.484  32.999  1.00  0.00    -0.248 NA
ATOM     39  C   UNL A   1      37.502  34.099  33.012  1.00  0.00     0.031 C 
ATOM     40  C   UNL A   1      37.545  30.825  29.183  1.00  0.00     0.029 A 
ATOM     41  N   UNL A   1      39.110  30.588  30.762  1.00  0.00    -0.354 N 
ATOM     42  C   UNL A   1      39.364  33.328  34.089  1.00  0.00     0.074 A 
ATOM     43  C   UNL A   1      38.341  34.346  34.007  1.00  0.00     0.031 C 
ATOM     44  C   UNL A   1      38.298  29.766  28.847  1.00  0.00     0.029 A 
ATOM     45  C   UNL A   1      39.350  29.595  29.844  1.00  0.00     0.049 A 
ATOM     46  H   UNL A   1      39.659  30.720  31.569  1.00  0.00     0.167 HD
ATOM     47  C   UNL A   1      40.280  33.251  35.082  1.00  0.00     0.031 A 
ATOM     48  C   UNL A   1      40.315  28.657  29.802  1.00  0.00     0.031 A 
ATOM     49  C   UNL A   1      41.291  32.232  35.169  1.00  0.00     0.049 A 
ATOM     50  C   UNL A   1      41.333  28.605  30.907  1.00  0.00     0.074 A 
ATOM     51  C   UNL A   1      42.231  32.034  36.166  1.00  0.00     0.029 A 
ATOM     52  N   UNL A   1      41.496  31.242  34.221  1.00  0.00    -0.354 N 
ATOM     53  N   UNL A   1      41.442  29.367  31.968  1.00  0.00    -0.248 NA
ATOM     54  C   UNL A   1      42.356  27.553  30.813  1.00  0.00     0.031 C 
ATOM     55  C   UNL A   1      43.044  30.959  35.790  1.00  0.00     0.029 A 
ATOM     56  C   UNL A   1      42.566  30.446  34.595  1.00  0.00     0.049 A 
ATOM     57  H   UNL A   1      40.962  31.122  33.403  1.00  0.00     0.167 HD
ATOM     58  C   UNL A   1      42.523  28.869  32.684  1.00  0.00     0.074 A 
ATOM     59  C   UNL A   1      43.025  27.729  31.945  1.00  0.00     0.031 C 
ATOM     60  C   UNL A   1      43.051  29.314  33.850  1.00  0.00     0.031 A 
BRANCH  47  61
ATOM     61  C   UNL A   1      40.231  34.304  36.155  1.00  0.00    -0.014 A 
ATOM     62  C   UNL A   1      40.978  35.490  36.050  1.00  0.00     0.009 A 
ATOM     63  C   UNL A   1      39.399  34.125  37.272  1.00  0.00     0.009 A 
ATOM     64  C   UNL A   1      40.922  36.455  37.058  1.00  0.00     0.001 A 
ATOM     65  C   UNL A   1      39.320  35.107  38.262  1.00  0.00     0.001 A 
ATOM     66  C   UNL A   1      40.089  36.265  38.159  1.00  0.00     0.000 A 
ENDBRANCH  47  61
BRANCH  48  67
ATOM     67  C   UNL A   1      40.361  27.679  28.682  1.00  0.00    -0.014 A 
ATOM     68  C   UNL A   1      41.097  27.959  27.520  1.00  0.00     0.009 A 
ATOM     69  C   UNL A   1      39.661  26.466  28.763  1.00  0.00     0.009 A 
ATOM     70  C   UNL A   1      41.103  27.059  26.451  1.00  0.00     0.001 A 
ATOM     71  C   UNL A   1      39.696  25.553  27.705  1.00  0.00     0.001 A 
ATOM     72  C   UNL A   1      40.408  25.856  26.546  1.00  0.00     0.000 A 
ENDBRANCH  48  67
BRANCH  60  73
ATOM     73  C   UNL A   1      44.206  28.540  34.424  1.00  0.00    -0.014 A 
ATOM     74  C   UNL A   1      45.536  28.896  34.151  1.00  0.00     0.009 A 
ATOM     75  C   UNL A   1      43.954  27.463  35.288  1.00  0.00     0.009 A 
ATOM     76  C   UNL A   1      46.589  28.166  34.704  1.00  0.00     0.001 A 
ATOM     77  C   UNL A   1      45.009  26.756  35.866  1.00  0.00     0.001 A 
ATOM     78  C   UNL A   1      46.326  27.101  35.566  1.00  0.00     0.000 A 
ENDBRANCH  60  73
ENDBRANCH  34  35
ENDBRANCH  26  29
ENDBRANCH  24  25
ENDBRANCH  23  24
ENDBRANCH   1  23
TORSDOF 15
ENDMDL
MODEL 3
REMARK VINA RESULT:     -10.3      5.430      9.927
REMARK SMILES C[C@H](NC(N)=O)C(=O)N[C@@H](CO)C(=O)NCCCNC(=O)c1ccc(-c2c3nc(c(-c4ccccc4)c4ccc([nH]4)c(-c4ccccc4)c4nc(c(-c5ccccc5)c5ccc2[nH]5)C=C4)C=C3)cc1
REMARK SMILES IDX 16 1 15 2 13 3 14 4 10 6 9 7 7 8 8 9 2 11 1 12 3 13 4 14
REMARK SMILES IDX 5 16 6 17 11 20 12 21 17 23 18 24 19 25 20 26 21 28 22 29
REMARK SMILES IDX 23 30 69 31 24 32 68 33 25 34 26 35 27 36 62 37 28 38 67 39
REMARK SMILES IDX 61 40 63 41 29 42 66 43 60 44 59 45 30 47 52 48 37 49 51 50
REMARK SMILES IDX 38 51 41 52 50 53 64 54 39 55 40 56 49 58 65 59 42 60 31 61
REMARK SMILES IDX 32 62 36 63 33 64 35 65 34 66 53 67 54 68 58 69 55 70 57 71
REMARK SMILES IDX 56 72 43 73 44 74 48 75 45 76 47 77 46 78
REMARK H PARENT 15 5 9 10 3 15 5 18 5 19 12 22 19 27 63 46 41 57
REMARK Flexibility Score: inf
ROOT
ATOM      1  C   UNL A   1      31.476  30.941  25.789  1.00  0.00     0.117 C 
ENDROOT
BRANCH   1   2
ATOM      2  N   UNL A   1      30.511  30.778  24.718  1.00  0.00    -0.354 N 
ATOM      3  C   UNL A   1      30.261  29.723  23.897  1.00  0.00     0.244 C 
ATOM      4  O   UNL A   1      29.248  29.792  23.190  1.00  0.00    -0.273 OA
ATOM      5  H   UNL A   1      29.941  31.564  24.558  1.00  0.00     0.163 HD
BRANCH   3   6
ATOM      6  C   UNL A   1      31.129  28.451  23.864  1.00  0.00     0.197 C 
BRANCH   6   7
ATOM      7  N   UNL A   1      30.498  27.319  24.543  1.00  0.00    -0.340 N 
ATOM      8  C   UNL A   1      30.990  26.492  25.511  1.00  0.00     0.243 C 
ATOM      9  O   UNL A   1      30.151  25.895  26.193  1.00  0.00    -0.273 OA
ATOM     10  H   UNL A   1      29.577  27.123  24.255  1.00  0.00     0.164 HD
BRANCH   8  11
ATOM     11  C   UNL A   1      32.497  26.408  25.845  1.00  0.00     0.170 C 
ATOM     12  C   UNL A   1      32.930  24.983  26.172  1.00  0.00     0.041 C 
BRANCH  11  13
ATOM     13  N   UNL A   1      32.890  27.337  26.905  1.00  0.00    -0.327 N 
ATOM     14  C   UNL A   1      33.797  28.325  26.682  1.00  0.00     0.312 C 
ATOM     15  H   UNL A   1      32.489  27.244  27.799  1.00  0.00     0.166 HD
ATOM     16  N   UNL A   1      34.071  29.055  27.785  1.00  0.00    -0.352 N 
ATOM     17  O   UNL A   1      34.345  28.558  25.614  1.00  0.00    -0.249 OA
ATOM     18  H   UNL A   1      33.617  28.852  28.635  1.00  0.00     0.161 HD
ATOM     19  H   UNL A   1      34.723  29.792  27.739  1.00  0.00     0.161 HD
ENDBRANCH  11  13
ENDBRANCH   8  11
ENDBRANCH   6   7
BRANCH   6  20
ATOM     20  C   UNL A   1      31.656  28.126  22.461  1.00  0.00     0.191 C 
BRANCH  20  21
ATOM     21  O   UNL A   1      30.749  27.384  21.655  1.00  0.00    -0.394 OA
ATOM     22  H   UNL A   1      31.211  27.054  20.868  1.00  0.00     0.210 HD
ENDBRANCH  20  21
ENDBRANCH   6  20
ENDBRANCH   3   6
ENDBRANCH   1   2
BRANCH   1  23
ATOM     23  C   UNL A   1      31.249  32.215  26.585  1.00  0.00     0.042 C 
BRANCH  23  24
ATOM     24  C   UNL A   1      32.509  32.775  27.229  1.00  0.00     0.118 C 
BRANCH  24  25
ATOM     25  N   UNL A   1      32.354  34.156  27.671  1.00  0.00    -0.352 N 
ATOM     26  C   UNL A   1      33.052  34.872  28.613  1.00  0.00     0.251 C 
ATOM     27  H   UNL A   1      31.634  34.655  27.223  1.00  0.00     0.163 HD
ATOM     28  O   UNL A   1      32.642  35.973  28.971  1.00  0.00    -0.269 OA
BRANCH  26  29
ATOM     29  C   UNL A   1      34.279  34.312  29.217  1.00  0.00     0.039 A 
ATOM     30  C   UNL A   1      34.190  33.647  30.442  1.00  0.00     0.014 A 
ATOM     31  C   UNL A   1      35.515  34.441  28.580  1.00  0.00     0.014 A 
ATOM     32  C   UNL A   1      35.327  33.043  30.985  1.00  0.00     0.010 A 
ATOM     33  C   UNL A   1      36.618  33.751  29.066  1.00  0.00     0.010 A 
ATOM     34  C   UNL A   1      36.540  33.050  30.277  1.00  0.00    -0.014 A 
BRANCH  34  35
ATOM     35  C   UNL A   1      37.741  32.340  30.787  1.00  0.00     0.031 A 
ATOM     36  C   UNL A   1      38.515  32.903  31.949  1.00  0.00     0.074 A 
ATOM     37  C   UNL A   1      38.175  31.229  30.162  1.00  0.00     0.049 A 
ATOM     38  N   UNL A   1      39.624  32.468  32.491  1.00  0.00    -0.248 NA
ATOM     39  C   UNL A   1      37.989  34.133  32.566  1.00  0.00     0.031 C 
ATOM     40  C   UNL A   1      37.542  30.605  28.997  1.00  0.00     0.029 A 
ATOM     41  N   UNL A   1      39.260  30.427  30.416  1.00  0.00    -0.354 N 
ATOM     42  C   UNL A   1      39.936  33.379  33.493  1.00  0.00     0.074 A 
ATOM     43  C   UNL A   1      38.936  34.421  33.446  1.00  0.00     0.031 C 
ATOM     44  C   UNL A   1      38.229  29.501  28.661  1.00  0.00     0.029 A 
ATOM     45  C   UNL A   1      39.376  29.366  29.551  1.00  0.00     0.049 A 
ATOM     46  H   UNL A   1      39.896  30.596  31.149  1.00  0.00     0.167 HD
ATOM     47  C   UNL A   1      40.952  33.340  34.388  1.00  0.00     0.031 A 
ATOM     48  C   UNL A   1      40.308  28.396  29.475  1.00  0.00     0.031 A 
ATOM     49  C   UNL A   1      41.941  32.298  34.440  1.00  0.00     0.049 A 
ATOM     50  C   UNL A   1      41.437  28.388  30.468  1.00  0.00     0.074 A 
ATOM     51  C   UNL A   1      42.977  32.139  35.344  1.00  0.00     0.029 A 
ATOM     52  N   UNL A   1      42.019  31.239  33.549  1.00  0.00    -0.354 N 
ATOM     53  N   UNL A   1      41.677  29.217  31.454  1.00  0.00    -0.248 NA
ATOM     54  C   UNL A   1      42.418  27.300  30.343  1.00  0.00     0.031 C 
ATOM     55  C   UNL A   1      43.718  31.016  34.963  1.00  0.00     0.029 A 
ATOM     56  C   UNL A   1      43.102  30.437  33.865  1.00  0.00     0.049 A 
ATOM     57  H   UNL A   1      41.397  31.081  32.803  1.00  0.00     0.167 HD
ATOM     58  C   UNL A   1      42.816  28.735  32.087  1.00  0.00     0.074 A 
ATOM     59  C   UNL A   1      43.208  27.531  31.383  1.00  0.00     0.031 C 
ATOM     60  C   UNL A   1      43.478  29.241  33.156  1.00  0.00     0.031 A 
BRANCH  47  61
ATOM     61  C   UNL A   1      41.043  34.466  35.382  1.00  0.00    -0.014 A 
ATOM     62  C   UNL A   1      40.353  34.418  36.606  1.00  0.00     0.009 A 
ATOM     63  C   UNL A   1      41.858  35.576  35.108  1.00  0.00     0.009 A 
ATOM     64  C   UNL A   1      40.447  35.474  37.514  1.00  0.00     0.001 A 
ATOM     65  C   UNL A   1      41.976  36.615  36.034  1.00  0.00     0.001 A 
ATOM     66  C   UNL A   1      41.263  36.567  37.230  1.00  0.00     0.000 A 
ENDBRANCH  47  61
BRANCH  48  67
ATOM     67  C   UNL A   1      40.210  27.343  28.430  1.00  0.00    -0.014 A 
ATOM     68  C   UNL A   1      39.495  26.160  28.674  1.00  0.00     0.009 A 
ATOM     69  C   UNL A   1      40.837  27.510  27.186  1.00  0.00     0.009 A 
ATOM     70  C   UNL A   1      39.441  25.153  27.707  1.00  0.00     0.001 A 
ATOM     71  C   UNL A   1      40.753  26.515  26.208  1.00  0.00     0.001 A 
ATOM     72  C   UNL A   1      40.065  25.333  26.474  1.00  0.00     0.000 A 
ENDBRANCH  48  67
BRANCH  60  73
ATOM     73  C   UNL A   1      44.668  28.472  33.659  1.00  0.00    -0.014 A 
ATOM     74  C   UNL A   1      45.959  28.709  33.161  1.00  0.00     0.009 A 
ATOM     75  C   UNL A   1      44.497  27.526  34.681  1.00  0.00     0.009 A 
ATOM     76  C   UNL A   1      47.047  27.988  33.653  1.00  0.00     0.001 A 
ATOM     77  C   UNL A   1      45.591  26.830  35.194  1.00  0.00     0.001 A 
ATOM     78  C   UNL A   1      46.865  27.053  34.672  1.00  0.00     0.000 A 
ENDBRANCH  60  73
ENDBRANCH  34  35
ENDBRANCH  26  29
ENDBRANCH  24  25
ENDBRANCH  23  24
ENDBRANCH   1  23
TORSDOF 15
ENDMDL
