MODEL 1
REMARK VINA RESULT:     -12.7      0.000      0.000
REMARK SMILES Cc1ccc(S(=O)(=O)N2CCCC2)cc1C(=O)N[C@H](CC1=c2ccccc2=NC1)C(=O)NCCCNC(=O)c1ccc(-c2c3nc(c(-c4ccccc4)c4ccc([nH]4)c(-c4ccccc4)c4nc(c(-c5ccccc5)c5ccc2[nH]5)C=C4)C=C3)cc1
REMARK SMILES IDX 33 1 32 2 30 3 31 4 19 6 18 7 16 8 17 9 15 11 1 12 2 13 3 14
REMARK SMILES IDX 4 15 14 16 5 17 6 18 7 19 8 20 9 21 10 22 13 23 11 24 12 25
REMARK SMILES IDX 20 26 21 27 22 28 29 29 23 30 27 31 28 32 24 33 26 34 25 35
REMARK SMILES IDX 34 36 35 37 36 38 37 39 38 41 39 42 40 43 86 44 41 45 85 46
REMARK SMILES IDX 42 47 43 48 44 49 79 50 45 51 84 52 78 53 80 54 46 55 83 56
REMARK SMILES IDX 77 57 76 58 47 60 69 61 54 62 68 63 55 64 58 65 67 66 81 67
REMARK SMILES IDX 56 68 57 69 66 71 82 72 59 73 48 74 49 75 53 76 50 77 52 78
REMARK SMILES IDX 51 79 70 80 71 81 75 82 72 83 74 84 73 85 60 86 61 87 65 88
REMARK SMILES IDX 62 89 64 90 63 91
REMARK H PARENT 32 5 18 10 36 40 80 59 58 70
REMARK Flexibility Score: inf
ROOT
ATOM      1  C   UNL A   1      37.986  21.225  25.335  1.00  0.00     0.117 C 
ENDROOT
BRANCH   1   2
ATOM      2  N   UNL A   1      37.302  22.400  25.833  1.00  0.00    -0.354 N 
ATOM      3  C   UNL A   1      36.072  22.927  25.615  1.00  0.00     0.242 C 
ATOM      4  O   UNL A   1      35.846  23.936  26.291  1.00  0.00    -0.273 OA
ATOM      5  H   UNL A   1      37.845  22.927  26.461  1.00  0.00     0.163 HD
BRANCH   3   6
ATOM      6  C   UNL A   1      34.958  22.312  24.702  1.00  0.00     0.175 C 
BRANCH   6   7
ATOM      7  N   UNL A   1      34.382  23.073  23.543  1.00  0.00    -0.340 N 
ATOM      8  C   UNL A   1      33.514  24.037  23.107  1.00  0.00     0.252 C 
ATOM      9  O   UNL A   1      33.614  24.219  21.881  1.00  0.00    -0.269 OA
ATOM     10  H   UNL A   1      34.826  22.721  22.738  1.00  0.00     0.164 HD
BRANCH   8  11
ATOM     11  C   UNL A   1      32.528  24.933  23.814  1.00  0.00     0.044 A 
ATOM     12  C   UNL A   1      30.931  23.205  24.790  1.00  0.00     0.045 C 
ATOM     13  C   UNL A   1      31.375  24.582  24.524  1.00  0.00    -0.038 A 
ATOM     14  C   UNL A   1      30.503  25.564  25.038  1.00  0.00     0.005 A 
ATOM     15  C   UNL A   1      30.781  26.907  24.917  1.00  0.00     0.022 A 
ATOM     16  C   UNL A   1      32.814  26.329  23.738  1.00  0.00     0.035 A 
ATOM     17  C   UNL A   1      31.948  27.296  24.275  1.00  0.00     0.083 A 
BRANCH  17  18
ATOM     18  S   UNL A   1      32.166  29.057  24.142  1.00  0.00     0.243 S 
ATOM     19  O   UNL A   1      32.988  29.254  22.971  1.00  0.00    -0.207 OA
ATOM     20  O   UNL A   1      30.835  29.625  24.237  1.00  0.00    -0.207 OA
BRANCH  18  21
ATOM     21  N   UNL A   1      33.023  29.574  25.456  1.00  0.00    -0.198 NA
ATOM     22  C   UNL A   1      34.245  28.925  25.932  1.00  0.00     0.102 C 
ATOM     23  C   UNL A   1      32.468  30.494  26.454  1.00  0.00     0.102 C 
ATOM     24  C   UNL A   1      34.252  29.251  27.422  1.00  0.00     0.018 C 
ATOM     25  C   UNL A   1      33.600  30.624  27.467  1.00  0.00     0.018 C 
ENDBRANCH  18  21
ENDBRANCH  17  18
ENDBRANCH   8  11
ENDBRANCH   6   7
BRANCH   6  26
ATOM     26  C   UNL A   1      34.020  21.194  25.324  1.00  0.00     0.068 C 
BRANCH  26  27
ATOM     27  C   UNL A   1      33.512  20.012  24.513  1.00  0.00    -0.037 C 
ATOM     28  C   UNL A   1      34.023  18.782  24.418  1.00  0.00     0.001 A 
ATOM     29  C   UNL A   1      32.359  20.117  23.547  1.00  0.00     0.174 C 
ATOM     30  C   UNL A   1      35.140  18.098  24.983  1.00  0.00     0.010 A 
ATOM     31  C   UNL A   1      33.096  18.085  23.508  1.00  0.00     0.065 A 
ATOM     32  N   UNL A   1      32.177  18.789  22.927  1.00  0.00    -0.280 NA
ATOM     33  C   UNL A   1      35.271  16.779  24.761  1.00  0.00     0.001 A 
ATOM     34  C   UNL A   1      33.270  16.631  23.349  1.00  0.00     0.028 A 
ATOM     35  C   UNL A   1      34.300  16.038  23.973  1.00  0.00     0.002 A 
ENDBRANCH  26  27
ENDBRANCH   6  26
ENDBRANCH   3   6
ENDBRANCH   1   2
BRANCH   1  36
ATOM     36  C   UNL A   1      39.466  21.270  25.667  1.00  0.00     0.042 C 
BRANCH  36  37
ATOM     37  C   UNL A   1      39.827  22.025  26.935  1.00  0.00     0.118 C 
BRANCH  37  38
ATOM     38  N   UNL A   1      41.156  22.631  26.808  1.00  0.00    -0.352 N 
ATOM     39  C   UNL A   1      41.565  23.945  26.675  1.00  0.00     0.251 C 
ATOM     40  H   UNL A   1      41.896  21.982  26.821  1.00  0.00     0.163 HD
ATOM     41  O   UNL A   1      42.761  24.210  26.603  1.00  0.00    -0.269 OA
BRANCH  39  42
ATOM     42  C   UNL A   1      40.574  25.029  26.836  1.00  0.00     0.039 A 
ATOM     43  C   UNL A   1      40.866  26.189  26.111  1.00  0.00     0.014 A 
ATOM     44  C   UNL A   1      39.803  25.077  27.990  1.00  0.00     0.014 A 
ATOM     45  C   UNL A   1      40.747  27.411  26.748  1.00  0.00     0.010 A 
ATOM     46  C   UNL A   1      39.787  26.275  28.670  1.00  0.00     0.010 A 
ATOM     47  C   UNL A   1      40.357  27.412  28.083  1.00  0.00    -0.014 A 
BRANCH  47  48
ATOM     48  C   UNL A   1      40.553  28.549  28.962  1.00  0.00     0.031 A 
ATOM     49  C   UNL A   1      39.467  29.533  29.058  1.00  0.00     0.074 A 
ATOM     50  C   UNL A   1      41.689  28.676  29.686  1.00  0.00     0.049 A 
ATOM     51  N   UNL A   1      39.625  30.741  29.469  1.00  0.00    -0.248 NA
ATOM     52  C   UNL A   1      38.109  29.254  28.592  1.00  0.00     0.031 C 
ATOM     53  C   UNL A   1      41.946  29.595  30.792  1.00  0.00     0.029 A 
ATOM     54  N   UNL A   1      42.937  28.125  29.408  1.00  0.00    -0.354 N 
ATOM     55  C   UNL A   1      38.375  31.289  29.609  1.00  0.00     0.074 A 
ATOM     56  C   UNL A   1      37.484  30.384  28.931  1.00  0.00     0.031 C 
ATOM     57  C   UNL A   1      43.272  29.733  30.950  1.00  0.00     0.029 A 
ATOM     58  C   UNL A   1      43.916  29.029  29.854  1.00  0.00     0.049 A 
ATOM     59  H   UNL A   1      43.104  27.258  28.974  1.00  0.00     0.167 HD
ATOM     60  C   UNL A   1      38.232  32.373  30.416  1.00  0.00     0.031 A 
ATOM     61  C   UNL A   1      44.788  29.608  28.975  1.00  0.00     0.031 A 
ATOM     62  C   UNL A   1      39.536  32.924  30.784  1.00  0.00     0.049 A 
ATOM     63  C   UNL A   1      44.615  31.109  28.871  1.00  0.00     0.074 A 
ATOM     64  C   UNL A   1      40.311  32.832  31.926  1.00  0.00     0.029 A 
ATOM     65  N   UNL A   1      40.365  33.406  29.776  1.00  0.00    -0.354 N 
ATOM     66  N   UNL A   1      43.534  31.743  29.236  1.00  0.00    -0.248 NA
ATOM     67  C   UNL A   1      45.638  32.013  28.349  1.00  0.00     0.031 C 
ATOM     68  C   UNL A   1      41.647  33.169  31.568  1.00  0.00     0.029 A 
ATOM     69  C   UNL A   1      41.665  33.513  30.227  1.00  0.00     0.049 A 
ATOM     70  H   UNL A   1      40.066  33.637  28.867  1.00  0.00     0.167 HD
ATOM     71  C   UNL A   1      43.695  33.088  29.028  1.00  0.00     0.074 A 
ATOM     72  C   UNL A   1      45.029  33.207  28.470  1.00  0.00     0.031 C 
ATOM     73  C   UNL A   1      42.716  33.991  29.335  1.00  0.00     0.031 A 
BRANCH  60  74
ATOM     74  C   UNL A   1      36.934  32.781  31.070  1.00  0.00    -0.014 A 
ATOM     75  C   UNL A   1      36.696  32.407  32.406  1.00  0.00     0.009 A 
ATOM     76  C   UNL A   1      35.864  33.419  30.416  1.00  0.00     0.009 A 
ATOM     77  C   UNL A   1      35.460  32.626  33.031  1.00  0.00     0.001 A 
ATOM     78  C   UNL A   1      34.631  33.655  31.038  1.00  0.00     0.001 A 
ATOM     79  C   UNL A   1      34.425  33.249  32.345  1.00  0.00     0.000 A 
ENDBRANCH  60  74
BRANCH  61  80
ATOM     80  C   UNL A   1      45.166  28.696  27.855  1.00  0.00    -0.014 A 
ATOM     81  C   UNL A   1      45.785  27.473  28.189  1.00  0.00     0.009 A 
ATOM     82  C   UNL A   1      44.548  28.812  26.603  1.00  0.00     0.009 A 
ATOM     83  C   UNL A   1      45.648  26.352  27.363  1.00  0.00     0.001 A 
ATOM     84  C   UNL A   1      44.426  27.689  25.773  1.00  0.00     0.001 A 
ATOM     85  C   UNL A   1      44.932  26.452  26.175  1.00  0.00     0.000 A 
ENDBRANCH  61  80
BRANCH  73  86
ATOM     86  C   UNL A   1      42.667  35.436  28.892  1.00  0.00    -0.014 A 
ATOM     87  C   UNL A   1      43.157  36.514  29.640  1.00  0.00     0.009 A 
ATOM     88  C   UNL A   1      42.234  35.732  27.577  1.00  0.00     0.009 A 
ATOM     89  C   UNL A   1      43.171  37.818  29.122  1.00  0.00     0.001 A 
ATOM     90  C   UNL A   1      42.297  37.019  27.038  1.00  0.00     0.001 A 
ATOM     91  C   UNL A   1      42.755  38.067  27.818  1.00  0.00     0.000 A 
ENDBRANCH  73  86
ENDBRANCH  47  48
ENDBRANCH  39  42
ENDBRANCH  37  38
ENDBRANCH  36  37
ENDBRANCH   1  36
TORSDOF 16
ENDMDL
MODEL 2
REMARK VINA RESULT:     -12.7      3.367      9.279
REMARK SMILES Cc1ccc(S(=O)(=O)N2CCCC2)cc1C(=O)N[C@H](CC1=c2ccccc2=NC1)C(=O)NCCCNC(=O)c1ccc(-c2c3nc(c(-c4ccccc4)c4ccc([nH]4)c(-c4ccccc4)c4nc(c(-c5ccccc5)c5ccc2[nH]5)C=C4)C=C3)cc1
REMARK SMILES IDX 33 1 32 2 30 3 31 4 19 6 18 7 16 8 17 9 15 11 1 12 2 13 3 14
REMARK SMILES IDX 4 15 14 16 5 17 6 18 7 19 8 20 9 21 10 22 13 23 11 24 12 25
REMARK SMILES IDX 20 26 21 27 22 28 29 29 23 30 27 31 28 32 24 33 26 34 25 35
REMARK SMILES IDX 34 36 35 37 36 38 37 39 38 41 39 42 40 43 86 44 41 45 85 46
REMARK SMILES IDX 42 47 43 48 44 49 79 50 45 51 84 52 78 53 80 54 46 55 83 56
REMARK SMILES IDX 77 57 76 58 47 60 69 61 54 62 68 63 55 64 58 65 67 66 81 67
REMARK SMILES IDX 56 68 57 69 66 71 82 72 59 73 48 74 49 75 53 76 50 77 52 78
REMARK SMILES IDX 51 79 70 80 71 81 75 82 72 83 74 84 73 85 60 86 61 87 65 88
REMARK SMILES IDX 62 89 64 90 63 91
REMARK H PARENT 32 5 18 10 36 40 80 59 58 70
REMARK Flexibility Score: inf
ROOT
ATOM      1  C   UNL A   1      33.889  29.936  27.272  1.00  0.00     0.117 C 
ENDROOT
BRANCH   1   2
ATOM      2  N   UNL A   1      33.063  28.756  27.419  1.00  0.00    -0.354 N 
ATOM      3  C   UNL A   1      32.190  28.119  26.599  1.00  0.00     0.242 C 
ATOM      4  O   UNL A   1      31.720  27.088  27.093  1.00  0.00    -0.273 OA
ATOM      5  H   UNL A   1      33.154  28.326  28.299  1.00  0.00     0.163 HD
BRANCH   3   6
ATOM      6  C   UNL A   1      31.849  28.526  25.126  1.00  0.00     0.175 C 
BRANCH   6   7
ATOM      7  N   UNL A   1      32.814  28.285  24.001  1.00  0.00    -0.340 N 
ATOM      8  C   UNL A   1      33.422  27.384  23.170  1.00  0.00     0.252 C 
ATOM      9  O   UNL A   1      34.143  27.952  22.331  1.00  0.00    -0.269 OA
ATOM     10  H   UNL A   1      33.166  29.169  23.750  1.00  0.00     0.164 HD
BRANCH   8  11
ATOM     11  C   UNL A   1      33.346  25.882  23.044  1.00  0.00     0.044 A 
ATOM     12  C   UNL A   1      32.654  25.645  20.603  1.00  0.00     0.045 C 
ATOM     13  C   UNL A   1      32.977  25.112  21.936  1.00  0.00    -0.038 A 
ATOM     14  C   UNL A   1      32.859  23.710  22.025  1.00  0.00     0.005 A 
ATOM     15  C   UNL A   1      33.161  23.036  23.186  1.00  0.00     0.022 A 
ATOM     16  C   UNL A   1      33.692  25.156  24.222  1.00  0.00     0.035 A 
ATOM     17  C   UNL A   1      33.591  23.757  24.290  1.00  0.00     0.083 A 
BRANCH  17  18
ATOM     18  S   UNL A   1      33.903  22.775  25.740  1.00  0.00     0.243 S 
ATOM     19  O   UNL A   1      34.077  23.723  26.816  1.00  0.00    -0.207 OA
ATOM     20  O   UNL A   1      32.849  21.778  25.772  1.00  0.00    -0.207 OA
BRANCH  18  21
ATOM     21  N   UNL A   1      35.334  21.977  25.530  1.00  0.00    -0.198 NA
ATOM     22  C   UNL A   1      36.639  22.639  25.549  1.00  0.00     0.102 C 
ATOM     23  C   UNL A   1      35.415  20.625  24.970  1.00  0.00     0.102 C 
ATOM     24  C   UNL A   1      37.498  21.737  24.668  1.00  0.00     0.018 C 
ATOM     25  C   UNL A   1      36.917  20.357  24.935  1.00  0.00     0.018 C 
ENDBRANCH  18  21
ENDBRANCH  17  18
ENDBRANCH   8  11
ENDBRANCH   6   7
BRANCH   6  26
ATOM     26  C   UNL A   1      30.812  29.705  24.902  1.00  0.00     0.068 C 
BRANCH  26  27
ATOM     27  C   UNL A   1      29.962  29.815  23.645  1.00  0.00    -0.037 C 
ATOM     28  C   UNL A   1      29.326  30.883  23.157  1.00  0.00     0.001 A 
ATOM     29  C   UNL A   1      29.597  28.624  22.796  1.00  0.00     0.174 C 
ATOM     30  C   UNL A   1      29.188  32.249  23.544  1.00  0.00     0.010 A 
ATOM     31  C   UNL A   1      28.692  30.383  21.924  1.00  0.00     0.065 A 
ATOM     32  N   UNL A   1      28.745  29.109  21.692  1.00  0.00    -0.280 NA
ATOM     33  C   UNL A   1      28.564  33.098  22.710  1.00  0.00     0.001 A 
ATOM     34  C   UNL A   1      28.068  31.376  21.033  1.00  0.00     0.028 A 
ATOM     35  C   UNL A   1      28.041  32.660  21.425  1.00  0.00     0.002 A 
ENDBRANCH  26  27
ENDBRANCH   6  26
ENDBRANCH   3   6
ENDBRANCH   1   2
BRANCH   1  36
ATOM     36  C   UNL A   1      35.232  29.753  27.952  1.00  0.00     0.042 C 
BRANCH  36  37
ATOM     37  C   UNL A   1      35.569  30.786  29.016  1.00  0.00     0.118 C 
BRANCH  37  38
ATOM     38  N   UNL A   1      34.565  31.856  29.026  1.00  0.00    -0.352 N 
ATOM     39  C   UNL A   1      34.552  33.106  29.616  1.00  0.00     0.251 C 
ATOM     40  H   UNL A   1      33.749  31.645  28.517  1.00  0.00     0.163 HD
ATOM     41  O   UNL A   1      33.584  33.844  29.463  1.00  0.00    -0.269 OA
BRANCH  39  42
ATOM     42  C   UNL A   1      35.787  33.621  30.242  1.00  0.00     0.039 A 
ATOM     43  C   UNL A   1      36.741  34.089  29.333  1.00  0.00     0.014 A 
ATOM     44  C   UNL A   1      36.157  33.155  31.497  1.00  0.00     0.014 A 
ATOM     45  C   UNL A   1      38.060  33.711  29.510  1.00  0.00     0.010 A 
ATOM     46  C   UNL A   1      37.444  32.680  31.623  1.00  0.00     0.010 A 
ATOM     47  C   UNL A   1      38.357  32.871  30.578  1.00  0.00    -0.014 A 
BRANCH  47  48
ATOM     48  C   UNL A   1      39.587  32.107  30.663  1.00  0.00     0.031 A 
ATOM     49  C   UNL A   1      39.663  30.848  29.912  1.00  0.00     0.074 A 
ATOM     50  C   UNL A   1      40.634  32.561  31.390  1.00  0.00     0.049 A 
ATOM     51  N   UNL A   1      40.492  29.901  30.175  1.00  0.00    -0.248 NA
ATOM     52  C   UNL A   1      38.719  30.511  28.847  1.00  0.00     0.031 C 
ATOM     53  C   UNL A   1      42.009  32.068  31.381  1.00  0.00     0.029 A 
ATOM     54  N   UNL A   1      40.600  33.445  32.465  1.00  0.00    -0.354 N 
ATOM     55  C   UNL A   1      40.402  28.988  29.155  1.00  0.00     0.074 A 
ATOM     56  C   UNL A   1      39.206  29.337  28.434  1.00  0.00     0.031 C 
ATOM     57  C   UNL A   1      42.622  32.453  32.512  1.00  0.00     0.029 A 
ATOM     58  C   UNL A   1      41.620  33.076  33.359  1.00  0.00     0.049 A 
ATOM     59  H   UNL A   1      39.972  34.194  32.579  1.00  0.00     0.167 HD
ATOM     60  C   UNL A   1      41.442  28.134  28.960  1.00  0.00     0.031 A 
ATOM     61  C   UNL A   1      41.324  32.668  34.629  1.00  0.00     0.031 A 
ATOM     62  C   UNL A   1      42.375  28.184  30.085  1.00  0.00     0.049 A 
ATOM     63  C   UNL A   1      41.693  31.222  34.887  1.00  0.00     0.074 A 
ATOM     64  C   UNL A   1      43.600  28.801  30.269  1.00  0.00     0.029 A 
ATOM     65  N   UNL A   1      41.918  27.820  31.348  1.00  0.00    -0.354 N 
ATOM     66  N   UNL A   1      41.887  30.341  33.943  1.00  0.00    -0.248 NA
ATOM     67  C   UNL A   1      41.874  30.652  36.221  1.00  0.00     0.031 C 
ATOM     68  C   UNL A   1      43.829  28.894  31.670  1.00  0.00     0.029 A 
ATOM     69  C   UNL A   1      42.771  28.289  32.327  1.00  0.00     0.049 A 
ATOM     70  H   UNL A   1      41.100  27.300  31.518  1.00  0.00     0.167 HD
ATOM     71  C   UNL A   1      42.219  29.133  34.499  1.00  0.00     0.074 A 
ATOM     72  C   UNL A   1      42.195  29.379  35.929  1.00  0.00     0.031 C 
ATOM     73  C   UNL A   1      42.487  28.033  33.734  1.00  0.00     0.031 A 
BRANCH  60  74
ATOM     74  C   UNL A   1      41.743  27.446  27.650  1.00  0.00    -0.014 A 
ATOM     75  C   UNL A   1      40.817  26.516  27.140  1.00  0.00     0.009 A 
ATOM     76  C   UNL A   1      42.946  27.565  26.931  1.00  0.00     0.009 A 
ATOM     77  C   UNL A   1      41.093  25.736  26.008  1.00  0.00     0.001 A 
ATOM     78  C   UNL A   1      43.224  26.801  25.791  1.00  0.00     0.001 A 
ATOM     79  C   UNL A   1      42.299  25.876  25.334  1.00  0.00     0.000 A 
ENDBRANCH  60  74
BRANCH  61  80
ATOM     80  C   UNL A   1      40.144  33.379  35.202  1.00  0.00    -0.014 A 
ATOM     81  C   UNL A   1      38.916  32.684  35.237  1.00  0.00     0.009 A 
ATOM     82  C   UNL A   1      40.320  34.468  36.067  1.00  0.00     0.009 A 
ATOM     83  C   UNL A   1      37.959  32.970  36.216  1.00  0.00     0.001 A 
ATOM     84  C   UNL A   1      39.351  34.759  37.037  1.00  0.00     0.001 A 
ATOM     85  C   UNL A   1      38.197  33.980  37.143  1.00  0.00     0.000 A 
ENDBRANCH  61  80
BRANCH  73  86
ATOM     86  C   UNL A   1      42.577  26.606  34.228  1.00  0.00    -0.014 A 
ATOM     87  C   UNL A   1      43.680  25.766  34.030  1.00  0.00     0.009 A 
ATOM     88  C   UNL A   1      41.555  26.110  35.072  1.00  0.00     0.009 A 
ATOM     89  C   UNL A   1      43.738  24.487  34.604  1.00  0.00     0.001 A 
ATOM     90  C   UNL A   1      41.633  24.860  35.690  1.00  0.00     0.001 A 
ATOM     91  C   UNL A   1      42.723  24.040  35.444  1.00  0.00     0.000 A 
ENDBRANCH  73  86
ENDBRANCH  47  48
ENDBRANCH  39  42
ENDBRANCH  37  38
ENDBRANCH  36  37
ENDBRANCH   1  36
TORSDOF 16
ENDMDL
MODEL 3
REMARK VINA RESULT:     -12.4      1.555      2.402
REMARK SMILES Cc1ccc(S(=O)(=O)N2CCCC2)cc1C(=O)N[C@H](CC1=c2ccccc2=NC1)C(=O)NCCCNC(=O)c1ccc(-c2c3nc(c(-c4ccccc4)c4ccc([nH]4)c(-c4ccccc4)c4nc(c(-c5ccccc5)c5ccc2[nH]5)C=C4)C=C3)cc1
REMARK SMILES IDX 33 1 32 2 30 3 31 4 19 6 18 7 16 8 17 9 15 11 1 12 2 13 3 14
REMARK SMILES IDX 4 15 14 16 5 17 6 18 7 19 8 20 9 21 10 22 13 23 11 24 12 25
REMARK SMILES IDX 20 26 21 27 22 28 29 29 23 30 27 31 28 32 24 33 26 34 25 35
REMARK SMILES IDX 34 36 35 37 36 38 37 39 38 41 39 42 40 43 86 44 41 45 85 46
REMARK SMILES IDX 42 47 43 48 44 49 79 50 45 51 84 52 78 53 80 54 46 55 83 56
REMARK SMILES IDX 77 57 76 58 47 60 69 61 54 62 68 63 55 64 58 65 67 66 81 67
REMARK SMILES IDX 56 68 57 69 66 71 82 72 59 73 48 74 49 75 53 76 50 77 52 78
REMARK SMILES IDX 51 79 70 80 71 81 75 82 72 83 74 84 73 85 60 86 61 87 65 88
REMARK SMILES IDX 62 89 64 90 63 91
REMARK H PARENT 32 5 18 10 36 40 80 59 58 70
REMARK Flexibility Score: inf
ROOT
ATOM      1  C   UNL A   1      38.102  21.340  25.033  1.00  0.00     0.117 C 
ENDROOT
BRANCH   1   2
ATOM      2  N   UNL A   1      37.552  22.679  25.072  1.00  0.00    -0.354 N 
ATOM      3  C   UNL A   1      36.358  23.209  24.709  1.00  0.00     0.242 C 
ATOM      4  O   UNL A   1      36.261  24.415  24.961  1.00  0.00    -0.273 OA
ATOM      5  H   UNL A   1      38.177  23.344  25.438  1.00  0.00     0.163 HD
BRANCH   3   6
ATOM      6  C   UNL A   1      35.138  22.415  24.130  1.00  0.00     0.175 C 
BRANCH   6   7
ATOM      7  N   UNL A   1      34.489  22.806  22.834  1.00  0.00    -0.340 N 
ATOM      8  C   UNL A   1      33.599  23.616  22.183  1.00  0.00     0.252 C 
ATOM      9  O   UNL A   1      33.616  23.417  20.956  1.00  0.00    -0.269 OA
ATOM     10  H   UNL A   1      34.875  22.216  22.147  1.00  0.00     0.164 HD
BRANCH   8  11
ATOM     11  C   UNL A   1      32.668  24.709  22.647  1.00  0.00     0.044 A 
ATOM     12  C   UNL A   1      30.503  23.399  22.937  1.00  0.00     0.045 C 
ATOM     13  C   UNL A   1      31.304  24.633  22.946  1.00  0.00    -0.038 A 
ATOM     14  C   UNL A   1      30.559  25.785  23.268  1.00  0.00     0.005 A 
ATOM     15  C   UNL A   1      31.154  27.023  23.362  1.00  0.00     0.022 A 
ATOM     16  C   UNL A   1      33.268  25.996  22.791  1.00  0.00     0.035 A 
ATOM     17  C   UNL A   1      32.518  27.132  23.134  1.00  0.00     0.083 A 
BRANCH  17  18
ATOM     18  S   UNL A   1      33.154  28.790  23.239  1.00  0.00     0.243 S 
ATOM     19  O   UNL A   1      34.564  28.679  22.943  1.00  0.00    -0.207 OA
ATOM     20  O   UNL A   1      32.271  29.601  22.424  1.00  0.00    -0.207 OA
BRANCH  18  21
ATOM     21  N   UNL A   1      33.004  29.307  24.801  1.00  0.00    -0.198 NA
ATOM     22  C   UNL A   1      33.954  28.967  25.861  1.00  0.00     0.102 C 
ATOM     23  C   UNL A   1      31.754  29.849  25.340  1.00  0.00     0.102 C 
ATOM     24  C   UNL A   1      33.101  29.029  27.123  1.00  0.00     0.018 C 
ATOM     25  C   UNL A   1      32.103  30.130  26.799  1.00  0.00     0.018 C 
ENDBRANCH  18  21
ENDBRANCH  17  18
ENDBRANCH   8  11
ENDBRANCH   6   7
BRANCH   6  26
ATOM     26  C   UNL A   1      34.217  21.621  25.149  1.00  0.00     0.068 C 
BRANCH  26  27
ATOM     27  C   UNL A   1      32.848  22.128  25.575  1.00  0.00    -0.037 C 
ATOM     28  C   UNL A   1      32.506  23.342  26.014  1.00  0.00     0.001 A 
ATOM     29  C   UNL A   1      31.640  21.232  25.685  1.00  0.00     0.174 C 
ATOM     30  C   UNL A   1      33.192  24.572  26.240  1.00  0.00     0.010 A 
ATOM     31  C   UNL A   1      31.055  23.235  26.252  1.00  0.00     0.065 A 
ATOM     32  N   UNL A   1      30.511  22.063  26.153  1.00  0.00    -0.280 NA
ATOM     33  C   UNL A   1      32.475  25.661  26.567  1.00  0.00     0.001 A 
ATOM     34  C   UNL A   1      30.326  24.478  26.559  1.00  0.00     0.028 A 
ATOM     35  C   UNL A   1      31.026  25.616  26.682  1.00  0.00     0.002 A 
ENDBRANCH  26  27
ENDBRANCH   6  26
ENDBRANCH   3   6
ENDBRANCH   1   2
BRANCH   1  36
ATOM     36  C   UNL A   1      39.333  21.227  25.912  1.00  0.00     0.042 C 
BRANCH  36  37
ATOM     37  C   UNL A   1      39.520  22.351  26.918  1.00  0.00     0.118 C 
BRANCH  37  38
ATOM     38  N   UNL A   1      40.868  22.918  26.805  1.00  0.00    -0.352 N 
ATOM     39  C   UNL A   1      41.320  24.223  26.732  1.00  0.00     0.251 C 
ATOM     40  H   UNL A   1      41.586  22.245  26.777  1.00  0.00     0.163 HD
ATOM     41  O   UNL A   1      42.523  24.451  26.658  1.00  0.00    -0.269 OA
BRANCH  39  42
ATOM     42  C   UNL A   1      40.367  25.329  26.958  1.00  0.00     0.039 A 
ATOM     43  C   UNL A   1      40.651  26.491  26.231  1.00  0.00     0.014 A 
ATOM     44  C   UNL A   1      39.660  25.383  28.151  1.00  0.00     0.014 A 
ATOM     45  C   UNL A   1      40.598  27.707  26.886  1.00  0.00     0.010 A 
ATOM     46  C   UNL A   1      39.711  26.572  28.845  1.00  0.00     0.010 A 
ATOM     47  C   UNL A   1      40.279  27.701  28.241  1.00  0.00    -0.014 A 
BRANCH  47  48
ATOM     48  C   UNL A   1      40.551  28.822  29.121  1.00  0.00     0.031 A 
ATOM     49  C   UNL A   1      39.484  29.812  29.316  1.00  0.00     0.074 A 
ATOM     50  C   UNL A   1      41.740  28.929  29.758  1.00  0.00     0.049 A 
ATOM     51  N   UNL A   1      39.683  31.012  29.733  1.00  0.00    -0.248 NA
ATOM     52  C   UNL A   1      38.093  29.550  28.951  1.00  0.00     0.031 C 
ATOM     53  C   UNL A   1      42.088  29.826  30.856  1.00  0.00     0.029 A 
ATOM     54  N   UNL A   1      42.958  28.374  29.376  1.00  0.00    -0.354 N 
ATOM     55  C   UNL A   1      38.452  31.566  29.977  1.00  0.00     0.074 A 
ATOM     56  C   UNL A   1      37.504  30.679  29.354  1.00  0.00     0.031 C 
ATOM     57  C   UNL A   1      43.424  29.952  30.915  1.00  0.00     0.029 A 
ATOM     58  C   UNL A   1      43.977  29.263  29.761  1.00  0.00     0.049 A 
ATOM     59  H   UNL A   1      43.084  27.512  28.916  1.00  0.00     0.167 HD
ATOM     60  C   UNL A   1      38.380  32.637  30.811  1.00  0.00     0.031 A 
ATOM     61  C   UNL A   1      44.783  29.850  28.828  1.00  0.00     0.031 A 
ATOM     62  C   UNL A   1      39.713  33.172  31.087  1.00  0.00     0.049 A 
ATOM     63  C   UNL A   1      44.616  31.354  28.761  1.00  0.00     0.074 A 
ATOM     64  C   UNL A   1      40.573  33.056  32.165  1.00  0.00     0.029 A 
ATOM     65  N   UNL A   1      40.467  33.665  30.026  1.00  0.00    -0.354 N 
ATOM     66  N   UNL A   1      43.571  31.990  29.219  1.00  0.00    -0.248 NA
ATOM     67  C   UNL A   1      45.604  32.259  28.178  1.00  0.00     0.031 C 
ATOM     68  C   UNL A   1      41.880  33.389  31.711  1.00  0.00     0.029 A 
ATOM     69  C   UNL A   1      41.799  33.756  30.378  1.00  0.00     0.049 A 
ATOM     70  H   UNL A   1      40.102  33.914  29.147  1.00  0.00     0.167 HD
ATOM     71  C   UNL A   1      43.727  33.337  29.021  1.00  0.00     0.074 A 
ATOM     72  C   UNL A   1      45.016  33.455  28.364  1.00  0.00     0.031 C 
ATOM     73  C   UNL A   1      42.783  34.241  29.417  1.00  0.00     0.031 A 
BRANCH  60  74
ATOM     74  C   UNL A   1      37.139  33.043  31.569  1.00  0.00    -0.014 A 
ATOM     75  C   UNL A   1      36.944  34.402  31.879  1.00  0.00     0.009 A 
ATOM     76  C   UNL A   1      36.192  32.153  32.106  1.00  0.00     0.009 A 
ATOM     77  C   UNL A   1      35.892  34.834  32.700  1.00  0.00     0.001 A 
ATOM     78  C   UNL A   1      35.130  32.577  32.915  1.00  0.00     0.001 A 
ATOM     79  C   UNL A   1      34.985  33.920  33.221  1.00  0.00     0.000 A 
ENDBRANCH  60  74
BRANCH  61  80
ATOM     80  C   UNL A   1      45.068  28.955  27.667  1.00  0.00    -0.014 A 
ATOM     81  C   UNL A   1      45.990  27.905  27.863  1.00  0.00     0.009 A 
ATOM     82  C   UNL A   1      44.160  28.858  26.604  1.00  0.00     0.009 A 
ATOM     83  C   UNL A   1      45.899  26.724  27.118  1.00  0.00     0.001 A 
ATOM     84  C   UNL A   1      44.083  27.677  25.852  1.00  0.00     0.001 A 
ATOM     85  C   UNL A   1      44.917  26.596  26.141  1.00  0.00     0.000 A 
ENDBRANCH  61  80
BRANCH  73  86
ATOM     86  C   UNL A   1      42.712  35.694  29.002  1.00  0.00    -0.014 A 
ATOM     87  C   UNL A   1      43.417  36.732  29.623  1.00  0.00     0.009 A 
ATOM     88  C   UNL A   1      42.006  36.033  27.823  1.00  0.00     0.009 A 
ATOM     89  C   UNL A   1      43.383  38.042  29.121  1.00  0.00     0.001 A 
ATOM     90  C   UNL A   1      42.014  37.324  27.288  1.00  0.00     0.001 A 
ATOM     91  C   UNL A   1      42.695  38.334  27.947  1.00  0.00     0.000 A 
ENDBRANCH  73  86
ENDBRANCH  47  48
ENDBRANCH  39  42
ENDBRANCH  37  38
ENDBRANCH  36  37
ENDBRANCH   1  36
TORSDOF 16
ENDMDL
