MODEL 1
REMARK VINA RESULT:     -12.2      0.000      0.000
REMARK SMILES Cc1cc2c(c(C)c1Cl)C=C(C(=O)NCCCNC(=O)c1ccc(-c3c4nc(c(-c5ccccc5)c5ccc([nH]5)c(-c5ccccc5)c5nc(c(-c6ccccc6)c6ccc3[nH]6)C=C5)C=C4)cc1)[C@@H](C(F)(F)F)O2
REMARK SMILES IDX 16 1 15 2 14 3 12 4 13 5 11 7 1 8 2 9 3 10 8 11 4 12 6 13
REMARK SMILES IDX 9 14 5 15 74 16 7 17 10 18 69 19 70 20 71 21 72 22 73 23
REMARK SMILES IDX 17 24 18 25 19 26 20 28 21 29 22 30 68 31 23 32 67 33 24 34
REMARK SMILES IDX 25 35 26 36 61 37 27 38 66 39 60 40 62 41 28 42 65 43 59 44
REMARK SMILES IDX 58 45 29 47 51 48 36 49 50 50 37 51 40 52 49 53 63 54 38 55
REMARK SMILES IDX 39 56 48 58 64 59 41 60 30 61 31 62 35 63 32 64 34 65 33 66
REMARK SMILES IDX 52 67 53 68 57 69 54 70 56 71 55 72 42 73 43 74 47 75 44 76
REMARK SMILES IDX 46 77 45 78
REMARK H PARENT 14 6 18 27 62 46 40 57
REMARK Flexibility Score: inf
ROOT
ATOM      1  C   UNL A   1      37.704  19.815  24.810  1.00  0.00     0.042 C 
ENDROOT
BRANCH   1   2
ATOM      2  C   UNL A   1      36.391  20.544  25.042  1.00  0.00     0.118 C 
BRANCH   2   3
ATOM      3  N   UNL A   1      35.254  19.638  24.990  1.00  0.00    -0.352 N 
ATOM      4  C   UNL A   1      33.904  19.734  24.994  1.00  0.00     0.251 C 
ATOM      5  O   UNL A   1      33.302  18.658  24.940  1.00  0.00    -0.270 OA
ATOM      6  H   UNL A   1      35.546  18.700  24.937  1.00  0.00     0.163 HD
BRANCH   4   7
ATOM      7  C   UNL A   1      33.137  21.012  25.061  1.00  0.00     0.067 C 
ATOM      8  C   UNL A   1      29.951  26.600  24.110  1.00  0.00     0.046 C 
ATOM      9  C   UNL A   1      30.782  25.352  23.992  1.00  0.00    -0.028 A 
ATOM     10  C   UNL A   1      30.772  24.451  25.059  1.00  0.00     0.052 A 
ATOM     11  C   UNL A   1      31.594  25.074  22.873  1.00  0.00     0.047 A 
ATOM     12  C   UNL A   1      31.540  23.294  25.011  1.00  0.00     0.128 A 
ATOM     13  C   UNL A   1      32.368  23.889  22.804  1.00  0.00    -0.021 A 
ATOM     14  Cl  UNL A   1      31.622  26.227  21.572  1.00  0.00    -0.084 Cl
ATOM     15  C   UNL A   1      32.329  22.989  23.897  1.00  0.00     0.022 A 
ATOM     16  O   UNL A   1      31.425  22.479  26.099  1.00  0.00    -0.475 OA
ATOM     17  C   UNL A   1      33.226  23.563  21.603  1.00  0.00     0.047 C 
ATOM     18  C   UNL A   1      33.052  21.712  23.915  1.00  0.00     0.026 C 
ATOM     19  C   UNL A   1      32.504  21.537  26.312  1.00  0.00     0.314 C 
BRANCH  19  20
ATOM     20  C   UNL A   1      33.529  22.137  27.294  1.00  0.00     0.429 C 
ATOM     21  F   UNL A   1      32.903  22.587  28.411  1.00  0.00    -0.167 F 
ATOM     22  F   UNL A   1      34.446  21.230  27.710  1.00  0.00    -0.167 F 
ATOM     23  F   UNL A   1      34.217  23.174  26.768  1.00  0.00    -0.167 F 
ENDBRANCH  19  20
ENDBRANCH   4   7
ENDBRANCH   2   3
ENDBRANCH   1   2
BRANCH   1  24
ATOM     24  C   UNL A   1      38.821  20.360  25.691  1.00  0.00     0.118 C 
BRANCH  24  25
ATOM     25  N   UNL A   1      39.922  19.407  25.818  1.00  0.00    -0.352 N 
ATOM     26  C   UNL A   1      41.253  19.623  26.062  1.00  0.00     0.251 C 
ATOM     27  H   UNL A   1      39.667  18.463  25.711  1.00  0.00     0.163 HD
ATOM     28  O   UNL A   1      42.070  18.728  25.845  1.00  0.00    -0.269 OA
BRANCH  26  29
ATOM     29  C   UNL A   1      41.704  20.924  26.583  1.00  0.00     0.039 A 
ATOM     30  C   UNL A   1      42.217  21.879  25.702  1.00  0.00     0.014 A 
ATOM     31  C   UNL A   1      41.642  21.190  27.953  1.00  0.00     0.014 A 
ATOM     32  C   UNL A   1      42.607  23.124  26.192  1.00  0.00     0.010 A 
ATOM     33  C   UNL A   1      41.929  22.463  28.423  1.00  0.00     0.010 A 
ATOM     34  C   UNL A   1      42.434  23.436  27.550  1.00  0.00    -0.014 A 
BRANCH  34  35
ATOM     35  C   UNL A   1      42.808  24.760  28.095  1.00  0.00     0.031 A 
ATOM     36  C   UNL A   1      41.751  25.810  28.298  1.00  0.00     0.074 A 
ATOM     37  C   UNL A   1      44.102  25.033  28.354  1.00  0.00     0.049 A 
ATOM     38  N   UNL A   1      41.883  27.043  28.712  1.00  0.00    -0.248 NA
ATOM     39  C   UNL A   1      40.364  25.434  27.968  1.00  0.00     0.031 C 
ATOM     40  C   UNL A   1      45.219  24.105  28.162  1.00  0.00     0.029 A 
ATOM     41  N   UNL A   1      44.694  26.171  28.836  1.00  0.00    -0.354 N 
ATOM     42  C   UNL A   1      40.606  27.588  28.679  1.00  0.00     0.074 A 
ATOM     43  C   UNL A   1      39.722  26.579  28.145  1.00  0.00     0.031 C 
ATOM     44  C   UNL A   1      46.355  24.697  28.565  1.00  0.00     0.029 A 
ATOM     45  C   UNL A   1      46.054  26.057  28.999  1.00  0.00     0.049 A 
ATOM     46  H   UNL A   1      44.193  26.992  29.048  1.00  0.00     0.167 HD
ATOM     47  C   UNL A   1      40.200  28.812  29.088  1.00  0.00     0.031 A 
ATOM     48  C   UNL A   1      46.956  26.950  29.448  1.00  0.00     0.031 A 
ATOM     49  C   UNL A   1      41.081  29.806  29.637  1.00  0.00     0.049 A 
ATOM     50  C   UNL A   1      46.483  28.314  29.870  1.00  0.00     0.074 A 
ATOM     51  C   UNL A   1      40.762  31.060  30.127  1.00  0.00     0.029 A 
ATOM     52  N   UNL A   1      42.452  29.656  29.770  1.00  0.00    -0.354 N 
ATOM     53  N   UNL A   1      45.263  28.794  29.889  1.00  0.00    -0.248 NA
ATOM     54  C   UNL A   1      47.509  29.255  30.339  1.00  0.00     0.031 C 
ATOM     55  C   UNL A   1      41.949  31.691  30.506  1.00  0.00     0.029 A 
ATOM     56  C   UNL A   1      42.998  30.806  30.310  1.00  0.00     0.049 A 
ATOM     57  H   UNL A   1      42.961  28.851  29.520  1.00  0.00     0.167 HD
ATOM     58  C   UNL A   1      45.371  30.083  30.391  1.00  0.00     0.074 A 
ATOM     59  C   UNL A   1      46.773  30.303  30.682  1.00  0.00     0.031 C 
ATOM     60  C   UNL A   1      44.397  31.005  30.591  1.00  0.00     0.031 A 
BRANCH  47  61
ATOM     61  C   UNL A   1      38.738  29.140  28.969  1.00  0.00    -0.014 A 
ATOM     62  C   UNL A   1      37.871  28.984  30.062  1.00  0.00     0.009 A 
ATOM     63  C   UNL A   1      38.233  29.664  27.770  1.00  0.00     0.009 A 
ATOM     64  C   UNL A   1      36.521  29.324  29.948  1.00  0.00     0.001 A 
ATOM     65  C   UNL A   1      36.890  30.032  27.668  1.00  0.00     0.001 A 
ATOM     66  C   UNL A   1      36.035  29.855  28.754  1.00  0.00     0.000 A 
ENDBRANCH  47  61
BRANCH  48  67
ATOM     67  C   UNL A   1      48.390  26.569  29.547  1.00  0.00    -0.014 A 
ATOM     68  C   UNL A   1      49.263  26.815  28.477  1.00  0.00     0.009 A 
ATOM     69  C   UNL A   1      48.899  25.982  30.715  1.00  0.00     0.009 A 
ATOM     70  C   UNL A   1      50.612  26.464  28.568  1.00  0.00     0.001 A 
ATOM     71  C   UNL A   1      50.254  25.658  30.816  1.00  0.00     0.001 A 
ATOM     72  C   UNL A   1      51.108  25.892  29.739  1.00  0.00     0.000 A 
ENDBRANCH  48  67
BRANCH  60  73
ATOM     73  C   UNL A   1      44.803  32.332  31.164  1.00  0.00    -0.014 A 
ATOM     74  C   UNL A   1      45.120  33.414  30.331  1.00  0.00     0.009 A 
ATOM     75  C   UNL A   1      44.780  32.525  32.555  1.00  0.00     0.009 A 
ATOM     76  C   UNL A   1      45.425  34.661  30.881  1.00  0.00     0.001 A 
ATOM     77  C   UNL A   1      45.054  33.780  33.100  1.00  0.00     0.001 A 
ATOM     78  C   UNL A   1      45.383  34.845  32.262  1.00  0.00     0.000 A 
ENDBRANCH  60  73
ENDBRANCH  34  35
ENDBRANCH  26  29
ENDBRANCH  24  25
ENDBRANCH   1  24
TORSDOF 11
ENDMDL
MODEL 2
REMARK VINA RESULT:     -12.2      0.303      5.984
REMARK SMILES Cc1cc2c(c(C)c1Cl)C=C(C(=O)NCCCNC(=O)c1ccc(-c3c4nc(c(-c5ccccc5)c5ccc([nH]5)c(-c5ccccc5)c5nc(c(-c6ccccc6)c6ccc3[nH]6)C=C5)C=C4)cc1)[C@@H](C(F)(F)F)O2
REMARK SMILES IDX 16 1 15 2 14 3 12 4 13 5 11 7 1 8 2 9 3 10 8 11 4 12 6 13
REMARK SMILES IDX 9 14 5 15 74 16 7 17 10 18 69 19 70 20 71 21 72 22 73 23
REMARK SMILES IDX 17 24 18 25 19 26 20 28 21 29 22 30 68 31 23 32 67 33 24 34
REMARK SMILES IDX 25 35 26 36 61 37 27 38 66 39 60 40 62 41 28 42 65 43 59 44
REMARK SMILES IDX 58 45 29 47 51 48 36 49 50 50 37 51 40 52 49 53 63 54 38 55
REMARK SMILES IDX 39 56 48 58 64 59 41 60 30 61 31 62 35 63 32 64 34 65 33 66
REMARK SMILES IDX 52 67 53 68 57 69 54 70 56 71 55 72 42 73 43 74 47 75 44 76
REMARK SMILES IDX 46 77 45 78
REMARK H PARENT 14 6 18 27 62 46 40 57
REMARK Flexibility Score: inf
ROOT
ATOM      1  C   UNL A   1      37.591  19.572  24.871  1.00  0.00     0.042 C 
ENDROOT
BRANCH   1   2
ATOM      2  C   UNL A   1      36.306  20.374  24.997  1.00  0.00     0.118 C 
BRANCH   2   3
ATOM      3  N   UNL A   1      35.131  19.518  24.973  1.00  0.00    -0.352 N 
ATOM      4  C   UNL A   1      33.787  19.672  24.993  1.00  0.00     0.251 C 
ATOM      5  O   UNL A   1      33.138  18.622  24.963  1.00  0.00    -0.270 OA
ATOM      6  H   UNL A   1      35.382  18.567  24.931  1.00  0.00     0.163 HD
BRANCH   4   7
ATOM      7  C   UNL A   1      33.077  20.983  25.050  1.00  0.00     0.067 C 
ATOM      8  C   UNL A   1      30.119  26.688  24.052  1.00  0.00     0.046 C 
ATOM      9  C   UNL A   1      30.894  25.403  23.943  1.00  0.00    -0.028 A 
ATOM     10  C   UNL A   1      30.862  24.521  25.025  1.00  0.00     0.052 A 
ATOM     11  C   UNL A   1      31.675  25.072  22.817  1.00  0.00     0.047 A 
ATOM     12  C   UNL A   1      31.578  23.331  24.985  1.00  0.00     0.128 A 
ATOM     13  C   UNL A   1      32.397  23.853  22.757  1.00  0.00    -0.021 A 
ATOM     14  Cl  UNL A   1      31.733  26.201  21.496  1.00  0.00    -0.084 Cl
ATOM     15  C   UNL A   1      32.336  22.974  23.865  1.00  0.00     0.022 A 
ATOM     16  O   UNL A   1      31.446  22.540  26.089  1.00  0.00    -0.475 OA
ATOM     17  C   UNL A   1      33.221  23.471  21.549  1.00  0.00     0.047 C 
ATOM     18  C   UNL A   1      33.003  21.668  23.894  1.00  0.00     0.026 C 
ATOM     19  C   UNL A   1      32.487  21.556  26.301  1.00  0.00     0.314 C 
BRANCH  19  20
ATOM     20  C   UNL A   1      33.552  22.126  27.258  1.00  0.00     0.429 C 
ATOM     21  F   UNL A   1      32.963  22.620  28.376  1.00  0.00    -0.167 F 
ATOM     22  F   UNL A   1      34.435  21.187  27.675  1.00  0.00    -0.167 F 
ATOM     23  F   UNL A   1      34.275  23.124  26.704  1.00  0.00    -0.167 F 
ENDBRANCH  19  20
ENDBRANCH   4   7
ENDBRANCH   2   3
ENDBRANCH   1   2
BRANCH   1  24
ATOM     24  C   UNL A   1      38.753  20.242  25.592  1.00  0.00     0.118 C 
BRANCH  24  25
ATOM     25  N   UNL A   1      39.887  19.333  25.751  1.00  0.00    -0.352 N 
ATOM     26  C   UNL A   1      41.202  19.600  26.029  1.00  0.00     0.251 C 
ATOM     27  H   UNL A   1      39.671  18.379  25.642  1.00  0.00     0.163 HD
ATOM     28  O   UNL A   1      42.058  18.737  25.837  1.00  0.00    -0.269 OA
BRANCH  26  29
ATOM     29  C   UNL A   1      41.589  20.920  26.556  1.00  0.00     0.039 A 
ATOM     30  C   UNL A   1      42.082  21.893  25.684  1.00  0.00     0.014 A 
ATOM     31  C   UNL A   1      41.487  21.185  27.924  1.00  0.00     0.014 A 
ATOM     32  C   UNL A   1      42.412  23.154  26.179  1.00  0.00     0.010 A 
ATOM     33  C   UNL A   1      41.712  22.469  28.397  1.00  0.00     0.010 A 
ATOM     34  C   UNL A   1      42.197  23.460  27.532  1.00  0.00    -0.014 A 
BRANCH  34  35
ATOM     35  C   UNL A   1      42.506  24.799  28.082  1.00  0.00     0.031 A 
ATOM     36  C   UNL A   1      43.914  25.130  28.493  1.00  0.00     0.074 A 
ATOM     37  C   UNL A   1      41.514  25.693  28.259  1.00  0.00     0.049 A 
ATOM     38  N   UNL A   1      44.377  26.222  29.042  1.00  0.00    -0.248 NA
ATOM     39  C   UNL A   1      44.934  24.086  28.285  1.00  0.00     0.031 C 
ATOM     40  C   UNL A   1      40.104  25.471  27.930  1.00  0.00     0.029 A 
ATOM     41  N   UNL A   1      41.541  26.969  28.759  1.00  0.00    -0.354 N 
ATOM     42  C   UNL A   1      45.730  25.991  29.254  1.00  0.00     0.074 A 
ATOM     43  C   UNL A   1      46.004  24.636  28.838  1.00  0.00     0.031 C 
ATOM     44  C   UNL A   1      39.410  26.589  28.196  1.00  0.00     0.029 A 
ATOM     45  C   UNL A   1      40.315  27.588  28.755  1.00  0.00     0.049 A 
ATOM     46  H   UNL A   1      42.362  27.402  29.088  1.00  0.00     0.167 HD
ATOM     47  C   UNL A   1      46.668  26.844  29.724  1.00  0.00     0.031 A 
ATOM     48  C   UNL A   1      39.960  28.823  29.157  1.00  0.00     0.031 A 
ATOM     49  C   UNL A   1      46.394  28.198  30.120  1.00  0.00     0.049 A 
ATOM     50  C   UNL A   1      41.017  29.742  29.704  1.00  0.00     0.074 A 
ATOM     51  C   UNL A   1      47.283  29.160  30.564  1.00  0.00     0.029 A 
ATOM     52  N   UNL A   1      45.136  28.781  30.114  1.00  0.00    -0.354 N 
ATOM     53  N   UNL A   1      42.304  29.529  29.842  1.00  0.00    -0.248 NA
ATOM     54  C   UNL A   1      40.576  31.073  30.141  1.00  0.00     0.031 C 
ATOM     55  C   UNL A   1      46.554  30.309  30.880  1.00  0.00     0.029 A 
ATOM     56  C   UNL A   1      45.222  30.082  30.573  1.00  0.00     0.049 A 
ATOM     57  H   UNL A   1      44.307  28.335  29.825  1.00  0.00     0.167 HD
ATOM     58  C   UNL A   1      42.828  30.704  30.361  1.00  0.00     0.074 A 
ATOM     59  C   UNL A   1      41.724  31.633  30.495  1.00  0.00     0.031 C 
ATOM     60  C   UNL A   1      44.109  30.990  30.700  1.00  0.00     0.031 A 
BRANCH  47  61
ATOM     61  C   UNL A   1      48.081  26.343  29.827  1.00  0.00    -0.014 A 
ATOM     62  C   UNL A   1      48.975  26.474  28.752  1.00  0.00     0.009 A 
ATOM     63  C   UNL A   1      48.542  25.785  31.029  1.00  0.00     0.009 A 
ATOM     64  C   UNL A   1      50.295  26.034  28.871  1.00  0.00     0.001 A 
ATOM     65  C   UNL A   1      49.870  25.374  31.156  1.00  0.00     0.001 A 
ATOM     66  C   UNL A   1      50.743  25.492  30.075  1.00  0.00     0.000 A 
ENDBRANCH  47  61
BRANCH  48  67
ATOM     67  C   UNL A   1      38.547  29.267  29.030  1.00  0.00    -0.014 A 
ATOM     68  C   UNL A   1      37.681  29.198  30.132  1.00  0.00     0.009 A 
ATOM     69  C   UNL A   1      38.061  29.782  27.819  1.00  0.00     0.009 A 
ATOM     70  C   UNL A   1      36.354  29.619  30.018  1.00  0.00     0.001 A 
ATOM     71  C   UNL A   1      36.742  30.230  27.715  1.00  0.00     0.001 A 
ATOM     72  C   UNL A   1      35.887  30.141  28.812  1.00  0.00     0.000 A 
ENDBRANCH  48  67
BRANCH  60  73
ATOM     73  C   UNL A   1      44.399  32.363  31.235  1.00  0.00    -0.014 A 
ATOM     74  C   UNL A   1      44.745  33.416  30.377  1.00  0.00     0.009 A 
ATOM     75  C   UNL A   1      44.235  32.624  32.605  1.00  0.00     0.009 A 
ATOM     76  C   UNL A   1      44.941  34.702  30.883  1.00  0.00     0.001 A 
ATOM     77  C   UNL A   1      44.401  33.917  33.104  1.00  0.00     0.001 A 
ATOM     78  C   UNL A   1      44.759  34.953  32.243  1.00  0.00     0.000 A 
ENDBRANCH  60  73
ENDBRANCH  34  35
ENDBRANCH  26  29
ENDBRANCH  24  25
ENDBRANCH   1  24
TORSDOF 11
ENDMDL
MODEL 3
REMARK VINA RESULT:     -12.2      2.868      7.406
REMARK SMILES Cc1cc2c(c(C)c1Cl)C=C(C(=O)NCCCNC(=O)c1ccc(-c3c4nc(c(-c5ccccc5)c5ccc([nH]5)c(-c5ccccc5)c5nc(c(-c6ccccc6)c6ccc3[nH]6)C=C5)C=C4)cc1)[C@@H](C(F)(F)F)O2
REMARK SMILES IDX 16 1 15 2 14 3 12 4 13 5 11 7 1 8 2 9 3 10 8 11 4 12 6 13
REMARK SMILES IDX 9 14 5 15 74 16 7 17 10 18 69 19 70 20 71 21 72 22 73 23
REMARK SMILES IDX 17 24 18 25 19 26 20 28 21 29 22 30 68 31 23 32 67 33 24 34
REMARK SMILES IDX 25 35 26 36 61 37 27 38 66 39 60 40 62 41 28 42 65 43 59 44
REMARK SMILES IDX 58 45 29 47 51 48 36 49 50 50 37 51 40 52 49 53 63 54 38 55
REMARK SMILES IDX 39 56 48 58 64 59 41 60 30 61 31 62 35 63 32 64 34 65 33 66
REMARK SMILES IDX 52 67 53 68 57 69 54 70 56 71 55 72 42 73 43 74 47 75 44 76
REMARK SMILES IDX 46 77 45 78
REMARK H PARENT 14 6 18 27 62 46 40 57
REMARK Flexibility Score: inf
ROOT
ATOM      1  C   UNL A   1      34.009  28.294  24.759  1.00  0.00     0.042 C 
ENDROOT
BRANCH   1   2
ATOM      2  C   UNL A   1      32.947  27.314  24.291  1.00  0.00     0.118 C 
BRANCH   2   3
ATOM      3  N   UNL A   1      32.128  26.838  25.395  1.00  0.00    -0.352 N 
ATOM      4  C   UNL A   1      31.897  25.665  26.029  1.00  0.00     0.251 C 
ATOM      5  O   UNL A   1      31.081  25.721  26.954  1.00  0.00    -0.270 OA
ATOM      6  H   UNL A   1      31.598  27.568  25.789  1.00  0.00     0.163 HD
BRANCH   4   7
ATOM      7  C   UNL A   1      32.542  24.365  25.686  1.00  0.00     0.067 C 
ATOM      8  C   UNL A   1      36.355  19.177  24.768  1.00  0.00     0.046 C 
ATOM      9  C   UNL A   1      35.774  20.529  25.084  1.00  0.00    -0.028 A 
ATOM     10  C   UNL A   1      34.387  20.677  25.038  1.00  0.00     0.052 A 
ATOM     11  C   UNL A   1      36.571  21.653  25.386  1.00  0.00     0.047 A 
ATOM     12  C   UNL A   1      33.801  21.909  25.299  1.00  0.00     0.128 A 
ATOM     13  C   UNL A   1      35.984  22.912  25.671  1.00  0.00    -0.021 A 
ATOM     14  Cl  UNL A   1      38.298  21.457  25.400  1.00  0.00    -0.084 Cl
ATOM     15  C   UNL A   1      34.574  23.028  25.628  1.00  0.00     0.022 A 
ATOM     16  O   UNL A   1      32.438  21.923  25.252  1.00  0.00    -0.475 OA
ATOM     17  C   UNL A   1      36.820  24.122  26.020  1.00  0.00     0.047 C 
ATOM     18  C   UNL A   1      33.858  24.268  25.950  1.00  0.00     0.026 C 
ATOM     19  C   UNL A   1      31.815  23.215  25.059  1.00  0.00     0.314 C 
BRANCH  19  20
ATOM     20  C   UNL A   1      31.529  23.435  23.561  1.00  0.00     0.429 C 
ATOM     21  F   UNL A   1      31.581  22.253  22.895  1.00  0.00    -0.167 F 
ATOM     22  F   UNL A   1      30.295  23.947  23.334  1.00  0.00    -0.167 F 
ATOM     23  F   UNL A   1      32.413  24.271  22.974  1.00  0.00    -0.167 F 
ENDBRANCH  19  20
ENDBRANCH   4   7
ENDBRANCH   2   3
ENDBRANCH   1   2
BRANCH   1  24
ATOM     24  C   UNL A   1      34.006  28.459  26.273  1.00  0.00     0.118 C 
BRANCH  24  25
ATOM     25  N   UNL A   1      33.822  29.855  26.664  1.00  0.00    -0.352 N 
ATOM     26  C   UNL A   1      34.513  30.618  27.569  1.00  0.00     0.251 C 
ATOM     27  H   UNL A   1      33.086  30.321  26.205  1.00  0.00     0.163 HD
ATOM     28  O   UNL A   1      34.033  31.676  27.974  1.00  0.00    -0.269 OA
BRANCH  26  29
ATOM     29  C   UNL A   1      35.829  30.170  28.056  1.00  0.00     0.039 A 
ATOM     30  C   UNL A   1      35.940  29.624  29.337  1.00  0.00     0.014 A 
ATOM     31  C   UNL A   1      36.960  30.314  27.250  1.00  0.00     0.014 A 
ATOM     32  C   UNL A   1      37.179  29.166  29.782  1.00  0.00     0.010 A 
ATOM     33  C   UNL A   1      38.168  29.761  27.650  1.00  0.00     0.010 A 
ATOM     34  C   UNL A   1      38.293  29.200  28.928  1.00  0.00    -0.014 A 
BRANCH  34  35
ATOM     35  C   UNL A   1      39.615  28.691  29.359  1.00  0.00     0.031 A 
ATOM     36  C   UNL A   1      40.474  29.523  30.270  1.00  0.00     0.074 A 
ATOM     37  C   UNL A   1      40.061  27.510  28.888  1.00  0.00     0.049 A 
ATOM     38  N   UNL A   1      41.679  29.280  30.716  1.00  0.00    -0.248 NA
ATOM     39  C   UNL A   1      39.919  30.812  30.719  1.00  0.00     0.031 C 
ATOM     40  C   UNL A   1      39.329  26.632  27.971  1.00  0.00     0.029 A 
ATOM     41  N   UNL A   1      41.236  26.844  29.119  1.00  0.00    -0.354 N 
ATOM     42  C   UNL A   1      42.025  30.385  31.482  1.00  0.00     0.074 A 
ATOM     43  C   UNL A   1      40.936  31.329  31.391  1.00  0.00     0.031 C 
ATOM     44  C   UNL A   1      40.055  25.524  27.752  1.00  0.00     0.029 A 
ATOM     45  C   UNL A   1      41.318  25.633  28.476  1.00  0.00     0.049 A 
ATOM     46  H   UNL A   1      41.953  27.199  29.692  1.00  0.00     0.167 HD
ATOM     47  C   UNL A   1      43.139  30.582  32.223  1.00  0.00     0.031 A 
ATOM     48  C   UNL A   1      42.301  24.713  28.470  1.00  0.00     0.031 A 
ATOM     49  C   UNL A   1      44.212  29.631  32.326  1.00  0.00     0.049 A 
ATOM     50  C   UNL A   1      43.542  24.969  29.279  1.00  0.00     0.074 A 
ATOM     51  C   UNL A   1      45.363  29.714  33.089  1.00  0.00     0.029 A 
ATOM     52  N   UNL A   1      44.261  28.424  31.647  1.00  0.00    -0.354 N 
ATOM     53  N   UNL A   1      43.829  25.993  30.047  1.00  0.00    -0.248 NA
ATOM     54  C   UNL A   1      44.590  23.941  29.228  1.00  0.00     0.031 C 
ATOM     55  C   UNL A   1      46.136  28.580  32.829  1.00  0.00     0.029 A 
ATOM     56  C   UNL A   1      45.438  27.764  31.953  1.00  0.00     0.049 A 
ATOM     57  H   UNL A   1      43.564  28.087  31.040  1.00  0.00     0.167 HD
ATOM     58  C   UNL A   1      45.079  25.723  30.587  1.00  0.00     0.074 A 
ATOM     59  C   UNL A   1      45.487  24.431  30.074  1.00  0.00     0.031 C 
ATOM     60  C   UNL A   1      45.825  26.478  31.430  1.00  0.00     0.031 A 
BRANCH  47  61
ATOM     61  C   UNL A   1      43.250  31.869  32.991  1.00  0.00    -0.014 A 
ATOM     62  C   UNL A   1      43.831  33.009  32.413  1.00  0.00     0.009 A 
ATOM     63  C   UNL A   1      42.717  31.961  34.286  1.00  0.00     0.009 A 
ATOM     64  C   UNL A   1      43.899  34.208  33.126  1.00  0.00     0.001 A 
ATOM     65  C   UNL A   1      42.758  33.170  34.985  1.00  0.00     0.001 A 
ATOM     66  C   UNL A   1      43.354  34.289  34.406  1.00  0.00     0.000 A 
ENDBRANCH  47  61
BRANCH  48  67
ATOM     67  C   UNL A   1      42.136  23.456  27.694  1.00  0.00    -0.014 A 
ATOM     68  C   UNL A   1      41.502  22.345  28.272  1.00  0.00     0.009 A 
ATOM     69  C   UNL A   1      42.587  23.364  26.368  1.00  0.00     0.009 A 
ATOM     70  C   UNL A   1      41.340  21.164  27.543  1.00  0.00     0.001 A 
ATOM     71  C   UNL A   1      42.397  22.192  25.632  1.00  0.00     0.001 A 
ATOM     72  C   UNL A   1      41.782  21.090  26.223  1.00  0.00     0.000 A 
ENDBRANCH  48  67
BRANCH  60  73
ATOM     73  C   UNL A   1      47.152  25.928  31.867  1.00  0.00    -0.014 A 
ATOM     74  C   UNL A   1      48.305  26.116  31.091  1.00  0.00     0.009 A 
ATOM     75  C   UNL A   1      47.264  25.292  33.114  1.00  0.00     0.009 A 
ATOM     76  C   UNL A   1      49.543  25.660  31.548  1.00  0.00     0.001 A 
ATOM     77  C   UNL A   1      48.507  24.866  33.582  1.00  0.00     0.001 A 
ATOM     78  C   UNL A   1      49.645  25.045  32.795  1.00  0.00     0.000 A 
ENDBRANCH  60  73
ENDBRANCH  34  35
ENDBRANCH  26  29
ENDBRANCH  24  25
ENDBRANCH   1  24
TORSDOF 11
ENDMDL
