MODEL 1
REMARK VINA RESULT:     -10.9      0.000      0.000
REMARK SMILES Nc1cc(Br)ccc1C(=O)NC1(C(=O)NCCCNC(=O)c2ccc(-c3c4nc(c(-c5ccccc5)c5ccc([nH]5)c(-c5ccccc5)c5nc(c(-c6ccccc6)c6ccc3[nH]6)C=C5)C=C4)cc2)CC1
REMARK SMILES IDX 16 1 15 2 13 3 14 4 12 6 70 7 71 8 11 9 9 10 10 11 8 13 2 14
REMARK SMILES IDX 3 15 4 16 7 17 5 18 6 19 1 20 17 23 18 24 19 25 20 26 21 28
REMARK SMILES IDX 22 29 23 30 69 31 24 32 68 33 25 34 26 35 27 36 62 37 28 38
REMARK SMILES IDX 67 39 61 40 63 41 29 42 66 43 60 44 59 45 30 47 52 48 37 49
REMARK SMILES IDX 51 50 38 51 41 52 50 53 64 54 39 55 40 56 49 58 65 59 42 60
REMARK SMILES IDX 31 61 32 62 36 63 33 64 35 65 34 66 53 67 54 68 58 69 55 70
REMARK SMILES IDX 57 71 56 72 43 73 44 74 48 75 45 76 47 77 46 78
REMARK H PARENT 15 5 11 12 1 21 1 22 19 27 63 46 41 57
REMARK Flexibility Score: inf
ROOT
ATOM      1  C   UNL A   1      36.593  21.832  24.261  1.00  0.00     0.117 C 
ENDROOT
BRANCH   1   2
ATOM      2  N   UNL A   1      35.856  22.576  25.257  1.00  0.00    -0.354 N 
ATOM      3  C   UNL A   1      34.825  23.465  25.183  1.00  0.00     0.245 C 
ATOM      4  O   UNL A   1      34.649  24.172  26.179  1.00  0.00    -0.272 OA
ATOM      5  H   UNL A   1      36.162  22.409  26.177  1.00  0.00     0.163 HD
BRANCH   3   6
ATOM      6  C   UNL A   1      33.820  23.587  24.045  1.00  0.00     0.119 C 
ATOM      7  C   UNL A   1      34.057  23.577  22.549  1.00  0.00     0.041 C 
ATOM      8  C   UNL A   1      34.004  24.888  23.247  1.00  0.00     0.041 C 
BRANCH   6   9
ATOM      9  N   UNL A   1      32.483  23.328  24.549  1.00  0.00    -0.338 N 
ATOM     10  C   UNL A   1      31.903  22.193  25.057  1.00  0.00     0.254 C 
ATOM     11  O   UNL A   1      30.847  22.296  25.684  1.00  0.00    -0.269 OA
ATOM     12  H   UNL A   1      31.884  24.108  24.519  1.00  0.00     0.164 HD
BRANCH  10  13
ATOM     13  C   UNL A   1      32.414  20.834  24.765  1.00  0.00     0.062 A 
ATOM     14  C   UNL A   1      33.091  19.993  25.666  1.00  0.00     0.045 A 
ATOM     15  C   UNL A   1      33.604  18.780  25.178  1.00  0.00     0.042 A 
ATOM     16  C   UNL A   1      33.321  18.346  23.880  1.00  0.00     0.020 A 
ATOM     17  C   UNL A   1      32.099  20.366  23.473  1.00  0.00     0.017 A 
ATOM     18  Br  UNL A   1      33.988  16.683  23.278  1.00  0.00    -0.051 Br
ATOM     19  C   UNL A   1      32.539  19.120  23.034  1.00  0.00     0.016 A 
BRANCH  14  20
ATOM     20  N   UNL A   1      33.358  20.324  26.990  1.00  0.00    -0.398 N 
ATOM     21  H   UNL A   1      32.708  20.098  27.694  1.00  0.00     0.156 HD
ATOM     22  H   UNL A   1      34.195  20.786  27.223  1.00  0.00     0.156 HD
ENDBRANCH  14  20
ENDBRANCH  10  13
ENDBRANCH   6   9
ENDBRANCH   3   6
ENDBRANCH   1   2
BRANCH   1  23
ATOM     23  C   UNL A   1      37.254  20.609  24.891  1.00  0.00     0.042 C 
BRANCH  23  24
ATOM     24  C   UNL A   1      38.543  20.929  25.648  1.00  0.00     0.118 C 
BRANCH  24  25
ATOM     25  N   UNL A   1      39.528  19.854  25.590  1.00  0.00    -0.352 N 
ATOM     26  C   UNL A   1      40.863  19.865  25.918  1.00  0.00     0.251 C 
ATOM     27  H   UNL A   1      39.184  18.990  25.265  1.00  0.00     0.163 HD
ATOM     28  O   UNL A   1      41.566  18.890  25.662  1.00  0.00    -0.269 OA
BRANCH  26  29
ATOM     29  C   UNL A   1      41.463  21.065  26.539  1.00  0.00     0.039 A 
ATOM     30  C   UNL A   1      41.459  21.228  27.925  1.00  0.00     0.014 A 
ATOM     31  C   UNL A   1      42.010  22.056  25.720  1.00  0.00     0.014 A 
ATOM     32  C   UNL A   1      41.819  22.454  28.474  1.00  0.00     0.010 A 
ATOM     33  C   UNL A   1      42.457  23.255  26.282  1.00  0.00     0.010 A 
ATOM     34  C   UNL A   1      42.306  23.489  27.658  1.00  0.00    -0.014 A 
BRANCH  34  35
ATOM     35  C   UNL A   1      42.620  24.811  28.263  1.00  0.00     0.031 A 
ATOM     36  C   UNL A   1      44.043  25.188  28.589  1.00  0.00     0.074 A 
ATOM     37  C   UNL A   1      41.631  25.707  28.448  1.00  0.00     0.049 A 
ATOM     38  N   UNL A   1      44.505  26.315  29.074  1.00  0.00    -0.248 NA
ATOM     39  C   UNL A   1      45.084  24.178  28.338  1.00  0.00     0.031 C 
ATOM     40  C   UNL A   1      40.218  25.476  28.144  1.00  0.00     0.029 A 
ATOM     41  N   UNL A   1      41.667  27.003  28.898  1.00  0.00    -0.354 N 
ATOM     42  C   UNL A   1      45.877  26.143  29.197  1.00  0.00     0.074 A 
ATOM     43  C   UNL A   1      46.176  24.795  28.768  1.00  0.00     0.031 C 
ATOM     44  C   UNL A   1      39.534  26.610  28.351  1.00  0.00     0.029 A 
ATOM     45  C   UNL A   1      40.444  27.629  28.866  1.00  0.00     0.049 A 
ATOM     46  H   UNL A   1      42.488  27.443  29.212  1.00  0.00     0.167 HD
ATOM     47  C   UNL A   1      46.808  27.033  29.617  1.00  0.00     0.031 A 
ATOM     48  C   UNL A   1      40.085  28.880  29.215  1.00  0.00     0.031 A 
ATOM     49  C   UNL A   1      46.516  28.379  30.031  1.00  0.00     0.049 A 
ATOM     50  C   UNL A   1      41.130  29.827  29.732  1.00  0.00     0.074 A 
ATOM     51  C   UNL A   1      47.399  29.352  30.466  1.00  0.00     0.029 A 
ATOM     52  N   UNL A   1      45.252  28.945  30.055  1.00  0.00    -0.354 N 
ATOM     53  N   UNL A   1      42.423  29.644  29.846  1.00  0.00    -0.248 NA
ATOM     54  C   UNL A   1      40.667  31.150  30.175  1.00  0.00     0.031 C 
ATOM     55  C   UNL A   1      46.664  30.490  30.804  1.00  0.00     0.029 A 
ATOM     56  C   UNL A   1      45.331  30.247  30.518  1.00  0.00     0.049 A 
ATOM     57  H   UNL A   1      44.422  28.489  29.783  1.00  0.00     0.167 HD
ATOM     58  C   UNL A   1      42.930  30.831  30.355  1.00  0.00     0.074 A 
ATOM     59  C   UNL A   1      41.809  31.735  30.512  1.00  0.00     0.031 C 
ATOM     60  C   UNL A   1      44.211  31.140  30.668  1.00  0.00     0.031 A 
BRANCH  47  61
ATOM     61  C   UNL A   1      48.245  26.591  29.660  1.00  0.00    -0.014 A 
ATOM     62  C   UNL A   1      49.061  26.762  28.530  1.00  0.00     0.009 A 
ATOM     63  C   UNL A   1      48.760  25.909  30.773  1.00  0.00     0.009 A 
ATOM     64  C   UNL A   1      50.357  26.243  28.506  1.00  0.00     0.001 A 
ATOM     65  C   UNL A   1      50.066  25.414  30.755  1.00  0.00     0.001 A 
ATOM     66  C   UNL A   1      50.859  25.572  29.619  1.00  0.00     0.000 A 
ENDBRANCH  47  61
BRANCH  48  67
ATOM     67  C   UNL A   1      38.667  29.301  29.078  1.00  0.00    -0.014 A 
ATOM     68  C   UNL A   1      37.778  29.186  30.159  1.00  0.00     0.009 A 
ATOM     69  C   UNL A   1      38.183  29.787  27.854  1.00  0.00     0.009 A 
ATOM     70  C   UNL A   1      36.431  29.522  30.011  1.00  0.00     0.001 A 
ATOM     71  C   UNL A   1      36.842  30.152  27.718  1.00  0.00     0.001 A 
ATOM     72  C   UNL A   1      35.966  30.010  28.793  1.00  0.00     0.000 A 
ENDBRANCH  48  67
BRANCH  60  73
ATOM     73  C   UNL A   1      44.494  32.517  31.197  1.00  0.00    -0.014 A 
ATOM     74  C   UNL A   1      44.880  33.537  30.313  1.00  0.00     0.009 A 
ATOM     75  C   UNL A   1      44.485  32.778  32.575  1.00  0.00     0.009 A 
ATOM     76  C   UNL A   1      45.267  34.786  30.798  1.00  0.00     0.001 A 
ATOM     77  C   UNL A   1      44.847  34.037  33.056  1.00  0.00     0.001 A 
ATOM     78  C   UNL A   1      45.247  35.036  32.169  1.00  0.00     0.000 A 
ENDBRANCH  60  73
ENDBRANCH  34  35
ENDBRANCH  26  29
ENDBRANCH  24  25
ENDBRANCH  23  24
ENDBRANCH   1  23
TORSDOF 13
ENDMDL
MODEL 2
REMARK VINA RESULT:     -10.7      1.851      2.786
REMARK SMILES Nc1cc(Br)ccc1C(=O)NC1(C(=O)NCCCNC(=O)c2ccc(-c3c4nc(c(-c5ccccc5)c5ccc([nH]5)c(-c5ccccc5)c5nc(c(-c6ccccc6)c6ccc3[nH]6)C=C5)C=C4)cc2)CC1
REMARK SMILES IDX 16 1 15 2 13 3 14 4 12 6 70 7 71 8 11 9 9 10 10 11 8 13 2 14
REMARK SMILES IDX 3 15 4 16 7 17 5 18 6 19 1 20 17 23 18 24 19 25 20 26 21 28
REMARK SMILES IDX 22 29 23 30 69 31 24 32 68 33 25 34 26 35 27 36 62 37 28 38
REMARK SMILES IDX 67 39 61 40 63 41 29 42 66 43 60 44 59 45 30 47 52 48 37 49
REMARK SMILES IDX 51 50 38 51 41 52 50 53 64 54 39 55 40 56 49 58 65 59 42 60
REMARK SMILES IDX 31 61 32 62 36 63 33 64 35 65 34 66 53 67 54 68 58 69 55 70
REMARK SMILES IDX 57 71 56 72 43 73 44 74 48 75 45 76 47 77 46 78
REMARK H PARENT 15 5 11 12 1 21 1 22 19 27 63 46 41 57
REMARK Flexibility Score: inf
ROOT
ATOM      1  C   UNL A   1      36.786  21.826  24.531  1.00  0.00     0.117 C 
ENDROOT
BRANCH   1   2
ATOM      2  N   UNL A   1      35.938  22.014  25.686  1.00  0.00    -0.354 N 
ATOM      3  C   UNL A   1      34.593  22.175  25.840  1.00  0.00     0.245 C 
ATOM      4  O   UNL A   1      34.224  22.646  26.919  1.00  0.00    -0.272 OA
ATOM      5  H   UNL A   1      36.433  22.032  26.537  1.00  0.00     0.163 HD
BRANCH   3   6
ATOM      6  C   UNL A   1      33.515  21.732  24.859  1.00  0.00     0.119 C 
ATOM      7  C   UNL A   1      32.272  20.901  25.108  1.00  0.00     0.041 C 
ATOM      8  C   UNL A   1      33.508  20.207  24.657  1.00  0.00     0.041 C 
BRANCH   6   9
ATOM      9  N   UNL A   1      33.594  22.537  23.654  1.00  0.00    -0.338 N 
ATOM     10  C   UNL A   1      33.578  23.896  23.462  1.00  0.00     0.254 C 
ATOM     11  O   UNL A   1      33.948  24.346  22.377  1.00  0.00    -0.269 OA
ATOM     12  H   UNL A   1      33.672  22.014  22.824  1.00  0.00     0.164 HD
BRANCH  10  13
ATOM     13  C   UNL A   1      33.003  24.837  24.452  1.00  0.00     0.062 A 
ATOM     14  C   UNL A   1      31.654  24.908  24.839  1.00  0.00     0.045 A 
ATOM     15  C   UNL A   1      31.271  25.942  25.709  1.00  0.00     0.042 A 
ATOM     16  C   UNL A   1      32.222  26.781  26.296  1.00  0.00     0.020 A 
ATOM     17  C   UNL A   1      33.957  25.661  25.083  1.00  0.00     0.017 A 
ATOM     18  Br  UNL A   1      31.670  28.129  27.501  1.00  0.00    -0.051 Br
ATOM     19  C   UNL A   1      33.570  26.623  26.013  1.00  0.00     0.016 A 
BRANCH  14  20
ATOM     20  N   UNL A   1      30.657  24.070  24.349  1.00  0.00    -0.398 N 
ATOM     21  H   UNL A   1      30.548  23.952  23.378  1.00  0.00     0.156 HD
ATOM     22  H   UNL A   1      30.061  23.597  24.973  1.00  0.00     0.156 HD
ENDBRANCH  14  20
ENDBRANCH  10  13
ENDBRANCH   6   9
ENDBRANCH   3   6
ENDBRANCH   1   2
BRANCH   1  23
ATOM     23  C   UNL A   1      37.664  20.591  24.710  1.00  0.00     0.042 C 
BRANCH  23  24
ATOM     24  C   UNL A   1      38.753  20.760  25.770  1.00  0.00     0.118 C 
BRANCH  24  25
ATOM     25  N   UNL A   1      39.755  19.699  25.741  1.00  0.00    -0.352 N 
ATOM     26  C   UNL A   1      41.091  19.743  26.062  1.00  0.00     0.251 C 
ATOM     27  H   UNL A   1      39.424  18.821  25.445  1.00  0.00     0.163 HD
ATOM     28  O   UNL A   1      41.808  18.772  25.834  1.00  0.00    -0.269 OA
BRANCH  26  29
ATOM     29  C   UNL A   1      41.674  20.972  26.643  1.00  0.00     0.039 A 
ATOM     30  C   UNL A   1      41.689  21.170  28.023  1.00  0.00     0.014 A 
ATOM     31  C   UNL A   1      42.184  21.953  25.789  1.00  0.00     0.014 A 
ATOM     32  C   UNL A   1      42.031  22.418  28.535  1.00  0.00     0.010 A 
ATOM     33  C   UNL A   1      42.612  23.176  26.313  1.00  0.00     0.010 A 
ATOM     34  C   UNL A   1      42.480  23.442  27.685  1.00  0.00    -0.014 A 
BRANCH  34  35
ATOM     35  C   UNL A   1      42.774  24.786  28.250  1.00  0.00     0.031 A 
ATOM     36  C   UNL A   1      44.193  25.203  28.541  1.00  0.00     0.074 A 
ATOM     37  C   UNL A   1      41.767  25.664  28.431  1.00  0.00     0.049 A 
ATOM     38  N   UNL A   1      44.637  26.352  28.988  1.00  0.00    -0.248 NA
ATOM     39  C   UNL A   1      45.253  24.211  28.296  1.00  0.00     0.031 C 
ATOM     40  C   UNL A   1      40.355  25.392  28.160  1.00  0.00     0.029 A 
ATOM     41  N   UNL A   1      41.782  26.971  28.848  1.00  0.00    -0.354 N 
ATOM     42  C   UNL A   1      46.015  26.215  29.091  1.00  0.00     0.074 A 
ATOM     43  C   UNL A   1      46.338  24.864  28.690  1.00  0.00     0.031 C 
ATOM     44  C   UNL A   1      39.648  26.516  28.351  1.00  0.00     0.029 A 
ATOM     45  C   UNL A   1      40.543  27.567  28.823  1.00  0.00     0.049 A 
ATOM     46  H   UNL A   1      42.598  27.438  29.136  1.00  0.00     0.167 HD
ATOM     47  C   UNL A   1      46.932  27.136  29.471  1.00  0.00     0.031 A 
ATOM     48  C   UNL A   1      40.162  28.818  29.147  1.00  0.00     0.031 A 
ATOM     49  C   UNL A   1      46.616  28.486  29.856  1.00  0.00     0.049 A 
ATOM     50  C   UNL A   1      41.194  29.802  29.621  1.00  0.00     0.074 A 
ATOM     51  C   UNL A   1      47.485  29.489  30.250  1.00  0.00     0.029 A 
ATOM     52  N   UNL A   1      45.341  29.023  29.889  1.00  0.00    -0.354 N 
ATOM     53  N   UNL A   1      42.493  29.651  29.715  1.00  0.00    -0.248 NA
ATOM     54  C   UNL A   1      40.708  31.125  30.038  1.00  0.00     0.031 C 
ATOM     55  C   UNL A   1      46.729  30.619  30.573  1.00  0.00     0.029 A 
ATOM     56  C   UNL A   1      45.397  30.338  30.318  1.00  0.00     0.049 A 
ATOM     57  H   UNL A   1      44.517  28.542  29.644  1.00  0.00     0.167 HD
ATOM     58  C   UNL A   1      42.981  30.863  30.185  1.00  0.00     0.074 A 
ATOM     59  C   UNL A   1      41.842  31.744  30.340  1.00  0.00     0.031 C 
ATOM     60  C   UNL A   1      44.260  31.208  30.466  1.00  0.00     0.031 A 
BRANCH  47  61
ATOM     61  C   UNL A   1      48.380  26.729  29.499  1.00  0.00    -0.014 A 
ATOM     62  C   UNL A   1      49.173  26.896  28.352  1.00  0.00     0.009 A 
ATOM     63  C   UNL A   1      48.929  26.081  30.616  1.00  0.00     0.009 A 
ATOM     64  C   UNL A   1      50.480  26.407  28.316  1.00  0.00     0.001 A 
ATOM     65  C   UNL A   1      50.245  25.616  30.586  1.00  0.00     0.001 A 
ATOM     66  C   UNL A   1      51.016  25.770  29.434  1.00  0.00     0.000 A 
ENDBRANCH  47  61
BRANCH  48  67
ATOM     67  C   UNL A   1      38.733  29.204  29.025  1.00  0.00    -0.014 A 
ATOM     68  C   UNL A   1      37.856  29.057  30.114  1.00  0.00     0.009 A 
ATOM     69  C   UNL A   1      38.225  29.686  27.810  1.00  0.00     0.009 A 
ATOM     70  C   UNL A   1      36.499  29.358  29.980  1.00  0.00     0.001 A 
ATOM     71  C   UNL A   1      36.873  30.018  27.688  1.00  0.00     0.001 A 
ATOM     72  C   UNL A   1      36.011  29.844  28.769  1.00  0.00     0.000 A 
ENDBRANCH  48  67
BRANCH  60  73
ATOM     73  C   UNL A   1      44.520  32.604  30.956  1.00  0.00    -0.014 A 
ATOM     74  C   UNL A   1      44.825  33.619  30.034  1.00  0.00     0.009 A 
ATOM     75  C   UNL A   1      44.570  32.892  32.327  1.00  0.00     0.009 A 
ATOM     76  C   UNL A   1      45.192  34.890  30.477  1.00  0.00     0.001 A 
ATOM     77  C   UNL A   1      44.911  34.173  32.767  1.00  0.00     0.001 A 
ATOM     78  C   UNL A   1      45.231  35.167  31.842  1.00  0.00     0.000 A 
ENDBRANCH  60  73
ENDBRANCH  34  35
ENDBRANCH  26  29
ENDBRANCH  24  25
ENDBRANCH  23  24
ENDBRANCH   1  23
TORSDOF 13
ENDMDL
MODEL 3
REMARK VINA RESULT:     -10.7      4.392      9.117
REMARK SMILES Nc1cc(Br)ccc1C(=O)NC1(C(=O)NCCCNC(=O)c2ccc(-c3c4nc(c(-c5ccccc5)c5ccc([nH]5)c(-c5ccccc5)c5nc(c(-c6ccccc6)c6ccc3[nH]6)C=C5)C=C4)cc2)CC1
REMARK SMILES IDX 16 1 15 2 13 3 14 4 12 6 70 7 71 8 11 9 9 10 10 11 8 13 2 14
REMARK SMILES IDX 3 15 4 16 7 17 5 18 6 19 1 20 17 23 18 24 19 25 20 26 21 28
REMARK SMILES IDX 22 29 23 30 69 31 24 32 68 33 25 34 26 35 27 36 62 37 28 38
REMARK SMILES IDX 67 39 61 40 63 41 29 42 66 43 60 44 59 45 30 47 52 48 37 49
REMARK SMILES IDX 51 50 38 51 41 52 50 53 64 54 39 55 40 56 49 58 65 59 42 60
REMARK SMILES IDX 31 61 32 62 36 63 33 64 35 65 34 66 53 67 54 68 58 69 55 70
REMARK SMILES IDX 57 71 56 72 43 73 44 74 48 75 45 76 47 77 46 78
REMARK H PARENT 15 5 11 12 1 21 1 22 19 27 63 46 41 57
REMARK Flexibility Score: inf
ROOT
ATOM      1  C   UNL A   1      31.731  29.189  26.428  1.00  0.00     0.117 C 
ENDROOT
BRANCH   1   2
ATOM      2  N   UNL A   1      32.738  28.540  25.619  1.00  0.00    -0.354 N 
ATOM      3  C   UNL A   1      32.921  27.253  25.213  1.00  0.00     0.245 C 
ATOM      4  O   UNL A   1      34.053  26.966  24.815  1.00  0.00    -0.272 OA
ATOM      5  H   UNL A   1      33.437  29.154  25.298  1.00  0.00     0.163 HD
BRANCH   3   6
ATOM      6  C   UNL A   1      31.843  26.181  25.104  1.00  0.00     0.119 C 
ATOM      7  C   UNL A   1      30.795  25.765  26.117  1.00  0.00     0.041 C 
ATOM      8  C   UNL A   1      32.081  25.020  26.085  1.00  0.00     0.041 C 
BRANCH   6   9
ATOM      9  N   UNL A   1      31.662  25.815  23.711  1.00  0.00    -0.338 N 
ATOM     10  C   UNL A   1      31.243  26.540  22.624  1.00  0.00     0.254 C 
ATOM     11  O   UNL A   1      31.445  26.088  21.496  1.00  0.00    -0.269 OA
ATOM     12  H   UNL A   1      31.877  24.876  23.510  1.00  0.00     0.164 HD
BRANCH  10  13
ATOM     13  C   UNL A   1      30.433  27.774  22.750  1.00  0.00     0.062 A 
ATOM     14  C   UNL A   1      30.875  29.083  22.493  1.00  0.00     0.045 A 
ATOM     15  C   UNL A   1      29.998  30.144  22.776  1.00  0.00     0.042 A 
ATOM     16  C   UNL A   1      28.674  29.904  23.155  1.00  0.00     0.020 A 
ATOM     17  C   UNL A   1      29.084  27.545  23.090  1.00  0.00     0.017 A 
ATOM     18  Br  UNL A   1      27.511  31.358  23.479  1.00  0.00    -0.051 Br
ATOM     19  C   UNL A   1      28.202  28.606  23.280  1.00  0.00     0.016 A 
BRANCH  14  20
ATOM     20  N   UNL A   1      32.156  29.402  22.054  1.00  0.00    -0.398 N 
ATOM     21  H   UNL A   1      32.289  30.147  21.425  1.00  0.00     0.156 HD
ATOM     22  H   UNL A   1      32.929  28.881  22.371  1.00  0.00     0.156 HD
ENDBRANCH  14  20
ENDBRANCH  10  13
ENDBRANCH   6   9
ENDBRANCH   3   6
ENDBRANCH   1   2
BRANCH   1  23
ATOM     23  C   UNL A   1      31.739  30.695  26.182  1.00  0.00     0.042 C 
BRANCH  23  24
ATOM     24  C   UNL A   1      32.797  31.445  26.993  1.00  0.00     0.118 C 
BRANCH  24  25
ATOM     25  N   UNL A   1      32.406  32.809  27.330  1.00  0.00    -0.352 N 
ATOM     26  C   UNL A   1      33.030  33.728  28.141  1.00  0.00     0.251 C 
ATOM     27  H   UNL A   1      31.567  33.117  26.916  1.00  0.00     0.163 HD
ATOM     28  O   UNL A   1      32.466  34.784  28.418  1.00  0.00    -0.269 OA
BRANCH  26  29
ATOM     29  C   UNL A   1      34.360  33.429  28.713  1.00  0.00     0.039 A 
ATOM     30  C   UNL A   1      35.525  33.822  28.054  1.00  0.00     0.014 A 
ATOM     31  C   UNL A   1      34.441  32.716  29.912  1.00  0.00     0.014 A 
ATOM     32  C   UNL A   1      36.756  33.339  28.486  1.00  0.00     0.010 A 
ATOM     33  C   UNL A   1      35.688  32.307  30.395  1.00  0.00     0.010 A 
ATOM     34  C   UNL A   1      36.851  32.562  29.651  1.00  0.00    -0.014 A 
BRANCH  34  35
ATOM     35  C   UNL A   1      38.170  32.003  30.052  1.00  0.00     0.031 A 
ATOM     36  C   UNL A   1      38.991  32.667  31.128  1.00  0.00     0.074 A 
ATOM     37  C   UNL A   1      38.596  30.849  29.501  1.00  0.00     0.049 A 
ATOM     38  N   UNL A   1      40.138  32.291  31.637  1.00  0.00    -0.248 NA
ATOM     39  C   UNL A   1      38.459  33.909  31.713  1.00  0.00     0.031 C 
ATOM     40  C   UNL A   1      37.881  30.093  28.472  1.00  0.00     0.029 A 
ATOM     41  N   UNL A   1      39.712  30.093  29.755  1.00  0.00    -0.354 N 
ATOM     42  C   UNL A   1      40.469  33.251  32.585  1.00  0.00     0.074 A 
ATOM     43  C   UNL A   1      39.420  34.247  32.563  1.00  0.00     0.031 C 
ATOM     44  C   UNL A   1      38.538  28.950  28.232  1.00  0.00     0.029 A 
ATOM     45  C   UNL A   1      39.756  28.922  29.037  1.00  0.00     0.049 A 
ATOM     46  H   UNL A   1      40.414  30.361  30.390  1.00  0.00     0.167 HD
ATOM     47  C   UNL A   1      41.542  33.294  33.409  1.00  0.00     0.031 A 
ATOM     48  C   UNL A   1      40.671  27.933  29.019  1.00  0.00     0.031 A 
ATOM     49  C   UNL A   1      42.579  32.298  33.444  1.00  0.00     0.049 A 
ATOM     50  C   UNL A   1      41.881  28.035  29.903  1.00  0.00     0.074 A 
ATOM     51  C   UNL A   1      43.701  32.258  34.253  1.00  0.00     0.029 A 
ATOM     52  N   UNL A   1      42.620  31.168  32.645  1.00  0.00    -0.354 N 
ATOM     53  N   UNL A   1      42.177  28.954  30.790  1.00  0.00    -0.248 NA
ATOM     54  C   UNL A   1      42.885  26.969  29.781  1.00  0.00     0.031 C 
ATOM     55  C   UNL A   1      44.450  31.131  33.907  1.00  0.00     0.029 A 
ATOM     56  C   UNL A   1      43.761  30.436  32.927  1.00  0.00     0.049 A 
ATOM     57  H   UNL A   1      41.941  30.922  31.976  1.00  0.00     0.167 HD
ATOM     58  C   UNL A   1      43.391  28.569  31.343  1.00  0.00     0.074 A 
ATOM     59  C   UNL A   1      43.767  27.324  30.706  1.00  0.00     0.031 C 
ATOM     60  C   UNL A   1      44.126  29.197  32.291  1.00  0.00     0.031 A 
BRANCH  47  61
ATOM     61  C   UNL A   1      41.667  34.458  34.353  1.00  0.00    -0.014 A 
ATOM     62  C   UNL A   1      41.033  34.411  35.605  1.00  0.00     0.009 A 
ATOM     63  C   UNL A   1      42.316  35.640  33.964  1.00  0.00     0.009 A 
ATOM     64  C   UNL A   1      41.030  35.530  36.441  1.00  0.00     0.001 A 
ATOM     65  C   UNL A   1      42.334  36.748  34.813  1.00  0.00     0.001 A 
ATOM     66  C   UNL A   1      41.682  36.696  36.045  1.00  0.00     0.000 A 
ENDBRANCH  47  61
BRANCH  48  67
ATOM     67  C   UNL A   1      40.466  26.759  28.132  1.00  0.00    -0.014 A 
ATOM     68  C   UNL A   1      39.746  25.639  28.581  1.00  0.00     0.009 A 
ATOM     69  C   UNL A   1      41.018  26.734  26.843  1.00  0.00     0.009 A 
ATOM     70  C   UNL A   1      39.608  24.511  27.771  1.00  0.00     0.001 A 
ATOM     71  C   UNL A   1      40.851  25.616  26.022  1.00  0.00     0.001 A 
ATOM     72  C   UNL A   1      40.156  24.503  26.490  1.00  0.00     0.000 A 
ENDBRANCH  48  67
BRANCH  60  73
ATOM     73  C   UNL A   1      45.411  28.552  32.725  1.00  0.00    -0.014 A 
ATOM     74  C   UNL A   1      46.599  28.828  32.029  1.00  0.00     0.009 A 
ATOM     75  C   UNL A   1      45.429  27.593  33.748  1.00  0.00     0.009 A 
ATOM     76  C   UNL A   1      47.776  28.145  32.337  1.00  0.00     0.001 A 
ATOM     77  C   UNL A   1      46.615  26.931  34.073  1.00  0.00     0.001 A 
ATOM     78  C   UNL A   1      47.783  27.200  33.361  1.00  0.00     0.000 A 
ENDBRANCH  60  73
ENDBRANCH  34  35
ENDBRANCH  26  29
ENDBRANCH  24  25
ENDBRANCH  23  24
ENDBRANCH   1  23
TORSDOF 13
ENDMDL
