MODEL 1
REMARK VINA RESULT:     -12.2      0.000      0.000
REMARK SMILES C[C@H]1Oc2ccccc2C=C1/C=C/C(=O)N[C@H](C(=O)NCCCNC(=O)c1ccc(-c2c3nc(c(-c4ccccc4)c4ccc([nH]4)c(-c4ccccc4)c4nc(c(-c5ccccc5)c5ccc2[nH]5)C=C4)C=C3)cc1)c1ccccc1
REMARK SMILES IDX 21 1 20 2 18 3 19 4 17 6 16 7 14 8 15 9 13 11 12 12 11 13
REMARK SMILES IDX 1 14 2 15 3 16 4 17 10 18 5 19 9 20 6 21 8 22 7 23 75 24
REMARK SMILES IDX 76 25 80 26 77 27 79 28 78 29 22 30 23 31 24 32 25 33 26 35
REMARK SMILES IDX 27 36 28 37 74 38 29 39 73 40 30 41 31 42 32 43 67 44 33 45
REMARK SMILES IDX 72 46 66 47 68 48 34 49 71 50 65 51 64 52 35 54 57 55 42 56
REMARK SMILES IDX 56 57 43 58 46 59 55 60 69 61 44 62 45 63 54 65 70 66 47 67
REMARK SMILES IDX 36 68 37 69 41 70 38 71 40 72 39 73 58 74 59 75 63 76 60 77
REMARK SMILES IDX 62 78 61 79 48 80 49 81 53 82 50 83 52 84 51 85
REMARK H PARENT 20 5 16 10 24 34 68 53 46 64
REMARK Flexibility Score: inf
ROOT
ATOM      1  C   UNL A   1      35.775  22.554  23.786  1.00  0.00     0.117 C 
ENDROOT
BRANCH   1   2
ATOM      2  N   UNL A   1      34.473  22.662  23.154  1.00  0.00    -0.354 N 
ATOM      3  C   UNL A   1      33.266  22.107  23.488  1.00  0.00     0.247 C 
ATOM      4  O   UNL A   1      32.296  22.486  22.827  1.00  0.00    -0.272 OA
ATOM      5  H   UNL A   1      34.454  23.230  22.350  1.00  0.00     0.163 HD
BRANCH   3   6
ATOM      6  C   UNL A   1      33.151  21.078  24.660  1.00  0.00     0.202 C 
BRANCH   6   7
ATOM      7  N   UNL A   1      31.821  21.242  25.254  1.00  0.00    -0.337 N 
ATOM      8  C   UNL A   1      31.247  22.261  25.937  1.00  0.00     0.244 C 
ATOM      9  O   UNL A   1      30.086  22.154  26.327  1.00  0.00    -0.270 OA
ATOM     10  H   UNL A   1      31.232  20.462  25.134  1.00  0.00     0.164 HD
BRANCH   8  11
ATOM     11  C   UNL A   1      31.937  23.559  26.088  1.00  0.00     0.071 C 
ATOM     12  C   UNL A   1      31.456  24.767  25.752  1.00  0.00     0.013 C 
BRANCH  12  13
ATOM     13  C   UNL A   1      32.159  26.016  26.048  1.00  0.00    -0.007 C 
ATOM     14  C   UNL A   1      33.804  26.114  24.135  1.00  0.00     0.058 C 
ATOM     15  C   UNL A   1      33.630  26.089  25.650  1.00  0.00     0.200 C 
ATOM     16  O   UNL A   1      34.378  27.209  26.163  1.00  0.00    -0.485 OA
ATOM     17  C   UNL A   1      33.673  28.319  26.529  1.00  0.00     0.127 A 
ATOM     18  C   UNL A   1      31.553  27.061  26.633  1.00  0.00     0.019 C 
ATOM     19  C   UNL A   1      34.407  29.497  26.675  1.00  0.00     0.047 A 
ATOM     20  C   UNL A   1      32.304  28.299  26.797  1.00  0.00     0.017 A 
ATOM     21  C   UNL A   1      33.773  30.664  27.097  1.00  0.00     0.004 A 
ATOM     22  C   UNL A   1      31.673  29.474  27.221  1.00  0.00     0.012 A 
ATOM     23  C   UNL A   1      32.407  30.654  27.371  1.00  0.00     0.001 A 
ENDBRANCH  12  13
ENDBRANCH   8  11
ENDBRANCH   6   7
BRANCH   6  24
ATOM     24  C   UNL A   1      33.358  19.624  24.202  1.00  0.00    -0.016 A 
ATOM     25  C   UNL A   1      32.429  19.007  23.344  1.00  0.00     0.006 A 
ATOM     26  C   UNL A   1      34.468  18.860  24.613  1.00  0.00     0.006 A 
ATOM     27  C   UNL A   1      32.570  17.666  22.971  1.00  0.00     0.000 A 
ATOM     28  C   UNL A   1      34.609  17.521  24.237  1.00  0.00     0.000 A 
ATOM     29  C   UNL A   1      33.653  16.920  23.425  1.00  0.00     0.000 A 
ENDBRANCH   6  24
ENDBRANCH   3   6
ENDBRANCH   1   2
BRANCH   1  30
ATOM     30  C   UNL A   1      36.041  23.681  24.772  1.00  0.00     0.042 C 
BRANCH  30  31
ATOM     31  C   UNL A   1      36.536  23.213  26.133  1.00  0.00     0.118 C 
BRANCH  31  32
ATOM     32  N   UNL A   1      37.756  22.424  26.058  1.00  0.00    -0.352 N 
ATOM     33  C   UNL A   1      39.069  22.726  26.330  1.00  0.00     0.251 C 
ATOM     34  H   UNL A   1      37.614  21.497  25.756  1.00  0.00     0.163 HD
ATOM     35  O   UNL A   1      39.934  21.899  26.034  1.00  0.00    -0.269 OA
BRANCH  33  36
ATOM     36  C   UNL A   1      39.484  24.019  26.930  1.00  0.00     0.039 A 
ATOM     37  C   UNL A   1      39.359  24.288  28.291  1.00  0.00     0.014 A 
ATOM     38  C   UNL A   1      40.086  24.978  26.104  1.00  0.00     0.014 A 
ATOM     39  C   UNL A   1      39.651  25.556  28.789  1.00  0.00     0.010 A 
ATOM     40  C   UNL A   1      40.490  26.212  26.627  1.00  0.00     0.010 A 
ATOM     41  C   UNL A   1      40.240  26.531  27.969  1.00  0.00    -0.014 A 
BRANCH  41  42
ATOM     42  C   UNL A   1      40.630  27.850  28.539  1.00  0.00     0.031 A 
ATOM     43  C   UNL A   1      42.053  28.129  28.943  1.00  0.00     0.074 A 
ATOM     44  C   UNL A   1      39.696  28.813  28.683  1.00  0.00     0.049 A 
ATOM     45  N   UNL A   1      42.555  29.208  29.492  1.00  0.00    -0.248 NA
ATOM     46  C   UNL A   1      43.041  27.063  28.709  1.00  0.00     0.031 C 
ATOM     47  C   UNL A   1      38.286  28.682  28.310  1.00  0.00     0.029 A 
ATOM     48  N   UNL A   1      39.791  30.097  29.164  1.00  0.00    -0.354 N 
ATOM     49  C   UNL A   1      43.906  28.945  29.681  1.00  0.00     0.074 A 
ATOM     50  C   UNL A   1      44.139  27.594  29.228  1.00  0.00     0.031 C 
ATOM     51  C   UNL A   1      37.663  29.848  28.525  1.00  0.00     0.029 A 
ATOM     52  C   UNL A   1      38.602  30.784  29.135  1.00  0.00     0.049 A 
ATOM     53  H   UNL A   1      40.632  30.487  29.496  1.00  0.00     0.167 HD
ATOM     54  C   UNL A   1      44.866  29.762  30.176  1.00  0.00     0.031 A 
ATOM     55  C   UNL A   1      38.281  32.017  29.575  1.00  0.00     0.031 A 
ATOM     56  C   UNL A   1      44.631  31.110  30.623  1.00  0.00     0.049 A 
ATOM     57  C   UNL A   1      39.344  32.870  30.205  1.00  0.00     0.074 A 
ATOM     58  C   UNL A   1      45.551  32.021  31.114  1.00  0.00     0.029 A 
ATOM     59  N   UNL A   1      43.395  31.738  30.642  1.00  0.00    -0.354 N 
ATOM     60  N   UNL A   1      40.622  32.616  30.349  1.00  0.00    -0.248 NA
ATOM     61  C   UNL A   1      38.927  34.176  30.736  1.00  0.00     0.031 C 
ATOM     62  C   UNL A   1      44.862  33.168  31.504  1.00  0.00     0.029 A 
ATOM     63  C   UNL A   1      43.523  33.008  31.179  1.00  0.00     0.049 A 
ATOM     64  H   UNL A   1      42.554  31.341  30.322  1.00  0.00     0.167 HD
ATOM     65  C   UNL A   1      41.163  33.730  30.976  1.00  0.00     0.074 A 
ATOM     66  C   UNL A   1      40.081  34.673  31.163  1.00  0.00     0.031 C 
ATOM     67  C   UNL A   1      42.443  33.942  31.366  1.00  0.00     0.031 A 
BRANCH  54  68
ATOM     68  C   UNL A   1      46.274  29.237  30.276  1.00  0.00    -0.014 A 
ATOM     69  C   UNL A   1      46.722  28.671  31.481  1.00  0.00     0.009 A 
ATOM     70  C   UNL A   1      47.192  29.416  29.230  1.00  0.00     0.009 A 
ATOM     71  C   UNL A   1      48.063  28.319  31.647  1.00  0.00     0.001 A 
ATOM     72  C   UNL A   1      48.527  29.032  29.387  1.00  0.00     0.001 A 
ATOM     73  C   UNL A   1      48.963  28.496  30.598  1.00  0.00     0.000 A 
ENDBRANCH  54  68
BRANCH  55  74
ATOM     74  C   UNL A   1      36.878  32.496  29.435  1.00  0.00    -0.014 A 
ATOM     75  C   UNL A   1      36.489  33.253  28.317  1.00  0.00     0.009 A 
ATOM     76  C   UNL A   1      35.940  32.264  30.451  1.00  0.00     0.009 A 
ATOM     77  C   UNL A   1      35.208  33.804  28.238  1.00  0.00     0.001 A 
ATOM     78  C   UNL A   1      34.647  32.785  30.352  1.00  0.00     0.001 A 
ATOM     79  C   UNL A   1      34.288  33.567  29.255  1.00  0.00     0.000 A 
ENDBRANCH  55  74
BRANCH  67  80
ATOM     80  C   UNL A   1      42.774  35.245  32.041  1.00  0.00    -0.014 A 
ATOM     81  C   UNL A   1      43.416  36.264  31.318  1.00  0.00     0.009 A 
ATOM     82  C   UNL A   1      42.580  35.410  33.420  1.00  0.00     0.009 A 
ATOM     83  C   UNL A   1      43.887  37.405  31.966  1.00  0.00     0.001 A 
ATOM     84  C   UNL A   1      43.023  36.570  34.060  1.00  0.00     0.001 A 
ATOM     85  C   UNL A   1      43.689  37.558  33.337  1.00  0.00     0.000 A 
ENDBRANCH  67  80
ENDBRANCH  41  42
ENDBRANCH  33  36
ENDBRANCH  31  32
ENDBRANCH  30  31
ENDBRANCH   1  30
TORSDOF 14
ENDMDL
MODEL 2
REMARK VINA RESULT:     -12.2      0.236      5.744
REMARK SMILES C[C@H]1Oc2ccccc2C=C1/C=C/C(=O)N[C@H](C(=O)NCCCNC(=O)c1ccc(-c2c3nc(c(-c4ccccc4)c4ccc([nH]4)c(-c4ccccc4)c4nc(c(-c5ccccc5)c5ccc2[nH]5)C=C4)C=C3)cc1)c1ccccc1
REMARK SMILES IDX 21 1 20 2 18 3 19 4 17 6 16 7 14 8 15 9 13 11 12 12 11 13
REMARK SMILES IDX 1 14 2 15 3 16 4 17 10 18 5 19 9 20 6 21 8 22 7 23 75 24
REMARK SMILES IDX 76 25 80 26 77 27 79 28 78 29 22 30 23 31 24 32 25 33 26 35
REMARK SMILES IDX 27 36 28 37 74 38 29 39 73 40 30 41 31 42 32 43 67 44 33 45
REMARK SMILES IDX 72 46 66 47 68 48 34 49 71 50 65 51 64 52 35 54 57 55 42 56
REMARK SMILES IDX 56 57 43 58 46 59 55 60 69 61 44 62 45 63 54 65 70 66 47 67
REMARK SMILES IDX 36 68 37 69 41 70 38 71 40 72 39 73 58 74 59 75 63 76 60 77
REMARK SMILES IDX 62 78 61 79 48 80 49 81 53 82 50 83 52 84 51 85
REMARK H PARENT 20 5 16 10 24 34 68 53 46 64
REMARK Flexibility Score: inf
ROOT
ATOM      1  C   UNL A   1      35.827  22.513  23.803  1.00  0.00     0.117 C 
ENDROOT
BRANCH   1   2
ATOM      2  N   UNL A   1      34.524  22.647  23.177  1.00  0.00    -0.354 N 
ATOM      3  C   UNL A   1      33.311  22.107  23.511  1.00  0.00     0.247 C 
ATOM      4  O   UNL A   1      32.344  22.507  22.857  1.00  0.00    -0.272 OA
ATOM      5  H   UNL A   1      34.512  23.222  22.378  1.00  0.00     0.163 HD
BRANCH   3   6
ATOM      6  C   UNL A   1      33.184  21.070  24.674  1.00  0.00     0.202 C 
BRANCH   6   7
ATOM      7  N   UNL A   1      31.851  21.234  25.260  1.00  0.00    -0.337 N 
ATOM      8  C   UNL A   1      31.271  22.254  25.937  1.00  0.00     0.244 C 
ATOM      9  O   UNL A   1      30.108  22.147  26.320  1.00  0.00    -0.270 OA
ATOM     10  H   UNL A   1      31.263  20.453  25.138  1.00  0.00     0.164 HD
BRANCH   8  11
ATOM     11  C   UNL A   1      31.959  23.554  26.089  1.00  0.00     0.071 C 
ATOM     12  C   UNL A   1      31.471  24.762  25.762  1.00  0.00     0.013 C 
BRANCH  12  13
ATOM     13  C   UNL A   1      32.173  26.011  26.058  1.00  0.00    -0.007 C 
ATOM     14  C   UNL A   1      33.845  26.092  24.168  1.00  0.00     0.058 C 
ATOM     15  C   UNL A   1      33.650  26.078  25.680  1.00  0.00     0.200 C 
ATOM     16  O   UNL A   1      34.393  27.200  26.196  1.00  0.00    -0.485 OA
ATOM     17  C   UNL A   1      33.686  28.314  26.543  1.00  0.00     0.127 A 
ATOM     18  C   UNL A   1      31.561  27.063  26.626  1.00  0.00     0.019 C 
ATOM     19  C   UNL A   1      34.420  29.492  26.691  1.00  0.00     0.047 A 
ATOM     20  C   UNL A   1      32.313  28.300  26.792  1.00  0.00     0.017 A 
ATOM     21  C   UNL A   1      33.783  30.663  27.095  1.00  0.00     0.004 A 
ATOM     22  C   UNL A   1      31.679  29.479  27.198  1.00  0.00     0.012 A 
ATOM     23  C   UNL A   1      32.413  30.659  27.349  1.00  0.00     0.001 A 
ENDBRANCH  12  13
ENDBRANCH   8  11
ENDBRANCH   6   7
BRANCH   6  24
ATOM     24  C   UNL A   1      33.390  19.620  24.207  1.00  0.00    -0.016 A 
ATOM     25  C   UNL A   1      32.471  19.015  23.330  1.00  0.00     0.006 A 
ATOM     26  C   UNL A   1      34.489  18.845  24.629  1.00  0.00     0.006 A 
ATOM     27  C   UNL A   1      32.610  17.676  22.948  1.00  0.00     0.000 A 
ATOM     28  C   UNL A   1      34.628  17.508  24.244  1.00  0.00     0.000 A 
ATOM     29  C   UNL A   1      33.681  16.920  23.412  1.00  0.00     0.000 A 
ENDBRANCH   6  24
ENDBRANCH   3   6
ENDBRANCH   1   2
BRANCH   1  30
ATOM     30  C   UNL A   1      36.096  23.604  24.828  1.00  0.00     0.042 C 
BRANCH  30  31
ATOM     31  C   UNL A   1      36.563  23.085  26.181  1.00  0.00     0.118 C 
BRANCH  31  32
ATOM     32  N   UNL A   1      37.813  22.342  26.109  1.00  0.00    -0.352 N 
ATOM     33  C   UNL A   1      39.117  22.707  26.337  1.00  0.00     0.251 C 
ATOM     34  H   UNL A   1      37.702  21.399  25.848  1.00  0.00     0.163 HD
ATOM     35  O   UNL A   1      40.009  21.903  26.054  1.00  0.00    -0.269 OA
BRANCH  33  36
ATOM     36  C   UNL A   1      39.493  24.039  26.873  1.00  0.00     0.039 A 
ATOM     37  C   UNL A   1      40.031  25.045  26.074  1.00  0.00     0.014 A 
ATOM     38  C   UNL A   1      39.233  24.315  28.223  1.00  0.00     0.014 A 
ATOM     39  C   UNL A   1      40.477  26.235  26.642  1.00  0.00     0.010 A 
ATOM     40  C   UNL A   1      39.574  25.558  28.771  1.00  0.00     0.010 A 
ATOM     41  C   UNL A   1      40.238  26.519  27.996  1.00  0.00    -0.014 A 
BRANCH  41  42
ATOM     42  C   UNL A   1      40.641  27.833  28.566  1.00  0.00     0.031 A 
ATOM     43  C   UNL A   1      39.635  28.939  28.749  1.00  0.00     0.074 A 
ATOM     44  C   UNL A   1      41.923  28.031  28.938  1.00  0.00     0.049 A 
ATOM     45  N   UNL A   1      39.825  30.157  29.193  1.00  0.00    -0.248 NA
ATOM     46  C   UNL A   1      38.240  28.648  28.381  1.00  0.00     0.031 C 
ATOM     47  C   UNL A   1      42.992  27.037  28.836  1.00  0.00     0.029 A 
ATOM     48  N   UNL A   1      42.543  29.126  29.490  1.00  0.00    -0.354 N 
ATOM     49  C   UNL A   1      38.584  30.778  29.144  1.00  0.00     0.074 A 
ATOM     50  C   UNL A   1      37.655  29.819  28.591  1.00  0.00     0.031 C 
ATOM     51  C   UNL A   1      44.118  27.544  29.356  1.00  0.00     0.029 A 
ATOM     52  C   UNL A   1      43.879  28.931  29.745  1.00  0.00     0.049 A 
ATOM     53  H   UNL A   1      42.074  29.970  29.684  1.00  0.00     0.167 HD
ATOM     54  C   UNL A   1      38.246  32.029  29.537  1.00  0.00     0.031 A 
ATOM     55  C   UNL A   1      44.823  29.772  30.210  1.00  0.00     0.031 A 
ATOM     56  C   UNL A   1      39.173  32.981  30.092  1.00  0.00     0.049 A 
ATOM     57  C   UNL A   1      44.443  31.183  30.554  1.00  0.00     0.074 A 
ATOM     58  C   UNL A   1      38.913  34.263  30.545  1.00  0.00     0.029 A 
ATOM     59  N   UNL A   1      40.531  32.762  30.265  1.00  0.00    -0.354 N 
ATOM     60  N   UNL A   1      43.259  31.744  30.528  1.00  0.00    -0.248 NA
ATOM     61  C   UNL A   1      45.524  32.082  30.984  1.00  0.00     0.031 C 
ATOM     62  C   UNL A   1      40.124  34.848  30.916  1.00  0.00     0.029 A 
ATOM     63  C   UNL A   1      41.128  33.902  30.775  1.00  0.00     0.049 A 
ATOM     64  H   UNL A   1      40.999  31.922  30.057  1.00  0.00     0.167 HD
ATOM     65  C   UNL A   1      43.448  33.053  30.948  1.00  0.00     0.074 A 
ATOM     66  C   UNL A   1      44.857  33.198  31.246  1.00  0.00     0.031 C 
ATOM     67  C   UNL A   1      42.532  34.043  31.067  1.00  0.00     0.031 A 
BRANCH  54  68
ATOM     68  C   UNL A   1      36.814  32.469  29.385  1.00  0.00    -0.014 A 
ATOM     69  C   UNL A   1      36.432  33.221  28.261  1.00  0.00     0.009 A 
ATOM     70  C   UNL A   1      35.875  32.252  30.405  1.00  0.00     0.009 A 
ATOM     71  C   UNL A   1      35.151  33.768  28.173  1.00  0.00     0.001 A 
ATOM     72  C   UNL A   1      34.582  32.774  30.299  1.00  0.00     0.001 A 
ATOM     73  C   UNL A   1      34.226  33.540  29.190  1.00  0.00     0.000 A 
ENDBRANCH  54  68
BRANCH  55  74
ATOM     74  C   UNL A   1      46.222  29.282  30.361  1.00  0.00    -0.014 A 
ATOM     75  C   UNL A   1      47.111  29.311  29.273  1.00  0.00     0.009 A 
ATOM     76  C   UNL A   1      46.654  28.717  31.569  1.00  0.00     0.009 A 
ATOM     77  C   UNL A   1      48.383  28.746  29.376  1.00  0.00     0.001 A 
ATOM     78  C   UNL A   1      47.942  28.187  31.681  1.00  0.00     0.001 A 
ATOM     79  C   UNL A   1      48.798  28.187  30.581  1.00  0.00     0.000 A 
ENDBRANCH  55  74
BRANCH  67  80
ATOM     80  C   UNL A   1      42.999  35.393  31.541  1.00  0.00    -0.014 A 
ATOM     81  C   UNL A   1      43.531  36.310  30.620  1.00  0.00     0.009 A 
ATOM     82  C   UNL A   1      43.043  35.699  32.908  1.00  0.00     0.009 A 
ATOM     83  C   UNL A   1      44.129  37.491  31.060  1.00  0.00     0.001 A 
ATOM     84  C   UNL A   1      43.611  36.899  33.344  1.00  0.00     0.001 A 
ATOM     85  C   UNL A   1      44.168  37.785  32.422  1.00  0.00     0.000 A 
ENDBRANCH  67  80
ENDBRANCH  41  42
ENDBRANCH  33  36
ENDBRANCH  31  32
ENDBRANCH  30  31
ENDBRANCH   1  30
TORSDOF 14
ENDMDL
MODEL 3
REMARK VINA RESULT:     -11.7      2.978      7.285
REMARK SMILES C[C@H]1Oc2ccccc2C=C1/C=C/C(=O)N[C@H](C(=O)NCCCNC(=O)c1ccc(-c2c3nc(c(-c4ccccc4)c4ccc([nH]4)c(-c4ccccc4)c4nc(c(-c5ccccc5)c5ccc2[nH]5)C=C4)C=C3)cc1)c1ccccc1
REMARK SMILES IDX 21 1 20 2 18 3 19 4 17 6 16 7 14 8 15 9 13 11 12 12 11 13
REMARK SMILES IDX 1 14 2 15 3 16 4 17 10 18 5 19 9 20 6 21 8 22 7 23 75 24
REMARK SMILES IDX 76 25 80 26 77 27 79 28 78 29 22 30 23 31 24 32 25 33 26 35
REMARK SMILES IDX 27 36 28 37 74 38 29 39 73 40 30 41 31 42 32 43 67 44 33 45
REMARK SMILES IDX 72 46 66 47 68 48 34 49 71 50 65 51 64 52 35 54 57 55 42 56
REMARK SMILES IDX 56 57 43 58 46 59 55 60 69 61 44 62 45 63 54 65 70 66 47 67
REMARK SMILES IDX 36 68 37 69 41 70 38 71 40 72 39 73 58 74 59 75 63 76 60 77
REMARK SMILES IDX 62 78 61 79 48 80 49 81 53 82 50 83 52 84 51 85
REMARK H PARENT 20 5 16 10 24 34 68 53 46 64
REMARK Flexibility Score: inf
ROOT
ATOM      1  C   UNL A   1      33.267  26.202  25.827  1.00  0.00     0.117 C 
ENDROOT
BRANCH   1   2
ATOM      2  N   UNL A   1      34.396  25.351  25.499  1.00  0.00    -0.354 N 
ATOM      3  C   UNL A   1      34.505  24.309  24.618  1.00  0.00     0.247 C 
ATOM      4  O   UNL A   1      35.641  23.852  24.460  1.00  0.00    -0.272 OA
ATOM      5  H   UNL A   1      35.222  25.559  25.994  1.00  0.00     0.163 HD
BRANCH   3   6
ATOM      6  C   UNL A   1      33.254  23.769  23.851  1.00  0.00     0.202 C 
BRANCH   6   7
ATOM      7  N   UNL A   1      33.481  24.012  22.423  1.00  0.00    -0.337 N 
ATOM      8  C   UNL A   1      32.833  24.779  21.514  1.00  0.00     0.244 C 
ATOM      9  O   UNL A   1      33.239  24.823  20.355  1.00  0.00    -0.270 OA
ATOM     10  H   UNL A   1      34.253  23.525  22.054  1.00  0.00     0.164 HD
BRANCH   8  11
ATOM     11  C   UNL A   1      31.739  25.684  21.925  1.00  0.00     0.071 C 
ATOM     12  C   UNL A   1      31.859  26.967  22.303  1.00  0.00     0.013 C 
BRANCH  12  13
ATOM     13  C   UNL A   1      30.709  27.828  22.579  1.00  0.00    -0.007 C 
ATOM     14  C   UNL A   1      29.764  26.733  24.648  1.00  0.00     0.058 C 
ATOM     15  C   UNL A   1      29.488  27.166  23.212  1.00  0.00     0.200 C 
ATOM     16  O   UNL A   1      28.281  27.951  23.249  1.00  0.00    -0.485 OA
ATOM     17  C   UNL A   1      28.411  29.307  23.181  1.00  0.00     0.127 A 
ATOM     18  C   UNL A   1      30.711  29.142  22.302  1.00  0.00     0.019 C 
ATOM     19  C   UNL A   1      27.302  30.057  23.575  1.00  0.00     0.047 A 
ATOM     20  C   UNL A   1      29.560  29.940  22.703  1.00  0.00     0.017 A 
ATOM     21  C   UNL A   1      27.333  31.447  23.486  1.00  0.00     0.004 A 
ATOM     22  C   UNL A   1      29.586  31.336  22.615  1.00  0.00     0.012 A 
ATOM     23  C   UNL A   1      28.474  32.088  23.007  1.00  0.00     0.001 A 
ENDBRANCH  12  13
ENDBRANCH   8  11
ENDBRANCH   6   7
BRANCH   6  24
ATOM     24  C   UNL A   1      32.995  22.275  24.105  1.00  0.00    -0.016 A 
ATOM     25  C   UNL A   1      33.232  21.715  25.374  1.00  0.00     0.006 A 
ATOM     26  C   UNL A   1      32.515  21.415  23.096  1.00  0.00     0.006 A 
ATOM     27  C   UNL A   1      33.063  20.344  25.602  1.00  0.00     0.000 A 
ATOM     28  C   UNL A   1      32.344  20.047  23.327  1.00  0.00     0.000 A 
ATOM     29  C   UNL A   1      32.628  19.510  24.577  1.00  0.00     0.000 A 
ENDBRANCH   6  24
ENDBRANCH   3   6
ENDBRANCH   1   2
BRANCH   1  30
ATOM     30  C   UNL A   1      33.664  27.659  25.999  1.00  0.00     0.042 C 
BRANCH  30  31
ATOM     31  C   UNL A   1      33.274  28.256  27.344  1.00  0.00     0.118 C 
BRANCH  31  32
ATOM     32  N   UNL A   1      33.311  29.711  27.357  1.00  0.00    -0.352 N 
ATOM     33  C   UNL A   1      34.279  30.606  27.742  1.00  0.00     0.251 C 
ATOM     34  H   UNL A   1      32.485  30.134  27.026  1.00  0.00     0.163 HD
ATOM     35  O   UNL A   1      33.986  31.804  27.788  1.00  0.00    -0.269 OA
BRANCH  33  36
ATOM     36  C   UNL A   1      35.646  30.184  28.138  1.00  0.00     0.039 A 
ATOM     37  C   UNL A   1      36.739  30.282  27.280  1.00  0.00     0.014 A 
ATOM     38  C   UNL A   1      35.855  29.734  29.449  1.00  0.00     0.014 A 
ATOM     39  C   UNL A   1      37.977  29.765  27.653  1.00  0.00     0.010 A 
ATOM     40  C   UNL A   1      37.127  29.324  29.864  1.00  0.00     0.010 A 
ATOM     41  C   UNL A   1      38.196  29.296  28.958  1.00  0.00    -0.014 A 
BRANCH  41  42
ATOM     42  C   UNL A   1      39.549  28.831  29.367  1.00  0.00     0.031 A 
ATOM     43  C   UNL A   1      40.412  29.665  30.278  1.00  0.00     0.074 A 
ATOM     44  C   UNL A   1      40.004  27.640  28.926  1.00  0.00     0.049 A 
ATOM     45  N   UNL A   1      41.630  29.428  30.700  1.00  0.00    -0.248 NA
ATOM     46  C   UNL A   1      39.842  30.927  30.775  1.00  0.00     0.031 C 
ATOM     47  C   UNL A   1      39.262  26.724  28.059  1.00  0.00     0.029 A 
ATOM     48  N   UNL A   1      41.190  26.985  29.159  1.00  0.00    -0.354 N 
ATOM     49  C   UNL A   1      41.975  30.513  31.495  1.00  0.00     0.074 A 
ATOM     50  C   UNL A   1      40.857  31.427  31.467  1.00  0.00     0.031 C 
ATOM     51  C   UNL A   1      39.981  25.609  27.875  1.00  0.00     0.029 A 
ATOM     52  C   UNL A   1      41.274  25.764  28.534  1.00  0.00     0.049 A 
ATOM     53  H   UNL A   1      41.909  27.356  29.719  1.00  0.00     0.167 HD
ATOM     54  C   UNL A   1      43.115  30.721  32.196  1.00  0.00     0.031 A 
ATOM     55  C   UNL A   1      42.283  24.872  28.466  1.00  0.00     0.031 A 
ATOM     56  C   UNL A   1      44.225  29.805  32.226  1.00  0.00     0.049 A 
ATOM     57  C   UNL A   1      43.572  25.168  29.177  1.00  0.00     0.074 A 
ATOM     58  C   UNL A   1      45.410  29.921  32.933  1.00  0.00     0.029 A 
ATOM     59  N   UNL A   1      44.293  28.614  31.520  1.00  0.00    -0.354 N 
ATOM     60  N   UNL A   1      43.869  26.186  29.948  1.00  0.00    -0.248 NA
ATOM     61  C   UNL A   1      44.666  24.201  29.010  1.00  0.00     0.031 C 
ATOM     62  C   UNL A   1      46.227  28.843  32.592  1.00  0.00     0.029 A 
ATOM     63  C   UNL A   1      45.520  28.010  31.740  1.00  0.00     0.049 A 
ATOM     64  H   UNL A   1      43.578  28.252  30.950  1.00  0.00     0.167 HD
ATOM     65  C   UNL A   1      45.176  25.978  30.366  1.00  0.00     0.074 A 
ATOM     66  C   UNL A   1      45.608  24.725  29.783  1.00  0.00     0.031 C 
ATOM     67  C   UNL A   1      45.946  26.764  31.155  1.00  0.00     0.031 A 
BRANCH  54  68
ATOM     68  C   UNL A   1      43.245  31.990  32.996  1.00  0.00    -0.014 A 
ATOM     69  C   UNL A   1      42.771  32.032  34.318  1.00  0.00     0.009 A 
ATOM     70  C   UNL A   1      43.716  33.174  32.408  1.00  0.00     0.009 A 
ATOM     71  C   UNL A   1      42.741  33.235  35.025  1.00  0.00     0.001 A 
ATOM     72  C   UNL A   1      43.715  34.372  33.129  1.00  0.00     0.001 A 
ATOM     73  C   UNL A   1      43.218  34.403  34.432  1.00  0.00     0.000 A 
ENDBRANCH  54  68
BRANCH  55  74
ATOM     74  C   UNL A   1      42.096  23.623  27.678  1.00  0.00    -0.014 A 
ATOM     75  C   UNL A   1      41.600  22.458  28.289  1.00  0.00     0.009 A 
ATOM     76  C   UNL A   1      42.481  23.564  26.331  1.00  0.00     0.009 A 
ATOM     77  C   UNL A   1      41.535  21.255  27.585  1.00  0.00     0.001 A 
ATOM     78  C   UNL A   1      42.379  22.367  25.617  1.00  0.00     0.001 A 
ATOM     79  C   UNL A   1      41.922  21.212  26.248  1.00  0.00     0.000 A 
ENDBRANCH  55  74
BRANCH  67  80
ATOM     80  C   UNL A   1      47.351  26.313  31.455  1.00  0.00    -0.014 A 
ATOM     81  C   UNL A   1      48.353  26.457  30.482  1.00  0.00     0.009 A 
ATOM     82  C   UNL A   1      47.648  25.624  32.639  1.00  0.00     0.009 A 
ATOM     83  C   UNL A   1      49.613  25.890  30.672  1.00  0.00     0.001 A 
ATOM     84  C   UNL A   1      48.921  25.087  32.842  1.00  0.00     0.001 A 
ATOM     85  C   UNL A   1      49.896  25.206  31.853  1.00  0.00     0.000 A 
ENDBRANCH  67  80
ENDBRANCH  41  42
ENDBRANCH  33  36
ENDBRANCH  31  32
ENDBRANCH  30  31
ENDBRANCH   1  30
TORSDOF 14
ENDMDL
