MODEL 1
REMARK VINA RESULT:     -10.4      0.000      0.000
REMARK SMILES [NH3+][C@@H](Cc1ccc(F)cc1C(F)(F)F)C(=O)NCCCNC(=O)c1ccc(-c2c3nc(c(-c4ccccc4)c4ccc([nH]4)c(-c4ccccc4)c4nc(c(-c5ccccc5)c5ccc2[nH]5)C=C4)C=C3)cc1
REMARK SMILES IDX 18 1 17 2 15 3 16 4 2 6 1 7 3 11 4 12 5 13 10 14 6 15 9 16
REMARK SMILES IDX 7 17 8 18 11 19 12 20 13 21 14 22 19 23 20 24 21 25 22 26
REMARK SMILES IDX 23 28 24 29 25 30 71 31 26 32 70 33 27 34 28 35 29 36 64 37
REMARK SMILES IDX 30 38 69 39 63 40 65 41 31 42 68 43 62 44 61 45 32 47 54 48
REMARK SMILES IDX 39 49 53 50 40 51 43 52 52 53 66 54 41 55 42 56 51 58 67 59
REMARK SMILES IDX 44 60 33 61 34 62 38 63 35 64 37 65 36 66 55 67 56 68 60 69
REMARK SMILES IDX 57 70 59 71 58 72 45 73 46 74 50 75 47 76 49 77 48 78
REMARK H PARENT 17 5 1 8 1 9 1 10 21 27 65 46 43 57
REMARK Flexibility Score: inf
ROOT
ATOM      1  C   UNL A   1      33.544  27.121  25.280  1.00  0.00     0.118 C 
ENDROOT
BRANCH   1   2
ATOM      2  N   UNL A   1      32.181  26.698  25.457  1.00  0.00    -0.351 N 
ATOM      3  C   UNL A   1      31.739  25.573  26.102  1.00  0.00     0.278 C 
ATOM      4  O   UNL A   1      30.559  25.564  26.468  1.00  0.00    -0.268 OA
ATOM      5  H   UNL A   1      31.489  27.283  25.072  1.00  0.00     0.163 HD
BRANCH   3   6
ATOM      6  C   UNL A   1      32.653  24.338  26.340  1.00  0.00     0.275 C 
BRANCH   6   7
ATOM      7  N   UNL A   1      31.984  23.347  27.203  1.00  0.00    -0.347 N 
ATOM      8  H   UNL A   1      32.674  22.689  27.564  1.00  0.00     0.345 HD
ATOM      9  H   UNL A   1      31.284  22.841  26.659  1.00  0.00     0.345 HD
ATOM     10  H   UNL A   1      31.529  23.824  27.981  1.00  0.00     0.345 HD
ENDBRANCH   6   7
BRANCH   6  11
ATOM     11  C   UNL A   1      33.459  23.784  25.132  1.00  0.00     0.111 C 
BRANCH  11  12
ATOM     12  C   UNL A   1      34.851  23.187  25.289  1.00  0.00    -0.029 A 
ATOM     13  C   UNL A   1      35.917  24.091  25.502  1.00  0.00     0.007 A 
ATOM     14  C   UNL A   1      35.147  21.798  25.204  1.00  0.00     0.062 A 
ATOM     15  C   UNL A   1      37.243  23.653  25.559  1.00  0.00     0.039 A 
ATOM     16  C   UNL A   1      36.498  21.386  25.239  1.00  0.00     0.052 A 
ATOM     17  C   UNL A   1      37.521  22.307  25.408  1.00  0.00     0.123 A 
ATOM     18  F   UNL A   1      38.793  21.887  25.408  1.00  0.00    -0.207 F 
BRANCH  14  19
ATOM     19  C   UNL A   1      34.120  20.719  24.935  1.00  0.00     0.416 C 
ATOM     20  F   UNL A   1      34.707  19.491  24.824  1.00  0.00    -0.166 F 
ATOM     21  F   UNL A   1      33.202  20.591  25.933  1.00  0.00    -0.166 F 
ATOM     22  F   UNL A   1      33.402  20.895  23.794  1.00  0.00    -0.166 F 
ENDBRANCH  14  19
ENDBRANCH  11  12
ENDBRANCH   6  11
ENDBRANCH   3   6
ENDBRANCH   1   2
BRANCH   1  23
ATOM     23  C   UNL A   1      33.934  28.443  25.894  1.00  0.00     0.042 C 
BRANCH  23  24
ATOM     24  C   UNL A   1      33.342  28.693  27.266  1.00  0.00     0.118 C 
BRANCH  24  25
ATOM     25  N   UNL A   1      33.488  30.071  27.729  1.00  0.00    -0.352 N 
ATOM     26  C   UNL A   1      34.545  30.756  28.286  1.00  0.00     0.251 C 
ATOM     27  H   UNL A   1      32.675  30.614  27.621  1.00  0.00     0.163 HD
ATOM     28  O   UNL A   1      34.366  31.901  28.684  1.00  0.00    -0.269 OA
BRANCH  26  29
ATOM     29  C   UNL A   1      35.876  30.126  28.448  1.00  0.00     0.039 A 
ATOM     30  C   UNL A   1      36.791  30.196  27.393  1.00  0.00     0.014 A 
ATOM     31  C   UNL A   1      36.232  29.457  29.616  1.00  0.00     0.014 A 
ATOM     32  C   UNL A   1      38.084  29.687  27.555  1.00  0.00     0.010 A 
ATOM     33  C   UNL A   1      37.552  29.078  29.828  1.00  0.00     0.010 A 
ATOM     34  C   UNL A   1      38.494  29.176  28.796  1.00  0.00    -0.014 A 
BRANCH  34  35
ATOM     35  C   UNL A   1      39.889  28.728  29.043  1.00  0.00     0.031 A 
ATOM     36  C   UNL A   1      40.892  29.672  29.654  1.00  0.00     0.074 A 
ATOM     37  C   UNL A   1      40.281  27.504  28.636  1.00  0.00     0.049 A 
ATOM     38  N   UNL A   1      42.174  29.498  29.858  1.00  0.00    -0.248 NA
ATOM     39  C   UNL A   1      40.399  31.002  30.053  1.00  0.00     0.031 C 
ATOM     40  C   UNL A   1      39.429  26.513  27.971  1.00  0.00     0.029 A 
ATOM     41  N   UNL A   1      41.503  26.885  28.716  1.00  0.00    -0.354 N 
ATOM     42  C   UNL A   1      42.641  30.702  30.372  1.00  0.00     0.074 A 
ATOM     43  C   UNL A   1      41.521  31.617  30.394  1.00  0.00     0.031 C 
ATOM     44  C   UNL A   1      40.142  25.399  27.745  1.00  0.00     0.029 A 
ATOM     45  C   UNL A   1      41.510  25.610  28.206  1.00  0.00     0.049 A 
ATOM     46  H   UNL A   1      42.299  27.315  29.104  1.00  0.00     0.167 HD
ATOM     47  C   UNL A   1      43.882  31.015  30.812  1.00  0.00     0.031 A 
ATOM     48  C   UNL A   1      42.507  24.709  28.117  1.00  0.00     0.031 A 
ATOM     49  C   UNL A   1      44.987  30.096  30.828  1.00  0.00     0.049 A 
ATOM     50  C   UNL A   1      43.868  25.068  28.640  1.00  0.00     0.074 A 
ATOM     51  C   UNL A   1      46.265  30.292  31.322  1.00  0.00     0.029 A 
ATOM     52  N   UNL A   1      44.942  28.802  30.332  1.00  0.00    -0.354 N 
ATOM     53  N   UNL A   1      44.274  26.189  29.186  1.00  0.00    -0.248 NA
ATOM     54  C   UNL A   1      44.905  24.032  28.546  1.00  0.00     0.031 C 
ATOM     55  C   UNL A   1      47.006  29.128  31.088  1.00  0.00     0.029 A 
ATOM     56  C   UNL A   1      46.173  28.193  30.494  1.00  0.00     0.049 A 
ATOM     57  H   UNL A   1      44.151  28.381  29.924  1.00  0.00     0.167 HD
ATOM     58  C   UNL A   1      45.605  25.983  29.525  1.00  0.00     0.074 A 
ATOM     59  C   UNL A   1      45.930  24.625  29.139  1.00  0.00     0.031 C 
ATOM     60  C   UNL A   1      46.479  26.842  30.104  1.00  0.00     0.031 A 
BRANCH  47  61
ATOM     61  C   UNL A   1      44.104  32.414  31.320  1.00  0.00    -0.014 A 
ATOM     62  C   UNL A   1      44.511  33.445  30.457  1.00  0.00     0.009 A 
ATOM     63  C   UNL A   1      43.883  32.709  32.674  1.00  0.00     0.009 A 
ATOM     64  C   UNL A   1      44.731  34.733  30.949  1.00  0.00     0.001 A 
ATOM     65  C   UNL A   1      44.073  34.006  33.156  1.00  0.00     0.001 A 
ATOM     66  C   UNL A   1      44.508  35.013  32.297  1.00  0.00     0.000 A 
ENDBRANCH  47  61
BRANCH  48  67
ATOM     67  C   UNL A   1      42.246  23.365  27.538  1.00  0.00    -0.014 A 
ATOM     68  C   UNL A   1      42.553  23.101  26.194  1.00  0.00     0.009 A 
ATOM     69  C   UNL A   1      41.691  22.341  28.322  1.00  0.00     0.009 A 
ATOM     70  C   UNL A   1      42.283  21.849  25.639  1.00  0.00     0.001 A 
ATOM     71  C   UNL A   1      41.450  21.081  27.771  1.00  0.00     0.001 A 
ATOM     72  C   UNL A   1      41.737  20.838  26.428  1.00  0.00     0.000 A 
ENDBRANCH  48  67
BRANCH  60  73
ATOM     73  C   UNL A   1      47.860  26.323  30.385  1.00  0.00    -0.014 A 
ATOM     74  C   UNL A   1      48.870  26.375  29.413  1.00  0.00     0.009 A 
ATOM     75  C   UNL A   1      48.159  25.803  31.655  1.00  0.00     0.009 A 
ATOM     76  C   UNL A   1      50.146  25.882  29.696  1.00  0.00     0.001 A 
ATOM     77  C   UNL A   1      49.443  25.337  31.943  1.00  0.00     0.001 A 
ATOM     78  C   UNL A   1      50.431  25.368  30.961  1.00  0.00     0.000 A 
ENDBRANCH  60  73
ENDBRANCH  34  35
ENDBRANCH  26  29
ENDBRANCH  24  25
ENDBRANCH  23  24
ENDBRANCH   1  23
TORSDOF 14
ENDMDL
MODEL 2
REMARK VINA RESULT:     -10.3      2.444      7.445
REMARK SMILES [NH3+][C@@H](Cc1ccc(F)cc1C(F)(F)F)C(=O)NCCCNC(=O)c1ccc(-c2c3nc(c(-c4ccccc4)c4ccc([nH]4)c(-c4ccccc4)c4nc(c(-c5ccccc5)c5ccc2[nH]5)C=C4)C=C3)cc1
REMARK SMILES IDX 18 1 17 2 15 3 16 4 2 6 1 7 3 11 4 12 5 13 10 14 6 15 9 16
REMARK SMILES IDX 7 17 8 18 11 19 12 20 13 21 14 22 19 23 20 24 21 25 22 26
REMARK SMILES IDX 23 28 24 29 25 30 71 31 26 32 70 33 27 34 28 35 29 36 64 37
REMARK SMILES IDX 30 38 69 39 63 40 65 41 31 42 68 43 62 44 61 45 32 47 54 48
REMARK SMILES IDX 39 49 53 50 40 51 43 52 52 53 66 54 41 55 42 56 51 58 67 59
REMARK SMILES IDX 44 60 33 61 34 62 38 63 35 64 37 65 36 66 55 67 56 68 60 69
REMARK SMILES IDX 57 70 59 71 58 72 45 73 46 74 50 75 47 76 49 77 48 78
REMARK H PARENT 17 5 1 8 1 9 1 10 21 27 65 46 43 57
REMARK Flexibility Score: inf
ROOT
ATOM      1  C   UNL A   1      36.411  20.409  24.985  1.00  0.00     0.118 C 
ENDROOT
BRANCH   1   2
ATOM      2  N   UNL A   1      36.252  21.838  25.009  1.00  0.00    -0.351 N 
ATOM      3  C   UNL A   1      35.515  22.575  25.898  1.00  0.00     0.278 C 
ATOM      4  O   UNL A   1      35.786  23.777  25.988  1.00  0.00    -0.268 OA
ATOM      5  H   UNL A   1      36.726  22.342  24.308  1.00  0.00     0.163 HD
BRANCH   3   6
ATOM      6  C   UNL A   1      34.362  21.956  26.737  1.00  0.00     0.275 C 
BRANCH   6   7
ATOM      7  N   UNL A   1      34.362  22.497  28.110  1.00  0.00    -0.347 N 
ATOM      8  H   UNL A   1      34.620  21.760  28.765  1.00  0.00     0.345 HD
ATOM      9  H   UNL A   1      33.429  22.844  28.337  1.00  0.00     0.345 HD
ATOM     10  H   UNL A   1      35.033  23.261  28.174  1.00  0.00     0.345 HD
ENDBRANCH   6   7
BRANCH   6  11
ATOM     11  C   UNL A   1      32.977  21.778  26.054  1.00  0.00     0.111 C 
BRANCH  11  12
ATOM     12  C   UNL A   1      32.711  20.687  25.026  1.00  0.00    -0.029 A 
ATOM     13  C   UNL A   1      32.740  19.350  25.486  1.00  0.00     0.007 A 
ATOM     14  C   UNL A   1      32.471  20.923  23.644  1.00  0.00     0.062 A 
ATOM     15  C   UNL A   1      32.609  18.274  24.606  1.00  0.00     0.039 A 
ATOM     16  C   UNL A   1      32.365  19.816  22.772  1.00  0.00     0.052 A 
ATOM     17  C   UNL A   1      32.441  18.517  23.255  1.00  0.00     0.123 A 
ATOM     18  F   UNL A   1      32.367  17.491  22.398  1.00  0.00    -0.207 F 
BRANCH  14  19
ATOM     19  C   UNL A   1      32.455  22.292  22.999  1.00  0.00     0.416 C 
ATOM     20  F   UNL A   1      32.623  22.207  21.647  1.00  0.00    -0.166 F 
ATOM     21  F   UNL A   1      31.277  22.954  23.174  1.00  0.00    -0.166 F 
ATOM     22  F   UNL A   1      33.422  23.137  23.444  1.00  0.00    -0.166 F 
ENDBRANCH  14  19
ENDBRANCH  11  12
ENDBRANCH   6  11
ENDBRANCH   3   6
ENDBRANCH   1   2
BRANCH   1  23
ATOM     23  C   UNL A   1      37.795  19.881  24.698  1.00  0.00     0.042 C 
BRANCH  23  24
ATOM     24  C   UNL A   1      38.837  20.270  25.727  1.00  0.00     0.118 C 
BRANCH  24  25
ATOM     25  N   UNL A   1      39.986  19.370  25.771  1.00  0.00    -0.352 N 
ATOM     26  C   UNL A   1      41.305  19.564  26.120  1.00  0.00     0.251 C 
ATOM     27  H   UNL A   1      39.779  18.448  25.501  1.00  0.00     0.163 HD
ATOM     28  O   UNL A   1      42.100  18.645  25.970  1.00  0.00    -0.269 OA
BRANCH  26  29
ATOM     29  C   UNL A   1      41.785  20.868  26.634  1.00  0.00     0.039 A 
ATOM     30  C   UNL A   1      42.208  21.841  25.722  1.00  0.00     0.014 A 
ATOM     31  C   UNL A   1      41.836  21.144  27.997  1.00  0.00     0.014 A 
ATOM     32  C   UNL A   1      42.580  23.110  26.177  1.00  0.00     0.010 A 
ATOM     33  C   UNL A   1      42.069  22.441  28.438  1.00  0.00     0.010 A 
ATOM     34  C   UNL A   1      42.457  23.440  27.536  1.00  0.00    -0.014 A 
BRANCH  34  35
ATOM     35  C   UNL A   1      42.736  24.808  28.044  1.00  0.00     0.031 A 
ATOM     36  C   UNL A   1      44.133  25.195  28.452  1.00  0.00     0.074 A 
ATOM     37  C   UNL A   1      41.719  25.675  28.223  1.00  0.00     0.049 A 
ATOM     38  N   UNL A   1      44.556  26.305  29.005  1.00  0.00    -0.248 NA
ATOM     39  C   UNL A   1      45.191  24.189  28.251  1.00  0.00     0.031 C 
ATOM     40  C   UNL A   1      40.308  25.408  27.929  1.00  0.00     0.029 A 
ATOM     41  N   UNL A   1      41.717  26.961  28.703  1.00  0.00    -0.354 N 
ATOM     42  C   UNL A   1      45.911  26.113  29.248  1.00  0.00     0.074 A 
ATOM     43  C   UNL A   1      46.229  24.764  28.838  1.00  0.00     0.031 C 
ATOM     44  C   UNL A   1      39.587  26.507  28.195  1.00  0.00     0.029 A 
ATOM     45  C   UNL A   1      40.472  27.542  28.718  1.00  0.00     0.049 A 
ATOM     46  H   UNL A   1      42.531  27.423  29.007  1.00  0.00     0.167 HD
ATOM     47  C   UNL A   1      46.819  26.988  29.742  1.00  0.00     0.031 A 
ATOM     48  C   UNL A   1      40.085  28.770  29.110  1.00  0.00     0.031 A 
ATOM     49  C   UNL A   1      46.514  28.342  30.113  1.00  0.00     0.049 A 
ATOM     50  C   UNL A   1      41.116  29.733  29.625  1.00  0.00     0.074 A 
ATOM     51  C   UNL A   1      47.376  29.331  30.554  1.00  0.00     0.029 A 
ATOM     52  N   UNL A   1      45.246  28.900  30.080  1.00  0.00    -0.354 N 
ATOM     53  N   UNL A   1      42.405  29.558  29.783  1.00  0.00    -0.248 NA
ATOM     54  C   UNL A   1      40.637  31.070  30.005  1.00  0.00     0.031 C 
ATOM     55  C   UNL A   1      46.622  30.477  30.827  1.00  0.00     0.029 A 
ATOM     56  C   UNL A   1      45.299  30.215  30.508  1.00  0.00     0.049 A 
ATOM     57  H   UNL A   1      44.429  28.430  29.797  1.00  0.00     0.167 HD
ATOM     58  C   UNL A   1      42.896  30.768  30.254  1.00  0.00     0.074 A 
ATOM     59  C   UNL A   1      41.768  31.673  30.339  1.00  0.00     0.031 C 
ATOM     60  C   UNL A   1      44.167  31.101  30.586  1.00  0.00     0.031 A 
BRANCH  47  61
ATOM     61  C   UNL A   1      48.234  26.501  29.900  1.00  0.00    -0.014 A 
ATOM     62  C   UNL A   1      49.181  26.675  28.877  1.00  0.00     0.009 A 
ATOM     63  C   UNL A   1      48.630  25.880  31.093  1.00  0.00     0.009 A 
ATOM     64  C   UNL A   1      50.485  26.199  29.032  1.00  0.00     0.001 A 
ATOM     65  C   UNL A   1      49.943  25.434  31.258  1.00  0.00     0.001 A 
ATOM     66  C   UNL A   1      50.866  25.583  30.223  1.00  0.00     0.000 A 
ENDBRANCH  47  61
BRANCH  48  67
ATOM     67  C   UNL A   1      38.658  29.173  28.998  1.00  0.00    -0.014 A 
ATOM     68  C   UNL A   1      37.806  29.074  30.108  1.00  0.00     0.009 A 
ATOM     69  C   UNL A   1      38.142  29.655  27.785  1.00  0.00     0.009 A 
ATOM     70  C   UNL A   1      36.459  29.424  29.999  1.00  0.00     0.001 A 
ATOM     71  C   UNL A   1      36.801  30.031  27.688  1.00  0.00     0.001 A 
ATOM     72  C   UNL A   1      35.958  29.906  28.792  1.00  0.00     0.000 A 
ENDBRANCH  48  67
BRANCH  60  73
ATOM     73  C   UNL A   1      44.407  32.512  31.039  1.00  0.00    -0.014 A 
ATOM     74  C   UNL A   1      44.348  32.863  32.396  1.00  0.00     0.009 A 
ATOM     75  C   UNL A   1      44.728  33.498  30.092  1.00  0.00     0.009 A 
ATOM     76  C   UNL A   1      44.570  34.183  32.792  1.00  0.00     0.001 A 
ATOM     77  C   UNL A   1      44.977  34.811  30.494  1.00  0.00     0.001 A 
ATOM     78  C   UNL A   1      44.888  35.154  31.842  1.00  0.00     0.000 A 
ENDBRANCH  60  73
ENDBRANCH  34  35
ENDBRANCH  26  29
ENDBRANCH  24  25
ENDBRANCH  23  24
ENDBRANCH   1  23
TORSDOF 14
ENDMDL
MODEL 3
REMARK VINA RESULT:     -10.2      2.602      7.380
REMARK SMILES [NH3+][C@@H](Cc1ccc(F)cc1C(F)(F)F)C(=O)NCCCNC(=O)c1ccc(-c2c3nc(c(-c4ccccc4)c4ccc([nH]4)c(-c4ccccc4)c4nc(c(-c5ccccc5)c5ccc2[nH]5)C=C4)C=C3)cc1
REMARK SMILES IDX 18 1 17 2 15 3 16 4 2 6 1 7 3 11 4 12 5 13 10 14 6 15 9 16
REMARK SMILES IDX 7 17 8 18 11 19 12 20 13 21 14 22 19 23 20 24 21 25 22 26
REMARK SMILES IDX 23 28 24 29 25 30 71 31 26 32 70 33 27 34 28 35 29 36 64 37
REMARK SMILES IDX 30 38 69 39 63 40 65 41 31 42 68 43 62 44 61 45 32 47 54 48
REMARK SMILES IDX 39 49 53 50 40 51 43 52 52 53 66 54 41 55 42 56 51 58 67 59
REMARK SMILES IDX 44 60 33 61 34 62 38 63 35 64 37 65 36 66 55 67 56 68 60 69
REMARK SMILES IDX 57 70 59 71 58 72 45 73 46 74 50 75 47 76 49 77 48 78
REMARK H PARENT 17 5 1 8 1 9 1 10 21 27 65 46 43 57
REMARK Flexibility Score: inf
ROOT
ATOM      1  C   UNL A   1      36.262  20.778  24.697  1.00  0.00     0.118 C 
ENDROOT
BRANCH   1   2
ATOM      2  N   UNL A   1      35.625  21.417  25.817  1.00  0.00    -0.351 N 
ATOM      3  C   UNL A   1      34.457  21.047  26.429  1.00  0.00     0.278 C 
ATOM      4  O   UNL A   1      34.263  21.476  27.571  1.00  0.00    -0.268 OA
ATOM      5  H   UNL A   1      36.081  22.209  26.184  1.00  0.00     0.163 HD
BRANCH   3   6
ATOM      6  C   UNL A   1      33.394  20.160  25.723  1.00  0.00     0.275 C 
BRANCH   6   7
ATOM      7  N   UNL A   1      33.009  19.020  26.577  1.00  0.00    -0.347 N 
ATOM      8  H   UNL A   1      32.563  19.366  27.426  1.00  0.00     0.345 HD
ATOM      9  H   UNL A   1      33.842  18.485  26.824  1.00  0.00     0.345 HD
ATOM     10  H   UNL A   1      32.358  18.420  26.071  1.00  0.00     0.345 HD
ENDBRANCH   6   7
BRANCH   6  11
ATOM     11  C   UNL A   1      32.249  20.871  24.947  1.00  0.00     0.111 C 
BRANCH  11  12
ATOM     12  C   UNL A   1      32.409  22.267  24.362  1.00  0.00    -0.029 A 
ATOM     13  C   UNL A   1      33.213  22.390  23.204  1.00  0.00     0.007 A 
ATOM     14  C   UNL A   1      31.835  23.444  24.916  1.00  0.00     0.062 A 
ATOM     15  C   UNL A   1      33.504  23.638  22.649  1.00  0.00     0.039 A 
ATOM     16  C   UNL A   1      32.166  24.696  24.348  1.00  0.00     0.052 A 
ATOM     17  C   UNL A   1      32.992  24.780  23.237  1.00  0.00     0.123 A 
ATOM     18  F   UNL A   1      33.310  25.983  22.742  1.00  0.00    -0.207 F 
BRANCH  14  19
ATOM     19  C   UNL A   1      30.991  23.476  26.173  1.00  0.00     0.416 C 
ATOM     20  F   UNL A   1      31.759  23.322  27.290  1.00  0.00    -0.166 F 
ATOM     21  F   UNL A   1      30.334  24.657  26.347  1.00  0.00    -0.166 F 
ATOM     22  F   UNL A   1      30.038  22.510  26.237  1.00  0.00    -0.166 F 
ENDBRANCH  14  19
ENDBRANCH  11  12
ENDBRANCH   6  11
ENDBRANCH   3   6
ENDBRANCH   1   2
BRANCH   1  23
ATOM     23  C   UNL A   1      37.345  19.774  25.008  1.00  0.00     0.042 C 
BRANCH  23  24
ATOM     24  C   UNL A   1      38.603  20.377  25.599  1.00  0.00     0.118 C 
BRANCH  24  25
ATOM     25  N   UNL A   1      39.724  19.445  25.675  1.00  0.00    -0.352 N 
ATOM     26  C   UNL A   1      41.036  19.598  26.066  1.00  0.00     0.251 C 
ATOM     27  H   UNL A   1      39.499  18.529  25.393  1.00  0.00     0.163 HD
ATOM     28  O   UNL A   1      41.809  18.657  25.936  1.00  0.00    -0.269 OA
BRANCH  26  29
ATOM     29  C   UNL A   1      41.537  20.886  26.601  1.00  0.00     0.039 A 
ATOM     30  C   UNL A   1      42.039  21.841  25.710  1.00  0.00     0.014 A 
ATOM     31  C   UNL A   1      41.531  21.164  27.965  1.00  0.00     0.014 A 
ATOM     32  C   UNL A   1      42.433  23.097  26.181  1.00  0.00     0.010 A 
ATOM     33  C   UNL A   1      41.789  22.453  28.415  1.00  0.00     0.010 A 
ATOM     34  C   UNL A   1      42.256  23.435  27.532  1.00  0.00    -0.014 A 
BRANCH  34  35
ATOM     35  C   UNL A   1      42.558  24.793  28.052  1.00  0.00     0.031 A 
ATOM     36  C   UNL A   1      43.961  25.151  28.468  1.00  0.00     0.074 A 
ATOM     37  C   UNL A   1      41.557  25.678  28.234  1.00  0.00     0.049 A 
ATOM     38  N   UNL A   1      44.403  26.249  29.031  1.00  0.00    -0.248 NA
ATOM     39  C   UNL A   1      45.001  24.127  28.262  1.00  0.00     0.031 C 
ATOM     40  C   UNL A   1      40.143  25.439  27.934  1.00  0.00     0.029 A 
ATOM     41  N   UNL A   1      41.577  26.959  28.725  1.00  0.00    -0.354 N 
ATOM     42  C   UNL A   1      45.753  26.030  29.276  1.00  0.00     0.074 A 
ATOM     43  C   UNL A   1      46.047  24.678  28.856  1.00  0.00     0.031 C 
ATOM     44  C   UNL A   1      39.441  26.550  28.206  1.00  0.00     0.029 A 
ATOM     45  C   UNL A   1      40.343  27.564  28.740  1.00  0.00     0.049 A 
ATOM     46  H   UNL A   1      42.399  27.405  29.035  1.00  0.00     0.167 HD
ATOM     47  C   UNL A   1      46.675  26.884  29.780  1.00  0.00     0.031 A 
ATOM     48  C   UNL A   1      39.978  28.796  29.141  1.00  0.00     0.031 A 
ATOM     49  C   UNL A   1      46.395  28.241  30.161  1.00  0.00     0.049 A 
ATOM     50  C   UNL A   1      41.025  29.736  29.667  1.00  0.00     0.074 A 
ATOM     51  C   UNL A   1      47.274  29.209  30.612  1.00  0.00     0.029 A 
ATOM     52  N   UNL A   1      45.137  28.822  30.129  1.00  0.00    -0.354 N 
ATOM     53  N   UNL A   1      42.310  29.535  29.827  1.00  0.00    -0.248 NA
ATOM     54  C   UNL A   1      40.569  31.078  30.056  1.00  0.00     0.031 C 
ATOM     55  C   UNL A   1      46.540  30.368  30.892  1.00  0.00     0.029 A 
ATOM     56  C   UNL A   1      45.213  30.133  30.566  1.00  0.00     0.049 A 
ATOM     57  H   UNL A   1      44.312  28.370  29.838  1.00  0.00     0.167 HD
ATOM     58  C   UNL A   1      42.822  30.732  30.309  1.00  0.00     0.074 A 
ATOM     59  C   UNL A   1      41.711  31.658  30.397  1.00  0.00     0.031 C 
ATOM     60  C   UNL A   1      44.098  31.039  30.648  1.00  0.00     0.031 A 
BRANCH  47  61
ATOM     61  C   UNL A   1      48.080  26.369  29.938  1.00  0.00    -0.014 A 
ATOM     62  C   UNL A   1      49.015  26.474  28.895  1.00  0.00     0.009 A 
ATOM     63  C   UNL A   1      48.481  25.792  31.153  1.00  0.00     0.009 A 
ATOM     64  C   UNL A   1      50.309  25.973  29.052  1.00  0.00     0.001 A 
ATOM     65  C   UNL A   1      49.785  25.322  31.318  1.00  0.00     0.001 A 
ATOM     66  C   UNL A   1      50.694  25.401  30.264  1.00  0.00     0.000 A 
ENDBRANCH  47  61
BRANCH  48  67
ATOM     67  C   UNL A   1      38.559  29.226  29.027  1.00  0.00    -0.014 A 
ATOM     68  C   UNL A   1      38.075  29.756  27.821  1.00  0.00     0.009 A 
ATOM     69  C   UNL A   1      37.684  29.110  30.118  1.00  0.00     0.009 A 
ATOM     70  C   UNL A   1      36.752  30.189  27.719  1.00  0.00     0.001 A 
ATOM     71  C   UNL A   1      36.354  29.517  30.004  1.00  0.00     0.001 A 
ATOM     72  C   UNL A   1      35.890  30.064  28.808  1.00  0.00     0.000 A 
ENDBRANCH  48  67
BRANCH  60  73
ATOM     73  C   UNL A   1      44.363  32.442  31.112  1.00  0.00    -0.014 A 
ATOM     74  C   UNL A   1      44.675  33.463  30.203  1.00  0.00     0.009 A 
ATOM     75  C   UNL A   1      44.267  32.750  32.479  1.00  0.00     0.009 A 
ATOM     76  C   UNL A   1      44.922  34.760  30.658  1.00  0.00     0.001 A 
ATOM     77  C   UNL A   1      44.486  34.053  32.927  1.00  0.00     0.001 A 
ATOM     78  C   UNL A   1      44.823  35.054  32.018  1.00  0.00     0.000 A 
ENDBRANCH  60  73
ENDBRANCH  34  35
ENDBRANCH  26  29
ENDBRANCH  24  25
ENDBRANCH  23  24
ENDBRANCH   1  23
TORSDOF 14
ENDMDL
