MODEL 1
REMARK VINA RESULT:      -8.9      0.000      0.000
REMARK SMILES O=Cc1ccc(-c2ccc(C(=O)NCCCNC(=O)c3ccc(-c4c5nc(c(-c6ccccc6)c6ccc([nH]6)c(-c6ccccc6)c6nc(c(-c7ccccc7)c7ccc4[nH]7)C=C6)C=C5)cc3)cn2)cc1
REMARK SMILES IDX 15 1 14 2 13 3 11 4 12 5 10 7 7 8 8 9 69 10 9 11 68 12 6 13
REMARK SMILES IDX 3 14 4 15 71 16 5 17 70 18 2 19 1 20 16 21 17 22 18 23 19 25
REMARK SMILES IDX 20 26 21 27 67 28 22 29 66 30 23 31 24 32 25 33 60 34 26 35
REMARK SMILES IDX 65 36 59 37 61 38 27 39 64 40 58 41 57 42 28 44 50 45 35 46
REMARK SMILES IDX 49 47 36 48 39 49 48 50 62 51 37 52 38 53 47 55 63 56 40 57
REMARK SMILES IDX 29 58 30 59 34 60 31 61 33 62 32 63 51 64 52 65 56 66 53 67
REMARK SMILES IDX 55 68 54 69 41 70 42 71 46 72 43 73 45 74 44 75
REMARK H PARENT 13 6 17 24 61 43 39 54
REMARK Flexibility Score: inf
ROOT
ATOM      1  C   UNL A   1      43.734  19.084  25.134  1.00  0.00     0.042 C 
ENDROOT
BRANCH   1   2
ATOM      2  C   UNL A   1      44.216  20.514  25.380  1.00  0.00     0.118 C 
BRANCH   2   3
ATOM      3  N   UNL A   1      45.470  20.774  24.696  1.00  0.00    -0.352 N 
ATOM      4  C   UNL A   1      46.166  21.931  24.452  1.00  0.00     0.252 C 
ATOM      5  O   UNL A   1      47.263  21.832  23.904  1.00  0.00    -0.269 OA
ATOM      6  H   UNL A   1      45.904  19.965  24.339  1.00  0.00     0.163 HD
BRANCH   4   7
ATOM      7  C   UNL A   1      45.681  23.276  24.842  1.00  0.00     0.058 A 
ATOM      8  C   UNL A   1      45.040  25.838  25.667  1.00  0.00     0.070 A 
ATOM      9  C   UNL A   1      44.056  25.040  25.091  1.00  0.00     0.030 A 
ATOM     10  N   UNL A   1      46.319  25.421  25.806  1.00  0.00    -0.255 NA
ATOM     11  C   UNL A   1      44.390  23.757  24.655  1.00  0.00     0.018 A 
ATOM     12  C   UNL A   1      46.607  24.157  25.395  1.00  0.00     0.125 A 
BRANCH   8  13
ATOM     13  C   UNL A   1      44.738  27.191  26.132  1.00  0.00     0.000 A 
ATOM     14  C   UNL A   1      44.172  29.838  26.877  1.00  0.00     0.014 A 
ATOM     15  C   UNL A   1      45.494  29.391  26.863  1.00  0.00     0.012 A 
ATOM     16  C   UNL A   1      43.129  28.972  26.547  1.00  0.00     0.012 A 
ATOM     17  C   UNL A   1      45.772  28.069  26.499  1.00  0.00     0.011 A 
ATOM     18  C   UNL A   1      43.413  27.656  26.176  1.00  0.00     0.011 A 
BRANCH  14  19
ATOM     19  C   UNL A   1      43.885  31.242  27.231  1.00  0.00     0.260 C 
ATOM     20  O   UNL A   1      44.505  32.177  26.738  1.00  0.00    -0.298 OA
ENDBRANCH  14  19
ENDBRANCH   8  13
ENDBRANCH   4   7
ENDBRANCH   2   3
ENDBRANCH   1   2
BRANCH   1  21
ATOM     21  C   UNL A   1      42.810  18.557  26.228  1.00  0.00     0.118 C 
BRANCH  21  22
ATOM     22  N   UNL A   1      41.408  18.652  25.850  1.00  0.00    -0.352 N 
ATOM     23  C   UNL A   1      40.480  19.625  26.127  1.00  0.00     0.251 C 
ATOM     24  H   UNL A   1      41.072  17.901  25.310  1.00  0.00     0.163 HD
ATOM     25  O   UNL A   1      39.294  19.406  25.902  1.00  0.00    -0.269 OA
BRANCH  23  26
ATOM     26  C   UNL A   1      40.888  20.928  26.697  1.00  0.00     0.039 A 
ATOM     27  C   UNL A   1      41.158  21.004  28.067  1.00  0.00     0.014 A 
ATOM     28  C   UNL A   1      40.943  22.083  25.911  1.00  0.00     0.014 A 
ATOM     29  C   UNL A   1      41.529  22.222  28.640  1.00  0.00     0.010 A 
ATOM     30  C   UNL A   1      41.374  23.285  26.471  1.00  0.00     0.010 A 
ATOM     31  C   UNL A   1      41.664  23.369  27.841  1.00  0.00    -0.014 A 
BRANCH  31  32
ATOM     32  C   UNL A   1      42.101  24.663  28.422  1.00  0.00     0.031 A 
ATOM     33  C   UNL A   1      41.122  25.794  28.581  1.00  0.00     0.074 A 
ATOM     34  C   UNL A   1      43.395  24.843  28.747  1.00  0.00     0.049 A 
ATOM     35  N   UNL A   1      41.333  27.015  29.004  1.00  0.00    -0.248 NA
ATOM     36  C   UNL A   1      39.728  25.524  28.194  1.00  0.00     0.031 C 
ATOM     37  C   UNL A   1      44.451  23.838  28.608  1.00  0.00     0.029 A 
ATOM     38  N   UNL A   1      44.045  25.940  29.254  1.00  0.00    -0.354 N 
ATOM     39  C   UNL A   1      40.108  27.664  28.910  1.00  0.00     0.074 A 
ATOM     40  C   UNL A   1      39.168  26.713  28.356  1.00  0.00     0.031 C 
ATOM     41  C   UNL A   1      45.612  24.359  29.038  1.00  0.00     0.029 A 
ATOM     42  C   UNL A   1      45.390  25.742  29.446  1.00  0.00     0.049 A 
ATOM     43  H   UNL A   1      43.590  26.788  29.460  1.00  0.00     0.167 HD
ATOM     44  C   UNL A   1      39.789  28.932  29.267  1.00  0.00     0.031 A 
ATOM     45  C   UNL A   1      46.342  26.582  29.893  1.00  0.00     0.031 A 
ATOM     46  C   UNL A   1      40.719  29.872  29.834  1.00  0.00     0.049 A 
ATOM     47  C   UNL A   1      45.963  27.983  30.282  1.00  0.00     0.074 A 
ATOM     48  C   UNL A   1      40.478  31.159  30.283  1.00  0.00     0.029 A 
ATOM     49  N   UNL A   1      42.069  29.626  30.026  1.00  0.00    -0.354 N 
ATOM     50  N   UNL A   1      44.788  28.560  30.246  1.00  0.00    -0.248 NA
ATOM     51  C   UNL A   1      47.045  28.844  30.783  1.00  0.00     0.031 C 
ATOM     52  C   UNL A   1      41.693  31.707  30.709  1.00  0.00     0.029 A 
ATOM     53  C   UNL A   1      42.679  30.745  30.568  1.00  0.00     0.049 A 
ATOM     54  H   UNL A   1      42.526  28.782  29.810  1.00  0.00     0.167 HD
ATOM     55  C   UNL A   1      44.981  29.842  30.744  1.00  0.00     0.074 A 
ATOM     56  C   UNL A   1      46.384  29.953  31.086  1.00  0.00     0.031 C 
ATOM     57  C   UNL A   1      44.076  30.839  30.902  1.00  0.00     0.031 A 
BRANCH  44  58
ATOM     58  C   UNL A   1      38.371  29.377  29.044  1.00  0.00    -0.014 A 
ATOM     59  C   UNL A   1      37.424  29.340  30.080  1.00  0.00     0.009 A 
ATOM     60  C   UNL A   1      37.984  29.871  27.788  1.00  0.00     0.009 A 
ATOM     61  C   UNL A   1      36.110  29.753  29.852  1.00  0.00     0.001 A 
ATOM     62  C   UNL A   1      36.677  30.309  27.571  1.00  0.00     0.001 A 
ATOM     63  C   UNL A   1      35.738  30.240  28.599  1.00  0.00     0.000 A 
ENDBRANCH  44  58
BRANCH  45  64
ATOM     64  C   UNL A   1      47.747  26.114  30.013  1.00  0.00    -0.014 A 
ATOM     65  C   UNL A   1      48.254  25.704  31.254  1.00  0.00     0.009 A 
ATOM     66  C   UNL A   1      48.585  26.073  28.888  1.00  0.00     0.009 A 
ATOM     67  C   UNL A   1      49.581  25.283  31.372  1.00  0.00     0.001 A 
ATOM     68  C   UNL A   1      49.903  25.627  29.002  1.00  0.00     0.001 A 
ATOM     69  C   UNL A   1      50.403  25.241  30.246  1.00  0.00     0.000 A 
ENDBRANCH  45  64
BRANCH  57  70
ATOM     70  C   UNL A   1      44.572  32.124  31.500  1.00  0.00    -0.014 A 
ATOM     71  C   UNL A   1      45.118  33.137  30.697  1.00  0.00     0.009 A 
ATOM     72  C   UNL A   1      44.456  32.338  32.882  1.00  0.00     0.009 A 
ATOM     73  C   UNL A   1      45.567  34.328  31.271  1.00  0.00     0.001 A 
ATOM     74  C   UNL A   1      44.881  33.539  33.450  1.00  0.00     0.001 A 
ATOM     75  C   UNL A   1      45.444  34.529  32.646  1.00  0.00     0.000 A 
ENDBRANCH  57  70
ENDBRANCH  31  32
ENDBRANCH  23  26
ENDBRANCH  21  22
ENDBRANCH   1  21
TORSDOF 12
ENDMDL
MODEL 2
REMARK VINA RESULT:      -8.8      3.264      9.680
REMARK SMILES O=Cc1ccc(-c2ccc(C(=O)NCCCNC(=O)c3ccc(-c4c5nc(c(-c6ccccc6)c6ccc([nH]6)c(-c6ccccc6)c6nc(c(-c7ccccc7)c7ccc4[nH]7)C=C6)C=C5)cc3)cn2)cc1
REMARK SMILES IDX 15 1 14 2 13 3 11 4 12 5 10 7 7 8 8 9 69 10 9 11 68 12 6 13
REMARK SMILES IDX 3 14 4 15 71 16 5 17 70 18 2 19 1 20 16 21 17 22 18 23 19 25
REMARK SMILES IDX 20 26 21 27 67 28 22 29 66 30 23 31 24 32 25 33 60 34 26 35
REMARK SMILES IDX 65 36 59 37 61 38 27 39 64 40 58 41 57 42 28 44 50 45 35 46
REMARK SMILES IDX 49 47 36 48 39 49 48 50 62 51 37 52 38 53 47 55 63 56 40 57
REMARK SMILES IDX 29 58 30 59 34 60 31 61 33 62 32 63 51 64 52 65 56 66 53 67
REMARK SMILES IDX 55 68 54 69 41 70 42 71 46 72 43 73 45 74 44 75
REMARK H PARENT 13 6 17 24 61 43 39 54
REMARK Flexibility Score: inf
ROOT
ATOM      1  C   UNL A   1      34.799  34.340  29.023  1.00  0.00     0.042 C 
ENDROOT
BRANCH   1   2
ATOM      2  C   UNL A   1      34.376  33.760  30.373  1.00  0.00     0.118 C 
BRANCH   2   3
ATOM      3  N   UNL A   1      34.680  34.675  31.459  1.00  0.00    -0.352 N 
ATOM      4  C   UNL A   1      35.597  34.624  32.479  1.00  0.00     0.252 C 
ATOM      5  O   UNL A   1      35.680  35.603  33.220  1.00  0.00    -0.269 OA
ATOM      6  H   UNL A   1      34.123  35.487  31.464  1.00  0.00     0.163 HD
BRANCH   4   7
ATOM      7  C   UNL A   1      36.504  33.476  32.709  1.00  0.00     0.058 A 
ATOM      8  C   UNL A   1      38.414  31.509  33.082  1.00  0.00     0.070 A 
ATOM      9  C   UNL A   1      37.067  31.186  33.212  1.00  0.00     0.030 A 
ATOM     10  N   UNL A   1      38.833  32.766  32.815  1.00  0.00    -0.255 NA
ATOM     11  C   UNL A   1      36.108  32.186  33.047  1.00  0.00     0.018 A 
ATOM     12  C   UNL A   1      37.874  33.714  32.632  1.00  0.00     0.125 A 
BRANCH   8  13
ATOM     13  C   UNL A   1      39.454  30.495  33.254  1.00  0.00     0.000 A 
ATOM     14  C   UNL A   1      41.496  28.577  33.436  1.00  0.00     0.014 A 
ATOM     15  C   UNL A   1      40.231  28.200  32.981  1.00  0.00     0.012 A 
ATOM     16  C   UNL A   1      41.745  29.895  33.823  1.00  0.00     0.012 A 
ATOM     17  C   UNL A   1      39.214  29.157  32.899  1.00  0.00     0.011 A 
ATOM     18  C   UNL A   1      40.728  30.847  33.730  1.00  0.00     0.011 A 
BRANCH  14  19
ATOM     19  C   UNL A   1      42.576  27.572  33.490  1.00  0.00     0.260 C 
ATOM     20  O   UNL A   1      43.569  27.644  32.776  1.00  0.00    -0.298 OA
ENDBRANCH  14  19
ENDBRANCH   8  13
ENDBRANCH   4   7
ENDBRANCH   2   3
ENDBRANCH   1   2
BRANCH   1  21
ATOM     21  C   UNL A   1      35.239  33.280  28.016  1.00  0.00     0.118 C 
BRANCH  21  22
ATOM     22  N   UNL A   1      34.330  32.144  27.990  1.00  0.00    -0.352 N 
ATOM     23  C   UNL A   1      34.595  30.797  27.987  1.00  0.00     0.251 C 
ATOM     24  H   UNL A   1      33.374  32.378  27.971  1.00  0.00     0.163 HD
ATOM     25  O   UNL A   1      33.691  30.007  27.737  1.00  0.00    -0.269 OA
BRANCH  23  26
ATOM     26  C   UNL A   1      35.954  30.287  28.274  1.00  0.00     0.039 A 
ATOM     27  C   UNL A   1      36.883  30.232  27.229  1.00  0.00     0.014 A 
ATOM     28  C   UNL A   1      36.300  29.803  29.539  1.00  0.00     0.014 A 
ATOM     29  C   UNL A   1      38.168  29.739  27.463  1.00  0.00     0.010 A 
ATOM     30  C   UNL A   1      37.602  29.371  29.787  1.00  0.00     0.010 A 
ATOM     31  C   UNL A   1      38.547  29.327  28.751  1.00  0.00    -0.014 A 
BRANCH  31  32
ATOM     32  C   UNL A   1      39.922  28.844  29.030  1.00  0.00     0.031 A 
ATOM     33  C   UNL A   1      40.942  29.765  29.642  1.00  0.00     0.074 A 
ATOM     34  C   UNL A   1      40.274  27.595  28.670  1.00  0.00     0.049 A 
ATOM     35  N   UNL A   1      42.208  29.544  29.895  1.00  0.00    -0.248 NA
ATOM     36  C   UNL A   1      40.485  31.118  29.997  1.00  0.00     0.031 C 
ATOM     37  C   UNL A   1      39.389  26.614  28.037  1.00  0.00     0.029 A 
ATOM     38  N   UNL A   1      41.474  26.938  28.780  1.00  0.00    -0.354 N 
ATOM     39  C   UNL A   1      42.702  30.735  30.413  1.00  0.00     0.074 A 
ATOM     40  C   UNL A   1      41.611  31.685  30.404  1.00  0.00     0.031 C 
ATOM     41  C   UNL A   1      40.072  25.476  27.832  1.00  0.00     0.029 A 
ATOM     42  C   UNL A   1      41.446  25.658  28.284  1.00  0.00     0.049 A 
ATOM     43  H   UNL A   1      42.277  27.346  29.177  1.00  0.00     0.167 HD
ATOM     44  C   UNL A   1      43.948  31.008  30.870  1.00  0.00     0.031 A 
ATOM     45  C   UNL A   1      42.421  24.734  28.196  1.00  0.00     0.031 A 
ATOM     46  C   UNL A   1      45.029  30.060  30.895  1.00  0.00     0.049 A 
ATOM     47  C   UNL A   1      43.795  25.062  28.709  1.00  0.00     0.074 A 
ATOM     48  C   UNL A   1      46.310  30.224  31.394  1.00  0.00     0.029 A 
ATOM     49  N   UNL A   1      44.955  28.768  30.397  1.00  0.00    -0.354 N 
ATOM     50  N   UNL A   1      44.229  26.172  29.254  1.00  0.00    -0.248 NA
ATOM     51  C   UNL A   1      44.810  24.004  28.602  1.00  0.00     0.031 C 
ATOM     52  C   UNL A   1      47.024  29.044  31.158  1.00  0.00     0.029 A 
ATOM     53  C   UNL A   1      46.174  28.131  30.557  1.00  0.00     0.049 A 
ATOM     54  H   UNL A   1      44.155  28.364  29.990  1.00  0.00     0.167 HD
ATOM     55  C   UNL A   1      45.558  25.938  29.579  1.00  0.00     0.074 A 
ATOM     56  C   UNL A   1      45.855  24.577  29.183  1.00  0.00     0.031 C 
ATOM     57  C   UNL A   1      46.453  26.777  30.155  1.00  0.00     0.031 A 
BRANCH  44  58
ATOM     58  C   UNL A   1      44.210  32.401  31.373  1.00  0.00    -0.014 A 
ATOM     59  C   UNL A   1      44.002  32.739  32.720  1.00  0.00     0.009 A 
ATOM     60  C   UNL A   1      44.700  33.379  30.495  1.00  0.00     0.009 A 
ATOM     61  C   UNL A   1      44.245  34.039  33.168  1.00  0.00     0.001 A 
ATOM     62  C   UNL A   1      44.968  34.671  30.951  1.00  0.00     0.001 A 
ATOM     63  C   UNL A   1      44.731  35.003  32.284  1.00  0.00     0.000 A 
ENDBRANCH  44  58
BRANCH  45  64
ATOM     64  C   UNL A   1      42.129  23.401  27.610  1.00  0.00    -0.014 A 
ATOM     65  C   UNL A   1      41.533  22.399  28.388  1.00  0.00     0.009 A 
ATOM     66  C   UNL A   1      42.442  23.125  26.269  1.00  0.00     0.009 A 
ATOM     67  C   UNL A   1      41.275  21.139  27.843  1.00  0.00     0.001 A 
ATOM     68  C   UNL A   1      42.160  21.874  25.719  1.00  0.00     0.001 A 
ATOM     69  C   UNL A   1      41.585  20.878  26.509  1.00  0.00     0.000 A 
ENDBRANCH  45  64
BRANCH  57  70
ATOM     70  C   UNL A   1      47.828  26.235  30.419  1.00  0.00    -0.014 A 
ATOM     71  C   UNL A   1      48.814  26.234  29.421  1.00  0.00     0.009 A 
ATOM     72  C   UNL A   1      48.152  25.752  31.696  1.00  0.00     0.009 A 
ATOM     73  C   UNL A   1      50.089  25.730  29.688  1.00  0.00     0.001 A 
ATOM     74  C   UNL A   1      49.434  25.273  31.969  1.00  0.00     0.001 A 
ATOM     75  C   UNL A   1      50.398  25.255  30.962  1.00  0.00     0.000 A 
ENDBRANCH  57  70
ENDBRANCH  31  32
ENDBRANCH  23  26
ENDBRANCH  21  22
ENDBRANCH   1  21
TORSDOF 12
ENDMDL
MODEL 3
REMARK VINA RESULT:      -8.7      4.340     10.230
REMARK SMILES O=Cc1ccc(-c2ccc(C(=O)NCCCNC(=O)c3ccc(-c4c5nc(c(-c6ccccc6)c6ccc([nH]6)c(-c6ccccc6)c6nc(c(-c7ccccc7)c7ccc4[nH]7)C=C6)C=C5)cc3)cn2)cc1
REMARK SMILES IDX 15 1 14 2 13 3 11 4 12 5 10 7 7 8 8 9 69 10 9 11 68 12 6 13
REMARK SMILES IDX 3 14 4 15 71 16 5 17 70 18 2 19 1 20 16 21 17 22 18 23 19 25
REMARK SMILES IDX 20 26 21 27 67 28 22 29 66 30 23 31 24 32 25 33 60 34 26 35
REMARK SMILES IDX 65 36 59 37 61 38 27 39 64 40 58 41 57 42 28 44 50 45 35 46
REMARK SMILES IDX 49 47 36 48 39 49 48 50 62 51 37 52 38 53 47 55 63 56 40 57
REMARK SMILES IDX 29 58 30 59 34 60 31 61 33 62 32 63 51 64 52 65 56 66 53 67
REMARK SMILES IDX 55 68 54 69 41 70 42 71 46 72 43 73 45 74 44 75
REMARK H PARENT 13 6 17 24 61 43 39 54
REMARK Flexibility Score: inf
ROOT
ATOM      1  C   UNL A   1      34.021  28.562  25.743  1.00  0.00     0.042 C 
ENDROOT
BRANCH   1   2
ATOM      2  C   UNL A   1      33.312  27.403  25.041  1.00  0.00     0.118 C 
BRANCH   2   3
ATOM      3  N   UNL A   1      32.001  27.160  25.615  1.00  0.00    -0.352 N 
ATOM      4  C   UNL A   1      31.341  26.007  25.955  1.00  0.00     0.252 C 
ATOM      5  O   UNL A   1      30.247  26.116  26.508  1.00  0.00    -0.269 OA
ATOM      6  H   UNL A   1      31.487  27.981  25.796  1.00  0.00     0.163 HD
BRANCH   4   7
ATOM      7  C   UNL A   1      31.891  24.650  25.724  1.00  0.00     0.058 A 
ATOM      8  C   UNL A   1      32.742  22.101  25.066  1.00  0.00     0.070 A 
ATOM      9  C   UNL A   1      33.278  22.732  26.184  1.00  0.00     0.030 A 
ATOM     10  N   UNL A   1      31.841  22.704  24.259  1.00  0.00    -0.255 NA
ATOM     11  C   UNL A   1      32.864  24.027  26.498  1.00  0.00     0.018 A 
ATOM     12  C   UNL A   1      31.437  23.955  24.606  1.00  0.00     0.125 A 
BRANCH   8  13
ATOM     13  C   UNL A   1      33.152  20.747  24.695  1.00  0.00     0.000 A 
ATOM     14  C   UNL A   1      33.897  18.101  24.126  1.00  0.00     0.014 A 
ATOM     15  C   UNL A   1      34.833  18.981  24.672  1.00  0.00     0.012 A 
ATOM     16  C   UNL A   1      32.602  18.534  23.838  1.00  0.00     0.012 A 
ATOM     17  C   UNL A   1      34.460  20.301  24.948  1.00  0.00     0.011 A 
ATOM     18  C   UNL A   1      32.234  19.850  24.123  1.00  0.00     0.011 A 
BRANCH  14  19
ATOM     19  C   UNL A   1      34.284  16.700  23.867  1.00  0.00     0.260 C 
ATOM     20  O   UNL A   1      34.225  16.204  22.748  1.00  0.00    -0.298 OA
ENDBRANCH  14  19
ENDBRANCH   8  13
ENDBRANCH   4   7
ENDBRANCH   2   3
ENDBRANCH   1   2
BRANCH   1  21
ATOM     21  C   UNL A   1      33.660  28.691  27.221  1.00  0.00     0.118 C 
BRANCH  21  22
ATOM     22  N   UNL A   1      33.621  30.080  27.652  1.00  0.00    -0.352 N 
ATOM     23  C   UNL A   1      34.542  30.814  28.358  1.00  0.00     0.251 C 
ATOM     24  H   UNL A   1      32.807  30.572  27.397  1.00  0.00     0.163 HD
ATOM     25  O   UNL A   1      34.219  31.907  28.812  1.00  0.00    -0.269 OA
BRANCH  23  26
ATOM     26  C   UNL A   1      35.912  30.304  28.585  1.00  0.00     0.039 A 
ATOM     27  C   UNL A   1      36.844  30.405  27.547  1.00  0.00     0.014 A 
ATOM     28  C   UNL A   1      36.267  29.672  29.781  1.00  0.00     0.014 A 
ATOM     29  C   UNL A   1      38.141  29.918  27.723  1.00  0.00     0.010 A 
ATOM     30  C   UNL A   1      37.578  29.242  29.979  1.00  0.00     0.010 A 
ATOM     31  C   UNL A   1      38.526  29.354  28.950  1.00  0.00    -0.014 A 
BRANCH  31  32
ATOM     32  C   UNL A   1      39.912  28.872  29.173  1.00  0.00     0.031 A 
ATOM     33  C   UNL A   1      40.949  29.787  29.765  1.00  0.00     0.074 A 
ATOM     34  C   UNL A   1      40.256  27.631  28.780  1.00  0.00     0.049 A 
ATOM     35  N   UNL A   1      42.224  29.567  29.970  1.00  0.00    -0.248 NA
ATOM     36  C   UNL A   1      40.499  31.132  30.159  1.00  0.00     0.031 C 
ATOM     37  C   UNL A   1      39.354  26.658  28.160  1.00  0.00     0.029 A 
ATOM     38  N   UNL A   1      41.461  26.977  28.836  1.00  0.00    -0.354 N 
ATOM     39  C   UNL A   1      42.731  30.751  30.492  1.00  0.00     0.074 A 
ATOM     40  C   UNL A   1      41.636  31.696  30.537  1.00  0.00     0.031 C 
ATOM     41  C   UNL A   1      40.033  25.526  27.911  1.00  0.00     0.029 A 
ATOM     42  C   UNL A   1      41.422  25.706  28.319  1.00  0.00     0.049 A 
ATOM     43  H   UNL A   1      42.276  27.382  29.212  1.00  0.00     0.167 HD
ATOM     44  C   UNL A   1      43.991  31.022  30.910  1.00  0.00     0.031 A 
ATOM     45  C   UNL A   1      42.397  24.789  28.181  1.00  0.00     0.031 A 
ATOM     46  C   UNL A   1      45.076  30.078  30.881  1.00  0.00     0.049 A 
ATOM     47  C   UNL A   1      43.786  25.114  28.652  1.00  0.00     0.074 A 
ATOM     48  C   UNL A   1      46.372  30.239  31.338  1.00  0.00     0.029 A 
ATOM     49  N   UNL A   1      44.990  28.795  30.363  1.00  0.00    -0.354 N 
ATOM     50  N   UNL A   1      44.234  26.216  29.201  1.00  0.00    -0.248 NA
ATOM     51  C   UNL A   1      44.801  24.062  28.491  1.00  0.00     0.031 C 
ATOM     52  C   UNL A   1      47.083  29.067  31.057  1.00  0.00     0.029 A 
ATOM     53  C   UNL A   1      46.216  28.161  30.470  1.00  0.00     0.049 A 
ATOM     54  H   UNL A   1      44.178  28.395  29.977  1.00  0.00     0.167 HD
ATOM     55  C   UNL A   1      45.575  25.982  29.476  1.00  0.00     0.074 A 
ATOM     56  C   UNL A   1      45.863  24.630  29.045  1.00  0.00     0.031 C 
ATOM     57  C   UNL A   1      46.486  26.815  30.035  1.00  0.00     0.031 A 
BRANCH  44  58
ATOM     58  C   UNL A   1      44.264  32.407  31.428  1.00  0.00    -0.014 A 
ATOM     59  C   UNL A   1      44.671  33.439  30.567  1.00  0.00     0.009 A 
ATOM     60  C   UNL A   1      44.083  32.691  32.790  1.00  0.00     0.009 A 
ATOM     61  C   UNL A   1      44.926  34.717  31.067  1.00  0.00     0.001 A 
ATOM     62  C   UNL A   1      44.312  33.977  33.283  1.00  0.00     0.001 A 
ATOM     63  C   UNL A   1      44.743  34.986  32.424  1.00  0.00     0.000 A 
ENDBRANCH  44  58
BRANCH  45  64
ATOM     64  C   UNL A   1      42.089  23.464  27.582  1.00  0.00    -0.014 A 
ATOM     65  C   UNL A   1      42.331  23.228  26.221  1.00  0.00     0.009 A 
ATOM     66  C   UNL A   1      41.556  22.431  28.368  1.00  0.00     0.009 A 
ATOM     67  C   UNL A   1      42.025  21.989  25.653  1.00  0.00     0.001 A 
ATOM     68  C   UNL A   1      41.274  21.186  27.804  1.00  0.00     0.001 A 
ATOM     69  C   UNL A   1      41.500  20.968  26.444  1.00  0.00     0.000 A 
ENDBRANCH  45  64
BRANCH  57  70
ATOM     70  C   UNL A   1      47.872  26.274  30.241  1.00  0.00    -0.014 A 
ATOM     71  C   UNL A   1      48.272  25.752  31.481  1.00  0.00     0.009 A 
ATOM     72  C   UNL A   1      48.776  26.254  29.169  1.00  0.00     0.009 A 
ATOM     73  C   UNL A   1      49.563  25.248  31.650  1.00  0.00     0.001 A 
ATOM     74  C   UNL A   1      50.058  25.725  29.333  1.00  0.00     0.001 A 
ATOM     75  C   UNL A   1      50.452  25.231  30.576  1.00  0.00     0.000 A 
ENDBRANCH  57  70
ENDBRANCH  31  32
ENDBRANCH  23  26
ENDBRANCH  21  22
ENDBRANCH   1  21
TORSDOF 12
ENDMDL
