MODEL 1
REMARK VINA RESULT:     -12.5      0.000      0.000
REMARK SMILES Cc1cc(C)c(NS(=O)(=O)c2cccc3cc(C)cnc23)c(C(=O)NCCCNC(=O)c2ccc(-c3c4nc(c(-c5ccccc5)c5ccc([nH]5)c(-c5ccccc5)c5nc(c(-c6ccccc6)c6ccc3[nH]6)C=C5)C=C4)cc2)c1
REMARK SMILES IDX 26 1 25 2 23 3 24 4 22 6 1 7 2 8 3 9 80 10 4 11 5 12 6 13
REMARK SMILES IDX 7 14 8 16 9 17 10 18 11 19 12 20 21 21 13 22 15 23 20 24
REMARK SMILES IDX 14 25 16 26 19 27 17 28 18 29 27 30 28 31 29 32 30 33 31 35
REMARK SMILES IDX 32 36 33 37 79 38 34 39 78 40 35 41 36 42 37 43 72 44 38 45
REMARK SMILES IDX 77 46 71 47 73 48 39 49 76 50 70 51 69 52 40 54 62 55 47 56
REMARK SMILES IDX 61 57 48 58 51 59 60 60 74 61 49 62 50 63 59 65 75 66 52 67
REMARK SMILES IDX 41 68 42 69 46 70 43 71 45 72 44 73 63 74 64 75 68 76 65 77
REMARK SMILES IDX 67 78 66 79 53 80 54 81 58 82 55 83 57 84 56 85
REMARK H PARENT 25 5 7 15 29 34 73 53 51 64
REMARK Flexibility Score: inf
ROOT
ATOM      1  C   UNL A   1      31.804  28.196  27.133  1.00  0.00     0.118 C 
ENDROOT
BRANCH   1   2
ATOM      2  N   UNL A   1      31.025  26.965  27.182  1.00  0.00    -0.352 N 
ATOM      3  C   UNL A   1      30.413  26.218  26.197  1.00  0.00     0.253 C 
ATOM      4  O   UNL A   1      29.738  25.249  26.542  1.00  0.00    -0.269 OA
ATOM      5  H   UNL A   1      30.914  26.598  28.088  1.00  0.00     0.163 HD
BRANCH   3   6
ATOM      6  C   UNL A   1      30.651  26.486  24.747  1.00  0.00     0.064 A 
ATOM      7  C   UNL A   1      29.508  29.090  22.260  1.00  0.00     0.044 C 
ATOM      8  C   UNL A   1      30.316  27.996  22.889  1.00  0.00    -0.050 A 
ATOM      9  C   UNL A   1      31.547  27.579  22.377  1.00  0.00     0.009 A 
ATOM     10  C   UNL A   1      29.876  27.436  24.083  1.00  0.00     0.019 A 
ATOM     11  C   UNL A   1      32.280  26.523  22.969  1.00  0.00    -0.026 A 
ATOM     12  C   UNL A   1      33.631  26.207  22.395  1.00  0.00     0.046 C 
ATOM     13  C   UNL A   1      31.730  25.855  24.076  1.00  0.00     0.065 A 
BRANCH  13  14
ATOM     14  N   UNL A   1      32.213  24.622  24.635  1.00  0.00    -0.278 N 
ATOM     15  H   UNL A   1      32.885  24.715  25.348  1.00  0.00     0.180 HD
BRANCH  14  16
ATOM     16  S   UNL A   1      31.792  23.047  24.243  1.00  0.00     0.264 S 
ATOM     17  O   UNL A   1      30.931  22.622  25.335  1.00  0.00    -0.201 OA
ATOM     18  O   UNL A   1      31.242  23.095  22.902  1.00  0.00    -0.201 OA
BRANCH  16  19
ATOM     19  C   UNL A   1      33.107  21.857  24.193  1.00  0.00     0.114 A 
ATOM     20  C   UNL A   1      32.668  20.511  24.183  1.00  0.00     0.024 A 
ATOM     21  C   UNL A   1      34.443  22.182  24.392  1.00  0.00     0.091 A 
ATOM     22  C   UNL A   1      33.534  19.479  24.504  1.00  0.00     0.002 A 
ATOM     23  C   UNL A   1      35.275  21.126  24.845  1.00  0.00     0.002 A 
ATOM     24  N   UNL A   1      34.950  23.425  24.234  1.00  0.00    -0.255 NA
ATOM     25  C   UNL A   1      34.827  19.794  24.885  1.00  0.00     0.010 A 
ATOM     26  C   UNL A   1      36.548  21.435  25.337  1.00  0.00     0.015 A 
ATOM     27  C   UNL A   1      36.206  23.677  24.678  1.00  0.00     0.115 A 
ATOM     28  C   UNL A   1      37.004  22.747  25.319  1.00  0.00    -0.032 A 
ATOM     29  C   UNL A   1      38.269  23.127  26.017  1.00  0.00     0.046 C 
ENDBRANCH  16  19
ENDBRANCH  14  16
ENDBRANCH  13  14
ENDBRANCH   3   6
ENDBRANCH   1   2
BRANCH   1  30
ATOM     30  C   UNL A   1      33.273  27.873  26.858  1.00  0.00     0.042 C 
BRANCH  30  31
ATOM     31  C   UNL A   1      33.964  28.966  26.053  1.00  0.00     0.118 C 
BRANCH  31  32
ATOM     32  N   UNL A   1      33.777  30.274  26.665  1.00  0.00    -0.352 N 
ATOM     33  C   UNL A   1      34.476  30.877  27.677  1.00  0.00     0.251 C 
ATOM     34  H   UNL A   1      33.034  30.805  26.296  1.00  0.00     0.163 HD
ATOM     35  O   UNL A   1      34.012  31.878  28.220  1.00  0.00    -0.269 OA
BRANCH  33  36
ATOM     36  C   UNL A   1      35.774  30.331  28.125  1.00  0.00     0.039 A 
ATOM     37  C   UNL A   1      36.871  30.421  27.265  1.00  0.00     0.014 A 
ATOM     38  C   UNL A   1      35.905  29.694  29.362  1.00  0.00     0.014 A 
ATOM     39  C   UNL A   1      38.106  29.908  27.661  1.00  0.00     0.010 A 
ATOM     40  C   UNL A   1      37.156  29.258  29.790  1.00  0.00     0.010 A 
ATOM     41  C   UNL A   1      38.265  29.346  28.938  1.00  0.00    -0.014 A 
BRANCH  41  42
ATOM     42  C   UNL A   1      39.584  28.840  29.389  1.00  0.00     0.031 A 
ATOM     43  C   UNL A   1      40.435  29.661  30.318  1.00  0.00     0.074 A 
ATOM     44  C   UNL A   1      40.031  27.656  28.929  1.00  0.00     0.049 A 
ATOM     45  N   UNL A   1      41.620  29.391  30.808  1.00  0.00    -0.248 NA
ATOM     46  C   UNL A   1      39.900  30.968  30.735  1.00  0.00     0.031 C 
ATOM     47  C   UNL A   1      39.315  26.786  27.992  1.00  0.00     0.029 A 
ATOM     48  N   UNL A   1      41.194  26.978  29.188  1.00  0.00    -0.354 N 
ATOM     49  C   UNL A   1      41.972  30.496  31.575  1.00  0.00     0.074 A 
ATOM     50  C   UNL A   1      40.906  31.462  31.440  1.00  0.00     0.031 C 
ATOM     51  C   UNL A   1      40.037  25.674  27.788  1.00  0.00     0.029 A 
ATOM     52  C   UNL A   1      41.283  25.770  28.541  1.00  0.00     0.049 A 
ATOM     53  H   UNL A   1      41.900  27.324  29.781  1.00  0.00     0.167 HD
ATOM     54  C   UNL A   1      43.075  30.679  32.340  1.00  0.00     0.031 A 
ATOM     55  C   UNL A   1      42.258  24.843  28.551  1.00  0.00     0.031 A 
ATOM     56  C   UNL A   1      44.134  29.715  32.473  1.00  0.00     0.049 A 
ATOM     57  C   UNL A   1      43.481  25.081  29.394  1.00  0.00     0.074 A 
ATOM     58  C   UNL A   1      45.270  29.784  33.259  1.00  0.00     0.029 A 
ATOM     59  N   UNL A   1      44.188  28.506  31.795  1.00  0.00    -0.354 N 
ATOM     60  N   UNL A   1      43.766  26.099  30.168  1.00  0.00    -0.248 NA
ATOM     61  C   UNL A   1      44.508  24.030  29.373  1.00  0.00     0.031 C 
ATOM     62  C   UNL A   1      46.040  28.642  33.014  1.00  0.00     0.029 A 
ATOM     63  C   UNL A   1      45.351  27.831  32.126  1.00  0.00     0.049 A 
ATOM     64  H   UNL A   1      43.501  28.176  31.172  1.00  0.00     0.167 HD
ATOM     65  C   UNL A   1      44.991  25.800  30.749  1.00  0.00     0.074 A 
ATOM     66  C   UNL A   1      45.382  24.495  30.253  1.00  0.00     0.031 C 
ATOM     67  C   UNL A   1      45.727  26.537  31.617  1.00  0.00     0.031 A 
BRANCH  54  68
ATOM     68  C   UNL A   1      43.190  31.982  33.086  1.00  0.00    -0.014 A 
ATOM     69  C   UNL A   1      43.816  33.099  32.510  1.00  0.00     0.009 A 
ATOM     70  C   UNL A   1      42.639  32.103  34.371  1.00  0.00     0.009 A 
ATOM     71  C   UNL A   1      43.925  34.296  33.220  1.00  0.00     0.001 A 
ATOM     72  C   UNL A   1      42.719  33.312  35.067  1.00  0.00     0.001 A 
ATOM     73  C   UNL A   1      43.372  34.403  34.496  1.00  0.00     0.000 A 
ENDBRANCH  54  68
BRANCH  55  74
ATOM     74  C   UNL A   1      42.112  23.596  27.755  1.00  0.00    -0.014 A 
ATOM     75  C   UNL A   1      42.574  23.538  26.431  1.00  0.00     0.009 A 
ATOM     76  C   UNL A   1      41.507  22.458  28.312  1.00  0.00     0.009 A 
ATOM     77  C   UNL A   1      42.404  22.377  25.672  1.00  0.00     0.001 A 
ATOM     78  C   UNL A   1      41.369  21.289  27.561  1.00  0.00     0.001 A 
ATOM     79  C   UNL A   1      41.806  21.253  26.239  1.00  0.00     0.000 A 
ENDBRANCH  55  74
BRANCH  67  80
ATOM     80  C   UNL A   1      47.011  25.931  32.111  1.00  0.00    -0.014 A 
ATOM     81  C   UNL A   1      48.217  26.096  31.412  1.00  0.00     0.009 A 
ATOM     82  C   UNL A   1      47.017  25.204  33.312  1.00  0.00     0.009 A 
ATOM     83  C   UNL A   1      49.393  25.510  31.884  1.00  0.00     0.001 A 
ATOM     84  C   UNL A   1      48.200  24.647  33.800  1.00  0.00     0.001 A 
ATOM     85  C   UNL A   1      49.384  24.790  33.078  1.00  0.00     0.000 A 
ENDBRANCH  67  80
ENDBRANCH  41  42
ENDBRANCH  33  36
ENDBRANCH  31  32
ENDBRANCH  30  31
ENDBRANCH   1  30
TORSDOF 13
ENDMDL
MODEL 2
REMARK VINA RESULT:     -12.1      2.296      7.847
REMARK SMILES Cc1cc(C)c(NS(=O)(=O)c2cccc3cc(C)cnc23)c(C(=O)NCCCNC(=O)c2ccc(-c3c4nc(c(-c5ccccc5)c5ccc([nH]5)c(-c5ccccc5)c5nc(c(-c6ccccc6)c6ccc3[nH]6)C=C5)C=C4)cc2)c1
REMARK SMILES IDX 26 1 25 2 23 3 24 4 22 6 1 7 2 8 3 9 80 10 4 11 5 12 6 13
REMARK SMILES IDX 7 14 8 16 9 17 10 18 11 19 12 20 21 21 13 22 15 23 20 24
REMARK SMILES IDX 14 25 16 26 19 27 17 28 18 29 27 30 28 31 29 32 30 33 31 35
REMARK SMILES IDX 32 36 33 37 79 38 34 39 78 40 35 41 36 42 37 43 72 44 38 45
REMARK SMILES IDX 77 46 71 47 73 48 39 49 76 50 70 51 69 52 40 54 62 55 47 56
REMARK SMILES IDX 61 57 48 58 51 59 60 60 74 61 49 62 50 63 59 65 75 66 52 67
REMARK SMILES IDX 41 68 42 69 46 70 43 71 45 72 44 73 63 74 64 75 68 76 65 77
REMARK SMILES IDX 67 78 66 79 53 80 54 81 58 82 55 83 57 84 56 85
REMARK H PARENT 25 5 7 15 29 34 73 53 51 64
REMARK Flexibility Score: inf
ROOT
ATOM      1  C   UNL A   1      36.252  23.018  23.497  1.00  0.00     0.118 C 
ENDROOT
BRANCH   1   2
ATOM      2  N   UNL A   1      35.040  23.438  22.805  1.00  0.00    -0.352 N 
ATOM      3  C   UNL A   1      33.721  23.057  22.936  1.00  0.00     0.253 C 
ATOM      4  O   UNL A   1      32.903  23.524  22.146  1.00  0.00    -0.269 OA
ATOM      5  H   UNL A   1      35.191  24.121  22.113  1.00  0.00     0.163 HD
BRANCH   3   6
ATOM      6  C   UNL A   1      33.260  22.202  24.071  1.00  0.00     0.064 A 
ATOM      7  C   UNL A   1      33.454  18.529  24.937  1.00  0.00     0.044 C 
ATOM      8  C   UNL A   1      33.288  20.011  25.092  1.00  0.00    -0.050 A 
ATOM      9  C   UNL A   1      33.205  20.633  26.340  1.00  0.00     0.009 A 
ATOM     10  C   UNL A   1      33.313  20.813  23.957  1.00  0.00     0.019 A 
ATOM     11  C   UNL A   1      33.018  22.030  26.464  1.00  0.00    -0.026 A 
ATOM     12  C   UNL A   1      33.027  22.612  27.848  1.00  0.00     0.046 C 
ATOM     13  C   UNL A   1      32.872  22.799  25.298  1.00  0.00     0.065 A 
BRANCH  13  14
ATOM     14  N   UNL A   1      32.434  24.168  25.247  1.00  0.00    -0.278 N 
ATOM     15  H   UNL A   1      33.151  24.842  25.238  1.00  0.00     0.180 HD
BRANCH  14  16
ATOM     16  S   UNL A   1      30.873  24.776  25.197  1.00  0.00     0.264 S 
ATOM     17  O   UNL A   1      30.286  24.165  24.015  1.00  0.00    -0.201 OA
ATOM     18  O   UNL A   1      30.285  24.493  26.492  1.00  0.00    -0.201 OA
BRANCH  16  19
ATOM     19  C   UNL A   1      30.704  26.525  24.952  1.00  0.00     0.114 A 
ATOM     20  C   UNL A   1      29.984  26.878  23.786  1.00  0.00     0.024 A 
ATOM     21  C   UNL A   1      31.409  27.474  25.684  1.00  0.00     0.091 A 
ATOM     22  C   UNL A   1      30.067  28.157  23.259  1.00  0.00     0.002 A 
ATOM     23  C   UNL A   1      31.584  28.734  25.056  1.00  0.00     0.002 A 
ATOM     24  N   UNL A   1      31.962  27.237  26.894  1.00  0.00    -0.255 NA
ATOM     25  C   UNL A   1      30.910  29.071  23.870  1.00  0.00     0.010 A 
ATOM     26  C   UNL A   1      32.512  29.631  25.594  1.00  0.00     0.015 A 
ATOM     27  C   UNL A   1      32.820  28.151  27.408  1.00  0.00     0.115 A 
ATOM     28  C   UNL A   1      33.200  29.311  26.758  1.00  0.00    -0.032 A 
ATOM     29  C   UNL A   1      34.333  30.160  27.236  1.00  0.00     0.046 C 
ENDBRANCH  16  19
ENDBRANCH  14  16
ENDBRANCH  13  14
ENDBRANCH   3   6
ENDBRANCH   1   2
BRANCH   1  30
ATOM     30  C   UNL A   1      36.508  23.929  24.699  1.00  0.00     0.042 C 
BRANCH  30  31
ATOM     31  C   UNL A   1      36.584  23.152  26.006  1.00  0.00     0.118 C 
BRANCH  31  32
ATOM     32  N   UNL A   1      37.750  22.282  26.039  1.00  0.00    -0.352 N 
ATOM     33  C   UNL A   1      39.066  22.585  26.273  1.00  0.00     0.251 C 
ATOM     34  H   UNL A   1      37.566  21.330  25.865  1.00  0.00     0.163 HD
ATOM     35  O   UNL A   1      39.934  21.753  26.014  1.00  0.00    -0.269 OA
BRANCH  33  36
ATOM     36  C   UNL A   1      39.448  23.902  26.825  1.00  0.00     0.039 A 
ATOM     37  C   UNL A   1      39.180  24.168  28.170  1.00  0.00     0.014 A 
ATOM     38  C   UNL A   1      40.024  24.887  26.019  1.00  0.00     0.014 A 
ATOM     39  C   UNL A   1      39.525  25.404  28.714  1.00  0.00     0.010 A 
ATOM     40  C   UNL A   1      40.444  26.088  26.582  1.00  0.00     0.010 A 
ATOM     41  C   UNL A   1      40.185  26.366  27.931  1.00  0.00    -0.014 A 
BRANCH  41  42
ATOM     42  C   UNL A   1      40.600  27.667  28.509  1.00  0.00     0.031 A 
ATOM     43  C   UNL A   1      42.024  27.888  28.938  1.00  0.00     0.074 A 
ATOM     44  C   UNL A   1      39.681  28.636  28.685  1.00  0.00     0.049 A 
ATOM     45  N   UNL A   1      42.568  28.950  29.476  1.00  0.00    -0.248 NA
ATOM     46  C   UNL A   1      42.956  26.762  28.762  1.00  0.00     0.031 C 
ATOM     47  C   UNL A   1      38.259  28.527  28.347  1.00  0.00     0.029 A 
ATOM     48  N   UNL A   1      39.806  29.904  29.190  1.00  0.00    -0.354 N 
ATOM     49  C   UNL A   1      43.897  28.615  29.713  1.00  0.00     0.074 A 
ATOM     50  C   UNL A   1      44.062  27.235  29.315  1.00  0.00     0.031 C 
ATOM     51  C   UNL A   1      37.654  29.693  28.617  1.00  0.00     0.029 A 
ATOM     52  C   UNL A   1      38.630  30.615  29.187  1.00  0.00     0.049 A 
ATOM     53  H   UNL A   1      40.656  30.271  29.524  1.00  0.00     0.167 HD
ATOM     54  C   UNL A   1      44.894  29.393  30.198  1.00  0.00     0.031 A 
ATOM     55  C   UNL A   1      38.368  31.870  29.597  1.00  0.00     0.031 A 
ATOM     56  C   UNL A   1      44.726  30.766  30.592  1.00  0.00     0.049 A 
ATOM     57  C   UNL A   1      39.489  32.706  30.151  1.00  0.00     0.074 A 
ATOM     58  C   UNL A   1      45.682  31.656  31.051  1.00  0.00     0.029 A 
ATOM     59  N   UNL A   1      43.518  31.447  30.579  1.00  0.00    -0.354 N 
ATOM     60  N   UNL A   1      40.754  32.396  30.302  1.00  0.00    -0.248 NA
ATOM     61  C   UNL A   1      39.144  34.070  30.574  1.00  0.00     0.031 C 
ATOM     62  C   UNL A   1      45.041  32.858  31.369  1.00  0.00     0.029 A 
ATOM     63  C   UNL A   1      43.699  32.739  31.046  1.00  0.00     0.049 A 
ATOM     64  H   UNL A   1      42.659  31.070  30.282  1.00  0.00     0.167 HD
ATOM     65  C   UNL A   1      41.362  33.536  30.811  1.00  0.00     0.074 A 
ATOM     66  C   UNL A   1      40.330  34.548  30.922  1.00  0.00     0.031 C 
ATOM     67  C   UNL A   1      42.659  33.730  31.155  1.00  0.00     0.031 A 
BRANCH  54  68
ATOM     68  C   UNL A   1      46.256  28.767  30.335  1.00  0.00    -0.014 A 
ATOM     69  C   UNL A   1      46.699  28.249  31.563  1.00  0.00     0.009 A 
ATOM     70  C   UNL A   1      47.096  28.666  29.216  1.00  0.00     0.009 A 
ATOM     71  C   UNL A   1      47.970  27.681  31.676  1.00  0.00     0.001 A 
ATOM     72  C   UNL A   1      48.354  28.068  29.323  1.00  0.00     0.001 A 
ATOM     73  C   UNL A   1      48.794  27.587  30.555  1.00  0.00     0.000 A 
ENDBRANCH  54  68
BRANCH  55  74
ATOM     74  C   UNL A   1      36.992  32.420  29.483  1.00  0.00    -0.014 A 
ATOM     75  C   UNL A   1      36.601  33.129  28.337  1.00  0.00     0.009 A 
ATOM     76  C   UNL A   1      36.062  32.243  30.520  1.00  0.00     0.009 A 
ATOM     77  C   UNL A   1      35.318  33.676  28.245  1.00  0.00     0.001 A 
ATOM     78  C   UNL A   1      34.771  32.764  30.411  1.00  0.00     0.001 A 
ATOM     79  C   UNL A   1      34.403  33.489  29.280  1.00  0.00     0.000 A 
ENDBRANCH  55  74
BRANCH  67  80
ATOM     80  C   UNL A   1      43.038  35.098  31.649  1.00  0.00    -0.014 A 
ATOM     81  C   UNL A   1      43.534  36.082  30.779  1.00  0.00     0.009 A 
ATOM     82  C   UNL A   1      42.870  35.415  33.007  1.00  0.00     0.009 A 
ATOM     83  C   UNL A   1      43.893  37.340  31.266  1.00  0.00     0.001 A 
ATOM     84  C   UNL A   1      43.198  36.684  33.485  1.00  0.00     0.001 A 
ATOM     85  C   UNL A   1      43.721  37.641  32.616  1.00  0.00     0.000 A 
ENDBRANCH  67  80
ENDBRANCH  41  42
ENDBRANCH  33  36
ENDBRANCH  31  32
ENDBRANCH  30  31
ENDBRANCH   1  30
TORSDOF 13
ENDMDL
MODEL 3
REMARK VINA RESULT:     -11.9      2.408      7.918
REMARK SMILES Cc1cc(C)c(NS(=O)(=O)c2cccc3cc(C)cnc23)c(C(=O)NCCCNC(=O)c2ccc(-c3c4nc(c(-c5ccccc5)c5ccc([nH]5)c(-c5ccccc5)c5nc(c(-c6ccccc6)c6ccc3[nH]6)C=C5)C=C4)cc2)c1
REMARK SMILES IDX 26 1 25 2 23 3 24 4 22 6 1 7 2 8 3 9 80 10 4 11 5 12 6 13
REMARK SMILES IDX 7 14 8 16 9 17 10 18 11 19 12 20 21 21 13 22 15 23 20 24
REMARK SMILES IDX 14 25 16 26 19 27 17 28 18 29 27 30 28 31 29 32 30 33 31 35
REMARK SMILES IDX 32 36 33 37 79 38 34 39 78 40 35 41 36 42 37 43 72 44 38 45
REMARK SMILES IDX 77 46 71 47 73 48 39 49 76 50 70 51 69 52 40 54 62 55 47 56
REMARK SMILES IDX 61 57 48 58 51 59 60 60 74 61 49 62 50 63 59 65 75 66 52 67
REMARK SMILES IDX 41 68 42 69 46 70 43 71 45 72 44 73 63 74 64 75 68 76 65 77
REMARK SMILES IDX 67 78 66 79 53 80 54 81 58 82 55 83 57 84 56 85
REMARK H PARENT 25 5 7 15 29 34 73 53 51 64
REMARK Flexibility Score: inf
ROOT
ATOM      1  C   UNL A   1      37.546  21.239  24.764  1.00  0.00     0.118 C 
ENDROOT
BRANCH   1   2
ATOM      2  N   UNL A   1      36.656  21.381  25.909  1.00  0.00    -0.352 N 
ATOM      3  C   UNL A   1      35.281  21.353  26.020  1.00  0.00     0.253 C 
ATOM      4  O   UNL A   1      34.785  21.591  27.120  1.00  0.00    -0.269 OA
ATOM      5  H   UNL A   1      37.122  21.526  26.763  1.00  0.00     0.163 HD
BRANCH   3   6
ATOM      6  C   UNL A   1      34.410  20.928  24.883  1.00  0.00     0.064 A 
ATOM      7  C   UNL A   1      32.801  17.694  23.777  1.00  0.00     0.044 C 
ATOM      8  C   UNL A   1      33.084  19.160  23.904  1.00  0.00    -0.050 A 
ATOM      9  C   UNL A   1      32.240  20.139  23.372  1.00  0.00     0.009 A 
ATOM     10  C   UNL A   1      34.174  19.572  24.662  1.00  0.00     0.019 A 
ATOM     11  C   UNL A   1      32.542  21.517  23.478  1.00  0.00    -0.026 A 
ATOM     12  C   UNL A   1      31.530  22.492  22.948  1.00  0.00     0.046 C 
ATOM     13  C   UNL A   1      33.741  21.903  24.099  1.00  0.00     0.065 A 
BRANCH  13  14
ATOM     14  N   UNL A   1      34.313  23.221  24.071  1.00  0.00    -0.278 N 
ATOM     15  H   UNL A   1      34.970  23.383  23.356  1.00  0.00     0.180 HD
BRANCH  14  16
ATOM     16  S   UNL A   1      34.017  24.523  25.084  1.00  0.00     0.264 S 
ATOM     17  O   UNL A   1      32.936  24.071  25.945  1.00  0.00    -0.201 OA
ATOM     18  O   UNL A   1      35.290  24.867  25.688  1.00  0.00    -0.201 OA
BRANCH  16  19
ATOM     19  C   UNL A   1      33.417  26.009  24.322  1.00  0.00     0.114 A 
ATOM     20  C   UNL A   1      33.556  26.033  22.913  1.00  0.00     0.024 A 
ATOM     21  C   UNL A   1      33.068  27.150  25.035  1.00  0.00     0.091 A 
ATOM     22  C   UNL A   1      33.479  27.225  22.211  1.00  0.00     0.002 A 
ATOM     23  C   UNL A   1      33.125  28.371  24.315  1.00  0.00     0.002 A 
ATOM     24  N   UNL A   1      32.745  27.152  26.347  1.00  0.00    -0.255 NA
ATOM     25  C   UNL A   1      33.313  28.402  22.922  1.00  0.00     0.010 A 
ATOM     26  C   UNL A   1      33.069  29.574  25.024  1.00  0.00     0.015 A 
ATOM     27  C   UNL A   1      32.652  28.340  26.993  1.00  0.00     0.115 A 
ATOM     28  C   UNL A   1      32.898  29.566  26.403  1.00  0.00    -0.032 A 
ATOM     29  C   UNL A   1      33.036  30.822  27.199  1.00  0.00     0.046 C 
ENDBRANCH  16  19
ENDBRANCH  14  16
ENDBRANCH  13  14
ENDBRANCH   3   6
ENDBRANCH   1   2
BRANCH   1  30
ATOM     30  C   UNL A   1      38.334  19.932  24.876  1.00  0.00     0.042 C 
BRANCH  30  31
ATOM     31  C   UNL A   1      39.187  19.878  26.136  1.00  0.00     0.118 C 
BRANCH  31  32
ATOM     32  N   UNL A   1      40.439  19.174  25.899  1.00  0.00    -0.352 N 
ATOM     33  C   UNL A   1      41.726  19.642  25.917  1.00  0.00     0.251 C 
ATOM     34  H   UNL A   1      40.346  18.215  25.694  1.00  0.00     0.163 HD
ATOM     35  O   UNL A   1      42.628  18.949  25.450  1.00  0.00    -0.269 OA
BRANCH  33  36
ATOM     36  C   UNL A   1      42.037  20.971  26.483  1.00  0.00     0.039 A 
ATOM     37  C   UNL A   1      42.389  22.005  25.611  1.00  0.00     0.014 A 
ATOM     38  C   UNL A   1      42.028  21.192  27.863  1.00  0.00     0.014 A 
ATOM     39  C   UNL A   1      42.692  23.267  26.120  1.00  0.00     0.010 A 
ATOM     40  C   UNL A   1      42.249  22.472  28.363  1.00  0.00     0.010 A 
ATOM     41  C   UNL A   1      42.599  23.519  27.499  1.00  0.00    -0.014 A 
BRANCH  41  42
ATOM     42  C   UNL A   1      42.873  24.868  28.048  1.00  0.00     0.031 A 
ATOM     43  C   UNL A   1      44.272  25.263  28.432  1.00  0.00     0.074 A 
ATOM     44  C   UNL A   1      41.851  25.726  28.237  1.00  0.00     0.049 A 
ATOM     45  N   UNL A   1      44.701  26.391  28.940  1.00  0.00    -0.248 NA
ATOM     46  C   UNL A   1      45.325  24.252  28.245  1.00  0.00     0.031 C 
ATOM     47  C   UNL A   1      40.443  25.445  27.941  1.00  0.00     0.029 A 
ATOM     48  N   UNL A   1      41.839  27.008  28.720  1.00  0.00    -0.354 N 
ATOM     49  C   UNL A   1      46.066  26.218  29.143  1.00  0.00     0.074 A 
ATOM     50  C   UNL A   1      46.382  24.861  28.760  1.00  0.00     0.031 C 
ATOM     51  C   UNL A   1      39.712  26.536  28.212  1.00  0.00     0.029 A 
ATOM     52  C   UNL A   1      40.588  27.576  28.741  1.00  0.00     0.049 A 
ATOM     53  H   UNL A   1      42.648  27.478  29.025  1.00  0.00     0.167 HD
ATOM     54  C   UNL A   1      46.977  27.117  29.589  1.00  0.00     0.031 A 
ATOM     55  C   UNL A   1      40.190  28.798  29.142  1.00  0.00     0.031 A 
ATOM     56  C   UNL A   1      46.658  28.467  29.969  1.00  0.00     0.049 A 
ATOM     57  C   UNL A   1      41.219  29.769  29.651  1.00  0.00     0.074 A 
ATOM     58  C   UNL A   1      47.514  29.471  30.388  1.00  0.00     0.029 A 
ATOM     59  N   UNL A   1      45.378  29.001  29.981  1.00  0.00    -0.354 N 
ATOM     60  N   UNL A   1      42.515  29.613  29.770  1.00  0.00    -0.248 NA
ATOM     61  C   UNL A   1      40.727  31.090  30.065  1.00  0.00     0.031 C 
ATOM     62  C   UNL A   1      46.745  30.594  30.708  1.00  0.00     0.029 A 
ATOM     63  C   UNL A   1      45.419  30.312  30.425  1.00  0.00     0.049 A 
ATOM     64  H   UNL A   1      44.563  28.520  29.714  1.00  0.00     0.167 HD
ATOM     65  C   UNL A   1      42.998  30.825  30.246  1.00  0.00     0.074 A 
ATOM     66  C   UNL A   1      41.858  31.710  30.372  1.00  0.00     0.031 C 
ATOM     67  C   UNL A   1      44.272  31.176  30.550  1.00  0.00     0.031 A 
BRANCH  54  68
ATOM     68  C   UNL A   1      48.407  26.657  29.696  1.00  0.00    -0.014 A 
ATOM     69  C   UNL A   1      48.885  26.029  30.857  1.00  0.00     0.009 A 
ATOM     70  C   UNL A   1      49.279  26.827  28.610  1.00  0.00     0.009 A 
ATOM     71  C   UNL A   1      50.217  25.619  30.944  1.00  0.00     0.001 A 
ATOM     72  C   UNL A   1      50.602  26.387  28.687  1.00  0.00     0.001 A 
ATOM     73  C   UNL A   1      51.073  25.794  29.857  1.00  0.00     0.000 A 
ENDBRANCH  54  68
BRANCH  55  74
ATOM     74  C   UNL A   1      38.756  29.180  29.059  1.00  0.00    -0.014 A 
ATOM     75  C   UNL A   1      37.922  29.065  30.182  1.00  0.00     0.009 A 
ATOM     76  C   UNL A   1      38.211  29.660  27.858  1.00  0.00     0.009 A 
ATOM     77  C   UNL A   1      36.566  29.391  30.095  1.00  0.00     0.001 A 
ATOM     78  C   UNL A   1      36.863  30.016  27.783  1.00  0.00     0.001 A 
ATOM     79  C   UNL A   1      36.039  29.870  28.897  1.00  0.00     0.000 A 
ENDBRANCH  55  74
BRANCH  67  80
ATOM     80  C   UNL A   1      44.500  32.588  31.014  1.00  0.00    -0.014 A 
ATOM     81  C   UNL A   1      44.799  33.619  30.110  1.00  0.00     0.009 A 
ATOM     82  C   UNL A   1      44.386  32.894  32.380  1.00  0.00     0.009 A 
ATOM     83  C   UNL A   1      45.022  34.919  30.569  1.00  0.00     0.001 A 
ATOM     84  C   UNL A   1      44.576  34.200  32.832  1.00  0.00     0.001 A 
ATOM     85  C   UNL A   1      44.906  35.209  31.927  1.00  0.00     0.000 A 
ENDBRANCH  67  80
ENDBRANCH  41  42
ENDBRANCH  33  36
ENDBRANCH  31  32
ENDBRANCH  30  31
ENDBRANCH   1  30
TORSDOF 13
ENDMDL
