MODEL 1
REMARK VINA RESULT:     -12.2      0.000      0.000
REMARK SMILES Cc1c(/C=C/C(=O)NCCCNC(=O)c2ccc(-c3c4nc(c(-c5ccccc5)c5ccc([nH]5)c(-c5ccccc5)c5nc(c(-c6ccccc6)c6ccc3[nH]6)C=C5)C=C4)cc2)cccc1C(=O)N1C[C@@H](C)[C@@H](C)C1
REMARK SMILES IDX 9 1 8 2 6 3 7 4 5 6 4 7 3 8 1 9 2 10 66 11 63 12 65 13 64 14
REMARK SMILES IDX 67 15 68 16 69 17 70 18 75 19 71 20 73 21 72 22 74 23 10 24
REMARK SMILES IDX 11 25 12 26 13 27 14 29 15 30 16 31 62 32 17 33 61 34 18 35
REMARK SMILES IDX 19 36 20 37 55 38 21 39 60 40 54 41 56 42 22 43 59 44 53 45
REMARK SMILES IDX 52 46 23 48 45 49 30 50 44 51 31 52 34 53 43 54 57 55 32 56
REMARK SMILES IDX 33 57 42 59 58 60 35 61 24 62 25 63 29 64 26 65 28 66 27 67
REMARK SMILES IDX 46 68 47 69 51 70 48 71 50 72 49 73 36 74 37 75 41 76 38 77
REMARK SMILES IDX 40 78 39 79
REMARK H PARENT 8 5 12 28 56 47 34 58
REMARK Flexibility Score: inf
ROOT
ATOM      1  C   UNL A   1      35.693  21.184  25.792  1.00  0.00     0.118 C 
ENDROOT
BRANCH   1   2
ATOM      2  N   UNL A   1      34.996  20.032  25.233  1.00  0.00    -0.352 N 
ATOM      3  C   UNL A   1      33.761  19.986  24.644  1.00  0.00     0.244 C 
ATOM      4  O   UNL A   1      33.349  18.962  24.112  1.00  0.00    -0.270 OA
ATOM      5  H   UNL A   1      35.477  19.174  25.286  1.00  0.00     0.163 HD
BRANCH   3   6
ATOM      6  C   UNL A   1      32.967  21.232  24.606  1.00  0.00     0.072 C 
ATOM      7  C   UNL A   1      33.250  22.174  23.695  1.00  0.00     0.014 C 
BRANCH   7   8
ATOM      8  C   UNL A   1      32.444  23.390  23.482  1.00  0.00    -0.022 A 
ATOM      9  C   UNL A   1      34.537  24.821  23.541  1.00  0.00     0.046 C 
ATOM     10  C   UNL A   1      33.045  24.678  23.405  1.00  0.00    -0.031 A 
ATOM     11  C   UNL A   1      32.221  25.811  23.199  1.00  0.00     0.043 A 
ATOM     12  C   UNL A   1      31.047  23.271  23.433  1.00  0.00     0.008 A 
ATOM     13  C   UNL A   1      30.826  25.654  23.143  1.00  0.00     0.014 A 
ATOM     14  C   UNL A   1      30.243  24.394  23.265  1.00  0.00     0.001 A 
BRANCH  11  15
ATOM     15  C   UNL A   1      32.711  27.210  23.353  1.00  0.00     0.254 C 
ATOM     16  O   UNL A   1      33.098  27.775  22.328  1.00  0.00    -0.269 OA
BRANCH  15  17
ATOM     17  N   UNL A   1      32.628  27.880  24.561  1.00  0.00    -0.338 N 
ATOM     18  C   UNL A   1      33.844  28.127  25.310  1.00  0.00     0.123 C 
ATOM     19  C   UNL A   1      31.443  28.252  25.322  1.00  0.00     0.123 C 
ATOM     20  C   UNL A   1      33.398  28.447  26.731  1.00  0.00     0.010 C 
ATOM     21  C   UNL A   1      31.972  29.014  26.554  1.00  0.00     0.010 C 
ATOM     22  C   UNL A   1      34.409  29.332  27.449  1.00  0.00     0.010 C 
ATOM     23  C   UNL A   1      31.899  30.528  26.368  1.00  0.00     0.010 C 
ENDBRANCH  15  17
ENDBRANCH  11  15
ENDBRANCH   7   8
ENDBRANCH   3   6
ENDBRANCH   1   2
BRANCH   1  24
ATOM     24  C   UNL A   1      37.098  21.336  25.221  1.00  0.00     0.042 C 
BRANCH  24  25
ATOM     25  C   UNL A   1      37.862  22.520  25.779  1.00  0.00     0.118 C 
BRANCH  25  26
ATOM     26  N   UNL A   1      39.140  22.166  26.392  1.00  0.00    -0.352 N 
ATOM     27  C   UNL A   1      40.088  22.979  26.992  1.00  0.00     0.251 C 
ATOM     28  H   UNL A   1      39.360  21.206  26.376  1.00  0.00     0.163 HD
ATOM     29  O   UNL A   1      41.128  22.503  27.409  1.00  0.00    -0.269 OA
BRANCH  27  30
ATOM     30  C   UNL A   1      39.765  24.407  27.237  1.00  0.00     0.039 A 
ATOM     31  C   UNL A   1      40.277  25.365  26.352  1.00  0.00     0.014 A 
ATOM     32  C   UNL A   1      39.161  24.802  28.423  1.00  0.00     0.014 A 
ATOM     33  C   UNL A   1      40.404  26.687  26.772  1.00  0.00     0.010 A 
ATOM     34  C   UNL A   1      39.410  26.069  28.892  1.00  0.00     0.010 A 
ATOM     35  C   UNL A   1      40.067  27.005  28.085  1.00  0.00    -0.014 A 
BRANCH  35  36
ATOM     36  C   UNL A   1      40.401  28.249  28.760  1.00  0.00     0.031 A 
ATOM     37  C   UNL A   1      39.365  29.286  28.953  1.00  0.00     0.074 A 
ATOM     38  C   UNL A   1      41.574  28.343  29.426  1.00  0.00     0.049 A 
ATOM     39  N   UNL A   1      39.606  30.473  29.388  1.00  0.00    -0.248 NA
ATOM     40  C   UNL A   1      37.959  29.075  28.619  1.00  0.00     0.031 C 
ATOM     41  C   UNL A   1      41.891  29.228  30.543  1.00  0.00     0.029 A 
ATOM     42  N   UNL A   1      42.798  27.773  29.077  1.00  0.00    -0.354 N 
ATOM     43  C   UNL A   1      38.400  31.057  29.691  1.00  0.00     0.074 A 
ATOM     44  C   UNL A   1      37.406  30.189  29.105  1.00  0.00     0.031 C 
ATOM     45  C   UNL A   1      43.224  29.333  30.651  1.00  0.00     0.029 A 
ATOM     46  C   UNL A   1      43.799  28.680  29.489  1.00  0.00     0.049 A 
ATOM     47  H   UNL A   1      42.937  26.907  28.629  1.00  0.00     0.167 HD
ATOM     48  C   UNL A   1      38.380  32.140  30.515  1.00  0.00     0.031 A 
ATOM     49  C   UNL A   1      44.603  29.301  28.573  1.00  0.00     0.031 A 
ATOM     50  C   UNL A   1      39.728  32.600  30.851  1.00  0.00     0.049 A 
ATOM     51  C   UNL A   1      44.507  30.815  28.554  1.00  0.00     0.074 A 
ATOM     52  C   UNL A   1      40.523  32.552  31.984  1.00  0.00     0.029 A 
ATOM     53  N   UNL A   1      40.560  33.001  29.820  1.00  0.00    -0.354 N 
ATOM     54  N   UNL A   1      43.654  31.512  29.251  1.00  0.00    -0.248 NA
ATOM     55  C   UNL A   1      45.297  31.656  27.652  1.00  0.00     0.031 C 
ATOM     56  C   UNL A   1      41.837  32.969  31.623  1.00  0.00     0.029 A 
ATOM     57  C   UNL A   1      41.830  33.278  30.277  1.00  0.00     0.049 A 
ATOM     58  H   UNL A   1      40.279  33.080  28.881  1.00  0.00     0.167 HD
ATOM     59  C   UNL A   1      43.700  32.824  28.855  1.00  0.00     0.074 A 
ATOM     60  C   UNL A   1      44.757  32.870  27.863  1.00  0.00     0.031 C 
ATOM     61  C   UNL A   1      42.818  33.753  29.323  1.00  0.00     0.031 A 
BRANCH  48  62
ATOM     62  C   UNL A   1      37.143  32.689  31.186  1.00  0.00    -0.014 A 
ATOM     63  C   UNL A   1      36.666  32.072  32.357  1.00  0.00     0.009 A 
ATOM     64  C   UNL A   1      36.380  33.770  30.714  1.00  0.00     0.009 A 
ATOM     65  C   UNL A   1      35.465  32.457  32.969  1.00  0.00     0.001 A 
ATOM     66  C   UNL A   1      35.167  34.147  31.304  1.00  0.00     0.001 A 
ATOM     67  C   UNL A   1      34.703  33.483  32.429  1.00  0.00     0.000 A 
ENDBRANCH  48  62
BRANCH  49  68
ATOM     68  C   UNL A   1      44.844  28.468  27.362  1.00  0.00    -0.014 A 
ATOM     69  C   UNL A   1      45.812  27.447  27.427  1.00  0.00     0.009 A 
ATOM     70  C   UNL A   1      43.886  28.425  26.337  1.00  0.00     0.009 A 
ATOM     71  C   UNL A   1      45.748  26.350  26.563  1.00  0.00     0.001 A 
ATOM     72  C   UNL A   1      43.836  27.331  25.466  1.00  0.00     0.001 A 
ATOM     73  C   UNL A   1      44.741  26.280  25.603  1.00  0.00     0.000 A 
ENDBRANCH  49  68
BRANCH  61  74
ATOM     74  C   UNL A   1      42.756  35.191  28.878  1.00  0.00    -0.014 A 
ATOM     75  C   UNL A   1      42.304  35.586  27.614  1.00  0.00     0.009 A 
ATOM     76  C   UNL A   1      43.278  36.206  29.712  1.00  0.00     0.009 A 
ATOM     77  C   UNL A   1      42.320  36.935  27.229  1.00  0.00     0.001 A 
ATOM     78  C   UNL A   1      43.317  37.546  29.326  1.00  0.00     0.001 A 
ATOM     79  C   UNL A   1      42.825  37.913  28.083  1.00  0.00     0.000 A 
ENDBRANCH  61  74
ENDBRANCH  35  36
ENDBRANCH  27  30
ENDBRANCH  25  26
ENDBRANCH  24  25
ENDBRANCH   1  24
TORSDOF 13
ENDMDL
MODEL 2
REMARK VINA RESULT:     -12.1      3.187      8.684
REMARK SMILES Cc1c(/C=C/C(=O)NCCCNC(=O)c2ccc(-c3c4nc(c(-c5ccccc5)c5ccc([nH]5)c(-c5ccccc5)c5nc(c(-c6ccccc6)c6ccc3[nH]6)C=C5)C=C4)cc2)cccc1C(=O)N1C[C@@H](C)[C@@H](C)C1
REMARK SMILES IDX 9 1 8 2 6 3 7 4 5 6 4 7 3 8 1 9 2 10 66 11 63 12 65 13 64 14
REMARK SMILES IDX 67 15 68 16 69 17 70 18 75 19 71 20 73 21 72 22 74 23 10 24
REMARK SMILES IDX 11 25 12 26 13 27 14 29 15 30 16 31 62 32 17 33 61 34 18 35
REMARK SMILES IDX 19 36 20 37 55 38 21 39 60 40 54 41 56 42 22 43 59 44 53 45
REMARK SMILES IDX 52 46 23 48 45 49 30 50 44 51 31 52 34 53 43 54 57 55 32 56
REMARK SMILES IDX 33 57 42 59 58 60 35 61 24 62 25 63 29 64 26 65 28 66 27 67
REMARK SMILES IDX 46 68 47 69 51 70 48 71 50 72 49 73 36 74 37 75 41 76 38 77
REMARK SMILES IDX 40 78 39 79
REMARK H PARENT 8 5 12 28 56 47 34 58
REMARK Flexibility Score: inf
ROOT
ATOM      1  C   UNL A   1      31.636  29.763  26.028  1.00  0.00     0.118 C 
ENDROOT
BRANCH   1   2
ATOM      2  N   UNL A   1      31.166  30.105  24.691  1.00  0.00    -0.352 N 
ATOM      3  C   UNL A   1      30.630  29.279  23.740  1.00  0.00     0.244 C 
ATOM      4  O   UNL A   1      30.169  29.728  22.697  1.00  0.00    -0.270 OA
ATOM      5  H   UNL A   1      31.243  31.054  24.440  1.00  0.00     0.163 HD
BRANCH   3   6
ATOM      6  C   UNL A   1      30.562  27.833  24.039  1.00  0.00     0.072 C 
ATOM      7  C   UNL A   1      31.567  27.028  23.665  1.00  0.00     0.014 C 
BRANCH   7   8
ATOM      8  C   UNL A   1      31.664  25.602  24.026  1.00  0.00    -0.022 A 
ATOM      9  C   UNL A   1      33.455  26.130  25.743  1.00  0.00     0.046 C 
ATOM     10  C   UNL A   1      32.570  25.147  25.026  1.00  0.00    -0.031 A 
ATOM     11  C   UNL A   1      32.621  23.765  25.330  1.00  0.00     0.043 A 
ATOM     12  C   UNL A   1      30.899  24.673  23.306  1.00  0.00     0.008 A 
ATOM     13  C   UNL A   1      31.831  22.863  24.598  1.00  0.00     0.014 A 
ATOM     14  C   UNL A   1      30.981  23.313  23.589  1.00  0.00     0.001 A 
BRANCH  11  15
ATOM     15  C   UNL A   1      33.694  23.157  26.167  1.00  0.00     0.254 C 
ATOM     16  O   UNL A   1      33.383  22.837  27.316  1.00  0.00    -0.269 OA
BRANCH  15  17
ATOM     17  N   UNL A   1      34.941  22.860  25.645  1.00  0.00    -0.338 N 
ATOM     18  C   UNL A   1      36.123  23.252  26.388  1.00  0.00     0.123 C 
ATOM     19  C   UNL A   1      35.282  22.338  24.329  1.00  0.00     0.123 C 
ATOM     20  C   UNL A   1      37.272  23.208  25.391  1.00  0.00     0.010 C 
ATOM     21  C   UNL A   1      36.814  22.170  24.342  1.00  0.00     0.010 C 
ATOM     22  C   UNL A   1      38.604  22.948  26.083  1.00  0.00     0.010 C 
ATOM     23  C   UNL A   1      37.232  20.730  24.635  1.00  0.00     0.010 C 
ENDBRANCH  15  17
ENDBRANCH  11  15
ENDBRANCH   7   8
ENDBRANCH   3   6
ENDBRANCH   1   2
BRANCH   1  24
ATOM     24  C   UNL A   1      32.274  30.956  26.733  1.00  0.00     0.042 C 
BRANCH  24  25
ATOM     25  C   UNL A   1      33.622  30.650  27.354  1.00  0.00     0.118 C 
BRANCH  25  26
ATOM     26  N   UNL A   1      34.143  31.723  28.197  1.00  0.00    -0.352 N 
ATOM     27  C   UNL A   1      35.269  31.745  29.004  1.00  0.00     0.251 C 
ATOM     28  H   UNL A   1      33.616  32.555  28.190  1.00  0.00     0.163 HD
ATOM     29  O   UNL A   1      35.520  32.726  29.679  1.00  0.00    -0.269 OA
BRANCH  27  30
ATOM     30  C   UNL A   1      36.230  30.616  28.936  1.00  0.00     0.039 A 
ATOM     31  C   UNL A   1      36.320  29.753  30.037  1.00  0.00     0.014 A 
ATOM     32  C   UNL A   1      37.164  30.544  27.912  1.00  0.00     0.014 A 
ATOM     33  C   UNL A   1      37.477  29.000  30.224  1.00  0.00     0.010 A 
ATOM     34  C   UNL A   1      38.359  29.912  28.160  1.00  0.00     0.010 A 
ATOM     35  C   UNL A   1      38.535  29.170  29.335  1.00  0.00    -0.014 A 
BRANCH  35  36
ATOM     36  C   UNL A   1      39.892  28.689  29.542  1.00  0.00     0.031 A 
ATOM     37  C   UNL A   1      40.304  27.382  28.986  1.00  0.00     0.074 A 
ATOM     38  C   UNL A   1      40.829  29.541  30.013  1.00  0.00     0.049 A 
ATOM     39  N   UNL A   1      41.423  26.805  29.256  1.00  0.00    -0.248 NA
ATOM     40  C   UNL A   1      39.450  26.589  28.106  1.00  0.00     0.031 C 
ATOM     41  C   UNL A   1      42.275  29.462  29.826  1.00  0.00     0.029 A 
ATOM     42  N   UNL A   1      40.656  30.565  30.944  1.00  0.00    -0.354 N 
ATOM     43  C   UNL A   1      41.577  25.766  28.371  1.00  0.00     0.074 A 
ATOM     44  C   UNL A   1      40.285  25.612  27.744  1.00  0.00     0.031 C 
ATOM     45  C   UNL A   1      42.878  30.212  30.760  1.00  0.00     0.029 A 
ATOM     46  C   UNL A   1      41.850  30.636  31.694  1.00  0.00     0.049 A 
ATOM     47  H   UNL A   1      39.857  31.129  31.056  1.00  0.00     0.167 HD
ATOM     48  C   UNL A   1      42.818  25.241  28.180  1.00  0.00     0.031 A 
ATOM     49  C   UNL A   1      41.856  30.349  33.031  1.00  0.00     0.031 A 
ATOM     50  C   UNL A   1      43.805  25.819  29.093  1.00  0.00     0.049 A 
ATOM     51  C   UNL A   1      42.735  29.179  33.436  1.00  0.00     0.074 A 
ATOM     52  C   UNL A   1      44.858  26.709  28.959  1.00  0.00     0.029 A 
ATOM     53  N   UNL A   1      43.605  25.670  30.455  1.00  0.00    -0.354 N 
ATOM     54  N   UNL A   1      43.362  28.400  32.599  1.00  0.00    -0.248 NA
ATOM     55  C   UNL A   1      42.880  28.729  34.822  1.00  0.00     0.031 C 
ATOM     56  C   UNL A   1      45.310  27.062  30.263  1.00  0.00     0.029 A 
ATOM     57  C   UNL A   1      44.539  26.376  31.181  1.00  0.00     0.049 A 
ATOM     58  H   UNL A   1      42.887  25.128  30.852  1.00  0.00     0.167 HD
ATOM     59  C   UNL A   1      43.897  27.336  33.277  1.00  0.00     0.074 A 
ATOM     60  C   UNL A   1      43.584  27.593  34.669  1.00  0.00     0.031 C 
ATOM     61  C   UNL A   1      44.493  26.292  32.631  1.00  0.00     0.031 A 
BRANCH  48  62
ATOM     62  C   UNL A   1      43.203  24.334  27.035  1.00  0.00    -0.014 A 
ATOM     63  C   UNL A   1      43.845  24.882  25.909  1.00  0.00     0.009 A 
ATOM     64  C   UNL A   1      42.939  22.956  26.973  1.00  0.00     0.009 A 
ATOM     65  C   UNL A   1      44.131  24.123  24.767  1.00  0.00     0.001 A 
ATOM     66  C   UNL A   1      43.198  22.192  25.827  1.00  0.00     0.001 A 
ATOM     67  C   UNL A   1      43.787  22.779  24.718  1.00  0.00     0.000 A 
ENDBRANCH  48  62
BRANCH  49  68
ATOM     68  C   UNL A   1      40.569  30.691  33.698  1.00  0.00    -0.014 A 
ATOM     69  C   UNL A   1      40.327  32.033  34.051  1.00  0.00     0.009 A 
ATOM     70  C   UNL A   1      39.481  29.808  33.619  1.00  0.00     0.009 A 
ATOM     71  C   UNL A   1      39.020  32.504  34.202  1.00  0.00     0.001 A 
ATOM     72  C   UNL A   1      38.175  30.283  33.784  1.00  0.00     0.001 A 
ATOM     73  C   UNL A   1      37.944  31.634  34.039  1.00  0.00     0.000 A 
ENDBRANCH  49  68
BRANCH  61  74
ATOM     74  C   UNL A   1      45.033  25.054  33.298  1.00  0.00    -0.014 A 
ATOM     75  C   UNL A   1      46.333  24.959  33.806  1.00  0.00     0.009 A 
ATOM     76  C   UNL A   1      44.251  23.877  33.327  1.00  0.00     0.009 A 
ATOM     77  C   UNL A   1      46.804  23.762  34.368  1.00  0.00     0.001 A 
ATOM     78  C   UNL A   1      44.721  22.679  33.865  1.00  0.00     0.001 A 
ATOM     79  C   UNL A   1      46.000  22.624  34.397  1.00  0.00     0.000 A 
ENDBRANCH  61  74
ENDBRANCH  35  36
ENDBRANCH  27  30
ENDBRANCH  25  26
ENDBRANCH  24  25
ENDBRANCH   1  24
TORSDOF 13
ENDMDL
MODEL 3
REMARK VINA RESULT:     -12.0      3.251      8.939
REMARK SMILES Cc1c(/C=C/C(=O)NCCCNC(=O)c2ccc(-c3c4nc(c(-c5ccccc5)c5ccc([nH]5)c(-c5ccccc5)c5nc(c(-c6ccccc6)c6ccc3[nH]6)C=C5)C=C4)cc2)cccc1C(=O)N1C[C@@H](C)[C@@H](C)C1
REMARK SMILES IDX 9 1 8 2 6 3 7 4 5 6 4 7 3 8 1 9 2 10 66 11 63 12 65 13 64 14
REMARK SMILES IDX 67 15 68 16 69 17 70 18 75 19 71 20 73 21 72 22 74 23 10 24
REMARK SMILES IDX 11 25 12 26 13 27 14 29 15 30 16 31 62 32 17 33 61 34 18 35
REMARK SMILES IDX 19 36 20 37 55 38 21 39 60 40 54 41 56 42 22 43 59 44 53 45
REMARK SMILES IDX 52 46 23 48 45 49 30 50 44 51 31 52 34 53 43 54 57 55 32 56
REMARK SMILES IDX 33 57 42 59 58 60 35 61 24 62 25 63 29 64 26 65 28 66 27 67
REMARK SMILES IDX 46 68 47 69 51 70 48 71 50 72 49 73 36 74 37 75 41 76 38 77
REMARK SMILES IDX 40 78 39 79
REMARK H PARENT 8 5 12 28 56 47 34 58
REMARK Flexibility Score: inf
ROOT
ATOM      1  C   UNL A   1      32.413  29.607  25.395  1.00  0.00     0.118 C 
ENDROOT
BRANCH   1   2
ATOM      2  N   UNL A   1      31.528  28.822  26.246  1.00  0.00    -0.352 N 
ATOM      3  C   UNL A   1      31.458  27.461  26.377  1.00  0.00     0.244 C 
ATOM      4  O   UNL A   1      30.739  26.940  27.222  1.00  0.00    -0.270 OA
ATOM      5  H   UNL A   1      30.898  29.338  26.800  1.00  0.00     0.163 HD
BRANCH   3   6
ATOM      6  C   UNL A   1      32.330  26.638  25.513  1.00  0.00     0.072 C 
ATOM      7  C   UNL A   1      32.673  25.401  25.900  1.00  0.00     0.014 C 
BRANCH   7   8
ATOM      8  C   UNL A   1      33.425  24.449  25.063  1.00  0.00    -0.022 A 
ATOM      9  C   UNL A   1      33.169  22.648  26.831  1.00  0.00     0.046 C 
ATOM     10  C   UNL A   1      33.676  23.115  25.493  1.00  0.00    -0.031 A 
ATOM     11  C   UNL A   1      34.405  22.244  24.647  1.00  0.00     0.043 A 
ATOM     12  C   UNL A   1      33.967  24.902  23.851  1.00  0.00     0.008 A 
ATOM     13  C   UNL A   1      34.923  22.728  23.434  1.00  0.00     0.014 A 
ATOM     14  C   UNL A   1      34.711  24.048  23.041  1.00  0.00     0.001 A 
BRANCH  11  15
ATOM     15  C   UNL A   1      34.934  20.927  25.099  1.00  0.00     0.254 C 
ATOM     16  O   UNL A   1      35.960  20.949  25.781  1.00  0.00    -0.269 OA
BRANCH  15  17
ATOM     17  N   UNL A   1      34.246  19.748  24.865  1.00  0.00    -0.338 N 
ATOM     18  C   UNL A   1      34.979  18.593  24.385  1.00  0.00     0.123 C 
ATOM     19  C   UNL A   1      32.809  19.512  24.865  1.00  0.00     0.123 C 
ATOM     20  C   UNL A   1      33.932  17.648  23.811  1.00  0.00     0.010 C 
ATOM     21  C   UNL A   1      32.644  18.005  24.587  1.00  0.00     0.010 C 
ATOM     22  C   UNL A   1      34.394  16.199  23.870  1.00  0.00     0.010 C 
ATOM     23  C   UNL A   1      32.422  17.204  25.869  1.00  0.00     0.010 C 
ENDBRANCH  15  17
ENDBRANCH  11  15
ENDBRANCH   7   8
ENDBRANCH   3   6
ENDBRANCH   1   2
BRANCH   1  24
ATOM     24  C   UNL A   1      33.663  30.065  26.138  1.00  0.00     0.042 C 
BRANCH  24  25
ATOM     25  C   UNL A   1      33.455  30.254  27.627  1.00  0.00     0.118 C 
BRANCH  25  26
ATOM     26  N   UNL A   1      34.109  31.442  28.171  1.00  0.00    -0.352 N 
ATOM     27  C   UNL A   1      35.358  31.574  28.756  1.00  0.00     0.251 C 
ATOM     28  H   UNL A   1      33.584  32.272  28.113  1.00  0.00     0.163 HD
ATOM     29  O   UNL A   1      35.716  32.649  29.200  1.00  0.00    -0.269 OA
BRANCH  27  30
ATOM     30  C   UNL A   1      36.299  30.427  28.717  1.00  0.00     0.039 A 
ATOM     31  C   UNL A   1      36.413  29.622  29.859  1.00  0.00     0.014 A 
ATOM     32  C   UNL A   1      37.198  30.285  27.669  1.00  0.00     0.014 A 
ATOM     33  C   UNL A   1      37.564  28.860  30.049  1.00  0.00     0.010 A 
ATOM     34  C   UNL A   1      38.391  29.648  27.913  1.00  0.00     0.010 A 
ATOM     35  C   UNL A   1      38.594  28.966  29.119  1.00  0.00    -0.014 A 
BRANCH  35  36
ATOM     36  C   UNL A   1      39.950  28.474  29.308  1.00  0.00     0.031 A 
ATOM     37  C   UNL A   1      40.331  27.144  28.785  1.00  0.00     0.074 A 
ATOM     38  C   UNL A   1      40.909  29.328  29.727  1.00  0.00     0.049 A 
ATOM     39  N   UNL A   1      41.449  26.561  29.046  1.00  0.00    -0.248 NA
ATOM     40  C   UNL A   1      39.446  26.334  27.953  1.00  0.00     0.031 C 
ATOM     41  C   UNL A   1      42.349  29.224  29.507  1.00  0.00     0.029 A 
ATOM     42  N   UNL A   1      40.773  30.384  30.627  1.00  0.00    -0.354 N 
ATOM     43  C   UNL A   1      41.568  25.492  28.192  1.00  0.00     0.074 A 
ATOM     44  C   UNL A   1      40.259  25.335  27.604  1.00  0.00     0.031 C 
ATOM     45  C   UNL A   1      42.984  29.996  30.400  1.00  0.00     0.029 A 
ATOM     46  C   UNL A   1      41.986  30.464  31.345  1.00  0.00     0.049 A 
ATOM     47  H   UNL A   1      39.983  30.962  30.740  1.00  0.00     0.167 HD
ATOM     48  C   UNL A   1      42.798  24.945  27.988  1.00  0.00     0.031 A 
ATOM     49  C   UNL A   1      42.022  30.221  32.690  1.00  0.00     0.031 A 
ATOM     50  C   UNL A   1      43.815  25.539  28.857  1.00  0.00     0.049 A 
ATOM     51  C   UNL A   1      42.896  29.054  33.111  1.00  0.00     0.074 A 
ATOM     52  C   UNL A   1      44.875  26.410  28.666  1.00  0.00     0.029 A 
ATOM     53  N   UNL A   1      43.647  25.438  30.227  1.00  0.00    -0.354 N 
ATOM     54  N   UNL A   1      43.492  28.240  32.285  1.00  0.00    -0.248 NA
ATOM     55  C   UNL A   1      43.071  28.647  34.507  1.00  0.00     0.031 C 
ATOM     56  C   UNL A   1      45.364  26.799  29.947  1.00  0.00     0.029 A 
ATOM     57  C   UNL A   1      44.608  26.154  30.906  1.00  0.00     0.049 A 
ATOM     58  H   UNL A   1      42.933  24.919  30.660  1.00  0.00     0.167 HD
ATOM     59  C   UNL A   1      44.031  27.191  32.984  1.00  0.00     0.074 A 
ATOM     60  C   UNL A   1      43.757  27.498  34.375  1.00  0.00     0.031 C 
ATOM     61  C   UNL A   1      44.598  26.119  32.358  1.00  0.00     0.031 A 
BRANCH  48  62
ATOM     62  C   UNL A   1      43.142  23.995  26.865  1.00  0.00    -0.014 A 
ATOM     63  C   UNL A   1      43.176  22.612  27.121  1.00  0.00     0.009 A 
ATOM     64  C   UNL A   1      43.477  24.380  25.556  1.00  0.00     0.009 A 
ATOM     65  C   UNL A   1      43.594  21.683  26.159  1.00  0.00     0.001 A 
ATOM     66  C   UNL A   1      43.919  23.462  24.594  1.00  0.00     0.001 A 
ATOM     67  C   UNL A   1      43.987  22.112  24.899  1.00  0.00     0.000 A 
ENDBRANCH  48  62
BRANCH  49  68
ATOM     68  C   UNL A   1      40.757  30.602  33.378  1.00  0.00    -0.014 A 
ATOM     69  C   UNL A   1      40.390  31.961  33.411  1.00  0.00     0.009 A 
ATOM     70  C   UNL A   1      39.775  29.631  33.627  1.00  0.00     0.009 A 
ATOM     71  C   UNL A   1      39.052  32.332  33.571  1.00  0.00     0.001 A 
ATOM     72  C   UNL A   1      38.439  30.009  33.800  1.00  0.00     0.001 A 
ATOM     73  C   UNL A   1      38.074  31.354  33.735  1.00  0.00     0.000 A 
ENDBRANCH  49  68
BRANCH  61  74
ATOM     74  C   UNL A   1      45.139  24.896  33.053  1.00  0.00    -0.014 A 
ATOM     75  C   UNL A   1      44.388  23.734  33.262  1.00  0.00     0.009 A 
ATOM     76  C   UNL A   1      46.427  24.933  33.633  1.00  0.00     0.009 A 
ATOM     77  C   UNL A   1      44.922  22.644  33.966  1.00  0.00     0.001 A 
ATOM     78  C   UNL A   1      46.955  23.861  34.352  1.00  0.00     0.001 A 
ATOM     79  C   UNL A   1      46.204  22.707  34.509  1.00  0.00     0.000 A 
ENDBRANCH  61  74
ENDBRANCH  35  36
ENDBRANCH  27  30
ENDBRANCH  25  26
ENDBRANCH  24  25
ENDBRANCH   1  24
TORSDOF 13
ENDMDL
