MODEL 1
REMARK VINA RESULT:     -12.2      0.000      0.000
REMARK SMILES O=C(Cc1cccn1-c1ccc2c(c1)OCCO2)NCCCNC(=O)c1ccc(-c2c3nc(c(-c4ccccc4)c4ccc([nH]4)c(-c4ccccc4)c4nc(c(-c5ccccc5)c5ccc2[nH]5)C=C4)C=C3)cc1
REMARK SMILES IDX 21 1 20 2 19 3 1 4 2 5 3 7 4 8 5 9 8 10 6 11 7 12 9 13 10 14
REMARK SMILES IDX 14 15 11 16 13 17 12 18 15 19 18 20 16 21 17 22 22 23 23 24
REMARK SMILES IDX 24 25 25 27 26 28 27 29 73 30 28 31 72 32 29 33 30 34 31 35
REMARK SMILES IDX 66 36 32 37 71 38 65 39 67 40 33 41 70 42 64 43 63 44 34 46
REMARK SMILES IDX 56 47 41 48 55 49 42 50 45 51 54 52 68 53 43 54 44 55 53 57
REMARK SMILES IDX 69 58 46 59 35 60 36 61 40 62 37 63 39 64 38 65 57 66 58 67
REMARK SMILES IDX 62 68 59 69 61 70 60 71 47 72 48 73 52 74 49 75 51 76 50 77
REMARK H PARENT 19 6 23 26 67 45 45 56
REMARK Flexibility Score: inf
ROOT
ATOM      1  C   UNL A   1      31.699  31.892  26.611  1.00  0.00     0.042 C 
ENDROOT
BRANCH   1   2
ATOM      2  C   UNL A   1      31.713  30.369  26.743  1.00  0.00     0.117 C 
BRANCH   2   3
ATOM      3  N   UNL A   1      32.387  29.671  25.667  1.00  0.00    -0.356 N 
ATOM      4  O   UNL A   1      33.661  28.383  27.079  1.00  0.00    -0.275 OA
ATOM      5  C   UNL A   1      33.307  28.675  25.940  1.00  0.00     0.225 C 
ATOM      6  H   UNL A   1      32.188  29.908  24.732  1.00  0.00     0.163 HD
BRANCH   5   7
ATOM      7  C   UNL A   1      33.890  28.013  24.711  1.00  0.00     0.154 C 
BRANCH   7   8
ATOM      8  C   UNL A   1      33.440  26.613  24.384  1.00  0.00     0.032 A 
ATOM      9  C   UNL A   1      34.211  25.475  24.605  1.00  0.00     0.024 A 
ATOM     10  N   UNL A   1      32.200  26.174  23.933  1.00  0.00    -0.320 N 
ATOM     11  C   UNL A   1      33.434  24.338  24.314  1.00  0.00     0.020 A 
ATOM     12  C   UNL A   1      32.202  24.793  23.915  1.00  0.00     0.091 A 
BRANCH  10  13
ATOM     13  C   UNL A   1      31.063  26.922  23.578  1.00  0.00     0.049 A 
ATOM     14  C   UNL A   1      29.815  26.532  24.074  1.00  0.00     0.031 A 
ATOM     15  C   UNL A   1      31.184  27.996  22.693  1.00  0.00     0.077 A 
ATOM     16  C   UNL A   1      28.680  27.267  23.726  1.00  0.00     0.052 A 
ATOM     17  C   UNL A   1      30.043  28.737  22.378  1.00  0.00     0.163 A 
ATOM     18  C   UNL A   1      28.792  28.371  22.883  1.00  0.00     0.161 A 
ATOM     19  O   UNL A   1      30.222  29.849  21.597  1.00  0.00    -0.486 OA
ATOM     20  O   UNL A   1      27.639  29.068  22.621  1.00  0.00    -0.486 OA
ATOM     21  C   UNL A   1      29.134  30.771  21.746  1.00  0.00     0.271 C 
ATOM     22  C   UNL A   1      27.811  30.054  21.597  1.00  0.00     0.271 C 
ENDBRANCH  10  13
ENDBRANCH   7   8
ENDBRANCH   5   7
ENDBRANCH   2   3
ENDBRANCH   1   2
BRANCH   1  23
ATOM     23  C   UNL A   1      32.801  32.634  27.369  1.00  0.00     0.118 C 
BRANCH  23  24
ATOM     24  N   UNL A   1      32.493  34.028  27.617  1.00  0.00    -0.352 N 
ATOM     25  C   UNL A   1      33.000  34.898  28.556  1.00  0.00     0.251 C 
ATOM     26  H   UNL A   1      31.814  34.414  27.018  1.00  0.00     0.163 HD
ATOM     27  O   UNL A   1      32.449  35.958  28.793  1.00  0.00    -0.269 OA
BRANCH  25  28
ATOM     28  C   UNL A   1      34.223  34.526  29.293  1.00  0.00     0.039 A 
ATOM     29  C   UNL A   1      34.094  34.038  30.596  1.00  0.00     0.014 A 
ATOM     30  C   UNL A   1      35.483  34.668  28.701  1.00  0.00     0.014 A 
ATOM     31  C   UNL A   1      35.221  33.564  31.256  1.00  0.00     0.010 A 
ATOM     32  C   UNL A   1      36.606  34.169  29.344  1.00  0.00     0.010 A 
ATOM     33  C   UNL A   1      36.462  33.572  30.600  1.00  0.00    -0.014 A 
BRANCH  33  34
ATOM     34  C   UNL A   1      37.551  32.735  31.149  1.00  0.00     0.031 A 
ATOM     35  C   UNL A   1      37.788  31.475  30.310  1.00  0.00     0.074 A 
ATOM     36  C   UNL A   1      38.162  33.156  32.291  1.00  0.00     0.049 A 
ATOM     37  N   UNL A   1      38.262  30.322  30.664  1.00  0.00    -0.248 NA
ATOM     38  C   UNL A   1      37.375  31.473  28.879  1.00  0.00     0.031 C 
ATOM     39  C   UNL A   1      37.853  34.426  32.975  1.00  0.00     0.029 A 
ATOM     40  N   UNL A   1      39.140  32.625  33.107  1.00  0.00    -0.354 N 
ATOM     41  C   UNL A   1      38.321  29.510  29.512  1.00  0.00     0.074 A 
ATOM     42  C   UNL A   1      37.679  30.244  28.462  1.00  0.00     0.031 C 
ATOM     43  C   UNL A   1      38.566  34.539  34.113  1.00  0.00     0.029 A 
ATOM     44  C   UNL A   1      39.400  33.365  34.283  1.00  0.00     0.049 A 
ATOM     45  H   UNL A   1      39.621  31.794  32.887  1.00  0.00     0.167 HD
ATOM     46  C   UNL A   1      38.994  28.324  29.460  1.00  0.00     0.031 A 
ATOM     47  C   UNL A   1      40.184  33.046  35.355  1.00  0.00     0.031 A 
ATOM     48  C   UNL A   1      39.534  27.997  30.735  1.00  0.00     0.049 A 
ATOM     49  C   UNL A   1      40.853  31.773  35.042  1.00  0.00     0.074 A 
ATOM     50  C   UNL A   1      38.979  27.570  31.912  1.00  0.00     0.029 A 
ATOM     51  N   UNL A   1      40.819  28.414  30.978  1.00  0.00    -0.354 N 
ATOM     52  N   UNL A   1      41.837  31.634  34.209  1.00  0.00    -0.248 NA
ATOM     53  C   UNL A   1      40.358  30.536  35.660  1.00  0.00     0.031 C 
ATOM     54  C   UNL A   1      39.785  28.172  32.904  1.00  0.00     0.029 A 
ATOM     55  C   UNL A   1      40.862  28.819  32.289  1.00  0.00     0.049 A 
ATOM     56  H   UNL A   1      41.566  28.421  30.336  1.00  0.00     0.167 HD
ATOM     57  C   UNL A   1      41.796  30.290  33.925  1.00  0.00     0.074 A 
ATOM     58  C   UNL A   1      41.140  29.652  35.043  1.00  0.00     0.031 C 
ATOM     59  C   UNL A   1      41.779  29.882  32.630  1.00  0.00     0.031 A 
BRANCH  46  60
ATOM     60  C   UNL A   1      39.435  27.489  28.289  1.00  0.00    -0.014 A 
ATOM     61  C   UNL A   1      39.344  26.081  28.420  1.00  0.00     0.009 A 
ATOM     62  C   UNL A   1      40.198  27.982  27.226  1.00  0.00     0.009 A 
ATOM     63  C   UNL A   1      40.068  25.213  27.601  1.00  0.00     0.001 A 
ATOM     64  C   UNL A   1      40.896  27.109  26.378  1.00  0.00     0.001 A 
ATOM     65  C   UNL A   1      40.859  25.732  26.586  1.00  0.00     0.000 A 
ENDBRANCH  46  60
BRANCH  47  66
ATOM     66  C   UNL A   1      40.432  33.612  36.728  1.00  0.00    -0.014 A 
ATOM     67  C   UNL A   1      41.683  33.778  37.327  1.00  0.00     0.009 A 
ATOM     68  C   UNL A   1      39.324  34.055  37.499  1.00  0.00     0.009 A 
ATOM     69  C   UNL A   1      41.820  34.432  38.568  1.00  0.00     0.001 A 
ATOM     70  C   UNL A   1      39.453  34.730  38.715  1.00  0.00     0.001 A 
ATOM     71  C   UNL A   1      40.712  34.933  39.246  1.00  0.00     0.000 A 
ENDBRANCH  47  66
BRANCH  59  72
ATOM     72  C   UNL A   1      42.345  30.894  31.644  1.00  0.00    -0.014 A 
ATOM     73  C   UNL A   1      41.489  31.780  30.970  1.00  0.00     0.009 A 
ATOM     74  C   UNL A   1      43.699  30.898  31.265  1.00  0.00     0.009 A 
ATOM     75  C   UNL A   1      41.961  32.606  29.942  1.00  0.00     0.001 A 
ATOM     76  C   UNL A   1      44.178  31.729  30.243  1.00  0.00     0.001 A 
ATOM     77  C   UNL A   1      43.304  32.580  29.575  1.00  0.00     0.000 A 
ENDBRANCH  59  72
ENDBRANCH  33  34
ENDBRANCH  25  28
ENDBRANCH  23  24
ENDBRANCH   1  23
TORSDOF 12
ENDMDL
MODEL 2
REMARK VINA RESULT:     -12.0      1.342      2.861
REMARK SMILES O=C(Cc1cccn1-c1ccc2c(c1)OCCO2)NCCCNC(=O)c1ccc(-c2c3nc(c(-c4ccccc4)c4ccc([nH]4)c(-c4ccccc4)c4nc(c(-c5ccccc5)c5ccc2[nH]5)C=C4)C=C3)cc1
REMARK SMILES IDX 21 1 20 2 19 3 1 4 2 5 3 7 4 8 5 9 8 10 6 11 7 12 9 13 10 14
REMARK SMILES IDX 14 15 11 16 13 17 12 18 15 19 18 20 16 21 17 22 22 23 23 24
REMARK SMILES IDX 24 25 25 27 26 28 27 29 73 30 28 31 72 32 29 33 30 34 31 35
REMARK SMILES IDX 66 36 32 37 71 38 65 39 67 40 33 41 70 42 64 43 63 44 34 46
REMARK SMILES IDX 56 47 41 48 55 49 42 50 45 51 54 52 68 53 43 54 44 55 53 57
REMARK SMILES IDX 69 58 46 59 35 60 36 61 40 62 37 63 39 64 38 65 57 66 58 67
REMARK SMILES IDX 62 68 59 69 61 70 60 71 47 72 48 73 52 74 49 75 51 76 50 77
REMARK H PARENT 19 6 23 26 67 45 45 56
REMARK Flexibility Score: inf
ROOT
ATOM      1  C   UNL A   1      31.686  31.869  26.873  1.00  0.00     0.042 C 
ENDROOT
BRANCH   1   2
ATOM      2  C   UNL A   1      32.008  30.455  26.391  1.00  0.00     0.117 C 
BRANCH   2   3
ATOM      3  N   UNL A   1      31.351  30.067  25.159  1.00  0.00    -0.356 N 
ATOM      4  O   UNL A   1      33.200  28.994  24.317  1.00  0.00    -0.275 OA
ATOM      5  C   UNL A   1      32.017  29.310  24.213  1.00  0.00     0.225 C 
ATOM      6  H   UNL A   1      30.421  30.346  24.993  1.00  0.00     0.163 HD
BRANCH   5   7
ATOM      7  C   UNL A   1      31.183  28.950  23.004  1.00  0.00     0.154 C 
BRANCH   7   8
ATOM      8  C   UNL A   1      29.759  28.513  23.235  1.00  0.00     0.032 A 
ATOM      9  C   UNL A   1      28.647  29.310  22.975  1.00  0.00     0.024 A 
ATOM     10  N   UNL A   1      29.276  27.267  23.619  1.00  0.00    -0.320 N 
ATOM     11  C   UNL A   1      27.484  28.543  23.174  1.00  0.00     0.020 A 
ATOM     12  C   UNL A   1      27.897  27.291  23.557  1.00  0.00     0.091 A 
BRANCH  10  13
ATOM     13  C   UNL A   1      29.984  26.106  23.978  1.00  0.00     0.049 A 
ATOM     14  C   UNL A   1      30.590  25.345  22.973  1.00  0.00     0.031 A 
ATOM     15  C   UNL A   1      30.021  25.698  25.314  1.00  0.00     0.077 A 
ATOM     16  C   UNL A   1      31.294  24.190  23.320  1.00  0.00     0.052 A 
ATOM     17  C   UNL A   1      30.753  24.556  25.646  1.00  0.00     0.163 A 
ATOM     18  C   UNL A   1      31.381  23.797  24.654  1.00  0.00     0.161 A 
ATOM     19  O   UNL A   1      30.858  24.252  26.978  1.00  0.00    -0.486 OA
ATOM     20  O   UNL A   1      32.125  22.675  24.920  1.00  0.00    -0.486 OA
ATOM     21  C   UNL A   1      31.987  23.406  27.232  1.00  0.00     0.271 C 
ATOM     22  C   UNL A   1      31.995  22.235  26.276  1.00  0.00     0.271 C 
ENDBRANCH  10  13
ENDBRANCH   7   8
ENDBRANCH   5   7
ENDBRANCH   2   3
ENDBRANCH   1   2
BRANCH   1  23
ATOM     23  C   UNL A   1      32.891  32.733  27.248  1.00  0.00     0.118 C 
BRANCH  23  24
ATOM     24  N   UNL A   1      32.544  34.105  27.561  1.00  0.00    -0.352 N 
ATOM     25  C   UNL A   1      33.001  34.933  28.561  1.00  0.00     0.251 C 
ATOM     26  H   UNL A   1      31.875  34.508  26.961  1.00  0.00     0.163 HD
ATOM     27  O   UNL A   1      32.418  35.966  28.837  1.00  0.00    -0.269 OA
BRANCH  25  28
ATOM     28  C   UNL A   1      34.208  34.547  29.317  1.00  0.00     0.039 A 
ATOM     29  C   UNL A   1      34.048  33.946  30.568  1.00  0.00     0.014 A 
ATOM     30  C   UNL A   1      35.483  34.788  28.794  1.00  0.00     0.014 A 
ATOM     31  C   UNL A   1      35.167  33.461  31.234  1.00  0.00     0.010 A 
ATOM     32  C   UNL A   1      36.600  34.280  29.440  1.00  0.00     0.010 A 
ATOM     33  C   UNL A   1      36.432  33.574  30.635  1.00  0.00    -0.014 A 
BRANCH  33  34
ATOM     34  C   UNL A   1      37.533  32.736  31.159  1.00  0.00     0.031 A 
ATOM     35  C   UNL A   1      37.785  31.503  30.284  1.00  0.00     0.074 A 
ATOM     36  C   UNL A   1      38.140  33.132  32.312  1.00  0.00     0.049 A 
ATOM     37  N   UNL A   1      38.275  30.347  30.605  1.00  0.00    -0.248 NA
ATOM     38  C   UNL A   1      37.370  31.537  28.854  1.00  0.00     0.031 C 
ATOM     39  C   UNL A   1      37.814  34.377  33.032  1.00  0.00     0.029 A 
ATOM     40  N   UNL A   1      39.126  32.590  33.111  1.00  0.00    -0.354 N 
ATOM     41  C   UNL A   1      38.343  29.569  29.429  1.00  0.00     0.074 A 
ATOM     42  C   UNL A   1      37.690  30.324  28.402  1.00  0.00     0.031 C 
ATOM     43  C   UNL A   1      38.528  34.468  34.172  1.00  0.00     0.029 A 
ATOM     44  C   UNL A   1      39.377  33.300  34.308  1.00  0.00     0.049 A 
ATOM     45  H   UNL A   1      39.617  31.773  32.867  1.00  0.00     0.167 HD
ATOM     46  C   UNL A   1      39.032  28.394  29.343  1.00  0.00     0.031 A 
ATOM     47  C   UNL A   1      40.167  32.961  35.369  1.00  0.00     0.031 A 
ATOM     48  C   UNL A   1      39.578  28.038  30.607  1.00  0.00     0.049 A 
ATOM     49  C   UNL A   1      40.852  31.707  35.020  1.00  0.00     0.074 A 
ATOM     50  C   UNL A   1      39.030  27.570  31.773  1.00  0.00     0.029 A 
ATOM     51  N   UNL A   1      40.858  28.466  30.861  1.00  0.00    -0.354 N 
ATOM     52  N   UNL A   1      41.837  31.605  34.181  1.00  0.00    -0.248 NA
ATOM     53  C   UNL A   1      40.375  30.446  35.602  1.00  0.00     0.031 C 
ATOM     54  C   UNL A   1      39.829  28.154  32.780  1.00  0.00     0.029 A 
ATOM     55  C   UNL A   1      40.897  28.833  32.183  1.00  0.00     0.049 A 
ATOM     56  H   UNL A   1      41.604  28.500  30.219  1.00  0.00     0.167 HD
ATOM     57  C   UNL A   1      41.814  30.269  33.859  1.00  0.00     0.074 A 
ATOM     58  C   UNL A   1      41.168  29.591  34.960  1.00  0.00     0.031 C 
ATOM     59  C   UNL A   1      41.800  29.898  32.553  1.00  0.00     0.031 A 
BRANCH  46  60
ATOM     60  C   UNL A   1      39.483  27.599  28.148  1.00  0.00    -0.014 A 
ATOM     61  C   UNL A   1      39.264  26.199  28.176  1.00  0.00     0.009 A 
ATOM     62  C   UNL A   1      40.356  28.089  27.173  1.00  0.00     0.009 A 
ATOM     63  C   UNL A   1      39.969  25.324  27.347  1.00  0.00     0.001 A 
ATOM     64  C   UNL A   1      41.036  27.213  26.313  1.00  0.00     0.001 A 
ATOM     65  C   UNL A   1      40.870  25.834  26.424  1.00  0.00     0.000 A 
ENDBRANCH  46  60
BRANCH  47  66
ATOM     66  C   UNL A   1      40.410  33.491  36.757  1.00  0.00    -0.014 A 
ATOM     67  C   UNL A   1      41.652  33.583  37.389  1.00  0.00     0.009 A 
ATOM     68  C   UNL A   1      39.306  33.977  37.509  1.00  0.00     0.009 A 
ATOM     69  C   UNL A   1      41.791  34.209  38.645  1.00  0.00     0.001 A 
ATOM     70  C   UNL A   1      39.440  34.625  38.740  1.00  0.00     0.001 A 
ATOM     71  C   UNL A   1      40.693  34.754  39.305  1.00  0.00     0.000 A 
ENDBRANCH  47  66
BRANCH  59  72
ATOM     72  C   UNL A   1      42.351  30.945  31.596  1.00  0.00    -0.014 A 
ATOM     73  C   UNL A   1      41.484  31.850  30.962  1.00  0.00     0.009 A 
ATOM     74  C   UNL A   1      43.701  30.968  31.202  1.00  0.00     0.009 A 
ATOM     75  C   UNL A   1      41.942  32.713  29.957  1.00  0.00     0.001 A 
ATOM     76  C   UNL A   1      44.165  31.835  30.204  1.00  0.00     0.001 A 
ATOM     77  C   UNL A   1      43.281  32.705  29.575  1.00  0.00     0.000 A 
ENDBRANCH  59  72
ENDBRANCH  33  34
ENDBRANCH  25  28
ENDBRANCH  23  24
ENDBRANCH   1  23
TORSDOF 12
ENDMDL
MODEL 3
REMARK VINA RESULT:     -11.8      5.140     10.294
REMARK SMILES O=C(Cc1cccn1-c1ccc2c(c1)OCCO2)NCCCNC(=O)c1ccc(-c2c3nc(c(-c4ccccc4)c4ccc([nH]4)c(-c4ccccc4)c4nc(c(-c5ccccc5)c5ccc2[nH]5)C=C4)C=C3)cc1
REMARK SMILES IDX 21 1 20 2 19 3 1 4 2 5 3 7 4 8 5 9 8 10 6 11 7 12 9 13 10 14
REMARK SMILES IDX 14 15 11 16 13 17 12 18 15 19 18 20 16 21 17 22 22 23 23 24
REMARK SMILES IDX 24 25 25 27 26 28 27 29 73 30 28 31 72 32 29 33 30 34 31 35
REMARK SMILES IDX 66 36 32 37 71 38 65 39 67 40 33 41 70 42 64 43 63 44 34 46
REMARK SMILES IDX 56 47 41 48 55 49 42 50 45 51 54 52 68 53 43 54 44 55 53 57
REMARK SMILES IDX 69 58 46 59 35 60 36 61 40 62 37 63 39 64 38 65 57 66 58 67
REMARK SMILES IDX 62 68 59 69 61 70 60 71 47 72 48 73 52 74 49 75 51 76 50 77
REMARK H PARENT 19 6 23 26 67 45 45 56
REMARK Flexibility Score: inf
ROOT
ATOM      1  C   UNL A   1      37.632  20.969  24.959  1.00  0.00     0.042 C 
ENDROOT
BRANCH   1   2
ATOM      2  C   UNL A   1      36.434  21.760  25.485  1.00  0.00     0.117 C 
BRANCH   2   3
ATOM      3  N   UNL A   1      35.635  22.405  24.463  1.00  0.00    -0.356 N 
ATOM      4  O   UNL A   1      35.539  24.414  25.573  1.00  0.00    -0.275 OA
ATOM      5  C   UNL A   1      35.278  23.736  24.583  1.00  0.00     0.225 C 
ATOM      6  H   UNL A   1      35.344  21.892  23.674  1.00  0.00     0.163 HD
BRANCH   5   7
ATOM      7  C   UNL A   1      34.483  24.274  23.414  1.00  0.00     0.154 C 
BRANCH   7   8
ATOM      8  C   UNL A   1      32.997  24.448  23.593  1.00  0.00     0.032 A 
ATOM      9  C   UNL A   1      32.357  25.683  23.654  1.00  0.00     0.024 A 
ATOM     10  N   UNL A   1      31.998  23.480  23.616  1.00  0.00    -0.320 N 
ATOM     11  C   UNL A   1      30.966  25.472  23.688  1.00  0.00     0.020 A 
ATOM     12  C   UNL A   1      30.772  24.114  23.651  1.00  0.00     0.091 A 
BRANCH  10  13
ATOM     13  C   UNL A   1      32.111  22.079  23.565  1.00  0.00     0.049 A 
ATOM     14  C   UNL A   1      32.080  21.442  22.321  1.00  0.00     0.031 A 
ATOM     15  C   UNL A   1      32.188  21.344  24.751  1.00  0.00     0.077 A 
ATOM     16  C   UNL A   1      32.189  20.051  22.261  1.00  0.00     0.052 A 
ATOM     17  C   UNL A   1      32.325  19.956  24.671  1.00  0.00     0.163 A 
ATOM     18  C   UNL A   1      32.317  19.307  23.432  1.00  0.00     0.161 A 
ATOM     19  O   UNL A   1      32.512  19.282  25.850  1.00  0.00    -0.486 OA
ATOM     20  O   UNL A   1      32.462  17.951  23.290  1.00  0.00    -0.486 OA
ATOM     21  C   UNL A   1      33.117  18.002  25.628  1.00  0.00     0.271 C 
ATOM     22  C   UNL A   1      32.385  17.253  24.538  1.00  0.00     0.271 C 
ENDBRANCH  10  13
ENDBRANCH   7   8
ENDBRANCH   5   7
ENDBRANCH   2   3
ENDBRANCH   1   2
BRANCH   1  23
ATOM     23  C   UNL A   1      38.935  21.141  25.741  1.00  0.00     0.118 C 
BRANCH  23  24
ATOM     24  N   UNL A   1      39.697  19.915  25.869  1.00  0.00    -0.352 N 
ATOM     25  C   UNL A   1      41.047  19.722  26.065  1.00  0.00     0.251 C 
ATOM     26  H   UNL A   1      39.165  19.089  25.807  1.00  0.00     0.163 HD
ATOM     27  O   UNL A   1      41.556  18.630  25.893  1.00  0.00    -0.269 OA
BRANCH  25  28
ATOM     28  C   UNL A   1      41.883  20.866  26.474  1.00  0.00     0.039 A 
ATOM     29  C   UNL A   1      42.502  21.630  25.480  1.00  0.00     0.014 A 
ATOM     30  C   UNL A   1      42.059  21.173  27.828  1.00  0.00     0.014 A 
ATOM     31  C   UNL A   1      43.187  22.784  25.841  1.00  0.00     0.010 A 
ATOM     32  C   UNL A   1      42.716  22.339  28.191  1.00  0.00     0.010 A 
ATOM     33  C   UNL A   1      43.235  23.167  27.190  1.00  0.00    -0.014 A 
BRANCH  33  34
ATOM     34  C   UNL A   1      43.623  24.558  27.511  1.00  0.00     0.031 A 
ATOM     35  C   UNL A   1      42.406  25.475  27.666  1.00  0.00     0.074 A 
ATOM     36  C   UNL A   1      44.952  24.842  27.599  1.00  0.00     0.049 A 
ATOM     37  N   UNL A   1      42.303  26.753  27.476  1.00  0.00    -0.248 NA
ATOM     38  C   UNL A   1      41.091  24.873  28.022  1.00  0.00     0.031 C 
ATOM     39  C   UNL A   1      46.024  23.837  27.463  1.00  0.00     0.029 A 
ATOM     40  N   UNL A   1      45.673  26.000  27.808  1.00  0.00    -0.354 N 
ATOM     41  C   UNL A   1      40.980  27.129  27.795  1.00  0.00     0.074 A 
ATOM     42  C   UNL A   1      40.259  25.916  28.040  1.00  0.00     0.031 C 
ATOM     43  C   UNL A   1      47.236  24.423  27.529  1.00  0.00     0.029 A 
ATOM     44  C   UNL A   1      47.076  25.853  27.709  1.00  0.00     0.049 A 
ATOM     45  H   UNL A   1      45.244  26.863  28.012  1.00  0.00     0.167 HD
ATOM     46  C   UNL A   1      40.582  28.425  27.949  1.00  0.00     0.031 A 
ATOM     47  C   UNL A   1      48.052  26.808  27.713  1.00  0.00     0.031 A 
ATOM     48  C   UNL A   1      41.651  29.317  27.656  1.00  0.00     0.049 A 
ATOM     49  C   UNL A   1      47.395  28.102  27.958  1.00  0.00     0.074 A 
ATOM     50  C   UNL A   1      42.268  29.699  26.494  1.00  0.00     0.029 A 
ATOM     51  N   UNL A   1      42.430  29.705  28.718  1.00  0.00    -0.354 N 
ATOM     52  N   UNL A   1      46.927  28.494  29.103  1.00  0.00    -0.248 NA
ATOM     53  C   UNL A   1      47.185  29.021  26.832  1.00  0.00     0.031 C 
ATOM     54  C   UNL A   1      43.615  29.895  26.875  1.00  0.00     0.029 A 
ATOM     55  C   UNL A   1      43.723  29.756  28.262  1.00  0.00     0.049 A 
ATOM     56  H   UNL A   1      42.119  29.910  29.630  1.00  0.00     0.167 HD
ATOM     57  C   UNL A   1      46.050  29.488  28.739  1.00  0.00     0.074 A 
ATOM     58  C   UNL A   1      46.489  29.974  27.451  1.00  0.00     0.031 C 
ATOM     59  C   UNL A   1      44.775  29.458  29.206  1.00  0.00     0.031 A 
BRANCH  46  60
ATOM     60  C   UNL A   1      39.348  29.011  28.577  1.00  0.00    -0.014 A 
ATOM     61  C   UNL A   1      39.106  28.715  29.942  1.00  0.00     0.009 A 
ATOM     62  C   UNL A   1      38.289  29.560  27.847  1.00  0.00     0.009 A 
ATOM     63  C   UNL A   1      37.841  28.853  30.516  1.00  0.00     0.001 A 
ATOM     64  C   UNL A   1      37.027  29.735  28.434  1.00  0.00     0.001 A 
ATOM     65  C   UNL A   1      36.795  29.350  29.753  1.00  0.00     0.000 A 
ENDBRANCH  46  60
BRANCH  47  66
ATOM     66  C   UNL A   1      49.534  26.851  27.449  1.00  0.00    -0.014 A 
ATOM     67  C   UNL A   1      50.513  27.255  28.359  1.00  0.00     0.009 A 
ATOM     68  C   UNL A   1      50.018  26.421  26.185  1.00  0.00     0.009 A 
ATOM     69  C   UNL A   1      51.885  27.142  28.059  1.00  0.00     0.001 A 
ATOM     70  C   UNL A   1      51.377  26.278  25.889  1.00  0.00     0.001 A 
ATOM     71  C   UNL A   1      52.316  26.627  26.839  1.00  0.00     0.000 A 
ENDBRANCH  47  66
BRANCH  59  72
ATOM     72  C   UNL A   1      44.595  28.657  30.488  1.00  0.00    -0.014 A 
ATOM     73  C   UNL A   1      44.139  27.330  30.436  1.00  0.00     0.009 A 
ATOM     74  C   UNL A   1      44.737  29.236  31.762  1.00  0.00     0.009 A 
ATOM     75  C   UNL A   1      43.809  26.627  31.602  1.00  0.00     0.001 A 
ATOM     76  C   UNL A   1      44.417  28.535  32.932  1.00  0.00     0.001 A 
ATOM     77  C   UNL A   1      43.945  27.229  32.851  1.00  0.00     0.000 A 
ENDBRANCH  59  72
ENDBRANCH  33  34
ENDBRANCH  25  28
ENDBRANCH  23  24
ENDBRANCH   1  23
TORSDOF 12
ENDMDL
