MODEL 1
REMARK VINA RESULT:     -12.7      0.000      0.000
REMARK SMILES COc1cc([C@H]2c3c(-c4ccccc4)n[nH]c3C(=O)N2c2ccc(C(=O)NCCCNC(=O)c3ccc(-c4c5nc(c(-c6ccccc6)c6ccc([nH]6)c(-c6ccccc6)c6nc(c(-c7ccccc7)c7ccc4[nH]7)C=C6)C=C5)cc3)cc2)ccc1O
REMARK SMILES IDX 28 1 27 2 25 3 26 4 24 6 21 7 22 8 83 9 23 10 82 11 20 12
REMARK SMILES IDX 6 13 7 14 8 15 17 16 18 17 15 18 16 19 19 20 5 22 3 23 4 24
REMARK SMILES IDX 86 25 85 26 84 27 2 28 1 29 87 30 9 32 10 33 14 34 11 35
REMARK SMILES IDX 13 36 12 37 29 38 30 39 31 40 32 41 33 43 34 44 35 45 81 46
REMARK SMILES IDX 36 47 80 48 37 49 38 50 39 51 74 52 40 53 79 54 73 55 75 56
REMARK SMILES IDX 41 57 78 58 72 59 71 60 42 62 64 63 49 64 63 65 50 66 53 67
REMARK SMILES IDX 62 68 76 69 51 70 52 71 61 73 77 74 54 75 43 76 44 77 48 78
REMARK SMILES IDX 45 79 47 80 46 81 65 82 66 83 70 84 67 85 69 86 68 87 55 88
REMARK SMILES IDX 56 89 60 90 57 91 59 92 58 93
REMARK H PARENT 27 5 16 21 87 31 31 42 75 61 53 72
REMARK Flexibility Score: inf
ROOT
ATOM      1  C   UNL A   1      34.705  31.683  27.872  1.00  0.00     0.118 C 
ENDROOT
BRANCH   1   2
ATOM      2  N   UNL A   1      33.330  32.094  27.636  1.00  0.00    -0.352 N 
ATOM      3  C   UNL A   1      32.323  31.569  26.865  1.00  0.00     0.251 C 
ATOM      4  O   UNL A   1      31.232  32.139  26.903  1.00  0.00    -0.269 OA
ATOM      5  H   UNL A   1      33.072  32.910  28.124  1.00  0.00     0.163 HD
BRANCH   3   6
ATOM      6  C   UNL A   1      32.474  30.337  26.038  1.00  0.00     0.039 A 
ATOM      7  C   UNL A   1      32.565  27.983  24.503  1.00  0.00     0.045 A 
ATOM      8  C   UNL A   1      31.447  28.811  24.436  1.00  0.00     0.027 A 
ATOM      9  C   UNL A   1      33.653  28.349  25.288  1.00  0.00     0.027 A 
ATOM     10  C   UNL A   1      31.390  29.965  25.226  1.00  0.00     0.016 A 
ATOM     11  C   UNL A   1      33.624  29.547  26.000  1.00  0.00     0.016 A 
BRANCH   7  12
ATOM     12  N   UNL A   1      32.628  26.803  23.755  1.00  0.00    -0.295 N 
ATOM     13  C   UNL A   1      33.064  25.509  24.354  1.00  0.00     0.156 C 
ATOM     14  C   UNL A   1      33.118  24.679  23.126  1.00  0.00     0.038 A 
ATOM     15  C   UNL A   1      33.426  23.407  22.617  1.00  0.00     0.099 A 
ATOM     16  C   UNL A   1      32.763  25.426  22.039  1.00  0.00     0.129 A 
ATOM     17  C   UNL A   1      32.409  26.753  22.372  1.00  0.00     0.277 C 
ATOM     18  N   UNL A   1      33.330  23.418  21.266  1.00  0.00    -0.174 NA
ATOM     19  N   UNL A   1      32.904  24.663  20.946  1.00  0.00    -0.272 N 
ATOM     20  O   UNL A   1      32.055  27.636  21.604  1.00  0.00    -0.267 OA
ATOM     21  H   UNL A   1      32.720  24.968  20.028  1.00  0.00     0.190 HD
BRANCH  13  22
ATOM     22  C   UNL A   1      32.030  24.921  25.291  1.00  0.00    -0.016 A 
ATOM     23  C   UNL A   1      31.505  23.377  27.141  1.00  0.00     0.160 A 
ATOM     24  C   UNL A   1      32.420  23.966  26.250  1.00  0.00     0.056 A 
ATOM     25  C   UNL A   1      30.163  23.748  27.050  1.00  0.00     0.157 A 
ATOM     26  C   UNL A   1      29.756  24.711  26.126  1.00  0.00     0.050 A 
ATOM     27  C   UNL A   1      30.681  25.311  25.271  1.00  0.00     0.010 A 
BRANCH  23  28
ATOM     28  O   UNL A   1      32.103  22.525  28.026  1.00  0.00    -0.493 OA
ATOM     29  C   UNL A   1      33.230  21.763  27.626  1.00  0.00     0.278 C 
ENDBRANCH  23  28
BRANCH  25  30
ATOM     30  O   UNL A   1      29.169  23.250  27.841  1.00  0.00    -0.504 OA
ATOM     31  H   UNL A   1      28.328  23.060  27.474  1.00  0.00     0.293 HD
ENDBRANCH  25  30
ENDBRANCH  13  22
BRANCH  15  32
ATOM     32  C   UNL A   1      33.797  22.195  23.332  1.00  0.00     0.002 A 
ATOM     33  C   UNL A   1      32.863  21.169  23.519  1.00  0.00     0.010 A 
ATOM     34  C   UNL A   1      35.074  22.064  23.889  1.00  0.00     0.010 A 
ATOM     35  C   UNL A   1      33.210  20.023  24.241  1.00  0.00     0.001 A 
ATOM     36  C   UNL A   1      35.423  20.919  24.607  1.00  0.00     0.001 A 
ATOM     37  C   UNL A   1      34.491  19.898  24.782  1.00  0.00     0.000 A 
ENDBRANCH  15  32
ENDBRANCH   7  12
ENDBRANCH   3   6
ENDBRANCH   1   2
BRANCH   1  38
ATOM     38  C   UNL A   1      35.647  32.893  27.943  1.00  0.00     0.042 C 
BRANCH  38  39
ATOM     39  C   UNL A   1      37.026  32.487  28.426  1.00  0.00     0.118 C 
BRANCH  39  40
ATOM     40  N   UNL A   1      37.591  33.466  29.356  1.00  0.00    -0.352 N 
ATOM     41  C   UNL A   1      38.384  33.245  30.462  1.00  0.00     0.251 C 
ATOM     42  H   UNL A   1      37.377  34.408  29.165  1.00  0.00     0.163 HD
ATOM     43  O   UNL A   1      38.508  34.106  31.325  1.00  0.00    -0.269 OA
BRANCH  41  44
ATOM     44  C   UNL A   1      39.086  31.957  30.586  1.00  0.00     0.039 A 
ATOM     45  C   UNL A   1      38.402  30.781  30.899  1.00  0.00     0.014 A 
ATOM     46  C   UNL A   1      40.463  31.942  30.370  1.00  0.00     0.014 A 
ATOM     47  C   UNL A   1      39.111  29.583  30.926  1.00  0.00     0.010 A 
ATOM     48  C   UNL A   1      41.121  30.753  30.222  1.00  0.00     0.010 A 
ATOM     49  C   UNL A   1      40.470  29.579  30.568  1.00  0.00    -0.014 A 
BRANCH  49  50
ATOM     50  C   UNL A   1      41.206  28.335  30.396  1.00  0.00     0.031 A 
ATOM     51  C   UNL A   1      41.965  27.934  31.608  1.00  0.00     0.074 A 
ATOM     52  C   UNL A   1      41.037  27.517  29.332  1.00  0.00     0.049 A 
ATOM     53  N   UNL A   1      43.247  27.912  31.743  1.00  0.00    -0.248 NA
ATOM     54  C   UNL A   1      41.229  27.699  32.863  1.00  0.00     0.031 C 
ATOM     55  C   UNL A   1      40.093  27.655  28.215  1.00  0.00     0.029 A 
ATOM     56  N   UNL A   1      41.603  26.307  29.081  1.00  0.00    -0.354 N 
ATOM     57  C   UNL A   1      43.487  27.443  33.029  1.00  0.00     0.074 A 
ATOM     58  C   UNL A   1      42.230  27.517  33.728  1.00  0.00     0.031 C 
ATOM     59  C   UNL A   1      39.982  26.474  27.562  1.00  0.00     0.029 A 
ATOM     60  C   UNL A   1      40.961  25.549  28.104  1.00  0.00     0.049 A 
ATOM     61  H   UNL A   1      42.406  25.990  29.553  1.00  0.00     0.167 HD
ATOM     62  C   UNL A   1      44.638  26.774  33.319  1.00  0.00     0.031 A 
ATOM     63  C   UNL A   1      41.205  24.252  27.782  1.00  0.00     0.031 A 
ATOM     64  C   UNL A   1      45.619  26.946  32.274  1.00  0.00     0.049 A 
ATOM     65  C   UNL A   1      42.550  23.917  28.302  1.00  0.00     0.074 A 
ATOM     66  C   UNL A   1      46.257  28.033  31.711  1.00  0.00     0.029 A 
ATOM     67  N   UNL A   1      45.732  25.924  31.360  1.00  0.00    -0.354 N 
ATOM     68  N   UNL A   1      43.643  24.432  27.819  1.00  0.00    -0.248 NA
ATOM     69  C   UNL A   1      42.644  23.404  29.660  1.00  0.00     0.031 C 
ATOM     70  C   UNL A   1      46.286  27.756  30.312  1.00  0.00     0.029 A 
ATOM     71  C   UNL A   1      45.761  26.479  30.107  1.00  0.00     0.049 A 
ATOM     72  H   UNL A   1      45.783  24.963  31.569  1.00  0.00     0.167 HD
ATOM     73  C   UNL A   1      44.396  24.752  28.938  1.00  0.00     0.074 A 
ATOM     74  C   UNL A   1      43.777  24.006  30.037  1.00  0.00     0.031 C 
ATOM     75  C   UNL A   1      45.250  25.819  28.927  1.00  0.00     0.031 A 
BRANCH  62  76
ATOM     76  C   UNL A   1      44.706  25.620  34.286  1.00  0.00    -0.014 A 
ATOM     77  C   UNL A   1      45.880  25.449  35.042  1.00  0.00     0.009 A 
ATOM     78  C   UNL A   1      43.802  24.541  34.270  1.00  0.00     0.009 A 
ATOM     79  C   UNL A   1      46.170  24.234  35.673  1.00  0.00     0.001 A 
ATOM     80  C   UNL A   1      44.070  23.340  34.931  1.00  0.00     0.001 A 
ATOM     81  C   UNL A   1      45.269  23.176  35.607  1.00  0.00     0.000 A 
ENDBRANCH  62  76
BRANCH  63  82
ATOM     82  C   UNL A   1      40.290  23.197  27.288  1.00  0.00    -0.014 A 
ATOM     83  C   UNL A   1      39.076  23.528  26.662  1.00  0.00     0.009 A 
ATOM     84  C   UNL A   1      40.749  21.874  27.157  1.00  0.00     0.009 A 
ATOM     85  C   UNL A   1      38.375  22.586  25.894  1.00  0.00     0.001 A 
ATOM     86  C   UNL A   1      40.050  20.934  26.390  1.00  0.00     0.001 A 
ATOM     87  C   UNL A   1      38.871  21.294  25.745  1.00  0.00     0.000 A 
ENDBRANCH  63  82
BRANCH  75  88
ATOM     88  C   UNL A   1      45.513  26.491  27.597  1.00  0.00    -0.014 A 
ATOM     89  C   UNL A   1      46.519  26.087  26.698  1.00  0.00     0.009 A 
ATOM     90  C   UNL A   1      44.635  27.503  27.189  1.00  0.00     0.009 A 
ATOM     91  C   UNL A   1      46.668  26.712  25.455  1.00  0.00     0.001 A 
ATOM     92  C   UNL A   1      44.767  28.112  25.940  1.00  0.00     0.001 A 
ATOM     93  C   UNL A   1      45.791  27.726  25.077  1.00  0.00     0.000 A 
ENDBRANCH  75  88
ENDBRANCH  49  50
ENDBRANCH  41  44
ENDBRANCH  39  40
ENDBRANCH  38  39
ENDBRANCH   1  38
TORSDOF 15
ENDMDL
MODEL 2
REMARK VINA RESULT:     -12.5      3.234      8.631
REMARK SMILES COc1cc([C@H]2c3c(-c4ccccc4)n[nH]c3C(=O)N2c2ccc(C(=O)NCCCNC(=O)c3ccc(-c4c5nc(c(-c6ccccc6)c6ccc([nH]6)c(-c6ccccc6)c6nc(c(-c7ccccc7)c7ccc4[nH]7)C=C6)C=C5)cc3)cc2)ccc1O
REMARK SMILES IDX 28 1 27 2 25 3 26 4 24 6 21 7 22 8 83 9 23 10 82 11 20 12
REMARK SMILES IDX 6 13 7 14 8 15 17 16 18 17 15 18 16 19 19 20 5 22 3 23 4 24
REMARK SMILES IDX 86 25 85 26 84 27 2 28 1 29 87 30 9 32 10 33 14 34 11 35
REMARK SMILES IDX 13 36 12 37 29 38 30 39 31 40 32 41 33 43 34 44 35 45 81 46
REMARK SMILES IDX 36 47 80 48 37 49 38 50 39 51 74 52 40 53 79 54 73 55 75 56
REMARK SMILES IDX 41 57 78 58 72 59 71 60 42 62 64 63 49 64 63 65 50 66 53 67
REMARK SMILES IDX 62 68 76 69 51 70 52 71 61 73 77 74 54 75 43 76 44 77 48 78
REMARK SMILES IDX 45 79 47 80 46 81 65 82 66 83 70 84 67 85 69 86 68 87 55 88
REMARK SMILES IDX 56 89 60 90 57 91 59 92 58 93
REMARK H PARENT 27 5 16 21 87 31 31 42 75 61 53 72
REMARK Flexibility Score: inf
ROOT
ATOM      1  C   UNL A   1      39.784  22.075  26.841  1.00  0.00     0.118 C 
ENDROOT
BRANCH   1   2
ATOM      2  N   UNL A   1      39.431  20.998  25.931  1.00  0.00    -0.352 N 
ATOM      3  C   UNL A   1      38.253  20.649  25.318  1.00  0.00     0.251 C 
ATOM      4  O   UNL A   1      38.282  19.682  24.556  1.00  0.00    -0.269 OA
ATOM      5  H   UNL A   1      40.184  20.402  25.712  1.00  0.00     0.163 HD
BRANCH   3   6
ATOM      6  C   UNL A   1      36.977  21.400  25.494  1.00  0.00     0.039 A 
ATOM      7  C   UNL A   1      34.502  22.723  25.665  1.00  0.00     0.045 A 
ATOM      8  C   UNL A   1      34.550  21.394  25.250  1.00  0.00     0.027 A 
ATOM      9  C   UNL A   1      35.671  23.375  26.043  1.00  0.00     0.027 A 
ATOM     10  C   UNL A   1      35.786  20.748  25.134  1.00  0.00     0.016 A 
ATOM     11  C   UNL A   1      36.886  22.694  26.011  1.00  0.00     0.016 A 
BRANCH   7  12
ATOM     12  N   UNL A   1      33.283  23.403  25.750  1.00  0.00    -0.295 N 
ATOM     13  C   UNL A   1      33.126  24.808  25.275  1.00  0.00     0.156 C 
ATOM     14  C   UNL A   1      31.748  25.074  25.755  1.00  0.00     0.038 A 
ATOM     15  C   UNL A   1      30.735  26.042  25.847  1.00  0.00     0.099 A 
ATOM     16  C   UNL A   1      31.251  23.972  26.390  1.00  0.00     0.129 A 
ATOM     17  C   UNL A   1      32.150  22.880  26.387  1.00  0.00     0.277 C 
ATOM     18  N   UNL A   1      29.702  25.559  26.576  1.00  0.00    -0.174 NA
ATOM     19  N   UNL A   1      30.042  24.282  26.877  1.00  0.00    -0.272 N 
ATOM     20  O   UNL A   1      31.970  21.777  26.882  1.00  0.00    -0.267 OA
ATOM     21  H   UNL A   1      29.472  23.662  27.387  1.00  0.00     0.190 HD
BRANCH  13  22
ATOM     22  C   UNL A   1      33.143  24.920  23.765  1.00  0.00    -0.016 A 
ATOM     23  C   UNL A   1      33.412  26.336  21.764  1.00  0.00     0.160 A 
ATOM     24  C   UNL A   1      33.393  26.167  23.161  1.00  0.00     0.056 A 
ATOM     25  C   UNL A   1      33.155  25.225  20.961  1.00  0.00     0.157 A 
ATOM     26  C   UNL A   1      32.931  23.972  21.535  1.00  0.00     0.050 A 
ATOM     27  C   UNL A   1      32.948  23.814  22.921  1.00  0.00     0.010 A 
BRANCH  23  28
ATOM     28  O   UNL A   1      33.733  27.610  21.390  1.00  0.00    -0.493 OA
ATOM     29  C   UNL A   1      34.037  28.584  22.376  1.00  0.00     0.278 C 
ENDBRANCH  23  28
BRANCH  25  30
ATOM     30  O   UNL A   1      33.132  25.246  19.597  1.00  0.00    -0.504 OA
ATOM     31  H   UNL A   1      33.272  24.456  19.113  1.00  0.00     0.293 HD
ENDBRANCH  25  30
ENDBRANCH  13  22
BRANCH  15  32
ATOM     32  C   UNL A   1      30.690  27.384  25.284  1.00  0.00     0.002 A 
ATOM     33  C   UNL A   1      29.982  27.634  24.103  1.00  0.00     0.010 A 
ATOM     34  C   UNL A   1      31.402  28.429  25.885  1.00  0.00     0.010 A 
ATOM     35  C   UNL A   1      29.975  28.914  23.543  1.00  0.00     0.001 A 
ATOM     36  C   UNL A   1      31.391  29.709  25.329  1.00  0.00     0.001 A 
ATOM     37  C   UNL A   1      30.677  29.951  24.158  1.00  0.00     0.000 A 
ENDBRANCH  15  32
ENDBRANCH   7  12
ENDBRANCH   3   6
ENDBRANCH   1   2
BRANCH   1  38
ATOM     38  C   UNL A   1      41.145  22.689  26.481  1.00  0.00     0.042 C 
BRANCH  38  39
ATOM     39  C   UNL A   1      42.118  22.584  27.640  1.00  0.00     0.118 C 
BRANCH  39  40
ATOM     40  N   UNL A   1      43.510  22.605  27.190  1.00  0.00    -0.352 N 
ATOM     41  C   UNL A   1      44.257  23.679  26.754  1.00  0.00     0.251 C 
ATOM     42  H   UNL A   1      43.975  21.738  27.201  1.00  0.00     0.163 HD
ATOM     43  O   UNL A   1      45.282  23.506  26.105  1.00  0.00    -0.269 OA
BRANCH  41  44
ATOM     44  C   UNL A   1      43.807  25.040  27.088  1.00  0.00     0.039 A 
ATOM     45  C   UNL A   1      43.058  25.802  26.188  1.00  0.00     0.014 A 
ATOM     46  C   UNL A   1      44.141  25.549  28.341  1.00  0.00     0.014 A 
ATOM     47  C   UNL A   1      42.597  27.052  26.592  1.00  0.00     0.010 A 
ATOM     48  C   UNL A   1      43.543  26.690  28.800  1.00  0.00     0.010 A 
ATOM     49  C   UNL A   1      42.832  27.478  27.910  1.00  0.00    -0.014 A 
BRANCH  49  50
ATOM     50  C   UNL A   1      42.213  28.685  28.439  1.00  0.00     0.031 A 
ATOM     51  C   UNL A   1      42.992  29.915  28.150  1.00  0.00     0.074 A 
ATOM     52  C   UNL A   1      40.955  28.713  28.937  1.00  0.00     0.049 A 
ATOM     53  N   UNL A   1      43.620  30.649  29.005  1.00  0.00    -0.248 NA
ATOM     54  C   UNL A   1      43.254  30.279  26.746  1.00  0.00     0.031 C 
ATOM     55  C   UNL A   1      39.973  27.622  28.998  1.00  0.00     0.029 A 
ATOM     56  N   UNL A   1      40.237  29.772  29.397  1.00  0.00    -0.354 N 
ATOM     57  C   UNL A   1      44.170  31.697  28.277  1.00  0.00     0.074 A 
ATOM     58  C   UNL A   1      44.083  31.317  26.891  1.00  0.00     0.031 C 
ATOM     59  C   UNL A   1      38.739  28.131  29.229  1.00  0.00     0.029 A 
ATOM     60  C   UNL A   1      38.865  29.553  29.494  1.00  0.00     0.049 A 
ATOM     61  H   UNL A   1      40.656  30.628  29.643  1.00  0.00     0.167 HD
ATOM     62  C   UNL A   1      44.394  32.906  28.864  1.00  0.00     0.031 A 
ATOM     63  C   UNL A   1      37.905  30.478  29.754  1.00  0.00     0.031 A 
ATOM     64  C   UNL A   1      44.322  32.808  30.303  1.00  0.00     0.049 A 
ATOM     65  C   UNL A   1      38.577  31.646  30.366  1.00  0.00     0.074 A 
ATOM     66  C   UNL A   1      45.004  32.087  31.262  1.00  0.00     0.029 A 
ATOM     67  N   UNL A   1      43.140  33.197  30.889  1.00  0.00    -0.354 N 
ATOM     68  N   UNL A   1      39.118  31.611  31.549  1.00  0.00    -0.248 NA
ATOM     69  C   UNL A   1      39.075  32.685  29.479  1.00  0.00     0.031 C 
ATOM     70  C   UNL A   1      44.001  31.669  32.186  1.00  0.00     0.029 A 
ATOM     71  C   UNL A   1      42.786  32.239  31.802  1.00  0.00     0.049 A 
ATOM     72  H   UNL A   1      42.637  34.020  30.687  1.00  0.00     0.167 HD
ATOM     73  C   UNL A   1      40.328  32.270  31.393  1.00  0.00     0.074 A 
ATOM     74  C   UNL A   1      40.203  32.996  30.127  1.00  0.00     0.031 C 
ATOM     75  C   UNL A   1      41.417  31.923  32.142  1.00  0.00     0.031 A 
BRANCH  62  76
ATOM     76  C   UNL A   1      44.217  34.221  28.150  1.00  0.00    -0.014 A 
ATOM     77  C   UNL A   1      45.002  35.315  28.559  1.00  0.00     0.009 A 
ATOM     78  C   UNL A   1      43.122  34.507  27.312  1.00  0.00     0.009 A 
ATOM     79  C   UNL A   1      44.657  36.627  28.216  1.00  0.00     0.001 A 
ATOM     80  C   UNL A   1      42.798  35.812  26.936  1.00  0.00     0.001 A 
ATOM     81  C   UNL A   1      43.548  36.876  27.414  1.00  0.00     0.000 A 
ENDBRANCH  62  76
BRANCH  63  82
ATOM     82  C   UNL A   1      36.497  30.556  29.298  1.00  0.00    -0.014 A 
ATOM     83  C   UNL A   1      35.683  31.646  29.651  1.00  0.00     0.009 A 
ATOM     84  C   UNL A   1      36.046  29.715  28.266  1.00  0.00     0.009 A 
ATOM     85  C   UNL A   1      34.488  31.911  28.965  1.00  0.00     0.001 A 
ATOM     86  C   UNL A   1      34.854  29.979  27.580  1.00  0.00     0.001 A 
ATOM     87  C   UNL A   1      34.083  31.087  27.918  1.00  0.00     0.000 A 
ENDBRANCH  63  82
BRANCH  75  88
ATOM     88  C   UNL A   1      41.200  30.965  33.293  1.00  0.00    -0.014 A 
ATOM     89  C   UNL A   1      41.112  29.567  33.145  1.00  0.00     0.009 A 
ATOM     90  C   UNL A   1      41.197  31.490  34.591  1.00  0.00     0.009 A 
ATOM     91  C   UNL A   1      40.974  28.732  34.260  1.00  0.00     0.001 A 
ATOM     92  C   UNL A   1      41.084  30.657  35.706  1.00  0.00     0.001 A 
ATOM     93  C   UNL A   1      40.960  29.279  35.541  1.00  0.00     0.000 A 
ENDBRANCH  75  88
ENDBRANCH  49  50
ENDBRANCH  41  44
ENDBRANCH  39  40
ENDBRANCH  38  39
ENDBRANCH   1  38
TORSDOF 15
ENDMDL
MODEL 3
REMARK VINA RESULT:     -12.5      4.748     10.987
REMARK SMILES COc1cc([C@H]2c3c(-c4ccccc4)n[nH]c3C(=O)N2c2ccc(C(=O)NCCCNC(=O)c3ccc(-c4c5nc(c(-c6ccccc6)c6ccc([nH]6)c(-c6ccccc6)c6nc(c(-c7ccccc7)c7ccc4[nH]7)C=C6)C=C5)cc3)cc2)ccc1O
REMARK SMILES IDX 28 1 27 2 25 3 26 4 24 6 21 7 22 8 83 9 23 10 82 11 20 12
REMARK SMILES IDX 6 13 7 14 8 15 17 16 18 17 15 18 16 19 19 20 5 22 3 23 4 24
REMARK SMILES IDX 86 25 85 26 84 27 2 28 1 29 87 30 9 32 10 33 14 34 11 35
REMARK SMILES IDX 13 36 12 37 29 38 30 39 31 40 32 41 33 43 34 44 35 45 81 46
REMARK SMILES IDX 36 47 80 48 37 49 38 50 39 51 74 52 40 53 79 54 73 55 75 56
REMARK SMILES IDX 41 57 78 58 72 59 71 60 42 62 64 63 49 64 63 65 50 66 53 67
REMARK SMILES IDX 62 68 76 69 51 70 52 71 61 73 77 74 54 75 43 76 44 77 48 78
REMARK SMILES IDX 45 79 47 80 46 81 65 82 66 83 70 84 67 85 69 86 68 87 55 88
REMARK SMILES IDX 56 89 60 90 57 91 59 92 58 93
REMARK H PARENT 27 5 16 21 87 31 31 42 75 61 53 72
REMARK Flexibility Score: inf
ROOT
ATOM      1  C   UNL A   1      46.759  28.814  31.616  1.00  0.00     0.118 C 
ENDROOT
BRANCH   1   2
ATOM      2  N   UNL A   1      47.816  29.328  30.760  1.00  0.00    -0.352 N 
ATOM      3  C   UNL A   1      48.196  29.032  29.475  1.00  0.00     0.251 C 
ATOM      4  O   UNL A   1      49.130  29.681  29.002  1.00  0.00    -0.269 OA
ATOM      5  H   UNL A   1      48.368  30.024  31.187  1.00  0.00     0.163 HD
BRANCH   3   6
ATOM      6  C   UNL A   1      47.513  28.015  28.625  1.00  0.00     0.039 A 
ATOM      7  C   UNL A   1      46.389  25.990  27.032  1.00  0.00     0.045 A 
ATOM      8  C   UNL A   1      47.248  25.654  28.076  1.00  0.00     0.027 A 
ATOM      9  C   UNL A   1      46.049  27.320  26.814  1.00  0.00     0.027 A 
ATOM     10  C   UNL A   1      47.832  26.666  28.846  1.00  0.00     0.016 A 
ATOM     11  C   UNL A   1      46.564  28.313  27.645  1.00  0.00     0.016 A 
BRANCH   7  12
ATOM     12  N   UNL A   1      45.825  24.999  26.222  1.00  0.00    -0.295 N 
ATOM     13  C   UNL A   1      44.781  24.062  26.729  1.00  0.00     0.156 C 
ATOM     14  C   UNL A   1      44.685  23.151  25.563  1.00  0.00     0.038 A 
ATOM     15  C   UNL A   1      44.067  21.994  25.062  1.00  0.00     0.099 A 
ATOM     16  C   UNL A   1      45.553  23.548  24.585  1.00  0.00     0.129 A 
ATOM     17  C   UNL A   1      46.267  24.720  24.922  1.00  0.00     0.277 C 
ATOM     18  N   UNL A   1      44.600  21.671  23.859  1.00  0.00    -0.174 NA
ATOM     19  N   UNL A   1      45.493  22.653  23.588  1.00  0.00    -0.272 N 
ATOM     20  O   UNL A   1      47.104  25.293  24.240  1.00  0.00    -0.267 OA
ATOM     21  H   UNL A   1      46.028  22.704  22.764  1.00  0.00     0.190 HD
BRANCH  13  22
ATOM     22  C   UNL A   1      43.439  24.736  26.928  1.00  0.00    -0.016 A 
ATOM     23  C   UNL A   1      41.828  26.463  26.219  1.00  0.00     0.160 A 
ATOM     24  C   UNL A   1      43.056  25.791  26.078  1.00  0.00     0.056 A 
ATOM     25  C   UNL A   1      40.976  26.071  27.253  1.00  0.00     0.157 A 
ATOM     26  C   UNL A   1      41.322  25.010  28.091  1.00  0.00     0.050 A 
ATOM     27  C   UNL A   1      42.529  24.332  27.918  1.00  0.00     0.010 A 
BRANCH  23  28
ATOM     28  O   UNL A   1      41.630  27.410  25.255  1.00  0.00    -0.493 OA
ATOM     29  C   UNL A   1      41.755  28.786  25.576  1.00  0.00     0.278 C 
ENDBRANCH  23  28
BRANCH  25  30
ATOM     30  O   UNL A   1      39.763  26.639  27.511  1.00  0.00    -0.504 OA
ATOM     31  H   UNL A   1      39.269  26.370  28.261  1.00  0.00     0.293 HD
ENDBRANCH  25  30
ENDBRANCH  13  22
BRANCH  15  32
ATOM     32  C   UNL A   1      43.006  21.189  25.650  1.00  0.00     0.002 A 
ATOM     33  C   UNL A   1      43.180  19.813  25.835  1.00  0.00     0.010 A 
ATOM     34  C   UNL A   1      41.778  21.771  25.985  1.00  0.00     0.010 A 
ATOM     35  C   UNL A   1      42.145  19.036  26.363  1.00  0.00     0.001 A 
ATOM     36  C   UNL A   1      40.745  20.997  26.515  1.00  0.00     0.001 A 
ATOM     37  C   UNL A   1      40.929  19.629  26.705  1.00  0.00     0.000 A 
ENDBRANCH  15  32
ENDBRANCH   7  12
ENDBRANCH   3   6
ENDBRANCH   1   2
BRANCH   1  38
ATOM     38  C   UNL A   1      47.314  27.844  32.669  1.00  0.00     0.042 C 
BRANCH  38  39
ATOM     39  C   UNL A   1      46.307  26.758  32.998  1.00  0.00     0.118 C 
BRANCH  39  40
ATOM     40  N   UNL A   1      46.194  25.772  31.923  1.00  0.00    -0.352 N 
ATOM     41  C   UNL A   1      45.119  25.519  31.097  1.00  0.00     0.251 C 
ATOM     42  H   UNL A   1      46.991  25.216  31.768  1.00  0.00     0.163 HD
ATOM     43  O   UNL A   1      45.040  24.465  30.477  1.00  0.00    -0.269 OA
BRANCH  41  44
ATOM     44  C   UNL A   1      44.067  26.542  30.967  1.00  0.00     0.039 A 
ATOM     45  C   UNL A   1      43.373  27.019  32.081  1.00  0.00     0.014 A 
ATOM     46  C   UNL A   1      43.789  27.032  29.694  1.00  0.00     0.014 A 
ATOM     47  C   UNL A   1      42.444  28.041  31.902  1.00  0.00     0.010 A 
ATOM     48  C   UNL A   1      43.014  28.149  29.542  1.00  0.00     0.010 A 
ATOM     49  C   UNL A   1      42.286  28.611  30.627  1.00  0.00    -0.014 A 
BRANCH  49  50
ATOM     50  C   UNL A   1      41.473  29.801  30.424  1.00  0.00     0.031 A 
ATOM     51  C   UNL A   1      42.268  30.988  30.021  1.00  0.00     0.074 A 
ATOM     52  C   UNL A   1      40.121  29.775  30.384  1.00  0.00     0.049 A 
ATOM     53  N   UNL A   1      42.480  32.050  30.722  1.00  0.00    -0.248 NA
ATOM     54  C   UNL A   1      43.061  30.926  28.779  1.00  0.00     0.031 C 
ATOM     55  C   UNL A   1      39.227  28.612  30.467  1.00  0.00     0.029 A 
ATOM     56  N   UNL A   1      39.250  30.790  30.138  1.00  0.00    -0.354 N 
ATOM     57  C   UNL A   1      43.247  32.889  29.923  1.00  0.00     0.074 A 
ATOM     58  C   UNL A   1      43.733  32.079  28.835  1.00  0.00     0.031 C 
ATOM     59  C   UNL A   1      37.991  28.954  30.033  1.00  0.00     0.029 A 
ATOM     60  C   UNL A   1      37.960  30.387  29.798  1.00  0.00     0.049 A 
ATOM     61  H   UNL A   1      39.511  31.737  30.195  1.00  0.00     0.167 HD
ATOM     62  C   UNL A   1      43.183  34.241  30.077  1.00  0.00     0.031 A 
ATOM     63  C   UNL A   1      36.951  31.172  29.340  1.00  0.00     0.031 A 
ATOM     64  C   UNL A   1      42.544  34.594  31.322  1.00  0.00     0.049 A 
ATOM     65  C   UNL A   1      37.288  32.569  29.694  1.00  0.00     0.074 A 
ATOM     66  C   UNL A   1      42.804  34.339  32.653  1.00  0.00     0.029 A 
ATOM     67  N   UNL A   1      41.215  34.946  31.255  1.00  0.00    -0.354 N 
ATOM     68  N   UNL A   1      37.311  33.002  30.921  1.00  0.00    -0.248 NA
ATOM     69  C   UNL A   1      38.072  33.341  28.742  1.00  0.00     0.031 C 
ATOM     70  C   UNL A   1      41.526  34.075  33.231  1.00  0.00     0.029 A 
ATOM     71  C   UNL A   1      40.552  34.282  32.253  1.00  0.00     0.049 A 
ATOM     72  H   UNL A   1      40.813  35.565  30.604  1.00  0.00     0.167 HD
ATOM     73  C   UNL A   1      38.464  33.770  30.993  1.00  0.00     0.074 A 
ATOM     74  C   UNL A   1      38.837  34.026  29.599  1.00  0.00     0.031 C 
ATOM     75  C   UNL A   1      39.170  33.867  32.158  1.00  0.00     0.031 A 
BRANCH  62  76
ATOM     76  C   UNL A   1      43.271  35.212  28.928  1.00  0.00    -0.014 A 
ATOM     77  C   UNL A   1      44.368  36.092  28.878  1.00  0.00     0.009 A 
ATOM     78  C   UNL A   1      42.190  35.500  28.073  1.00  0.00     0.009 A 
ATOM     79  C   UNL A   1      44.344  37.241  28.079  1.00  0.00     0.001 A 
ATOM     80  C   UNL A   1      42.180  36.625  27.245  1.00  0.00     0.001 A 
ATOM     81  C   UNL A   1      43.245  37.513  27.271  1.00  0.00     0.000 A 
ENDBRANCH  62  76
BRANCH  63  82
ATOM     82  C   UNL A   1      35.843  30.865  28.406  1.00  0.00    -0.014 A 
ATOM     83  C   UNL A   1      35.678  29.571  27.882  1.00  0.00     0.009 A 
ATOM     84  C   UNL A   1      34.770  31.763  28.270  1.00  0.00     0.009 A 
ATOM     85  C   UNL A   1      34.469  29.177  27.289  1.00  0.00     0.001 A 
ATOM     86  C   UNL A   1      33.563  31.371  27.678  1.00  0.00     0.001 A 
ATOM     87  C   UNL A   1      33.406  30.073  27.202  1.00  0.00     0.000 A 
ENDBRANCH  63  82
BRANCH  75  88
ATOM     88  C   UNL A   1      38.537  33.301  33.411  1.00  0.00    -0.014 A 
ATOM     89  C   UNL A   1      38.633  31.950  33.798  1.00  0.00     0.009 A 
ATOM     90  C   UNL A   1      37.915  34.195  34.291  1.00  0.00     0.009 A 
ATOM     91  C   UNL A   1      38.077  31.505  35.003  1.00  0.00     0.001 A 
ATOM     92  C   UNL A   1      37.381  33.757  35.505  1.00  0.00     0.001 A 
ATOM     93  C   UNL A   1      37.450  32.411  35.856  1.00  0.00     0.000 A 
ENDBRANCH  75  88
ENDBRANCH  49  50
ENDBRANCH  41  44
ENDBRANCH  39  40
ENDBRANCH  38  39
ENDBRANCH   1  38
TORSDOF 15
ENDMDL
