MODEL 1
REMARK VINA RESULT:     -10.0      0.000      0.000
REMARK SMILES CC1(C)[C@H](C(=O)NCCCNC(=O)c2ccc(-c3c4nc(c(-c5ccccc5)c5ccc([nH]5)c(-c5ccccc5)c5nc(c(-c6ccccc6)c6ccc3[nH]6)C=C5)C=C4)cc2)[C@@H]1c1nc2ccc(F)cc2s1
REMARK SMILES IDX 9 1 8 2 7 3 5 4 6 5 4 7 1 8 2 9 3 10 62 11 63 12 64 13 72 14
REMARK SMILES IDX 65 15 71 16 66 17 70 18 67 19 68 20 69 21 10 22 11 23 12 24
REMARK SMILES IDX 13 26 14 27 15 28 61 29 16 30 60 31 17 32 18 33 19 34 54 35
REMARK SMILES IDX 20 36 59 37 53 38 55 39 21 40 58 41 52 42 51 43 22 45 44 46
REMARK SMILES IDX 29 47 43 48 30 49 33 50 42 51 56 52 31 53 32 54 41 56 57 57
REMARK SMILES IDX 34 58 23 59 24 60 28 61 25 62 27 63 26 64 45 65 46 66 50 67
REMARK SMILES IDX 47 68 49 69 48 70 35 71 36 72 40 73 37 74 39 75 38 76
REMARK H PARENT 7 6 11 25 55 44 33 55
REMARK Flexibility Score: inf
ROOT
ATOM      1  C   UNL A   1      44.837  20.657  24.618  1.00  0.00     0.042 C 
ENDROOT
BRANCH   1   2
ATOM      2  C   UNL A   1      45.702  21.681  25.326  1.00  0.00     0.117 C 
BRANCH   2   3
ATOM      3  N   UNL A   1      46.266  22.663  24.448  1.00  0.00    -0.356 N 
ATOM      4  C   UNL A   1      46.952  23.818  24.681  1.00  0.00     0.224 C 
ATOM      5  O   UNL A   1      47.278  24.440  23.667  1.00  0.00    -0.275 OA
ATOM      6  H   UNL A   1      46.132  22.464  23.493  1.00  0.00     0.163 HD
BRANCH   4   7
ATOM      7  C   UNL A   1      47.347  24.421  25.984  1.00  0.00     0.095 C 
ATOM      8  C   UNL A   1      49.487  25.192  27.163  1.00  0.00     0.013 C 
ATOM      9  C   UNL A   1      48.370  25.550  26.200  1.00  0.00    -0.013 C 
ATOM     10  C   UNL A   1      48.888  26.357  25.039  1.00  0.00     0.013 C 
ATOM     11  C   UNL A   1      46.955  25.644  26.754  1.00  0.00     0.068 C 
BRANCH  11  12
ATOM     12  C   UNL A   1      45.764  26.519  26.398  1.00  0.00     0.098 A 
ATOM     13  N   UNL A   1      45.634  27.678  27.004  1.00  0.00    -0.241 NA
ATOM     14  S   UNL A   1      44.598  26.207  25.177  1.00  0.00    -0.118 S 
ATOM     15  C   UNL A   1      44.390  28.212  26.725  1.00  0.00     0.082 A 
ATOM     16  C   UNL A   1      43.615  27.474  25.825  1.00  0.00     0.057 A 
ATOM     17  C   UNL A   1      43.844  29.377  27.303  1.00  0.00     0.033 A 
ATOM     18  C   UNL A   1      42.276  27.801  25.562  1.00  0.00     0.060 A 
ATOM     19  C   UNL A   1      42.516  29.723  27.034  1.00  0.00     0.041 A 
ATOM     20  C   UNL A   1      41.749  28.926  26.196  1.00  0.00     0.124 A 
ATOM     21  F   UNL A   1      40.467  29.251  25.987  1.00  0.00    -0.207 F 
ENDBRANCH  11  12
ENDBRANCH   4   7
ENDBRANCH   2   3
ENDBRANCH   1   2
BRANCH   1  22
ATOM     22  C   UNL A   1      44.363  19.553  25.540  1.00  0.00     0.118 C 
BRANCH  22  23
ATOM     23  N   UNL A   1      42.963  19.212  25.313  1.00  0.00    -0.352 N 
ATOM     24  C   UNL A   1      41.817  19.797  25.794  1.00  0.00     0.251 C 
ATOM     25  H   UNL A   1      42.818  18.439  24.722  1.00  0.00     0.163 HD
ATOM     26  O   UNL A   1      40.742  19.223  25.672  1.00  0.00    -0.269 OA
BRANCH  24  27
ATOM     27  C   UNL A   1      41.884  21.108  26.475  1.00  0.00     0.039 A 
ATOM     28  C   UNL A   1      41.762  21.163  27.866  1.00  0.00     0.014 A 
ATOM     29  C   UNL A   1      42.061  22.283  25.744  1.00  0.00     0.014 A 
ATOM     30  C   UNL A   1      41.898  22.387  28.523  1.00  0.00     0.010 A 
ATOM     31  C   UNL A   1      42.320  23.476  26.404  1.00  0.00     0.010 A 
ATOM     32  C   UNL A   1      42.222  23.547  27.801  1.00  0.00    -0.014 A 
BRANCH  32  33
ATOM     33  C   UNL A   1      42.431  24.855  28.467  1.00  0.00     0.031 A 
ATOM     34  C   UNL A   1      43.744  25.142  29.149  1.00  0.00     0.074 A 
ATOM     35  C   UNL A   1      41.426  25.751  28.522  1.00  0.00     0.049 A 
ATOM     36  N   UNL A   1      44.090  26.175  29.874  1.00  0.00    -0.248 NA
ATOM     37  C   UNL A   1      44.796  24.117  29.027  1.00  0.00     0.031 C 
ATOM     38  C   UNL A   1      40.097  25.579  27.930  1.00  0.00     0.029 A 
ATOM     39  N   UNL A   1      41.367  26.987  29.115  1.00  0.00    -0.354 N 
ATOM     40  C   UNL A   1      45.385  25.915  30.303  1.00  0.00     0.074 A 
ATOM     41  C   UNL A   1      45.741  24.602  29.817  1.00  0.00     0.031 C 
ATOM     42  C   UNL A   1      39.367  26.684  28.160  1.00  0.00     0.029 A 
ATOM     43  C   UNL A   1      40.154  27.617  28.958  1.00  0.00     0.049 A 
ATOM     44  H   UNL A   1      42.121  27.387  29.605  1.00  0.00     0.167 HD
ATOM     45  C   UNL A   1      46.218  26.710  31.015  1.00  0.00     0.031 A 
ATOM     46  C   UNL A   1      39.724  28.807  29.418  1.00  0.00     0.031 A 
ATOM     47  C   UNL A   1      45.870  28.023  31.485  1.00  0.00     0.049 A 
ATOM     48  C   UNL A   1      40.658  29.653  30.240  1.00  0.00     0.074 A 
ATOM     49  C   UNL A   1      46.654  28.924  32.181  1.00  0.00     0.029 A 
ATOM     50  N   UNL A   1      44.634  28.621  31.301  1.00  0.00    -0.354 N 
ATOM     51  N   UNL A   1      41.900  29.415  30.589  1.00  0.00    -0.248 NA
ATOM     52  C   UNL A   1      40.133  30.938  30.722  1.00  0.00     0.031 C 
ATOM     53  C   UNL A   1      45.876  30.049  32.464  1.00  0.00     0.029 A 
ATOM     54  C   UNL A   1      44.628  29.874  31.887  1.00  0.00     0.049 A 
ATOM     55  H   UNL A   1      43.873  28.215  30.825  1.00  0.00     0.167 HD
ATOM     56  C   UNL A   1      42.315  30.538  31.295  1.00  0.00     0.074 A 
ATOM     57  C   UNL A   1      41.199  31.460  31.312  1.00  0.00     0.031 C 
ATOM     58  C   UNL A   1      43.513  30.784  31.878  1.00  0.00     0.031 A 
BRANCH  45  59
ATOM     59  C   UNL A   1      47.592  26.182  31.320  1.00  0.00    -0.014 A 
ATOM     60  C   UNL A   1      48.652  26.351  30.414  1.00  0.00     0.009 A 
ATOM     61  C   UNL A   1      47.844  25.548  32.547  1.00  0.00     0.009 A 
ATOM     62  C   UNL A   1      49.927  25.870  30.718  1.00  0.00     0.001 A 
ATOM     63  C   UNL A   1      49.127  25.097  32.861  1.00  0.00     0.001 A 
ATOM     64  C   UNL A   1      50.165  25.250  31.943  1.00  0.00     0.000 A 
ENDBRANCH  45  59
BRANCH  46  65
ATOM     65  C   UNL A   1      38.347  29.282  29.114  1.00  0.00    -0.014 A 
ATOM     66  C   UNL A   1      37.338  29.212  30.089  1.00  0.00     0.009 A 
ATOM     67  C   UNL A   1      38.021  29.770  27.840  1.00  0.00     0.009 A 
ATOM     68  C   UNL A   1      36.026  29.579  29.779  1.00  0.00     0.001 A 
ATOM     69  C   UNL A   1      36.717  30.169  27.543  1.00  0.00     0.001 A 
ATOM     70  C   UNL A   1      35.717  30.059  28.507  1.00  0.00     0.000 A 
ENDBRANCH  46  65
BRANCH  58  71
ATOM     71  C   UNL A   1      43.703  32.126  32.529  1.00  0.00    -0.014 A 
ATOM     72  C   UNL A   1      43.429  32.327  33.889  1.00  0.00     0.009 A 
ATOM     73  C   UNL A   1      44.216  33.192  31.771  1.00  0.00     0.009 A 
ATOM     74  C   UNL A   1      43.633  33.580  34.471  1.00  0.00     0.001 A 
ATOM     75  C   UNL A   1      44.452  34.432  32.363  1.00  0.00     0.001 A 
ATOM     76  C   UNL A   1      44.150  34.628  33.709  1.00  0.00     0.000 A 
ENDBRANCH  58  71
ENDBRANCH  32  33
ENDBRANCH  24  27
ENDBRANCH  22  23
ENDBRANCH   1  22
TORSDOF 11
ENDMDL
MODEL 2
REMARK VINA RESULT:      -9.8      0.283      6.063
REMARK SMILES CC1(C)[C@H](C(=O)NCCCNC(=O)c2ccc(-c3c4nc(c(-c5ccccc5)c5ccc([nH]5)c(-c5ccccc5)c5nc(c(-c6ccccc6)c6ccc3[nH]6)C=C5)C=C4)cc2)[C@@H]1c1nc2ccc(F)cc2s1
REMARK SMILES IDX 9 1 8 2 7 3 5 4 6 5 4 7 1 8 2 9 3 10 62 11 63 12 64 13 72 14
REMARK SMILES IDX 65 15 71 16 66 17 70 18 67 19 68 20 69 21 10 22 11 23 12 24
REMARK SMILES IDX 13 26 14 27 15 28 61 29 16 30 60 31 17 32 18 33 19 34 54 35
REMARK SMILES IDX 20 36 59 37 53 38 55 39 21 40 58 41 52 42 51 43 22 45 44 46
REMARK SMILES IDX 29 47 43 48 30 49 33 50 42 51 56 52 31 53 32 54 41 56 57 57
REMARK SMILES IDX 34 58 23 59 24 60 28 61 25 62 27 63 26 64 45 65 46 66 50 67
REMARK SMILES IDX 47 68 49 69 48 70 35 71 36 72 40 73 37 74 39 75 38 76
REMARK H PARENT 7 6 11 25 55 44 33 55
REMARK Flexibility Score: inf
ROOT
ATOM      1  C   UNL A   1      44.557  20.488  24.701  1.00  0.00     0.042 C 
ENDROOT
BRANCH   1   2
ATOM      2  C   UNL A   1      45.431  21.511  25.400  1.00  0.00     0.117 C 
BRANCH   2   3
ATOM      3  N   UNL A   1      46.012  22.472  24.510  1.00  0.00    -0.356 N 
ATOM      4  C   UNL A   1      46.719  23.618  24.731  1.00  0.00     0.224 C 
ATOM      5  O   UNL A   1      47.056  24.223  23.710  1.00  0.00    -0.275 OA
ATOM      6  H   UNL A   1      45.875  22.266  23.558  1.00  0.00     0.163 HD
BRANCH   4   7
ATOM      7  C   UNL A   1      47.125  24.228  26.027  1.00  0.00     0.095 C 
ATOM      8  C   UNL A   1      49.280  24.959  27.204  1.00  0.00     0.013 C 
ATOM      9  C   UNL A   1      48.176  25.333  26.232  1.00  0.00    -0.013 C 
ATOM     10  C   UNL A   1      48.718  26.111  25.062  1.00  0.00     0.013 C 
ATOM     11  C   UNL A   1      46.762  25.471  26.780  1.00  0.00     0.068 C 
BRANCH  11  12
ATOM     12  C   UNL A   1      45.595  26.371  26.407  1.00  0.00     0.098 A 
ATOM     13  N   UNL A   1      45.506  27.551  26.979  1.00  0.00    -0.241 NA
ATOM     14  S   UNL A   1      44.409  26.059  25.207  1.00  0.00    -0.118 S 
ATOM     15  C   UNL A   1      44.276  28.115  26.695  1.00  0.00     0.082 A 
ATOM     16  C   UNL A   1      43.471  27.374  25.824  1.00  0.00     0.057 A 
ATOM     17  C   UNL A   1      43.772  29.313  27.242  1.00  0.00     0.033 A 
ATOM     18  C   UNL A   1      42.140  27.735  25.562  1.00  0.00     0.060 A 
ATOM     19  C   UNL A   1      42.453  29.692  26.974  1.00  0.00     0.041 A 
ATOM     20  C   UNL A   1      41.654  28.894  26.167  1.00  0.00     0.124 A 
ATOM     21  F   UNL A   1      40.381  29.252  25.959  1.00  0.00    -0.207 F 
ENDBRANCH  11  12
ENDBRANCH   4   7
ENDBRANCH   2   3
ENDBRANCH   1   2
BRANCH   1  22
ATOM     22  C   UNL A   1      43.954  19.482  25.659  1.00  0.00     0.118 C 
BRANCH  22  23
ATOM     23  N   UNL A   1      42.538  19.253  25.395  1.00  0.00    -0.352 N 
ATOM     24  C   UNL A   1      41.428  19.909  25.872  1.00  0.00     0.251 C 
ATOM     25  H   UNL A   1      42.347  18.511  24.778  1.00  0.00     0.163 HD
ATOM     26  O   UNL A   1      40.316  19.421  25.712  1.00  0.00    -0.269 OA
BRANCH  24  27
ATOM     27  C   UNL A   1      41.578  21.191  26.594  1.00  0.00     0.039 A 
ATOM     28  C   UNL A   1      41.440  21.212  27.984  1.00  0.00     0.014 A 
ATOM     29  C   UNL A   1      41.849  22.371  25.902  1.00  0.00     0.014 A 
ATOM     30  C   UNL A   1      41.654  22.403  28.681  1.00  0.00     0.010 A 
ATOM     31  C   UNL A   1      42.182  23.522  26.602  1.00  0.00     0.010 A 
ATOM     32  C   UNL A   1      42.070  23.558  27.999  1.00  0.00    -0.014 A 
BRANCH  32  33
ATOM     33  C   UNL A   1      42.361  24.827  28.708  1.00  0.00     0.031 A 
ATOM     34  C   UNL A   1      41.303  25.897  28.785  1.00  0.00     0.074 A 
ATOM     35  C   UNL A   1      43.589  25.048  29.218  1.00  0.00     0.049 A 
ATOM     36  N   UNL A   1      41.389  27.112  29.264  1.00  0.00    -0.248 NA
ATOM     37  C   UNL A   1      39.982  25.570  28.218  1.00  0.00     0.031 C 
ATOM     38  C   UNL A   1      44.709  24.105  29.180  1.00  0.00     0.029 A 
ATOM     39  N   UNL A   1      44.101  26.144  29.864  1.00  0.00    -0.354 N 
ATOM     40  C   UNL A   1      40.147  27.692  29.041  1.00  0.00     0.074 A 
ATOM     41  C   UNL A   1      39.345  26.726  28.326  1.00  0.00     0.031 C 
ATOM     42  C   UNL A   1      45.765  24.651  29.807  1.00  0.00     0.029 A 
ATOM     43  C   UNL A   1      45.415  25.998  30.243  1.00  0.00     0.049 A 
ATOM     44  H   UNL A   1      43.578  26.960  30.040  1.00  0.00     0.167 HD
ATOM     45  C   UNL A   1      39.700  28.911  29.423  1.00  0.00     0.031 A 
ATOM     46  C   UNL A   1      46.246  26.859  30.860  1.00  0.00     0.031 A 
ATOM     47  C   UNL A   1      40.492  29.866  30.149  1.00  0.00     0.049 A 
ATOM     48  C   UNL A   1      45.733  28.222  31.239  1.00  0.00     0.074 A 
ATOM     49  C   UNL A   1      40.120  31.114  30.617  1.00  0.00     0.029 A 
ATOM     50  N   UNL A   1      41.814  29.675  30.514  1.00  0.00    -0.354 N 
ATOM     51  N   UNL A   1      44.538  28.734  31.071  1.00  0.00    -0.248 NA
ATOM     52  C   UNL A   1      46.685  29.123  31.905  1.00  0.00     0.031 C 
ATOM     53  C   UNL A   1      41.235  31.700  31.222  1.00  0.00     0.029 A 
ATOM     54  C   UNL A   1      42.280  30.791  31.187  1.00  0.00     0.049 A 
ATOM     55  H   UNL A   1      42.343  28.867  30.324  1.00  0.00     0.167 HD
ATOM     56  C   UNL A   1      44.583  29.998  31.645  1.00  0.00     0.074 A 
ATOM     57  C   UNL A   1      45.918  30.170  32.178  1.00  0.00     0.031 C 
ATOM     58  C   UNL A   1      43.607  30.935  31.725  1.00  0.00     0.031 A 
BRANCH  45  59
ATOM     59  C   UNL A   1      38.284  29.276  29.071  1.00  0.00    -0.014 A 
ATOM     60  C   UNL A   1      37.266  29.249  30.037  1.00  0.00     0.009 A 
ATOM     61  C   UNL A   1      37.973  29.695  27.768  1.00  0.00     0.009 A 
ATOM     62  C   UNL A   1      35.959  29.605  29.698  1.00  0.00     0.001 A 
ATOM     63  C   UNL A   1      36.672  30.082  27.441  1.00  0.00     0.001 A 
ATOM     64  C   UNL A   1      35.664  30.028  28.404  1.00  0.00     0.000 A 
ENDBRANCH  45  59
BRANCH  46  65
ATOM     65  C   UNL A   1      47.647  26.468  31.170  1.00  0.00    -0.014 A 
ATOM     66  C   UNL A   1      48.678  26.727  30.253  1.00  0.00     0.009 A 
ATOM     67  C   UNL A   1      47.958  25.798  32.363  1.00  0.00     0.009 A 
ATOM     68  C   UNL A   1      49.980  26.286  30.504  1.00  0.00     0.001 A 
ATOM     69  C   UNL A   1      49.267  25.388  32.629  1.00  0.00     0.001 A 
ATOM     70  C   UNL A   1      50.273  25.618  31.693  1.00  0.00     0.000 A 
ENDBRANCH  46  65
BRANCH  58  71
ATOM     71  C   UNL A   1      43.925  32.203  32.467  1.00  0.00    -0.014 A 
ATOM     72  C   UNL A   1      43.817  32.284  33.863  1.00  0.00     0.009 A 
ATOM     73  C   UNL A   1      44.392  33.319  31.753  1.00  0.00     0.009 A 
ATOM     74  C   UNL A   1      44.138  33.470  34.526  1.00  0.00     0.001 A 
ATOM     75  C   UNL A   1      44.745  34.491  32.422  1.00  0.00     0.001 A 
ATOM     76  C   UNL A   1      44.608  34.568  33.807  1.00  0.00     0.000 A 
ENDBRANCH  58  71
ENDBRANCH  32  33
ENDBRANCH  24  27
ENDBRANCH  22  23
ENDBRANCH   1  22
TORSDOF 11
ENDMDL
MODEL 3
REMARK VINA RESULT:      -9.6      3.999      6.594
REMARK SMILES CC1(C)[C@H](C(=O)NCCCNC(=O)c2ccc(-c3c4nc(c(-c5ccccc5)c5ccc([nH]5)c(-c5ccccc5)c5nc(c(-c6ccccc6)c6ccc3[nH]6)C=C5)C=C4)cc2)[C@@H]1c1nc2ccc(F)cc2s1
REMARK SMILES IDX 9 1 8 2 7 3 5 4 6 5 4 7 1 8 2 9 3 10 62 11 63 12 64 13 72 14
REMARK SMILES IDX 65 15 71 16 66 17 70 18 67 19 68 20 69 21 10 22 11 23 12 24
REMARK SMILES IDX 13 26 14 27 15 28 61 29 16 30 60 31 17 32 18 33 19 34 54 35
REMARK SMILES IDX 20 36 59 37 53 38 55 39 21 40 58 41 52 42 51 43 22 45 44 46
REMARK SMILES IDX 29 47 43 48 30 49 33 50 42 51 56 52 31 53 32 54 41 56 57 57
REMARK SMILES IDX 34 58 23 59 24 60 28 61 25 62 27 63 26 64 45 65 46 66 50 67
REMARK SMILES IDX 47 68 49 69 48 70 35 71 36 72 40 73 37 74 39 75 38 76
REMARK H PARENT 7 6 11 25 55 44 33 55
REMARK Flexibility Score: inf
ROOT
ATOM      1  C   UNL A   1      37.649  19.710  24.765  1.00  0.00     0.042 C 
ENDROOT
BRANCH   1   2
ATOM      2  C   UNL A   1      36.308  20.358  25.050  1.00  0.00     0.117 C 
BRANCH   2   3
ATOM      3  N   UNL A   1      36.347  21.790  25.028  1.00  0.00    -0.356 N 
ATOM      4  C   UNL A   1      35.492  22.725  24.522  1.00  0.00     0.224 C 
ATOM      5  O   UNL A   1      35.858  23.894  24.667  1.00  0.00    -0.275 OA
ATOM      6  H   UNL A   1      37.144  22.173  25.461  1.00  0.00     0.163 HD
BRANCH   4   7
ATOM      7  C   UNL A   1      34.195  22.519  23.820  1.00  0.00     0.095 C 
ATOM      8  C   UNL A   1      32.448  20.668  23.537  1.00  0.00     0.013 C 
ATOM      9  C   UNL A   1      32.946  21.822  24.386  1.00  0.00    -0.013 C 
ATOM     10  C   UNL A   1      32.834  21.509  25.855  1.00  0.00     0.013 C 
ATOM     11  C   UNL A   1      32.874  23.224  23.795  1.00  0.00     0.068 C 
BRANCH  11  12
ATOM     12  C   UNL A   1      32.636  24.593  24.412  1.00  0.00     0.098 A 
ATOM     13  N   UNL A   1      33.299  25.620  23.932  1.00  0.00    -0.241 NA
ATOM     14  S   UNL A   1      31.482  24.979  25.623  1.00  0.00    -0.118 S 
ATOM     15  C   UNL A   1      33.127  26.713  24.761  1.00  0.00     0.082 A 
ATOM     16  C   UNL A   1      32.248  26.515  25.830  1.00  0.00     0.057 A 
ATOM     17  C   UNL A   1      33.790  27.952  24.640  1.00  0.00     0.033 A 
ATOM     18  C   UNL A   1      32.088  27.473  26.842  1.00  0.00     0.060 A 
ATOM     19  C   UNL A   1      33.624  28.922  25.634  1.00  0.00     0.041 A 
ATOM     20  C   UNL A   1      32.804  28.664  26.723  1.00  0.00     0.124 A 
ATOM     21  F   UNL A   1      32.695  29.589  27.686  1.00  0.00    -0.207 F 
ENDBRANCH  11  12
ENDBRANCH   4   7
ENDBRANCH   2   3
ENDBRANCH   1   2
BRANCH   1  22
ATOM     22  C   UNL A   1      38.761  20.261  25.631  1.00  0.00     0.118 C 
BRANCH  22  23
ATOM     23  N   UNL A   1      39.875  19.328  25.754  1.00  0.00    -0.352 N 
ATOM     24  C   UNL A   1      41.196  19.556  26.060  1.00  0.00     0.251 C 
ATOM     25  H   UNL A   1      39.644  18.385  25.591  1.00  0.00     0.163 HD
ATOM     26  O   UNL A   1      42.023  18.669  25.888  1.00  0.00    -0.269 OA
BRANCH  24  27
ATOM     27  C   UNL A   1      41.620  20.876  26.574  1.00  0.00     0.039 A 
ATOM     28  C   UNL A   1      42.122  21.827  25.683  1.00  0.00     0.014 A 
ATOM     29  C   UNL A   1      41.528  21.173  27.934  1.00  0.00     0.014 A 
ATOM     30  C   UNL A   1      42.455  23.101  26.150  1.00  0.00     0.010 A 
ATOM     31  C   UNL A   1      41.741  22.472  28.374  1.00  0.00     0.010 A 
ATOM     32  C   UNL A   1      42.225  23.447  27.491  1.00  0.00    -0.014 A 
BRANCH  32  33
ATOM     33  C   UNL A   1      42.512  24.806  28.012  1.00  0.00     0.031 A 
ATOM     34  C   UNL A   1      43.910  25.153  28.457  1.00  0.00     0.074 A 
ATOM     35  C   UNL A   1      41.513  25.698  28.153  1.00  0.00     0.049 A 
ATOM     36  N   UNL A   1      44.346  26.242  29.036  1.00  0.00    -0.248 NA
ATOM     37  C   UNL A   1      44.948  24.126  28.253  1.00  0.00     0.031 C 
ATOM     38  C   UNL A   1      40.112  25.473  27.790  1.00  0.00     0.029 A 
ATOM     39  N   UNL A   1      41.525  26.978  28.649  1.00  0.00    -0.354 N 
ATOM     40  C   UNL A   1      45.696  26.023  29.277  1.00  0.00     0.074 A 
ATOM     41  C   UNL A   1      45.996  24.677  28.846  1.00  0.00     0.031 C 
ATOM     42  C   UNL A   1      39.407  26.589  28.043  1.00  0.00     0.029 A 
ATOM     43  C   UNL A   1      40.292  27.587  28.634  1.00  0.00     0.049 A 
ATOM     44  H   UNL A   1      42.339  27.419  28.983  1.00  0.00     0.167 HD
ATOM     45  C   UNL A   1      46.616  26.876  29.786  1.00  0.00     0.031 A 
ATOM     46  C   UNL A   1      39.917  28.807  29.061  1.00  0.00     0.031 A 
ATOM     47  C   UNL A   1      46.322  28.221  30.200  1.00  0.00     0.049 A 
ATOM     48  C   UNL A   1      40.953  29.721  29.658  1.00  0.00     0.074 A 
ATOM     49  C   UNL A   1      47.190  29.179  30.692  1.00  0.00     0.029 A 
ATOM     50  N   UNL A   1      45.062  28.797  30.165  1.00  0.00    -0.354 N 
ATOM     51  N   UNL A   1      42.238  29.518  29.827  1.00  0.00    -0.248 NA
ATOM     52  C   UNL A   1      40.487  31.038  30.114  1.00  0.00     0.031 C 
ATOM     53  C   UNL A   1      46.445  30.319  31.004  1.00  0.00     0.029 A 
ATOM     54  C   UNL A   1      45.126  30.093  30.644  1.00  0.00     0.049 A 
ATOM     55  H   UNL A   1      44.244  28.350  29.846  1.00  0.00     0.167 HD
ATOM     56  C   UNL A   1      42.738  30.695  30.370  1.00  0.00     0.074 A 
ATOM     57  C   UNL A   1      41.623  31.611  30.488  1.00  0.00     0.031 C 
ATOM     58  C   UNL A   1      44.008  30.994  30.738  1.00  0.00     0.031 A 
BRANCH  45  59
ATOM     59  C   UNL A   1      48.030  26.381  29.913  1.00  0.00    -0.014 A 
ATOM     60  C   UNL A   1      48.945  26.519  28.858  1.00  0.00     0.009 A 
ATOM     61  C   UNL A   1      48.466  25.810  31.119  1.00  0.00     0.009 A 
ATOM     62  C   UNL A   1      50.260  26.070  28.996  1.00  0.00     0.001 A 
ATOM     63  C   UNL A   1      49.790  25.391  31.265  1.00  0.00     0.001 A 
ATOM     64  C   UNL A   1      50.683  25.512  30.201  1.00  0.00     0.000 A 
ENDBRANCH  45  59
BRANCH  46  65
ATOM     65  C   UNL A   1      38.503  29.250  28.939  1.00  0.00    -0.014 A 
ATOM     66  C   UNL A   1      38.027  29.790  27.732  1.00  0.00     0.009 A 
ATOM     67  C   UNL A   1      37.630  29.175  30.035  1.00  0.00     0.009 A 
ATOM     68  C   UNL A   1      36.723  30.284  27.641  1.00  0.00     0.001 A 
ATOM     69  C   UNL A   1      36.316  29.637  29.931  1.00  0.00     0.001 A 
ATOM     70  C   UNL A   1      35.868  30.205  28.740  1.00  0.00     0.000 A 
ENDBRANCH  46  65
BRANCH  58  71
ATOM     71  C   UNL A   1      44.273  32.384  31.244  1.00  0.00    -0.014 A 
ATOM     72  C   UNL A   1      44.217  32.691  32.611  1.00  0.00     0.009 A 
ATOM     73  C   UNL A   1      44.637  33.390  30.333  1.00  0.00     0.009 A 
ATOM     74  C   UNL A   1      44.487  33.988  33.053  1.00  0.00     0.001 A 
ATOM     75  C   UNL A   1      44.940  34.675  30.782  1.00  0.00     0.001 A 
ATOM     76  C   UNL A   1      44.855  34.975  32.140  1.00  0.00     0.000 A 
ENDBRANCH  58  71
ENDBRANCH  32  33
ENDBRANCH  24  27
ENDBRANCH  22  23
ENDBRANCH   1  22
TORSDOF 11
ENDMDL
