MODEL 1
REMARK VINA RESULT:     -10.0      0.000      0.000
REMARK SMILES C=CCOC(=O)N[C@@H](Cc1ccccc1)C(=O)NCCCNC(=O)c1ccc(-c2c3nc(c(-c4ccccc4)c4ccc([nH]4)c(-c4ccccc4)c4nc(c(-c5ccccc5)c5ccc2[nH]5)C=C4)C=C3)cc1
REMARK SMILES IDX 19 1 18 2 16 3 17 4 8 6 7 7 5 8 6 9 4 11 3 12 2 13 1 14 9 15
REMARK SMILES IDX 10 16 11 17 15 18 12 19 14 20 13 21 20 22 21 23 22 24 23 25
REMARK SMILES IDX 24 27 25 28 26 29 72 30 27 31 71 32 28 33 29 34 30 35 65 36
REMARK SMILES IDX 31 37 70 38 64 39 66 40 32 41 69 42 63 43 62 44 33 46 55 47
REMARK SMILES IDX 40 48 54 49 41 50 44 51 53 52 67 53 42 54 43 55 52 57 68 58
REMARK SMILES IDX 45 59 34 60 35 61 39 62 36 63 38 64 37 65 56 66 57 67 61 68
REMARK SMILES IDX 58 69 60 70 59 71 46 72 47 73 51 74 48 75 50 76 49 77
REMARK H PARENT 18 5 7 10 22 26 66 45 44 56
REMARK Flexibility Score: inf
ROOT
ATOM      1  C   UNL A   1      32.882  28.623  24.938  1.00  0.00     0.117 C 
ENDROOT
BRANCH   1   2
ATOM      2  N   UNL A   1      31.872  27.675  25.345  1.00  0.00    -0.354 N 
ATOM      3  C   UNL A   1      32.053  26.330  25.525  1.00  0.00     0.243 C 
ATOM      4  O   UNL A   1      31.393  25.796  26.425  1.00  0.00    -0.273 OA
ATOM      5  H   UNL A   1      30.969  28.029  25.508  1.00  0.00     0.163 HD
BRANCH   3   6
ATOM      6  C   UNL A   1      33.117  25.520  24.745  1.00  0.00     0.179 C 
BRANCH   6   7
ATOM      7  N   UNL A   1      33.373  26.023  23.395  1.00  0.00    -0.309 N 
ATOM      8  C   UNL A   1      32.995  25.438  22.224  1.00  0.00     0.408 C 
ATOM      9  O   UNL A   1      33.278  25.953  21.147  1.00  0.00    -0.225 OA
ATOM     10  H   UNL A   1      33.869  26.871  23.325  1.00  0.00     0.167 HD
BRANCH   8  11
ATOM     11  O   UNL A   1      32.358  24.255  22.391  1.00  0.00    -0.445 OA
BRANCH  11  12
ATOM     12  C   UNL A   1      33.115  23.094  22.030  1.00  0.00     0.262 C 
BRANCH  12  13
ATOM     13  C   UNL A   1      32.619  21.883  22.760  1.00  0.00     0.006 C 
ATOM     14  C   UNL A   1      32.153  21.911  24.015  1.00  0.00     0.007 C 
ENDBRANCH  12  13
ENDBRANCH  11  12
ENDBRANCH   8  11
ENDBRANCH   6   7
BRANCH   6  15
ATOM     15  C   UNL A   1      34.403  25.207  25.549  1.00  0.00     0.070 C 
BRANCH  15  16
ATOM     16  C   UNL A   1      35.034  23.839  25.395  1.00  0.00    -0.045 A 
ATOM     17  C   UNL A   1      35.887  23.561  24.318  1.00  0.00     0.004 A 
ATOM     18  C   UNL A   1      34.772  22.817  26.320  1.00  0.00     0.004 A 
ATOM     19  C   UNL A   1      36.363  22.265  24.099  1.00  0.00     0.000 A 
ATOM     20  C   UNL A   1      35.288  21.532  26.126  1.00  0.00     0.000 A 
ATOM     21  C   UNL A   1      36.056  21.248  24.999  1.00  0.00     0.000 A 
ENDBRANCH  15  16
ENDBRANCH   6  15
ENDBRANCH   3   6
ENDBRANCH   1   2
BRANCH   1  22
ATOM     22  C   UNL A   1      33.977  28.886  25.943  1.00  0.00     0.042 C 
BRANCH  22  23
ATOM     23  C   UNL A   1      33.448  29.045  27.362  1.00  0.00     0.118 C 
BRANCH  23  24
ATOM     24  N   UNL A   1      33.653  30.386  27.922  1.00  0.00    -0.352 N 
ATOM     25  C   UNL A   1      34.737  30.948  28.554  1.00  0.00     0.251 C 
ATOM     26  H   UNL A   1      32.881  30.988  27.829  1.00  0.00     0.163 HD
ATOM     27  O   UNL A   1      34.634  32.044  29.097  1.00  0.00    -0.269 OA
BRANCH  25  28
ATOM     28  C   UNL A   1      36.018  30.216  28.600  1.00  0.00     0.039 A 
ATOM     29  C   UNL A   1      36.883  30.256  27.504  1.00  0.00     0.014 A 
ATOM     30  C   UNL A   1      36.381  29.528  29.755  1.00  0.00     0.014 A 
ATOM     31  C   UNL A   1      38.160  29.703  27.619  1.00  0.00     0.010 A 
ATOM     32  C   UNL A   1      37.692  29.115  29.917  1.00  0.00     0.010 A 
ATOM     33  C   UNL A   1      38.596  29.186  28.850  1.00  0.00    -0.014 A 
BRANCH  33  34
ATOM     34  C   UNL A   1      39.982  28.698  29.062  1.00  0.00     0.031 A 
ATOM     35  C   UNL A   1      41.027  29.642  29.596  1.00  0.00     0.074 A 
ATOM     36  C   UNL A   1      40.322  27.451  28.677  1.00  0.00     0.049 A 
ATOM     37  N   UNL A   1      42.317  29.461  29.721  1.00  0.00    -0.248 NA
ATOM     38  C   UNL A   1      40.570  30.984  30.001  1.00  0.00     0.031 C 
ATOM     39  C   UNL A   1      39.416  26.459  28.091  1.00  0.00     0.029 A 
ATOM     40  N   UNL A   1      41.534  26.808  28.711  1.00  0.00    -0.354 N 
ATOM     41  C   UNL A   1      42.821  30.670  30.186  1.00  0.00     0.074 A 
ATOM     42  C   UNL A   1      41.715  31.598  30.251  1.00  0.00     0.031 C 
ATOM     43  C   UNL A   1      40.095  25.324  27.860  1.00  0.00     0.029 A 
ATOM     44  C   UNL A   1      41.491  25.522  28.228  1.00  0.00     0.049 A 
ATOM     45  H   UNL A   1      42.358  27.228  29.051  1.00  0.00     0.167 HD
ATOM     46  C   UNL A   1      44.085  30.975  30.558  1.00  0.00     0.031 A 
ATOM     47  C   UNL A   1      42.471  24.609  28.090  1.00  0.00     0.031 A 
ATOM     48  C   UNL A   1      45.177  30.041  30.523  1.00  0.00     0.049 A 
ATOM     49  C   UNL A   1      43.869  24.975  28.509  1.00  0.00     0.074 A 
ATOM     50  C   UNL A   1      46.484  30.228  30.936  1.00  0.00     0.029 A 
ATOM     51  N   UNL A   1      45.083  28.740  30.056  1.00  0.00    -0.354 N 
ATOM     52  N   UNL A   1      44.315  26.101  29.012  1.00  0.00    -0.248 NA
ATOM     53  C   UNL A   1      44.897  23.936  28.353  1.00  0.00     0.031 C 
ATOM     54  C   UNL A   1      47.194  29.054  30.672  1.00  0.00     0.029 A 
ATOM     55  C   UNL A   1      46.315  28.117  30.153  1.00  0.00     0.049 A 
ATOM     56  H   UNL A   1      44.263  28.323  29.706  1.00  0.00     0.167 HD
ATOM     57  C   UNL A   1      45.664  25.894  29.266  1.00  0.00     0.074 A 
ATOM     58  C   UNL A   1      45.960  24.530  28.878  1.00  0.00     0.031 C 
ATOM     59  C   UNL A   1      46.581  26.755  29.772  1.00  0.00     0.031 A 
BRANCH  46  60
ATOM     60  C   UNL A   1      44.349  32.373  31.046  1.00  0.00    -0.014 A 
ATOM     61  C   UNL A   1      44.243  32.699  32.409  1.00  0.00     0.009 A 
ATOM     62  C   UNL A   1      44.745  33.369  30.141  1.00  0.00     0.009 A 
ATOM     63  C   UNL A   1      44.491  34.000  32.847  1.00  0.00     0.001 A 
ATOM     64  C   UNL A   1      45.025  34.662  30.587  1.00  0.00     0.001 A 
ATOM     65  C   UNL A   1      44.889  34.979  31.938  1.00  0.00     0.000 A 
ENDBRANCH  46  60
BRANCH  47  66
ATOM     66  C   UNL A   1      42.174  23.256  27.546  1.00  0.00    -0.014 A 
ATOM     67  C   UNL A   1      41.633  22.261  28.376  1.00  0.00     0.009 A 
ATOM     68  C   UNL A   1      42.456  22.940  26.209  1.00  0.00     0.009 A 
ATOM     69  C   UNL A   1      41.420  20.968  27.890  1.00  0.00     0.001 A 
ATOM     70  C   UNL A   1      42.210  21.656  25.715  1.00  0.00     0.001 A 
ATOM     71  C   UNL A   1      41.707  20.668  26.560  1.00  0.00     0.000 A 
ENDBRANCH  47  66
BRANCH  59  72
ATOM     72  C   UNL A   1      47.972  26.230  29.988  1.00  0.00    -0.014 A 
ATOM     73  C   UNL A   1      48.387  25.749  31.239  1.00  0.00     0.009 A 
ATOM     74  C   UNL A   1      48.864  26.174  28.906  1.00  0.00     0.009 A 
ATOM     75  C   UNL A   1      49.683  25.257  31.410  1.00  0.00     0.001 A 
ATOM     76  C   UNL A   1      50.146  25.651  29.071  1.00  0.00     0.001 A 
ATOM     77  C   UNL A   1      50.558  25.203  30.325  1.00  0.00     0.000 A 
ENDBRANCH  59  72
ENDBRANCH  33  34
ENDBRANCH  25  28
ENDBRANCH  23  24
ENDBRANCH  22  23
ENDBRANCH   1  22
TORSDOF 16
ENDMDL
MODEL 2
REMARK VINA RESULT:      -9.9      2.549      7.848
REMARK SMILES C=CCOC(=O)N[C@@H](Cc1ccccc1)C(=O)NCCCNC(=O)c1ccc(-c2c3nc(c(-c4ccccc4)c4ccc([nH]4)c(-c4ccccc4)c4nc(c(-c5ccccc5)c5ccc2[nH]5)C=C4)C=C3)cc1
REMARK SMILES IDX 19 1 18 2 16 3 17 4 8 6 7 7 5 8 6 9 4 11 3 12 2 13 1 14 9 15
REMARK SMILES IDX 10 16 11 17 15 18 12 19 14 20 13 21 20 22 21 23 22 24 23 25
REMARK SMILES IDX 24 27 25 28 26 29 72 30 27 31 71 32 28 33 29 34 30 35 65 36
REMARK SMILES IDX 31 37 70 38 64 39 66 40 32 41 69 42 63 43 62 44 33 46 55 47
REMARK SMILES IDX 40 48 54 49 41 50 44 51 53 52 67 53 42 54 43 55 52 57 68 58
REMARK SMILES IDX 45 59 34 60 35 61 39 62 36 63 38 64 37 65 56 66 57 67 61 68
REMARK SMILES IDX 58 69 60 70 59 71 46 72 47 73 51 74 48 75 50 76 49 77
REMARK H PARENT 18 5 7 10 22 26 66 45 44 56
REMARK Flexibility Score: inf
ROOT
ATOM      1  C   UNL A   1      34.762  23.800  25.756  1.00  0.00     0.117 C 
ENDROOT
BRANCH   1   2
ATOM      2  N   UNL A   1      33.727  23.787  26.763  1.00  0.00    -0.354 N 
ATOM      3  C   UNL A   1      32.498  24.383  26.667  1.00  0.00     0.243 C 
ATOM      4  O   UNL A   1      31.555  23.804  27.218  1.00  0.00    -0.273 OA
ATOM      5  H   UNL A   1      33.924  23.303  27.596  1.00  0.00     0.163 HD
BRANCH   3   6
ATOM      6  C   UNL A   1      32.251  25.649  25.811  1.00  0.00     0.179 C 
BRANCH   6   7
ATOM      7  N   UNL A   1      31.604  25.380  24.527  1.00  0.00    -0.309 N 
ATOM      8  C   UNL A   1      32.131  25.598  23.290  1.00  0.00     0.408 C 
ATOM      9  O   UNL A   1      31.483  25.340  22.280  1.00  0.00    -0.225 OA
ATOM     10  H   UNL A   1      30.695  25.003  24.560  1.00  0.00     0.167 HD
BRANCH   8  11
ATOM     11  O   UNL A   1      33.362  26.159  23.317  1.00  0.00    -0.445 OA
BRANCH  11  12
ATOM     12  C   UNL A   1      33.674  27.010  22.208  1.00  0.00     0.262 C 
BRANCH  12  13
ATOM     13  C   UNL A   1      33.490  28.452  22.569  1.00  0.00     0.006 C 
ATOM     14  C   UNL A   1      32.516  28.899  23.372  1.00  0.00     0.007 C 
ENDBRANCH  12  13
ENDBRANCH  11  12
ENDBRANCH   8  11
ENDBRANCH   6   7
BRANCH   6  15
ATOM     15  C   UNL A   1      31.630  26.837  26.587  1.00  0.00     0.070 C 
BRANCH  15  16
ATOM     16  C   UNL A   1      32.479  28.070  26.817  1.00  0.00    -0.045 A 
ATOM     17  C   UNL A   1      31.886  29.294  27.157  1.00  0.00     0.004 A 
ATOM     18  C   UNL A   1      33.874  28.019  26.686  1.00  0.00     0.004 A 
ATOM     19  C   UNL A   1      32.651  30.461  27.238  1.00  0.00     0.000 A 
ATOM     20  C   UNL A   1      34.645  29.178  26.815  1.00  0.00     0.000 A 
ATOM     21  C   UNL A   1      34.031  30.404  27.058  1.00  0.00     0.000 A 
ENDBRANCH  15  16
ENDBRANCH   6  15
ENDBRANCH   3   6
ENDBRANCH   1   2
BRANCH   1  22
ATOM     22  C   UNL A   1      35.951  22.911  26.027  1.00  0.00     0.042 C 
BRANCH  22  23
ATOM     23  C   UNL A   1      37.143  23.235  25.137  1.00  0.00     0.118 C 
BRANCH  23  24
ATOM     24  N   UNL A   1      38.364  22.503  25.495  1.00  0.00    -0.352 N 
ATOM     25  C   UNL A   1      39.503  22.906  26.152  1.00  0.00     0.251 C 
ATOM     26  H   UNL A   1      38.369  21.559  25.217  1.00  0.00     0.163 HD
ATOM     27  O   UNL A   1      40.482  22.166  26.198  1.00  0.00    -0.269 OA
BRANCH  25  28
ATOM     28  C   UNL A   1      39.553  24.242  26.777  1.00  0.00     0.039 A 
ATOM     29  C   UNL A   1      39.038  24.430  28.061  1.00  0.00     0.014 A 
ATOM     30  C   UNL A   1      40.159  25.299  26.103  1.00  0.00     0.014 A 
ATOM     31  C   UNL A   1      39.240  25.650  28.708  1.00  0.00     0.010 A 
ATOM     32  C   UNL A   1      40.487  26.450  26.797  1.00  0.00     0.010 A 
ATOM     33  C   UNL A   1      40.024  26.647  28.104  1.00  0.00    -0.014 A 
BRANCH  33  34
ATOM     34  C   UNL A   1      40.372  27.914  28.795  1.00  0.00     0.031 A 
ATOM     35  C   UNL A   1      41.711  28.045  29.473  1.00  0.00     0.074 A 
ATOM     36  C   UNL A   1      39.454  28.895  28.905  1.00  0.00     0.049 A 
ATOM     37  N   UNL A   1      42.156  29.003  30.245  1.00  0.00    -0.248 NA
ATOM     38  C   UNL A   1      42.660  26.930  29.297  1.00  0.00     0.031 C 
ATOM     39  C   UNL A   1      38.100  28.867  28.344  1.00  0.00     0.029 A 
ATOM     40  N   UNL A   1      39.519  30.109  29.542  1.00  0.00    -0.354 N 
ATOM     41  C   UNL A   1      43.414  28.590  30.667  1.00  0.00     0.074 A 
ATOM     42  C   UNL A   1      43.633  27.268  30.128  1.00  0.00     0.031 C 
ATOM     43  C   UNL A   1      37.481  30.024  28.628  1.00  0.00     0.029 A 
ATOM     44  C   UNL A   1      38.368  30.853  29.434  1.00  0.00     0.049 A 
ATOM     45  H   UNL A   1      40.317  30.419  30.030  1.00  0.00     0.167 HD
ATOM     46  C   UNL A   1      44.323  29.262  31.410  1.00  0.00     0.031 A 
ATOM     47  C   UNL A   1      38.062  32.064  29.936  1.00  0.00     0.031 A 
ATOM     48  C   UNL A   1      44.116  30.590  31.918  1.00  0.00     0.049 A 
ATOM     49  C   UNL A   1      39.090  32.789  30.761  1.00  0.00     0.074 A 
ATOM     50  C   UNL A   1      44.995  31.387  32.629  1.00  0.00     0.029 A 
ATOM     51  N   UNL A   1      42.948  31.318  31.759  1.00  0.00    -0.354 N 
ATOM     52  N   UNL A   1      40.302  32.413  31.092  1.00  0.00    -0.248 NA
ATOM     53  C   UNL A   1      38.711  34.115  31.271  1.00  0.00     0.031 C 
ATOM     54  C   UNL A   1      44.340  32.581  32.944  1.00  0.00     0.029 A 
ATOM     55  C   UNL A   1      43.077  32.551  32.375  1.00  0.00     0.049 A 
ATOM     56  H   UNL A   1      42.147  31.005  31.282  1.00  0.00     0.167 HD
ATOM     57  C   UNL A   1      40.841  33.468  31.816  1.00  0.00     0.074 A 
ATOM     58  C   UNL A   1      39.831  34.505  31.861  1.00  0.00     0.031 C 
ATOM     59  C   UNL A   1      42.062  33.572  32.395  1.00  0.00     0.031 A 
BRANCH  46  60
ATOM     60  C   UNL A   1      45.627  28.574  31.704  1.00  0.00    -0.014 A 
ATOM     61  C   UNL A   1      45.775  27.750  32.834  1.00  0.00     0.009 A 
ATOM     62  C   UNL A   1      46.710  28.717  30.825  1.00  0.00     0.009 A 
ATOM     63  C   UNL A   1      46.992  27.117  33.094  1.00  0.00     0.001 A 
ATOM     64  C   UNL A   1      47.915  28.056  31.070  1.00  0.00     0.001 A 
ATOM     65  C   UNL A   1      48.058  27.264  32.209  1.00  0.00     0.000 A 
ENDBRANCH  46  60
BRANCH  47  66
ATOM     66  C   UNL A   1      36.735  32.681  29.667  1.00  0.00    -0.014 A 
ATOM     67  C   UNL A   1      36.506  33.381  28.472  1.00  0.00     0.009 A 
ATOM     68  C   UNL A   1      35.700  32.603  30.611  1.00  0.00     0.009 A 
ATOM     69  C   UNL A   1      35.287  34.024  28.247  1.00  0.00     0.001 A 
ATOM     70  C   UNL A   1      34.469  33.217  30.370  1.00  0.00     0.001 A 
ATOM     71  C   UNL A   1      34.269  33.940  29.194  1.00  0.00     0.000 A 
ENDBRANCH  47  66
BRANCH  59  72
ATOM     72  C   UNL A   1      42.392  34.869  33.077  1.00  0.00    -0.014 A 
ATOM     73  C   UNL A   1      43.147  35.862  32.435  1.00  0.00     0.009 A 
ATOM     74  C   UNL A   1      41.897  35.116  34.367  1.00  0.00     0.009 A 
ATOM     75  C   UNL A   1      43.431  37.063  33.088  1.00  0.00     0.001 A 
ATOM     76  C   UNL A   1      42.154  36.330  35.004  1.00  0.00     0.001 A 
ATOM     77  C   UNL A   1      42.929  37.298  34.367  1.00  0.00     0.000 A 
ENDBRANCH  59  72
ENDBRANCH  33  34
ENDBRANCH  25  28
ENDBRANCH  23  24
ENDBRANCH  22  23
ENDBRANCH   1  22
TORSDOF 16
ENDMDL
MODEL 3
REMARK VINA RESULT:      -9.7      2.155      7.309
REMARK SMILES C=CCOC(=O)N[C@@H](Cc1ccccc1)C(=O)NCCCNC(=O)c1ccc(-c2c3nc(c(-c4ccccc4)c4ccc([nH]4)c(-c4ccccc4)c4nc(c(-c5ccccc5)c5ccc2[nH]5)C=C4)C=C3)cc1
REMARK SMILES IDX 19 1 18 2 16 3 17 4 8 6 7 7 5 8 6 9 4 11 3 12 2 13 1 14 9 15
REMARK SMILES IDX 10 16 11 17 15 18 12 19 14 20 13 21 20 22 21 23 22 24 23 25
REMARK SMILES IDX 24 27 25 28 26 29 72 30 27 31 71 32 28 33 29 34 30 35 65 36
REMARK SMILES IDX 31 37 70 38 64 39 66 40 32 41 69 42 63 43 62 44 33 46 55 47
REMARK SMILES IDX 40 48 54 49 41 50 44 51 53 52 67 53 42 54 43 55 52 57 68 58
REMARK SMILES IDX 45 59 34 60 35 61 39 62 36 63 38 64 37 65 56 66 57 67 61 68
REMARK SMILES IDX 58 69 60 70 59 71 46 72 47 73 51 74 48 75 50 76 49 77
REMARK H PARENT 18 5 7 10 22 26 66 45 44 56
REMARK Flexibility Score: inf
ROOT
ATOM      1  C   UNL A   1      36.054  21.495  25.172  1.00  0.00     0.117 C 
ENDROOT
BRANCH   1   2
ATOM      2  N   UNL A   1      35.522  21.392  26.511  1.00  0.00    -0.354 N 
ATOM      3  C   UNL A   1      34.323  21.892  26.945  1.00  0.00     0.243 C 
ATOM      4  O   UNL A   1      33.727  21.236  27.807  1.00  0.00    -0.273 OA
ATOM      5  H   UNL A   1      36.073  20.916  27.173  1.00  0.00     0.163 HD
BRANCH   3   6
ATOM      6  C   UNL A   1      33.665  23.143  26.314  1.00  0.00     0.179 C 
BRANCH   6   7
ATOM      7  N   UNL A   1      32.431  23.563  26.979  1.00  0.00    -0.309 N 
ATOM      8  C   UNL A   1      31.159  23.309  26.566  1.00  0.00     0.408 C 
ATOM      9  O   UNL A   1      30.198  23.726  27.206  1.00  0.00    -0.225 OA
ATOM     10  H   UNL A   1      32.531  24.083  27.809  1.00  0.00     0.167 HD
BRANCH   8  11
ATOM     11  O   UNL A   1      31.094  22.632  25.396  1.00  0.00    -0.445 OA
BRANCH  11  12
ATOM     12  C   UNL A   1      31.077  23.443  24.216  1.00  0.00     0.262 C 
BRANCH  12  13
ATOM     13  C   UNL A   1      31.554  22.668  23.026  1.00  0.00     0.006 C 
ATOM     14  C   UNL A   1      32.695  21.967  23.004  1.00  0.00     0.007 C 
ENDBRANCH  12  13
ENDBRANCH  11  12
ENDBRANCH   8  11
ENDBRANCH   6   7
BRANCH   6  15
ATOM     15  C   UNL A   1      34.645  24.306  26.023  1.00  0.00     0.070 C 
BRANCH  15  16
ATOM     16  C   UNL A   1      34.208  25.393  25.062  1.00  0.00    -0.045 A 
ATOM     17  C   UNL A   1      33.812  26.650  25.537  1.00  0.00     0.004 A 
ATOM     18  C   UNL A   1      34.181  25.163  23.679  1.00  0.00     0.004 A 
ATOM     19  C   UNL A   1      33.282  27.608  24.667  1.00  0.00     0.000 A 
ATOM     20  C   UNL A   1      33.696  26.139  22.804  1.00  0.00     0.000 A 
ATOM     21  C   UNL A   1      33.216  27.349  23.301  1.00  0.00     0.000 A 
ENDBRANCH  15  16
ENDBRANCH   6  15
ENDBRANCH   3   6
ENDBRANCH   1   2
BRANCH   1  22
ATOM     22  C   UNL A   1      37.210  20.577  24.855  1.00  0.00     0.042 C 
BRANCH  22  23
ATOM     23  C   UNL A   1      38.488  20.968  25.582  1.00  0.00     0.118 C 
BRANCH  23  24
ATOM     24  N   UNL A   1      39.477  19.886  25.664  1.00  0.00    -0.352 N 
ATOM     25  C   UNL A   1      40.808  19.898  26.008  1.00  0.00     0.251 C 
ATOM     26  H   UNL A   1      39.126  18.997  25.433  1.00  0.00     0.163 HD
ATOM     27  O   UNL A   1      41.495  18.894  25.847  1.00  0.00    -0.269 OA
BRANCH  25  28
ATOM     28  C   UNL A   1      41.413  21.133  26.545  1.00  0.00     0.039 A 
ATOM     29  C   UNL A   1      42.001  22.055  25.677  1.00  0.00     0.014 A 
ATOM     30  C   UNL A   1      41.350  21.397  27.911  1.00  0.00     0.014 A 
ATOM     31  C   UNL A   1      42.418  23.293  26.173  1.00  0.00     0.010 A 
ATOM     32  C   UNL A   1      41.625  22.673  28.371  1.00  0.00     0.010 A 
ATOM     33  C   UNL A   1      42.172  23.635  27.513  1.00  0.00    -0.014 A 
BRANCH  33  34
ATOM     34  C   UNL A   1      42.483  24.978  28.061  1.00  0.00     0.031 A 
ATOM     35  C   UNL A   1      43.882  25.283  28.529  1.00  0.00     0.074 A 
ATOM     36  C   UNL A   1      41.495  25.879  28.237  1.00  0.00     0.049 A 
ATOM     37  N   UNL A   1      44.331  26.335  29.164  1.00  0.00    -0.248 NA
ATOM     38  C   UNL A   1      44.905  24.247  28.292  1.00  0.00     0.031 C 
ATOM     39  C   UNL A   1      40.087  25.685  27.880  1.00  0.00     0.029 A 
ATOM     40  N   UNL A   1      41.526  27.141  28.776  1.00  0.00    -0.354 N 
ATOM     41  C   UNL A   1      45.670  26.071  29.427  1.00  0.00     0.074 A 
ATOM     42  C   UNL A   1      45.944  24.735  28.950  1.00  0.00     0.031 C 
ATOM     43  C   UNL A   1      39.400  26.801  28.172  1.00  0.00     0.029 A 
ATOM     44  C   UNL A   1      40.302  27.767  28.785  1.00  0.00     0.049 A 
ATOM     45  H   UNL A   1      42.347  27.559  29.122  1.00  0.00     0.167 HD
ATOM     46  C   UNL A   1      46.600  26.879  29.985  1.00  0.00     0.031 A 
ATOM     47  C   UNL A   1      39.948  28.983  29.245  1.00  0.00     0.031 A 
ATOM     48  C   UNL A   1      46.333  28.219  30.428  1.00  0.00     0.049 A 
ATOM     49  C   UNL A   1      41.002  29.861  29.863  1.00  0.00     0.074 A 
ATOM     50  C   UNL A   1      47.217  29.146  30.951  1.00  0.00     0.029 A 
ATOM     51  N   UNL A   1      45.088  28.825  30.391  1.00  0.00    -0.354 N 
ATOM     52  N   UNL A   1      42.279  29.622  30.040  1.00  0.00    -0.248 NA
ATOM     53  C   UNL A   1      40.565  31.183  30.333  1.00  0.00     0.031 C 
ATOM     54  C   UNL A   1      46.496  30.298  31.277  1.00  0.00     0.029 A 
ATOM     55  C   UNL A   1      45.176  30.110  30.899  1.00  0.00     0.049 A 
ATOM     56  H   UNL A   1      44.264  28.405  30.056  1.00  0.00     0.167 HD
ATOM     57  C   UNL A   1      42.804  30.776  30.608  1.00  0.00     0.074 A 
ATOM     58  C   UNL A   1      41.712  31.718  30.729  1.00  0.00     0.031 C 
ATOM     59  C   UNL A   1      44.076  31.034  30.997  1.00  0.00     0.031 A 
BRANCH  46  60
ATOM     60  C   UNL A   1      47.994  26.336  30.133  1.00  0.00    -0.014 A 
ATOM     61  C   UNL A   1      48.935  26.456  29.096  1.00  0.00     0.009 A 
ATOM     62  C   UNL A   1      48.387  25.731  31.337  1.00  0.00     0.009 A 
ATOM     63  C   UNL A   1      50.226  25.947  29.248  1.00  0.00     0.001 A 
ATOM     64  C   UNL A   1      49.689  25.254  31.498  1.00  0.00     0.001 A 
ATOM     65  C   UNL A   1      50.605  25.354  30.452  1.00  0.00     0.000 A 
ENDBRANCH  46  60
BRANCH  47  66
ATOM     66  C   UNL A   1      38.542  29.455  29.129  1.00  0.00    -0.014 A 
ATOM     67  C   UNL A   1      37.659  29.329  30.214  1.00  0.00     0.009 A 
ATOM     68  C   UNL A   1      38.063  30.003  27.930  1.00  0.00     0.009 A 
ATOM     69  C   UNL A   1      36.319  29.703  30.087  1.00  0.00     0.001 A 
ATOM     70  C   UNL A   1      36.731  30.408  27.815  1.00  0.00     0.001 A 
ATOM     71  C   UNL A   1      35.857  30.244  28.889  1.00  0.00     0.000 A 
ENDBRANCH  47  66
BRANCH  59  72
ATOM     72  C   UNL A   1      44.366  32.406  31.537  1.00  0.00    -0.014 A 
ATOM     73  C   UNL A   1      44.294  32.683  32.910  1.00  0.00     0.009 A 
ATOM     74  C   UNL A   1      44.763  33.424  30.656  1.00  0.00     0.009 A 
ATOM     75  C   UNL A   1      44.578  33.964  33.386  1.00  0.00     0.001 A 
ATOM     76  C   UNL A   1      45.079  34.694  31.137  1.00  0.00     0.001 A 
ATOM     77  C   UNL A   1      44.976  34.965  32.501  1.00  0.00     0.000 A 
ENDBRANCH  59  72
ENDBRANCH  33  34
ENDBRANCH  25  28
ENDBRANCH  23  24
ENDBRANCH  22  23
ENDBRANCH   1  22
TORSDOF 16
ENDMDL
