MODEL 1
REMARK VINA RESULT:     -10.2      0.000      0.000
REMARK SMILES CCC(CC)(CC)NC(=O)NC[C@@H]1CC[C@H](C(=O)NCCCNC(=O)c2ccc(-c3c4nc(c(-c5ccccc5)c5ccc([nH]5)c(-c5ccccc5)c5nc(c(-c6ccccc6)c6ccc3[nH]6)C=C5)C=C4)cc2)O1
REMARK SMILES IDX 20 1 19 2 17 3 18 4 16 6 13 7 14 8 74 9 15 10 12 11 11 12
REMARK SMILES IDX 8 13 9 14 10 16 3 18 2 19 1 20 4 21 5 22 6 23 7 24 21 25
REMARK SMILES IDX 22 26 23 27 24 28 25 30 26 31 27 32 73 33 28 34 72 35 29 36
REMARK SMILES IDX 30 37 31 38 66 39 32 40 71 41 65 42 67 43 33 44 70 45 64 46
REMARK SMILES IDX 63 47 34 49 56 50 41 51 55 52 42 53 45 54 54 55 68 56 43 57
REMARK SMILES IDX 44 58 53 60 69 61 46 62 35 63 36 64 40 65 37 66 39 67 38 68
REMARK SMILES IDX 57 69 58 70 62 71 59 72 61 73 60 74 47 75 48 76 52 77 49 78
REMARK SMILES IDX 51 79 50 80
REMARK H PARENT 19 5 8 15 11 17 23 29 67 48 45 59
REMARK Flexibility Score: inf
ROOT
ATOM      1  C   UNL A   1      37.750  21.337  24.953  1.00  0.00     0.117 C 
ENDROOT
BRANCH   1   2
ATOM      2  N   UNL A   1      36.771  21.778  25.926  1.00  0.00    -0.354 N 
ATOM      3  C   UNL A   1      35.421  21.938  25.828  1.00  0.00     0.249 C 
ATOM      4  O   UNL A   1      34.834  22.353  26.832  1.00  0.00    -0.272 OA
ATOM      5  H   UNL A   1      37.145  22.001  26.810  1.00  0.00     0.163 HD
BRANCH   3   6
ATOM      6  C   UNL A   1      34.640  21.688  24.518  1.00  0.00     0.207 C 
ATOM      7  C   UNL A   1      32.704  22.346  23.391  1.00  0.00     0.138 C 
ATOM      8  C   UNL A   1      32.332  21.129  24.222  1.00  0.00     0.037 C 
ATOM      9  O   UNL A   1      33.938  22.811  23.977  1.00  0.00    -0.363 OA
ATOM     10  C   UNL A   1      33.659  20.529  24.622  1.00  0.00     0.045 C 
BRANCH   7  11
ATOM     11  C   UNL A   1      31.721  23.541  23.332  1.00  0.00     0.149 C 
BRANCH  11  12
ATOM     12  N   UNL A   1      32.039  24.597  22.381  1.00  0.00    -0.336 N 
ATOM     13  N   UNL A   1      33.391  26.276  23.407  1.00  0.00    -0.333 N 
ATOM     14  C   UNL A   1      33.045  25.490  22.378  1.00  0.00     0.315 C 
ATOM     15  H   UNL A   1      34.212  26.779  23.200  1.00  0.00     0.165 HD
ATOM     16  O   UNL A   1      33.645  25.660  21.313  1.00  0.00    -0.249 OA
ATOM     17  H   UNL A   1      31.420  24.667  21.618  1.00  0.00     0.165 HD
BRANCH  13  18
ATOM     18  C   UNL A   1      32.900  26.610  24.763  1.00  0.00     0.041 C 
BRANCH  18  19
ATOM     19  C   UNL A   1      31.392  26.912  24.775  1.00  0.00     0.025 C 
ATOM     20  C   UNL A   1      30.923  28.058  23.878  1.00  0.00     0.006 C 
ENDBRANCH  18  19
BRANCH  18  21
ATOM     21  C   UNL A   1      33.619  27.925  25.253  1.00  0.00     0.025 C 
ATOM     22  C   UNL A   1      33.351  28.286  26.722  1.00  0.00     0.006 C 
ENDBRANCH  18  21
BRANCH  18  23
ATOM     23  C   UNL A   1      33.271  25.483  25.791  1.00  0.00     0.025 C 
ATOM     24  C   UNL A   1      32.132  24.768  26.510  1.00  0.00     0.006 C 
ENDBRANCH  18  23
ENDBRANCH  13  18
ENDBRANCH  11  12
ENDBRANCH   7  11
ENDBRANCH   3   6
ENDBRANCH   1   2
BRANCH   1  25
ATOM     25  C   UNL A   1      39.109  21.081  25.603  1.00  0.00     0.042 C 
BRANCH  25  26
ATOM     26  C   UNL A   1      39.375  19.655  26.091  1.00  0.00     0.118 C 
BRANCH  26  27
ATOM     27  N   UNL A   1      40.682  19.110  25.748  1.00  0.00    -0.352 N 
ATOM     28  C   UNL A   1      41.960  19.595  25.878  1.00  0.00     0.251 C 
ATOM     29  H   UNL A   1      40.640  18.215  25.341  1.00  0.00     0.163 HD
ATOM     30  O   UNL A   1      42.889  18.881  25.495  1.00  0.00    -0.269 OA
BRANCH  28  31
ATOM     31  C   UNL A   1      42.270  20.949  26.403  1.00  0.00     0.039 A 
ATOM     32  C   UNL A   1      42.765  21.906  25.501  1.00  0.00     0.014 A 
ATOM     33  C   UNL A   1      42.121  21.301  27.743  1.00  0.00     0.014 A 
ATOM     34  C   UNL A   1      43.021  23.218  25.917  1.00  0.00     0.010 A 
ATOM     35  C   UNL A   1      42.306  22.625  28.145  1.00  0.00     0.010 A 
ATOM     36  C   UNL A   1      42.757  23.597  27.239  1.00  0.00    -0.014 A 
BRANCH  36  37
ATOM     37  C   UNL A   1      42.983  24.985  27.718  1.00  0.00     0.031 A 
ATOM     38  C   UNL A   1      44.366  25.416  28.128  1.00  0.00     0.074 A 
ATOM     39  C   UNL A   1      41.946  25.831  27.872  1.00  0.00     0.049 A 
ATOM     40  N   UNL A   1      44.751  26.519  28.717  1.00  0.00    -0.248 NA
ATOM     41  C   UNL A   1      45.456  24.462  27.863  1.00  0.00     0.031 C 
ATOM     42  C   UNL A   1      40.553  25.543  27.527  1.00  0.00     0.029 A 
ATOM     43  N   UNL A   1      41.905  27.106  28.381  1.00  0.00    -0.354 N 
ATOM     44  C   UNL A   1      46.116  26.379  28.924  1.00  0.00     0.074 A 
ATOM     45  C   UNL A   1      46.487  25.070  28.431  1.00  0.00     0.031 C 
ATOM     46  C   UNL A   1      39.796  26.612  27.827  1.00  0.00     0.029 A 
ATOM     47  C   UNL A   1      40.641  27.641  28.426  1.00  0.00     0.049 A 
ATOM     48  H   UNL A   1      42.706  27.591  28.685  1.00  0.00     0.167 HD
ATOM     49  C   UNL A   1      46.989  27.263  29.462  1.00  0.00     0.031 A 
ATOM     50  C   UNL A   1      40.207  28.819  28.914  1.00  0.00     0.031 A 
ATOM     51  C   UNL A   1      46.631  28.574  29.931  1.00  0.00     0.049 A 
ATOM     52  C   UNL A   1      41.191  29.774  29.532  1.00  0.00     0.074 A 
ATOM     53  C   UNL A   1      47.457  29.564  30.436  1.00  0.00     0.029 A 
ATOM     54  N   UNL A   1      45.341  29.077  29.951  1.00  0.00    -0.354 N 
ATOM     55  N   UNL A   1      42.487  29.646  29.679  1.00  0.00    -0.248 NA
ATOM     56  C   UNL A   1      40.649  31.039  30.051  1.00  0.00     0.031 C 
ATOM     57  C   UNL A   1      46.657  30.651  30.806  1.00  0.00     0.029 A 
ATOM     58  C   UNL A   1      45.343  30.355  30.484  1.00  0.00     0.049 A 
ATOM     59  H   UNL A   1      44.541  28.599  29.633  1.00  0.00     0.167 HD
ATOM     60  C   UNL A   1      42.919  30.819  30.283  1.00  0.00     0.074 A 
ATOM     61  C   UNL A   1      41.749  31.655  30.462  1.00  0.00     0.031 C 
ATOM     62  C   UNL A   1      44.172  31.174  30.657  1.00  0.00     0.031 A 
BRANCH  49  63
ATOM     63  C   UNL A   1      48.424  26.828  29.583  1.00  0.00    -0.014 A 
ATOM     64  C   UNL A   1      48.880  26.127  30.711  1.00  0.00     0.009 A 
ATOM     65  C   UNL A   1      49.325  27.102  28.544  1.00  0.00     0.009 A 
ATOM     66  C   UNL A   1      50.219  25.745  30.812  1.00  0.00     0.001 A 
ATOM     67  C   UNL A   1      50.657  26.695  28.635  1.00  0.00     0.001 A 
ATOM     68  C   UNL A   1      51.105  26.026  29.773  1.00  0.00     0.000 A 
ENDBRANCH  49  63
BRANCH  50  69
ATOM     69  C   UNL A   1      38.763  29.169  28.847  1.00  0.00    -0.014 A 
ATOM     70  C   UNL A   1      38.218  29.705  27.669  1.00  0.00     0.009 A 
ATOM     71  C   UNL A   1      37.928  28.989  29.961  1.00  0.00     0.009 A 
ATOM     72  C   UNL A   1      36.873  30.076  27.617  1.00  0.00     0.001 A 
ATOM     73  C   UNL A   1      36.577  29.336  29.896  1.00  0.00     0.001 A 
ATOM     74  C   UNL A   1      36.052  29.888  28.728  1.00  0.00     0.000 A 
ENDBRANCH  50  69
BRANCH  62  75
ATOM     75  C   UNL A   1      44.349  32.532  31.273  1.00  0.00    -0.014 A 
ATOM     76  C   UNL A   1      44.189  32.732  32.653  1.00  0.00     0.009 A 
ATOM     77  C   UNL A   1      44.732  33.617  30.467  1.00  0.00     0.009 A 
ATOM     78  C   UNL A   1      44.384  33.998  33.210  1.00  0.00     0.001 A 
ATOM     79  C   UNL A   1      44.950  34.875  31.031  1.00  0.00     0.001 A 
ATOM     80  C   UNL A   1      44.770  35.065  32.399  1.00  0.00     0.000 A 
ENDBRANCH  62  75
ENDBRANCH  36  37
ENDBRANCH  28  31
ENDBRANCH  26  27
ENDBRANCH  25  26
ENDBRANCH   1  25
TORSDOF 16
ENDMDL
MODEL 2
REMARK VINA RESULT:     -10.2      3.753      8.857
REMARK SMILES CCC(CC)(CC)NC(=O)NC[C@@H]1CC[C@H](C(=O)NCCCNC(=O)c2ccc(-c3c4nc(c(-c5ccccc5)c5ccc([nH]5)c(-c5ccccc5)c5nc(c(-c6ccccc6)c6ccc3[nH]6)C=C5)C=C4)cc2)O1
REMARK SMILES IDX 20 1 19 2 17 3 18 4 16 6 13 7 14 8 74 9 15 10 12 11 11 12
REMARK SMILES IDX 8 13 9 14 10 16 3 18 2 19 1 20 4 21 5 22 6 23 7 24 21 25
REMARK SMILES IDX 22 26 23 27 24 28 25 30 26 31 27 32 73 33 28 34 72 35 29 36
REMARK SMILES IDX 30 37 31 38 66 39 32 40 71 41 65 42 67 43 33 44 70 45 64 46
REMARK SMILES IDX 63 47 34 49 56 50 41 51 55 52 42 53 45 54 54 55 68 56 43 57
REMARK SMILES IDX 44 58 53 60 69 61 46 62 35 63 36 64 40 65 37 66 39 67 38 68
REMARK SMILES IDX 57 69 58 70 62 71 59 72 61 73 60 74 47 75 48 76 52 77 49 78
REMARK SMILES IDX 51 79 50 80
REMARK H PARENT 19 5 8 15 11 17 23 29 67 48 45 59
REMARK Flexibility Score: inf
ROOT
ATOM      1  C   UNL A   1      32.823  30.055  27.121  1.00  0.00     0.117 C 
ENDROOT
BRANCH   1   2
ATOM      2  N   UNL A   1      33.235  29.899  25.740  1.00  0.00    -0.354 N 
ATOM      3  C   UNL A   1      32.634  29.268  24.693  1.00  0.00     0.249 C 
ATOM      4  O   UNL A   1      33.234  29.282  23.613  1.00  0.00    -0.272 OA
ATOM      5  H   UNL A   1      34.097  30.323  25.521  1.00  0.00     0.163 HD
BRANCH   3   6
ATOM      6  C   UNL A   1      31.298  28.502  24.830  1.00  0.00     0.207 C 
ATOM      7  C   UNL A   1      30.320  26.436  24.353  1.00  0.00     0.138 C 
ATOM      8  C   UNL A   1      30.052  27.333  23.155  1.00  0.00     0.037 C 
ATOM      9  O   UNL A   1      31.399  27.092  25.052  1.00  0.00    -0.363 OA
ATOM     10  C   UNL A   1      30.361  28.725  23.652  1.00  0.00     0.045 C 
BRANCH   7  11
ATOM     11  C   UNL A   1      30.730  24.964  24.110  1.00  0.00     0.149 C 
BRANCH  11  12
ATOM     12  N   UNL A   1      30.434  24.022  25.179  1.00  0.00    -0.336 N 
ATOM     13  N   UNL A   1      32.442  23.030  26.008  1.00  0.00    -0.333 N 
ATOM     14  C   UNL A   1      31.218  23.553  26.167  1.00  0.00     0.315 C 
ATOM     15  H   UNL A   1      32.857  22.842  26.881  1.00  0.00     0.165 HD
ATOM     16  O   UNL A   1      30.739  23.527  27.304  1.00  0.00    -0.249 OA
ATOM     17  H   UNL A   1      29.513  23.673  25.181  1.00  0.00     0.165 HD
BRANCH  13  18
ATOM     18  C   UNL A   1      33.351  22.650  24.903  1.00  0.00     0.041 C 
BRANCH  18  19
ATOM     19  C   UNL A   1      32.591  22.059  23.704  1.00  0.00     0.025 C 
ATOM     20  C   UNL A   1      32.946  22.629  22.330  1.00  0.00     0.006 C 
ENDBRANCH  18  19
BRANCH  18  21
ATOM     21  C   UNL A   1      34.323  21.518  25.414  1.00  0.00     0.025 C 
ATOM     22  C   UNL A   1      34.027  20.122  24.844  1.00  0.00     0.006 C 
ENDBRANCH  18  21
BRANCH  18  23
ATOM     23  C   UNL A   1      34.254  23.861  24.474  1.00  0.00     0.025 C 
ATOM     24  C   UNL A   1      34.266  25.096  25.368  1.00  0.00     0.006 C 
ENDBRANCH  18  23
ENDBRANCH  13  18
ENDBRANCH  11  12
ENDBRANCH   7  11
ENDBRANCH   3   6
ENDBRANCH   1   2
BRANCH   1  25
ATOM     25  C   UNL A   1      31.891  31.252  27.295  1.00  0.00     0.042 C 
BRANCH  25  26
ATOM     26  C   UNL A   1      32.310  32.550  26.600  1.00  0.00     0.118 C 
BRANCH  26  27
ATOM     27  N   UNL A   1      32.190  33.759  27.405  1.00  0.00    -0.352 N 
ATOM     28  C   UNL A   1      33.005  34.340  28.345  1.00  0.00     0.251 C 
ATOM     29  H   UNL A   1      31.358  34.259  27.242  1.00  0.00     0.163 HD
ATOM     30  O   UNL A   1      32.628  35.393  28.862  1.00  0.00    -0.269 OA
BRANCH  28  31
ATOM     31  C   UNL A   1      34.280  33.735  28.806  1.00  0.00     0.039 A 
ATOM     32  C   UNL A   1      35.470  34.162  28.193  1.00  0.00     0.014 A 
ATOM     33  C   UNL A   1      34.346  32.750  29.789  1.00  0.00     0.014 A 
ATOM     34  C   UNL A   1      36.711  33.676  28.620  1.00  0.00     0.010 A 
ATOM     35  C   UNL A   1      35.584  32.317  30.267  1.00  0.00     0.010 A 
ATOM     36  C   UNL A   1      36.779  32.774  29.689  1.00  0.00    -0.014 A 
BRANCH  36  37
ATOM     37  C   UNL A   1      38.074  32.256  30.198  1.00  0.00     0.031 A 
ATOM     38  C   UNL A   1      38.620  30.958  29.662  1.00  0.00     0.074 A 
ATOM     39  C   UNL A   1      38.719  32.891  31.196  1.00  0.00     0.049 A 
ATOM     40  N   UNL A   1      39.642  30.254  30.077  1.00  0.00    -0.248 NA
ATOM     41  C   UNL A   1      37.898  30.363  28.526  1.00  0.00     0.031 C 
ATOM     42  C   UNL A   1      38.300  34.148  31.816  1.00  0.00     0.029 A 
ATOM     43  N   UNL A   1      39.861  32.548  31.878  1.00  0.00    -0.354 N 
ATOM     44  C   UNL A   1      39.665  29.119  29.277  1.00  0.00     0.074 A 
ATOM     45  C   UNL A   1      38.535  29.210  28.379  1.00  0.00     0.031 C 
ATOM     46  C   UNL A   1      39.175  34.475  32.783  1.00  0.00     0.029 A 
ATOM     47  C   UNL A   1      40.190  33.429  32.879  1.00  0.00     0.049 A 
ATOM     48  H   UNL A   1      40.393  31.746  31.670  1.00  0.00     0.167 HD
ATOM     49  C   UNL A   1      40.554  28.097  29.279  1.00  0.00     0.031 A 
ATOM     50  C   UNL A   1      41.185  33.389  33.787  1.00  0.00     0.031 A 
ATOM     51  C   UNL A   1      41.692  28.013  30.153  1.00  0.00     0.049 A 
ATOM     52  C   UNL A   1      42.144  32.231  33.787  1.00  0.00     0.074 A 
ATOM     53  C   UNL A   1      42.683  27.047  30.187  1.00  0.00     0.029 A 
ATOM     54  N   UNL A   1      41.991  28.931  31.146  1.00  0.00    -0.354 N 
ATOM     55  N   UNL A   1      42.180  31.188  32.994  1.00  0.00    -0.248 NA
ATOM     56  C   UNL A   1      43.202  32.247  34.809  1.00  0.00     0.031 C 
ATOM     57  C   UNL A   1      43.557  27.357  31.234  1.00  0.00     0.029 A 
ATOM     58  C   UNL A   1      43.138  28.541  31.818  1.00  0.00     0.049 A 
ATOM     59  H   UNL A   1      41.468  29.741  31.345  1.00  0.00     0.167 HD
ATOM     60  C   UNL A   1      43.275  30.437  33.404  1.00  0.00     0.074 A 
ATOM     61  C   UNL A   1      43.885  31.152  34.506  1.00  0.00     0.031 C 
ATOM     62  C   UNL A   1      43.733  29.261  32.913  1.00  0.00     0.031 A 
BRANCH  49  63
ATOM     63  C   UNL A   1      40.317  26.976  28.305  1.00  0.00    -0.014 A 
ATOM     64  C   UNL A   1      39.560  25.849  28.662  1.00  0.00     0.009 A 
ATOM     65  C   UNL A   1      40.837  27.062  27.005  1.00  0.00     0.009 A 
ATOM     66  C   UNL A   1      39.364  24.812  27.748  1.00  0.00     0.001 A 
ATOM     67  C   UNL A   1      40.615  26.036  26.084  1.00  0.00     0.001 A 
ATOM     68  C   UNL A   1      39.888  24.908  26.460  1.00  0.00     0.000 A 
ENDBRANCH  49  63
BRANCH  50  69
ATOM     69  C   UNL A   1      41.329  34.482  34.785  1.00  0.00    -0.014 A 
ATOM     70  C   UNL A   1      42.161  35.580  34.519  1.00  0.00     0.009 A 
ATOM     71  C   UNL A   1      40.652  34.425  36.014  1.00  0.00     0.009 A 
ATOM     72  C   UNL A   1      42.333  36.585  35.474  1.00  0.00     0.001 A 
ATOM     73  C   UNL A   1      40.805  35.446  36.955  1.00  0.00     0.001 A 
ATOM     74  C   UNL A   1      41.652  36.520  36.688  1.00  0.00     0.000 A 
ENDBRANCH  50  69
BRANCH  62  75
ATOM     75  C   UNL A   1      44.968  28.684  33.544  1.00  0.00    -0.014 A 
ATOM     76  C   UNL A   1      44.884  27.767  34.602  1.00  0.00     0.009 A 
ATOM     77  C   UNL A   1      46.233  29.026  33.037  1.00  0.00     0.009 A 
ATOM     78  C   UNL A   1      46.044  27.223  35.158  1.00  0.00     0.001 A 
ATOM     79  C   UNL A   1      47.388  28.461  33.578  1.00  0.00     0.001 A 
ATOM     80  C   UNL A   1      47.293  27.566  34.641  1.00  0.00     0.000 A 
ENDBRANCH  62  75
ENDBRANCH  36  37
ENDBRANCH  28  31
ENDBRANCH  26  27
ENDBRANCH  25  26
ENDBRANCH   1  25
TORSDOF 16
ENDMDL
MODEL 3
REMARK VINA RESULT:     -10.1      1.341      6.250
REMARK SMILES CCC(CC)(CC)NC(=O)NC[C@@H]1CC[C@H](C(=O)NCCCNC(=O)c2ccc(-c3c4nc(c(-c5ccccc5)c5ccc([nH]5)c(-c5ccccc5)c5nc(c(-c6ccccc6)c6ccc3[nH]6)C=C5)C=C4)cc2)O1
REMARK SMILES IDX 20 1 19 2 17 3 18 4 16 6 13 7 14 8 74 9 15 10 12 11 11 12
REMARK SMILES IDX 8 13 9 14 10 16 3 18 2 19 1 20 4 21 5 22 6 23 7 24 21 25
REMARK SMILES IDX 22 26 23 27 24 28 25 30 26 31 27 32 73 33 28 34 72 35 29 36
REMARK SMILES IDX 30 37 31 38 66 39 32 40 71 41 65 42 67 43 33 44 70 45 64 46
REMARK SMILES IDX 63 47 34 49 56 50 41 51 55 52 42 53 45 54 54 55 68 56 43 57
REMARK SMILES IDX 44 58 53 60 69 61 46 62 35 63 36 64 40 65 37 66 39 67 38 68
REMARK SMILES IDX 57 69 58 70 62 71 59 72 61 73 60 74 47 75 48 76 52 77 49 78
REMARK SMILES IDX 51 79 50 80
REMARK H PARENT 19 5 8 15 11 17 23 29 67 48 45 59
REMARK Flexibility Score: inf
ROOT
ATOM      1  C   UNL A   1      36.714  20.756  24.788  1.00  0.00     0.117 C 
ENDROOT
BRANCH   1   2
ATOM      2  N   UNL A   1      35.501  20.008  25.050  1.00  0.00    -0.354 N 
ATOM      3  C   UNL A   1      34.191  20.344  24.890  1.00  0.00     0.249 C 
ATOM      4  O   UNL A   1      33.353  19.496  25.216  1.00  0.00    -0.272 OA
ATOM      5  H   UNL A   1      35.650  19.100  25.403  1.00  0.00     0.163 HD
BRANCH   3   6
ATOM      6  C   UNL A   1      33.736  21.734  24.391  1.00  0.00     0.207 C 
ATOM      7  C   UNL A   1      32.714  23.698  25.135  1.00  0.00     0.138 C 
ATOM      8  C   UNL A   1      31.604  22.796  24.622  1.00  0.00     0.037 C 
ATOM      9  O   UNL A   1      33.831  22.805  25.334  1.00  0.00    -0.363 OA
ATOM     10  C   UNL A   1      32.322  21.731  23.827  1.00  0.00     0.045 C 
BRANCH   7  11
ATOM     11  C   UNL A   1      32.492  24.488  26.446  1.00  0.00     0.149 C 
BRANCH  11  12
ATOM     12  N   UNL A   1      31.171  25.072  26.637  1.00  0.00    -0.336 N 
ATOM     13  N   UNL A   1      30.927  27.049  25.322  1.00  0.00    -0.333 N 
ATOM     14  C   UNL A   1      30.468  25.906  25.851  1.00  0.00     0.315 C 
ATOM     15  H   UNL A   1      30.263  27.441  24.709  1.00  0.00     0.165 HD
ATOM     16  O   UNL A   1      29.277  25.641  25.668  1.00  0.00    -0.249 OA
ATOM     17  H   UNL A   1      30.722  24.814  27.474  1.00  0.00     0.165 HD
BRANCH  13  18
ATOM     18  C   UNL A   1      32.139  27.896  25.391  1.00  0.00     0.041 C 
BRANCH  18  19
ATOM     19  C   UNL A   1      32.575  28.169  26.841  1.00  0.00     0.025 C 
ATOM     20  C   UNL A   1      33.329  29.475  27.087  1.00  0.00     0.006 C 
ENDBRANCH  18  19
BRANCH  18  21
ATOM     21  C   UNL A   1      31.813  29.301  24.754  1.00  0.00     0.025 C 
ATOM     22  C   UNL A   1      30.482  29.357  23.988  1.00  0.00     0.006 C 
ENDBRANCH  18  21
BRANCH  18  23
ATOM     23  C   UNL A   1      33.308  27.277  24.545  1.00  0.00     0.025 C 
ATOM     24  C   UNL A   1      33.957  28.150  23.475  1.00  0.00     0.006 C 
ENDBRANCH  18  23
ENDBRANCH  13  18
ENDBRANCH  11  12
ENDBRANCH   7  11
ENDBRANCH   3   6
ENDBRANCH   1   2
BRANCH   1  25
ATOM     25  C   UNL A   1      37.935  19.840  24.727  1.00  0.00     0.042 C 
BRANCH  25  26
ATOM     26  C   UNL A   1      38.828  19.808  25.969  1.00  0.00     0.118 C 
BRANCH  26  27
ATOM     27  N   UNL A   1      40.129  19.177  25.789  1.00  0.00    -0.352 N 
ATOM     28  C   UNL A   1      41.413  19.592  26.046  1.00  0.00     0.251 C 
ATOM     29  H   UNL A   1      40.077  18.271  25.407  1.00  0.00     0.163 HD
ATOM     30  O   UNL A   1      42.332  18.812  25.789  1.00  0.00    -0.269 OA
BRANCH  28  31
ATOM     31  C   UNL A   1      41.746  20.944  26.561  1.00  0.00     0.039 A 
ATOM     32  C   UNL A   1      41.746  21.137  27.953  1.00  0.00     0.014 A 
ATOM     33  C   UNL A   1      42.027  22.028  25.733  1.00  0.00     0.014 A 
ATOM     34  C   UNL A   1      42.109  22.369  28.506  1.00  0.00     0.010 A 
ATOM     35  C   UNL A   1      42.458  23.237  26.281  1.00  0.00     0.010 A 
ATOM     36  C   UNL A   1      42.505  23.422  27.672  1.00  0.00    -0.014 A 
BRANCH  36  37
ATOM     37  C   UNL A   1      42.928  24.738  28.214  1.00  0.00     0.031 A 
ATOM     38  C   UNL A   1      41.896  25.803  28.476  1.00  0.00     0.074 A 
ATOM     39  C   UNL A   1      44.234  25.016  28.389  1.00  0.00     0.049 A 
ATOM     40  N   UNL A   1      42.064  27.061  28.795  1.00  0.00    -0.248 NA
ATOM     41  C   UNL A   1      40.487  25.401  28.330  1.00  0.00     0.031 C 
ATOM     42  C   UNL A   1      45.341  24.084  28.165  1.00  0.00     0.029 A 
ATOM     43  N   UNL A   1      44.852  26.179  28.781  1.00  0.00    -0.354 N 
ATOM     44  C   UNL A   1      40.790  27.607  28.854  1.00  0.00     0.074 A 
ATOM     45  C   UNL A   1      39.860  26.556  28.502  1.00  0.00     0.031 C 
ATOM     46  C   UNL A   1      46.501  24.709  28.428  1.00  0.00     0.029 A 
ATOM     47  C   UNL A   1      46.224  26.095  28.796  1.00  0.00     0.049 A 
ATOM     48  H   UNL A   1      44.360  26.995  29.026  1.00  0.00     0.167 HD
ATOM     49  C   UNL A   1      40.420  28.868  29.185  1.00  0.00     0.031 A 
ATOM     50  C   UNL A   1      47.154  27.033  29.057  1.00  0.00     0.031 A 
ATOM     51  C   UNL A   1      41.337  29.911  29.559  1.00  0.00     0.049 A 
ATOM     52  C   UNL A   1      46.721  28.434  29.395  1.00  0.00     0.074 A 
ATOM     53  C   UNL A   1      41.053  31.201  29.969  1.00  0.00     0.029 A 
ATOM     54  N   UNL A   1      42.716  29.780  29.568  1.00  0.00    -0.354 N 
ATOM     55  N   UNL A   1      45.510  28.923  29.492  1.00  0.00    -0.248 NA
ATOM     56  C   UNL A   1      47.788  29.410  29.662  1.00  0.00     0.031 C 
ATOM     57  C   UNL A   1      42.265  31.867  30.182  1.00  0.00     0.029 A 
ATOM     58  C   UNL A   1      43.299  30.975  29.952  1.00  0.00     0.049 A 
ATOM     59  H   UNL A   1      43.209  28.959  29.337  1.00  0.00     0.167 HD
ATOM     60  C   UNL A   1      45.666  30.255  29.854  1.00  0.00     0.074 A 
ATOM     61  C   UNL A   1      47.090  30.493  29.974  1.00  0.00     0.031 C 
ATOM     62  C   UNL A   1      44.717  31.198  30.067  1.00  0.00     0.031 A 
BRANCH  49  63
ATOM     63  C   UNL A   1      38.952  29.189  29.143  1.00  0.00    -0.014 A 
ATOM     64  C   UNL A   1      38.326  29.582  27.949  1.00  0.00     0.009 A 
ATOM     65  C   UNL A   1      38.180  29.073  30.309  1.00  0.00     0.009 A 
ATOM     66  C   UNL A   1      36.965  29.891  27.934  1.00  0.00     0.001 A 
ATOM     67  C   UNL A   1      36.813  29.356  30.284  1.00  0.00     0.001 A 
ATOM     68  C   UNL A   1      36.209  29.774  29.100  1.00  0.00     0.000 A 
ENDBRANCH  49  63
BRANCH  50  69
ATOM     69  C   UNL A   1      48.599  26.687  29.004  1.00  0.00    -0.014 A 
ATOM     70  C   UNL A   1      49.262  26.233  30.155  1.00  0.00     0.009 A 
ATOM     71  C   UNL A   1      49.328  26.826  27.812  1.00  0.00     0.009 A 
ATOM     72  C   UNL A   1      50.629  25.950  30.119  1.00  0.00     0.001 A 
ATOM     73  C   UNL A   1      50.689  26.516  27.773  1.00  0.00     0.001 A 
ATOM     74  C   UNL A   1      51.340  26.087  28.929  1.00  0.00     0.000 A 
ENDBRANCH  50  69
BRANCH  62  75
ATOM     75  C   UNL A   1      45.182  32.566  30.477  1.00  0.00    -0.014 A 
ATOM     76  C   UNL A   1      45.290  32.922  31.830  1.00  0.00     0.009 A 
ATOM     77  C   UNL A   1      45.568  33.493  29.495  1.00  0.00     0.009 A 
ATOM     78  C   UNL A   1      45.750  34.190  32.190  1.00  0.00     0.001 A 
ATOM     79  C   UNL A   1      46.051  34.750  29.860  1.00  0.00     0.001 A 
ATOM     80  C   UNL A   1      46.135  35.100  31.206  1.00  0.00     0.000 A 
ENDBRANCH  62  75
ENDBRANCH  36  37
ENDBRANCH  28  31
ENDBRANCH  26  27
ENDBRANCH  25  26
ENDBRANCH   1  25
TORSDOF 16
ENDMDL
