MODEL 1
REMARK VINA RESULT:     -10.2      0.000      0.000
REMARK SMILES C#CCN(CC(=O)NCCCNC(=O)c1ccc(-c2c3nc(c(-c4ccccc4)c4ccc([nH]4)c(-c4ccccc4)c4nc(c(-c5ccccc5)c5ccc2[nH]5)C=C4)C=C3)cc1)C(=O)c1c[nH]c(=O)[nH]1
REMARK SMILES IDX 9 1 8 2 6 3 7 4 5 6 4 7 3 8 2 9 1 10 63 11 64 12 65 13 66 14
REMARK SMILES IDX 70 15 67 16 68 17 69 20 10 21 11 22 12 23 13 24 14 26 15 27
REMARK SMILES IDX 16 28 62 29 17 30 61 31 18 32 19 33 20 34 55 35 21 36 60 37
REMARK SMILES IDX 54 38 56 39 22 40 59 41 53 42 52 43 23 45 45 46 30 47 44 48
REMARK SMILES IDX 31 49 34 50 43 51 57 52 32 53 33 54 42 56 58 57 35 58 24 59
REMARK SMILES IDX 25 60 29 61 26 62 28 63 27 64 46 65 47 66 51 67 48 68 50 69
REMARK SMILES IDX 49 70 36 71 37 72 41 73 38 74 40 75 39 76
REMARK H PARENT 8 5 70 18 67 19 12 25 56 44 34 55
REMARK Flexibility Score: inf
ROOT
ATOM      1  C   UNL A   1      31.937  26.996  26.050  1.00  0.00     0.117 C 
ENDROOT
BRANCH   1   2
ATOM      2  N   UNL A   1      31.299  25.757  26.438  1.00  0.00    -0.354 N 
ATOM      3  C   UNL A   1      31.841  24.524  26.645  1.00  0.00     0.239 C 
ATOM      4  O   UNL A   1      31.162  23.721  27.291  1.00  0.00    -0.273 OA
ATOM      5  H   UNL A   1      30.326  25.814  26.573  1.00  0.00     0.163 HD
BRANCH   3   6
ATOM      6  C   UNL A   1      33.268  24.160  26.200  1.00  0.00     0.220 C 
BRANCH   6   7
ATOM      7  N   UNL A   1      33.389  23.665  24.824  1.00  0.00    -0.317 N 
BRANCH   7   8
ATOM      8  C   UNL A   1      34.389  24.289  23.960  1.00  0.00     0.210 C 
BRANCH   8   9
ATOM      9  C   UNL A   1      35.592  23.385  23.742  1.00  0.00    -0.085 C 
ATOM     10  C   UNL A   1      36.624  22.610  23.555  1.00  0.00     0.006 C 
ENDBRANCH   8   9
ENDBRANCH   7   8
BRANCH   7  11
ATOM     11  C   UNL A   1      32.689  22.573  24.324  1.00  0.00     0.273 C 
ATOM     12  O   UNL A   1      31.968  22.639  23.328  1.00  0.00    -0.267 OA
BRANCH  11  13
ATOM     13  C   UNL A   1      32.856  21.251  24.980  1.00  0.00     0.125 A 
ATOM     14  C   UNL A   1      33.469  20.944  26.133  1.00  0.00     0.119 A 
ATOM     15  N   UNL A   1      32.265  20.109  24.486  1.00  0.00    -0.302 N 
ATOM     16  N   UNL A   1      33.316  19.599  26.365  1.00  0.00    -0.312 N 
ATOM     17  C   UNL A   1      32.545  19.039  25.339  1.00  0.00     0.323 A 
ATOM     18  H   UNL A   1      31.729  20.056  23.662  1.00  0.00     0.172 HD
ATOM     19  H   UNL A   1      33.689  19.107  27.132  1.00  0.00     0.171 HD
ATOM     20  O   UNL A   1      32.192  17.879  25.225  1.00  0.00    -0.248 OA
ENDBRANCH  11  13
ENDBRANCH   7  11
ENDBRANCH   6   7
ENDBRANCH   3   6
ENDBRANCH   1   2
BRANCH   1  21
ATOM     21  C   UNL A   1      32.184  27.948  27.216  1.00  0.00     0.042 C 
BRANCH  21  22
ATOM     22  C   UNL A   1      33.576  28.568  27.246  1.00  0.00     0.118 C 
BRANCH  22  23
ATOM     23  N   UNL A   1      33.552  29.976  27.611  1.00  0.00    -0.352 N 
ATOM     24  C   UNL A   1      34.468  30.752  28.272  1.00  0.00     0.251 C 
ATOM     25  H   UNL A   1      32.737  30.455  27.336  1.00  0.00     0.163 HD
ATOM     26  O   UNL A   1      34.128  31.865  28.665  1.00  0.00    -0.269 OA
BRANCH  24  27
ATOM     27  C   UNL A   1      35.848  30.278  28.521  1.00  0.00     0.039 A 
ATOM     28  C   UNL A   1      36.770  30.334  27.469  1.00  0.00     0.014 A 
ATOM     29  C   UNL A   1      36.225  29.714  29.741  1.00  0.00     0.014 A 
ATOM     30  C   UNL A   1      38.070  29.861  27.655  1.00  0.00     0.010 A 
ATOM     31  C   UNL A   1      37.546  29.324  29.954  1.00  0.00     0.010 A 
ATOM     32  C   UNL A   1      38.478  29.375  28.908  1.00  0.00    -0.014 A 
BRANCH  32  33
ATOM     33  C   UNL A   1      39.870  28.905  29.125  1.00  0.00     0.031 A 
ATOM     34  C   UNL A   1      40.892  29.810  29.762  1.00  0.00     0.074 A 
ATOM     35  C   UNL A   1      40.224  27.670  28.720  1.00  0.00     0.049 A 
ATOM     36  N   UNL A   1      42.151  29.570  30.033  1.00  0.00    -0.248 NA
ATOM     37  C   UNL A   1      40.450  31.167  30.124  1.00  0.00     0.031 C 
ATOM     38  C   UNL A   1      39.340  26.712  28.054  1.00  0.00     0.029 A 
ATOM     39  N   UNL A   1      41.422  27.007  28.815  1.00  0.00    -0.354 N 
ATOM     40  C   UNL A   1      42.650  30.745  30.582  1.00  0.00     0.074 A 
ATOM     41  C   UNL A   1      41.577  31.714  30.554  1.00  0.00     0.031 C 
ATOM     42  C   UNL A   1      40.014  25.570  27.837  1.00  0.00     0.029 A 
ATOM     43  C   UNL A   1      41.386  25.731  28.306  1.00  0.00     0.049 A 
ATOM     44  H   UNL A   1      42.230  27.408  29.210  1.00  0.00     0.167 HD
ATOM     45  C   UNL A   1      43.883  30.991  31.086  1.00  0.00     0.031 A 
ATOM     46  C   UNL A   1      42.349  24.795  28.224  1.00  0.00     0.031 A 
ATOM     47  C   UNL A   1      44.951  30.027  31.115  1.00  0.00     0.049 A 
ATOM     48  C   UNL A   1      43.717  25.102  28.767  1.00  0.00     0.074 A 
ATOM     49  C   UNL A   1      46.220  30.163  31.651  1.00  0.00     0.029 A 
ATOM     50  N   UNL A   1      44.877  28.751  30.578  1.00  0.00    -0.354 N 
ATOM     51  N   UNL A   1      44.149  26.192  29.355  1.00  0.00    -0.248 NA
ATOM     52  C   UNL A   1      44.726  24.042  28.648  1.00  0.00     0.031 C 
ATOM     53  C   UNL A   1      46.934  28.991  31.382  1.00  0.00     0.029 A 
ATOM     54  C   UNL A   1      46.089  28.099  30.742  1.00  0.00     0.049 A 
ATOM     55  H   UNL A   1      44.082  28.366  30.146  1.00  0.00     0.167 HD
ATOM     56  C   UNL A   1      45.470  25.938  29.699  1.00  0.00     0.074 A 
ATOM     57  C   UNL A   1      45.759  24.583  29.277  1.00  0.00     0.031 C 
ATOM     58  C   UNL A   1      46.365  26.754  30.310  1.00  0.00     0.031 A 
BRANCH  45  59
ATOM     59  C   UNL A   1      44.146  32.368  31.638  1.00  0.00    -0.014 A 
ATOM     60  C   UNL A   1      44.729  33.373  30.848  1.00  0.00     0.009 A 
ATOM     61  C   UNL A   1      43.774  32.674  32.956  1.00  0.00     0.009 A 
ATOM     62  C   UNL A   1      44.970  34.642  31.379  1.00  0.00     0.001 A 
ATOM     63  C   UNL A   1      43.986  33.954  33.474  1.00  0.00     0.001 A 
ATOM     64  C   UNL A   1      44.593  34.933  32.689  1.00  0.00     0.000 A 
ENDBRANCH  45  59
BRANCH  46  65
ATOM     65  C   UNL A   1      42.054  23.472  27.613  1.00  0.00    -0.014 A 
ATOM     66  C   UNL A   1      41.470  22.447  28.375  1.00  0.00     0.009 A 
ATOM     67  C   UNL A   1      42.366  23.221  26.268  1.00  0.00     0.009 A 
ATOM     68  C   UNL A   1      41.235  21.191  27.811  1.00  0.00     0.001 A 
ATOM     69  C   UNL A   1      42.100  21.974  25.698  1.00  0.00     0.001 A 
ATOM     70  C   UNL A   1      41.546  20.957  26.473  1.00  0.00     0.000 A 
ENDBRANCH  46  65
BRANCH  58  71
ATOM     71  C   UNL A   1      47.732  26.188  30.587  1.00  0.00    -0.014 A 
ATOM     72  C   UNL A   1      48.724  26.149  29.594  1.00  0.00     0.009 A 
ATOM     73  C   UNL A   1      48.037  25.710  31.871  1.00  0.00     0.009 A 
ATOM     74  C   UNL A   1      49.979  25.603  29.872  1.00  0.00     0.001 A 
ATOM     75  C   UNL A   1      49.304  25.197  32.155  1.00  0.00     0.001 A 
ATOM     76  C   UNL A   1      50.269  25.133  31.152  1.00  0.00     0.000 A 
ENDBRANCH  58  71
ENDBRANCH  32  33
ENDBRANCH  24  27
ENDBRANCH  22  23
ENDBRANCH  21  22
ENDBRANCH   1  21
TORSDOF 15
ENDMDL
MODEL 2
REMARK VINA RESULT:     -10.1      1.210      6.251
REMARK SMILES C#CCN(CC(=O)NCCCNC(=O)c1ccc(-c2c3nc(c(-c4ccccc4)c4ccc([nH]4)c(-c4ccccc4)c4nc(c(-c5ccccc5)c5ccc2[nH]5)C=C4)C=C3)cc1)C(=O)c1c[nH]c(=O)[nH]1
REMARK SMILES IDX 9 1 8 2 6 3 7 4 5 6 4 7 3 8 2 9 1 10 63 11 64 12 65 13 66 14
REMARK SMILES IDX 70 15 67 16 68 17 69 20 10 21 11 22 12 23 13 24 14 26 15 27
REMARK SMILES IDX 16 28 62 29 17 30 61 31 18 32 19 33 20 34 55 35 21 36 60 37
REMARK SMILES IDX 54 38 56 39 22 40 59 41 53 42 52 43 23 45 45 46 30 47 44 48
REMARK SMILES IDX 31 49 34 50 43 51 57 52 32 53 33 54 42 56 58 57 35 58 24 59
REMARK SMILES IDX 25 60 29 61 26 62 28 63 27 64 46 65 47 66 51 67 48 68 50 69
REMARK SMILES IDX 49 70 36 71 37 72 41 73 38 74 40 75 39 76
REMARK H PARENT 8 5 70 18 67 19 12 25 56 44 34 55
REMARK Flexibility Score: inf
ROOT
ATOM      1  C   UNL A   1      33.049  26.627  26.066  1.00  0.00     0.117 C 
ENDROOT
BRANCH   1   2
ATOM      2  N   UNL A   1      32.077  25.707  26.615  1.00  0.00    -0.354 N 
ATOM      3  C   UNL A   1      31.966  24.358  26.457  1.00  0.00     0.239 C 
ATOM      4  O   UNL A   1      31.274  23.758  27.284  1.00  0.00    -0.273 OA
ATOM      5  H   UNL A   1      31.390  26.118  27.188  1.00  0.00     0.163 HD
BRANCH   3   6
ATOM      6  C   UNL A   1      32.742  23.583  25.377  1.00  0.00     0.220 C 
BRANCH   6   7
ATOM      7  N   UNL A   1      33.988  22.955  25.831  1.00  0.00    -0.317 N 
BRANCH   7   8
ATOM      8  C   UNL A   1      35.233  23.698  25.645  1.00  0.00     0.210 C 
BRANCH   8   9
ATOM      9  C   UNL A   1      35.966  23.271  24.384  1.00  0.00    -0.085 C 
ATOM     10  C   UNL A   1      36.594  22.904  23.302  1.00  0.00     0.006 C 
ENDBRANCH   8   9
ENDBRANCH   7   8
BRANCH   7  11
ATOM     11  C   UNL A   1      34.048  21.749  26.520  1.00  0.00     0.273 C 
ATOM     12  O   UNL A   1      34.269  21.679  27.729  1.00  0.00    -0.267 OA
BRANCH  11  13
ATOM     13  C   UNL A   1      33.778  20.487  25.784  1.00  0.00     0.125 A 
ATOM     14  C   UNL A   1      34.449  19.937  24.761  1.00  0.00     0.119 A 
ATOM     15  N   UNL A   1      32.783  19.616  26.167  1.00  0.00    -0.302 N 
ATOM     16  N   UNL A   1      33.864  18.735  24.450  1.00  0.00    -0.312 N 
ATOM     17  C   UNL A   1      32.805  18.495  25.333  1.00  0.00     0.323 A 
ATOM     18  H   UNL A   1      32.155  19.761  26.912  1.00  0.00     0.172 HD
ATOM     19  H   UNL A   1      34.145  18.136  23.720  1.00  0.00     0.171 HD
ATOM     20  O   UNL A   1      32.075  17.522  25.370  1.00  0.00    -0.248 OA
ENDBRANCH  11  13
ENDBRANCH   7  11
ENDBRANCH   6   7
ENDBRANCH   3   6
ENDBRANCH   1   2
BRANCH   1  21
ATOM     21  C   UNL A   1      33.175  27.926  26.856  1.00  0.00     0.042 C 
BRANCH  21  22
ATOM     22  C   UNL A   1      34.030  28.995  26.187  1.00  0.00     0.118 C 
BRANCH  22  23
ATOM     23  N   UNL A   1      33.881  30.301  26.811  1.00  0.00    -0.352 N 
ATOM     24  C   UNL A   1      34.611  30.921  27.790  1.00  0.00     0.251 C 
ATOM     25  H   UNL A   1      33.123  30.831  26.470  1.00  0.00     0.163 HD
ATOM     26  O   UNL A   1      34.157  31.935  28.314  1.00  0.00    -0.269 OA
BRANCH  24  27
ATOM     27  C   UNL A   1      35.925  30.398  28.225  1.00  0.00     0.039 A 
ATOM     28  C   UNL A   1      35.996  29.702  29.437  1.00  0.00     0.014 A 
ATOM     29  C   UNL A   1      37.094  30.647  27.501  1.00  0.00     0.014 A 
ATOM     30  C   UNL A   1      37.225  29.228  29.898  1.00  0.00     0.010 A 
ATOM     31  C   UNL A   1      38.305  30.096  27.916  1.00  0.00     0.010 A 
ATOM     32  C   UNL A   1      38.388  29.398  29.129  1.00  0.00    -0.014 A 
BRANCH  32  33
ATOM     33  C   UNL A   1      39.693  28.862  29.595  1.00  0.00     0.031 A 
ATOM     34  C   UNL A   1      40.193  27.531  29.100  1.00  0.00     0.074 A 
ATOM     35  C   UNL A   1      40.417  29.564  30.489  1.00  0.00     0.049 A 
ATOM     36  N   UNL A   1      41.307  26.908  29.393  1.00  0.00    -0.248 NA
ATOM     37  C   UNL A   1      39.321  26.793  28.171  1.00  0.00     0.031 C 
ATOM     38  C   UNL A   1      40.024  30.846  31.076  1.00  0.00     0.029 A 
ATOM     39  N   UNL A   1      41.638  29.298  31.056  1.00  0.00    -0.354 N 
ATOM     40  C   UNL A   1      41.263  25.706  28.698  1.00  0.00     0.074 A 
ATOM     41  C   UNL A   1      39.989  25.659  28.014  1.00  0.00     0.031 C 
ATOM     42  C   UNL A   1      41.004  31.275  31.888  1.00  0.00     0.029 A 
ATOM     43  C   UNL A   1      42.070  30.279  31.915  1.00  0.00     0.049 A 
ATOM     44  H   UNL A   1      42.154  28.481  30.865  1.00  0.00     0.167 HD
ATOM     45  C   UNL A   1      42.204  24.735  28.616  1.00  0.00     0.031 A 
ATOM     46  C   UNL A   1      43.197  30.367  32.645  1.00  0.00     0.031 A 
ATOM     47  C   UNL A   1      43.472  24.781  29.296  1.00  0.00     0.049 A 
ATOM     48  C   UNL A   1      44.215  29.265  32.556  1.00  0.00     0.074 A 
ATOM     49  C   UNL A   1      44.515  23.873  29.236  1.00  0.00     0.029 A 
ATOM     50  N   UNL A   1      43.866  25.786  30.166  1.00  0.00    -0.354 N 
ATOM     51  N   UNL A   1      44.191  28.172  31.832  1.00  0.00    -0.248 NA
ATOM     52  C   UNL A   1      45.424  29.418  33.377  1.00  0.00     0.031 C 
ATOM     53  C   UNL A   1      45.514  24.297  30.119  1.00  0.00     0.029 A 
ATOM     54  C   UNL A   1      45.124  25.504  30.674  1.00  0.00     0.049 A 
ATOM     55  H   UNL A   1      43.331  26.581  30.389  1.00  0.00     0.167 HD
ATOM     56  C   UNL A   1      45.391  27.522  32.089  1.00  0.00     0.074 A 
ATOM     57  C   UNL A   1      46.129  28.355  33.015  1.00  0.00     0.031 C 
ATOM     58  C   UNL A   1      45.843  26.339  31.601  1.00  0.00     0.031 A 
BRANCH  45  59
ATOM     59  C   UNL A   1      41.891  23.532  27.766  1.00  0.00    -0.014 A 
ATOM     60  C   UNL A   1      42.345  23.435  26.441  1.00  0.00     0.009 A 
ATOM     61  C   UNL A   1      41.161  22.464  28.310  1.00  0.00     0.009 A 
ATOM     62  C   UNL A   1      42.041  22.313  25.666  1.00  0.00     0.001 A 
ATOM     63  C   UNL A   1      40.886  21.329  27.545  1.00  0.00     0.001 A 
ATOM     64  C   UNL A   1      41.317  21.259  26.220  1.00  0.00     0.000 A 
ENDBRANCH  45  59
BRANCH  46  65
ATOM     65  C   UNL A   1      43.431  31.549  33.516  1.00  0.00    -0.014 A 
ATOM     66  C   UNL A   1      42.983  31.557  34.847  1.00  0.00     0.009 A 
ATOM     67  C   UNL A   1      44.093  32.682  33.019  1.00  0.00     0.009 A 
ATOM     68  C   UNL A   1      43.164  32.686  35.649  1.00  0.00     0.001 A 
ATOM     69  C   UNL A   1      44.303  33.797  33.834  1.00  0.00     0.001 A 
ATOM     70  C   UNL A   1      43.828  33.802  35.144  1.00  0.00     0.000 A 
ENDBRANCH  46  65
BRANCH  58  71
ATOM     71  C   UNL A   1      47.213  25.896  32.037  1.00  0.00    -0.014 A 
ATOM     72  C   UNL A   1      47.401  25.139  33.205  1.00  0.00     0.009 A 
ATOM     73  C   UNL A   1      48.329  26.218  31.251  1.00  0.00     0.009 A 
ATOM     74  C   UNL A   1      48.684  24.754  33.598  1.00  0.00     0.001 A 
ATOM     75  C   UNL A   1      49.607  25.802  31.627  1.00  0.00     0.001 A 
ATOM     76  C   UNL A   1      49.785  25.081  32.806  1.00  0.00     0.000 A 
ENDBRANCH  58  71
ENDBRANCH  32  33
ENDBRANCH  24  27
ENDBRANCH  22  23
ENDBRANCH  21  22
ENDBRANCH   1  21
TORSDOF 15
ENDMDL
MODEL 3
REMARK VINA RESULT:     -10.0      3.856      9.775
REMARK SMILES C#CCN(CC(=O)NCCCNC(=O)c1ccc(-c2c3nc(c(-c4ccccc4)c4ccc([nH]4)c(-c4ccccc4)c4nc(c(-c5ccccc5)c5ccc2[nH]5)C=C4)C=C3)cc1)C(=O)c1c[nH]c(=O)[nH]1
REMARK SMILES IDX 9 1 8 2 6 3 7 4 5 6 4 7 3 8 2 9 1 10 63 11 64 12 65 13 66 14
REMARK SMILES IDX 70 15 67 16 68 17 69 20 10 21 11 22 12 23 13 24 14 26 15 27
REMARK SMILES IDX 16 28 62 29 17 30 61 31 18 32 19 33 20 34 55 35 21 36 60 37
REMARK SMILES IDX 54 38 56 39 22 40 59 41 53 42 52 43 23 45 45 46 30 47 44 48
REMARK SMILES IDX 31 49 34 50 43 51 57 52 32 53 33 54 42 56 58 57 35 58 24 59
REMARK SMILES IDX 25 60 29 61 26 62 28 63 27 64 46 65 47 66 51 67 48 68 50 69
REMARK SMILES IDX 49 70 36 71 37 72 41 73 38 74 40 75 39 76
REMARK H PARENT 8 5 70 18 67 19 12 25 56 44 34 55
REMARK Flexibility Score: inf
ROOT
ATOM      1  C   UNL A   1      43.361  21.196  25.673  1.00  0.00     0.117 C 
ENDROOT
BRANCH   1   2
ATOM      2  N   UNL A   1      44.300  21.641  24.667  1.00  0.00    -0.354 N 
ATOM      3  C   UNL A   1      44.808  22.884  24.436  1.00  0.00     0.239 C 
ATOM      4  O   UNL A   1      45.834  22.947  23.753  1.00  0.00    -0.273 OA
ATOM      5  H   UNL A   1      44.620  20.939  24.056  1.00  0.00     0.163 HD
BRANCH   3   6
ATOM      6  C   UNL A   1      44.215  24.154  25.073  1.00  0.00     0.220 C 
BRANCH   6   7
ATOM      7  N   UNL A   1      45.189  25.055  25.697  1.00  0.00    -0.317 N 
BRANCH   7   8
ATOM      8  C   UNL A   1      45.959  24.549  26.831  1.00  0.00     0.210 C 
BRANCH   8   9
ATOM      9  C   UNL A   1      45.068  23.885  27.869  1.00  0.00    -0.085 C 
ATOM     10  C   UNL A   1      44.304  23.316  28.759  1.00  0.00     0.006 C 
ENDBRANCH   8   9
ENDBRANCH   7   8
BRANCH   7  11
ATOM     11  C   UNL A   1      45.504  26.321  25.212  1.00  0.00     0.273 C 
ATOM     12  O   UNL A   1      46.421  26.524  24.417  1.00  0.00    -0.267 OA
BRANCH  11  13
ATOM     13  C   UNL A   1      44.664  27.475  25.622  1.00  0.00     0.125 A 
ATOM     14  C   UNL A   1      45.000  28.565  26.328  1.00  0.00     0.119 A 
ATOM     15  N   UNL A   1      43.360  27.616  25.203  1.00  0.00    -0.302 N 
ATOM     16  N   UNL A   1      43.906  29.391  26.406  1.00  0.00    -0.312 N 
ATOM     17  C   UNL A   1      42.846  28.820  25.691  1.00  0.00     0.323 A 
ATOM     18  H   UNL A   1      42.868  26.970  24.646  1.00  0.00     0.172 HD
ATOM     19  H   UNL A   1      43.872  30.248  26.889  1.00  0.00     0.171 HD
ATOM     20  O   UNL A   1      41.730  29.278  25.527  1.00  0.00    -0.248 OA
ENDBRANCH  11  13
ENDBRANCH   7  11
ENDBRANCH   6   7
ENDBRANCH   3   6
ENDBRANCH   1   2
BRANCH   1  21
ATOM     21  C   UNL A   1      42.115  22.071  25.775  1.00  0.00     0.042 C 
BRANCH  21  22
ATOM     22  C   UNL A   1      40.978  21.464  26.589  1.00  0.00     0.118 C 
BRANCH  22  23
ATOM     23  N   UNL A   1      39.673  21.709  25.995  1.00  0.00    -0.352 N 
ATOM     24  C   UNL A   1      38.804  22.759  26.130  1.00  0.00     0.251 C 
ATOM     25  H   UNL A   1      39.359  20.997  25.391  1.00  0.00     0.163 HD
ATOM     26  O   UNL A   1      37.658  22.638  25.704  1.00  0.00    -0.269 OA
BRANCH  24  27
ATOM     27  C   UNL A   1      39.215  24.027  26.775  1.00  0.00     0.039 A 
ATOM     28  C   UNL A   1      39.968  24.939  26.028  1.00  0.00     0.014 A 
ATOM     29  C   UNL A   1      38.937  24.294  28.117  1.00  0.00     0.014 A 
ATOM     30  C   UNL A   1      40.406  26.127  26.615  1.00  0.00     0.010 A 
ATOM     31  C   UNL A   1      39.298  25.520  28.676  1.00  0.00     0.010 A 
ATOM     32  C   UNL A   1      40.053  26.441  27.937  1.00  0.00    -0.014 A 
BRANCH  32  33
ATOM     33  C   UNL A   1      40.483  27.721  28.556  1.00  0.00     0.031 A 
ATOM     34  C   UNL A   1      41.905  27.908  29.016  1.00  0.00     0.074 A 
ATOM     35  C   UNL A   1      39.584  28.708  28.732  1.00  0.00     0.049 A 
ATOM     36  N   UNL A   1      42.461  28.955  29.574  1.00  0.00    -0.248 NA
ATOM     37  C   UNL A   1      42.818  26.765  28.847  1.00  0.00     0.031 C 
ATOM     38  C   UNL A   1      38.168  28.637  28.367  1.00  0.00     0.029 A 
ATOM     39  N   UNL A   1      39.729  29.967  29.258  1.00  0.00    -0.354 N 
ATOM     40  C   UNL A   1      43.777  28.592  29.832  1.00  0.00     0.074 A 
ATOM     41  C   UNL A   1      43.923  27.213  29.424  1.00  0.00     0.031 C 
ATOM     42  C   UNL A   1      37.584  29.815  28.642  1.00  0.00     0.029 A 
ATOM     43  C   UNL A   1      38.571  30.705  29.244  1.00  0.00     0.049 A 
ATOM     44  H   UNL A   1      40.582  30.308  29.612  1.00  0.00     0.167 HD
ATOM     45  C   UNL A   1      44.781  29.344  30.342  1.00  0.00     0.031 A 
ATOM     46  C   UNL A   1      38.328  31.960  29.669  1.00  0.00     0.031 A 
ATOM     47  C   UNL A   1      44.637  30.717  30.748  1.00  0.00     0.049 A 
ATOM     48  C   UNL A   1      39.454  32.765  30.254  1.00  0.00     0.074 A 
ATOM     49  C   UNL A   1      45.606  31.581  31.228  1.00  0.00     0.029 A 
ATOM     50  N   UNL A   1      43.444  31.424  30.729  1.00  0.00    -0.354 N 
ATOM     51  N   UNL A   1      40.712  32.432  30.419  1.00  0.00    -0.248 NA
ATOM     52  C   UNL A   1      39.128  34.126  30.701  1.00  0.00     0.031 C 
ATOM     53  C   UNL A   1      44.987  32.791  31.558  1.00  0.00     0.029 A 
ATOM     54  C   UNL A   1      43.647  32.705  31.218  1.00  0.00     0.049 A 
ATOM     55  H   UNL A   1      42.583  31.070  30.414  1.00  0.00     0.167 HD
ATOM     56  C   UNL A   1      41.332  33.551  30.961  1.00  0.00     0.074 A 
ATOM     57  C   UNL A   1      40.317  34.578  31.074  1.00  0.00     0.031 C 
ATOM     58  C   UNL A   1      42.626  33.714  31.333  1.00  0.00     0.031 A 
BRANCH  45  59
ATOM     59  C   UNL A   1      46.129  28.690  30.500  1.00  0.00    -0.014 A 
ATOM     60  C   UNL A   1      46.470  27.995  31.673  1.00  0.00     0.009 A 
ATOM     61  C   UNL A   1      47.057  28.738  29.449  1.00  0.00     0.009 A 
ATOM     62  C   UNL A   1      47.726  27.398  31.804  1.00  0.00     0.001 A 
ATOM     63  C   UNL A   1      48.300  28.113  29.570  1.00  0.00     0.001 A 
ATOM     64  C   UNL A   1      48.637  27.453  30.750  1.00  0.00     0.000 A 
ENDBRANCH  45  59
BRANCH  46  65
ATOM     65  C   UNL A   1      36.964  32.539  29.545  1.00  0.00    -0.014 A 
ATOM     66  C   UNL A   1      36.579  33.220  28.380  1.00  0.00     0.009 A 
ATOM     67  C   UNL A   1      36.043  32.425  30.597  1.00  0.00     0.009 A 
ATOM     68  C   UNL A   1      35.313  33.802  28.284  1.00  0.00     0.001 A 
ATOM     69  C   UNL A   1      34.766  32.978  30.487  1.00  0.00     0.001 A 
ATOM     70  C   UNL A   1      34.407  33.677  29.335  1.00  0.00     0.000 A 
ENDBRANCH  46  65
BRANCH  58  71
ATOM     71  C   UNL A   1      43.022  35.064  31.865  1.00  0.00    -0.014 A 
ATOM     72  C   UNL A   1      43.543  36.060  31.023  1.00  0.00     0.009 A 
ATOM     73  C   UNL A   1      42.844  35.352  33.227  1.00  0.00     0.009 A 
ATOM     74  C   UNL A   1      43.919  37.299  31.545  1.00  0.00     0.001 A 
ATOM     75  C   UNL A   1      43.187  36.604  33.739  1.00  0.00     0.001 A 
ATOM     76  C   UNL A   1      43.736  37.572  32.900  1.00  0.00     0.000 A 
ENDBRANCH  58  71
ENDBRANCH  32  33
ENDBRANCH  24  27
ENDBRANCH  22  23
ENDBRANCH  21  22
ENDBRANCH   1  21
TORSDOF 15
ENDMDL
