MODEL 1
REMARK VINA RESULT:     -10.8      0.000      0.000
REMARK SMILES C=CCOc1ccccc1-c1cc(C(=O)NCCCNC(=O)c2ccc(-c3c4nc(c(-c5ccccc5)c5ccc([nH]5)c(-c5ccccc5)c5nc(c(-c6ccccc6)c6ccc3[nH]6)C=C5)C=C4)cc2)nc(N)n1
REMARK SMILES IDX 17 1 16 2 14 3 15 4 13 6 11 7 12 8 74 9 72 10 71 11 10 12
REMARK SMILES IDX 5 13 6 14 7 15 9 16 8 17 4 18 3 19 2 20 1 21 73 22 18 25
REMARK SMILES IDX 19 26 20 27 21 28 22 30 23 31 24 32 70 33 25 34 69 35 26 36
REMARK SMILES IDX 27 37 28 38 63 39 29 40 68 41 62 42 64 43 30 44 67 45 61 46
REMARK SMILES IDX 60 47 31 49 53 50 38 51 52 52 39 53 42 54 51 55 65 56 40 57
REMARK SMILES IDX 41 58 50 60 66 61 43 62 32 63 33 64 37 65 34 66 36 67 35 68
REMARK SMILES IDX 54 69 55 70 59 71 56 72 58 73 57 74 44 75 45 76 49 77 46 78
REMARK SMILES IDX 48 79 47 80
REMARK H PARENT 16 5 73 23 73 24 20 29 64 48 42 59
REMARK Flexibility Score: inf
ROOT
ATOM      1  C   UNL A   1      31.473  27.755  26.591  1.00  0.00     0.118 C 
ENDROOT
BRANCH   1   2
ATOM      2  N   UNL A   1      31.046  26.394  26.872  1.00  0.00    -0.351 N 
ATOM      3  C   UNL A   1      31.535  25.180  26.444  1.00  0.00     0.270 C 
ATOM      4  O   UNL A   1      30.975  24.165  26.866  1.00  0.00    -0.268 OA
ATOM      5  H   UNL A   1      30.270  26.329  27.473  1.00  0.00     0.163 HD
BRANCH   3   6
ATOM      6  C   UNL A   1      32.656  25.052  25.464  1.00  0.00     0.134 A 
ATOM      7  C   UNL A   1      34.718  24.139  24.900  1.00  0.00     0.080 A 
ATOM      8  C   UNL A   1      33.815  24.452  25.891  1.00  0.00     0.063 A 
ATOM      9  N   UNL A   1      34.520  24.483  23.608  1.00  0.00    -0.213 NA
ATOM     10  C   UNL A   1      33.384  25.107  23.310  1.00  0.00     0.221 A 
ATOM     11  N   UNL A   1      32.442  25.424  24.189  1.00  0.00    -0.208 NA
BRANCH   7  12
ATOM     12  C   UNL A   1      35.894  23.299  25.150  1.00  0.00     0.042 A 
ATOM     13  C   UNL A   1      35.933  21.933  24.805  1.00  0.00     0.129 A 
ATOM     14  C   UNL A   1      37.066  21.156  25.057  1.00  0.00     0.047 A 
ATOM     15  C   UNL A   1      38.192  21.737  25.638  1.00  0.00     0.004 A 
ATOM     16  C   UNL A   1      37.047  23.864  25.726  1.00  0.00     0.014 A 
ATOM     17  C   UNL A   1      38.183  23.089  25.973  1.00  0.00     0.001 A 
BRANCH  13  18
ATOM     18  O   UNL A   1      34.829  21.300  24.286  1.00  0.00    -0.489 OA
BRANCH  18  19
ATOM     19  C   UNL A   1      34.206  20.424  25.236  1.00  0.00     0.257 C 
BRANCH  19  20
ATOM     20  C   UNL A   1      32.737  20.353  24.931  1.00  0.00     0.006 C 
ATOM     21  C   UNL A   1      31.893  21.390  25.008  1.00  0.00     0.007 C 
ENDBRANCH  19  20
ENDBRANCH  18  19
ENDBRANCH  13  18
ENDBRANCH   7  12
BRANCH  10  22
ATOM     22  N   UNL A   1      33.112  25.341  21.993  1.00  0.00    -0.368 N 
ATOM     23  H   UNL A   1      32.579  24.693  21.478  1.00  0.00     0.159 HD
ATOM     24  H   UNL A   1      33.448  26.157  21.558  1.00  0.00     0.159 HD
ENDBRANCH  10  22
ENDBRANCH   3   6
ENDBRANCH   1   2
BRANCH   1  25
ATOM     25  C   UNL A   1      32.525  28.260  27.569  1.00  0.00     0.042 C 
BRANCH  25  26
ATOM     26  C   UNL A   1      33.569  29.183  26.959  1.00  0.00     0.118 C 
BRANCH  26  27
ATOM     27  N   UNL A   1      33.642  30.477  27.626  1.00  0.00    -0.352 N 
ATOM     28  C   UNL A   1      34.614  31.017  28.433  1.00  0.00     0.251 C 
ATOM     29  H   UNL A   1      32.865  31.061  27.472  1.00  0.00     0.163 HD
ATOM     30  O   UNL A   1      34.392  32.058  29.038  1.00  0.00    -0.269 OA
BRANCH  28  31
ATOM     31  C   UNL A   1      35.915  30.333  28.603  1.00  0.00     0.039 A 
ATOM     32  C   UNL A   1      36.820  30.337  27.538  1.00  0.00     0.014 A 
ATOM     33  C   UNL A   1      36.243  29.682  29.793  1.00  0.00     0.014 A 
ATOM     34  C   UNL A   1      38.087  29.770  27.700  1.00  0.00     0.010 A 
ATOM     35  C   UNL A   1      37.535  29.198  29.986  1.00  0.00     0.010 A 
ATOM     36  C   UNL A   1      38.473  29.243  28.943  1.00  0.00    -0.014 A 
BRANCH  36  37
ATOM     37  C   UNL A   1      39.859  28.768  29.186  1.00  0.00     0.031 A 
ATOM     38  C   UNL A   1      40.897  29.698  29.750  1.00  0.00     0.074 A 
ATOM     39  C   UNL A   1      40.205  27.520  28.817  1.00  0.00     0.049 A 
ATOM     40  N   UNL A   1      42.174  29.486  29.948  1.00  0.00    -0.248 NA
ATOM     41  C   UNL A   1      40.447  31.050  30.115  1.00  0.00     0.031 C 
ATOM     42  C   UNL A   1      39.304  26.531  28.220  1.00  0.00     0.029 A 
ATOM     43  N   UNL A   1      41.414  26.872  28.877  1.00  0.00    -0.354 N 
ATOM     44  C   UNL A   1      42.681  30.679  30.445  1.00  0.00     0.074 A 
ATOM     45  C   UNL A   1      41.587  31.626  30.469  1.00  0.00     0.031 C 
ATOM     46  C   UNL A   1      39.986  25.399  27.986  1.00  0.00     0.029 A 
ATOM     47  C   UNL A   1      41.380  25.596  28.368  1.00  0.00     0.049 A 
ATOM     48  H   UNL A   1      42.228  27.282  29.249  1.00  0.00     0.167 HD
ATOM     49  C   UNL A   1      43.941  30.959  30.858  1.00  0.00     0.031 A 
ATOM     50  C   UNL A   1      42.363  24.689  28.206  1.00  0.00     0.031 A 
ATOM     51  C   UNL A   1      45.031  30.020  30.829  1.00  0.00     0.049 A 
ATOM     52  C   UNL A   1      43.759  25.033  28.641  1.00  0.00     0.074 A 
ATOM     53  C   UNL A   1      46.329  30.190  31.278  1.00  0.00     0.029 A 
ATOM     54  N   UNL A   1      44.952  28.736  30.310  1.00  0.00    -0.354 N 
ATOM     55  N   UNL A   1      44.206  26.141  29.181  1.00  0.00    -0.248 NA
ATOM     56  C   UNL A   1      44.785  23.998  28.451  1.00  0.00     0.031 C 
ATOM     57  C   UNL A   1      47.053  29.034  30.973  1.00  0.00     0.029 A 
ATOM     58  C   UNL A   1      46.189  28.117  30.395  1.00  0.00     0.049 A 
ATOM     59  H   UNL A   1      44.139  28.326  29.937  1.00  0.00     0.167 HD
ATOM     60  C   UNL A   1      45.559  25.930  29.416  1.00  0.00     0.074 A 
ATOM     61  C   UNL A   1      45.854  24.580  28.978  1.00  0.00     0.031 C 
ATOM     62  C   UNL A   1      46.473  26.777  29.948  1.00  0.00     0.031 A 
BRANCH  49  63
ATOM     63  C   UNL A   1      44.209  32.352  31.362  1.00  0.00    -0.014 A 
ATOM     64  C   UNL A   1      44.605  33.381  30.492  1.00  0.00     0.009 A 
ATOM     65  C   UNL A   1      44.037  32.646  32.724  1.00  0.00     0.009 A 
ATOM     66  C   UNL A   1      44.867  34.663  30.983  1.00  0.00     0.001 A 
ATOM     67  C   UNL A   1      44.268  33.936  33.206  1.00  0.00     0.001 A 
ATOM     68  C   UNL A   1      44.694  34.940  32.338  1.00  0.00     0.000 A 
ENDBRANCH  49  63
BRANCH  50  69
ATOM     69  C   UNL A   1      42.057  23.368  27.595  1.00  0.00    -0.014 A 
ATOM     70  C   UNL A   1      42.309  23.134  26.234  1.00  0.00     0.009 A 
ATOM     71  C   UNL A   1      41.517  22.332  28.372  1.00  0.00     0.009 A 
ATOM     72  C   UNL A   1      42.003  21.897  25.661  1.00  0.00     0.001 A 
ATOM     73  C   UNL A   1      41.242  21.086  27.804  1.00  0.00     0.001 A 
ATOM     74  C   UNL A   1      41.475  20.873  26.447  1.00  0.00     0.000 A 
ENDBRANCH  50  69
BRANCH  62  75
ATOM     75  C   UNL A   1      47.877  26.264  30.110  1.00  0.00    -0.014 A 
ATOM     76  C   UNL A   1      48.794  26.297  29.049  1.00  0.00     0.009 A 
ATOM     77  C   UNL A   1      48.301  25.787  31.360  1.00  0.00     0.009 A 
ATOM     78  C   UNL A   1      50.100  25.833  29.229  1.00  0.00     0.001 A 
ATOM     79  C   UNL A   1      49.615  25.353  31.546  1.00  0.00     0.001 A 
ATOM     80  C   UNL A   1      50.510  25.370  30.478  1.00  0.00     0.000 A 
ENDBRANCH  62  75
ENDBRANCH  36  37
ENDBRANCH  28  31
ENDBRANCH  26  27
ENDBRANCH  25  26
ENDBRANCH   1  25
TORSDOF 15
ENDMDL
MODEL 2
REMARK VINA RESULT:     -10.6      3.634      7.459
REMARK SMILES C=CCOc1ccccc1-c1cc(C(=O)NCCCNC(=O)c2ccc(-c3c4nc(c(-c5ccccc5)c5ccc([nH]5)c(-c5ccccc5)c5nc(c(-c6ccccc6)c6ccc3[nH]6)C=C5)C=C4)cc2)nc(N)n1
REMARK SMILES IDX 17 1 16 2 14 3 15 4 13 6 11 7 12 8 74 9 72 10 71 11 10 12
REMARK SMILES IDX 5 13 6 14 7 15 9 16 8 17 4 18 3 19 2 20 1 21 73 22 18 25
REMARK SMILES IDX 19 26 20 27 21 28 22 30 23 31 24 32 70 33 25 34 69 35 26 36
REMARK SMILES IDX 27 37 28 38 63 39 29 40 68 41 62 42 64 43 30 44 67 45 61 46
REMARK SMILES IDX 60 47 31 49 53 50 38 51 52 52 39 53 42 54 51 55 65 56 40 57
REMARK SMILES IDX 41 58 50 60 66 61 43 62 32 63 33 64 37 65 34 66 36 67 35 68
REMARK SMILES IDX 54 69 55 70 59 71 56 72 58 73 57 74 44 75 45 76 49 77 46 78
REMARK SMILES IDX 48 79 47 80
REMARK H PARENT 16 5 73 23 73 24 20 29 64 48 42 59
REMARK Flexibility Score: inf
ROOT
ATOM      1  C   UNL A   1      35.056  34.750  28.343  1.00  0.00     0.118 C 
ENDROOT
BRANCH   1   2
ATOM      2  N   UNL A   1      33.715  35.302  28.245  1.00  0.00    -0.351 N 
ATOM      3  C   UNL A   1      32.945  35.994  29.153  1.00  0.00     0.270 C 
ATOM      4  O   UNL A   1      31.828  36.363  28.782  1.00  0.00    -0.268 OA
ATOM      5  H   UNL A   1      33.279  35.153  27.375  1.00  0.00     0.163 HD
BRANCH   3   6
ATOM      6  C   UNL A   1      33.382  36.257  30.558  1.00  0.00     0.134 A 
ATOM      7  C   UNL A   1      34.582  35.588  32.432  1.00  0.00     0.080 A 
ATOM      8  C   UNL A   1      33.983  35.232  31.245  1.00  0.00     0.063 A 
ATOM      9  N   UNL A   1      34.504  36.840  32.934  1.00  0.00    -0.213 NA
ATOM     10  C   UNL A   1      33.854  37.747  32.210  1.00  0.00     0.221 A 
ATOM     11  N   UNL A   1      33.272  37.507  31.043  1.00  0.00    -0.208 NA
BRANCH   7  12
ATOM     12  C   UNL A   1      35.456  34.671  33.172  1.00  0.00     0.042 A 
ATOM     13  C   UNL A   1      36.545  34.012  32.568  1.00  0.00     0.129 A 
ATOM     14  C   UNL A   1      37.360  33.142  33.296  1.00  0.00     0.047 A 
ATOM     15  C   UNL A   1      37.114  32.934  34.653  1.00  0.00     0.004 A 
ATOM     16  C   UNL A   1      35.237  34.452  34.545  1.00  0.00     0.014 A 
ATOM     17  C   UNL A   1      36.054  33.587  35.277  1.00  0.00     0.001 A 
BRANCH  13  18
ATOM     18  O   UNL A   1      36.792  34.137  31.221  1.00  0.00    -0.489 OA
BRANCH  18  19
ATOM     19  C   UNL A   1      37.586  33.057  30.709  1.00  0.00     0.257 C 
BRANCH  19  20
ATOM     20  C   UNL A   1      38.368  33.556  29.529  1.00  0.00     0.006 C 
ATOM     21  C   UNL A   1      39.091  34.685  29.516  1.00  0.00     0.007 C 
ENDBRANCH  19  20
ENDBRANCH  18  19
ENDBRANCH  13  18
ENDBRANCH   7  12
BRANCH  10  22
ATOM     22  N   UNL A   1      33.882  39.043  32.638  1.00  0.00    -0.368 N 
ATOM     23  H   UNL A   1      34.740  39.468  32.866  1.00  0.00     0.159 HD
ATOM     24  H   UNL A   1      33.044  39.552  32.719  1.00  0.00     0.159 HD
ENDBRANCH  10  22
ENDBRANCH   3   6
ENDBRANCH   1   2
BRANCH   1  25
ATOM     25  C   UNL A   1      35.125  33.283  27.945  1.00  0.00     0.042 C 
BRANCH  25  26
ATOM     26  C   UNL A   1      34.553  32.318  28.972  1.00  0.00     0.118 C 
BRANCH  26  27
ATOM     27  N   UNL A   1      34.046  31.089  28.376  1.00  0.00    -0.352 N 
ATOM     28  C   UNL A   1      34.697  29.942  27.992  1.00  0.00     0.251 C 
ATOM     29  H   UNL A   1      33.073  31.080  28.223  1.00  0.00     0.163 HD
ATOM     30  O   UNL A   1      34.099  29.092  27.343  1.00  0.00    -0.269 OA
BRANCH  28  31
ATOM     31  C   UNL A   1      36.124  29.739  28.328  1.00  0.00     0.039 A 
ATOM     32  C   UNL A   1      36.455  29.292  29.610  1.00  0.00     0.014 A 
ATOM     33  C   UNL A   1      37.132  29.996  27.398  1.00  0.00     0.014 A 
ATOM     34  C   UNL A   1      37.788  29.015  29.926  1.00  0.00     0.010 A 
ATOM     35  C   UNL A   1      38.446  29.634  27.682  1.00  0.00     0.010 A 
ATOM     36  C   UNL A   1      38.787  29.133  28.947  1.00  0.00    -0.014 A 
BRANCH  36  37
ATOM     37  C   UNL A   1      40.185  28.706  29.212  1.00  0.00     0.031 A 
ATOM     38  C   UNL A   1      41.168  29.657  29.834  1.00  0.00     0.074 A 
ATOM     39  C   UNL A   1      40.591  27.485  28.812  1.00  0.00     0.049 A 
ATOM     40  N   UNL A   1      42.448  29.490  30.061  1.00  0.00    -0.248 NA
ATOM     41  C   UNL A   1      40.654  30.976  30.232  1.00  0.00     0.031 C 
ATOM     42  C   UNL A   1      39.748  26.483  28.158  1.00  0.00     0.029 A 
ATOM     43  N   UNL A   1      41.824  26.885  28.883  1.00  0.00    -0.354 N 
ATOM     44  C   UNL A   1      42.892  30.685  30.610  1.00  0.00     0.074 A 
ATOM     45  C   UNL A   1      41.759  31.585  30.636  1.00  0.00     0.031 C 
ATOM     46  C   UNL A   1      40.481  25.387  27.906  1.00  0.00     0.029 A 
ATOM     47  C   UNL A   1      41.855  25.627  28.331  1.00  0.00     0.049 A 
ATOM     48  H   UNL A   1      42.610  27.314  29.291  1.00  0.00     0.167 HD
ATOM     49  C   UNL A   1      44.128  31.001  31.067  1.00  0.00     0.031 A 
ATOM     50  C   UNL A   1      42.879  24.767  28.167  1.00  0.00     0.031 A 
ATOM     51  C   UNL A   1      45.256  30.108  31.036  1.00  0.00     0.049 A 
ATOM     52  C   UNL A   1      44.248  25.151  28.651  1.00  0.00     0.074 A 
ATOM     53  C   UNL A   1      46.534  30.315  31.526  1.00  0.00     0.029 A 
ATOM     54  N   UNL A   1      45.244  28.840  30.473  1.00  0.00    -0.354 N 
ATOM     55  N   UNL A   1      44.635  26.257  29.239  1.00  0.00    -0.248 NA
ATOM     56  C   UNL A   1      45.321  24.166  28.455  1.00  0.00     0.031 C 
ATOM     57  C   UNL A   1      47.313  29.200  31.202  1.00  0.00     0.029 A 
ATOM     58  C   UNL A   1      46.503  28.269  30.571  1.00  0.00     0.049 A 
ATOM     59  H   UNL A   1      44.458  28.411  30.065  1.00  0.00     0.167 HD
ATOM     60  C   UNL A   1      45.989  26.093  29.504  1.00  0.00     0.074 A 
ATOM     61  C   UNL A   1      46.350  24.772  29.030  1.00  0.00     0.031 C 
ATOM     62  C   UNL A   1      46.853  26.958  30.088  1.00  0.00     0.031 A 
BRANCH  49  63
ATOM     63  C   UNL A   1      44.326  32.386  31.623  1.00  0.00    -0.014 A 
ATOM     64  C   UNL A   1      44.699  33.460  30.798  1.00  0.00     0.009 A 
ATOM     65  C   UNL A   1      44.109  32.625  32.989  1.00  0.00     0.009 A 
ATOM     66  C   UNL A   1      44.895  34.733  31.338  1.00  0.00     0.001 A 
ATOM     67  C   UNL A   1      44.274  33.906  33.520  1.00  0.00     0.001 A 
ATOM     68  C   UNL A   1      44.678  34.956  32.697  1.00  0.00     0.000 A 
ENDBRANCH  49  63
BRANCH  50  69
ATOM     69  C   UNL A   1      42.644  23.456  27.504  1.00  0.00    -0.014 A 
ATOM     70  C   UNL A   1      42.815  23.314  26.118  1.00  0.00     0.009 A 
ATOM     71  C   UNL A   1      42.253  22.338  28.257  1.00  0.00     0.009 A 
ATOM     72  C   UNL A   1      42.575  22.085  25.499  1.00  0.00     0.001 A 
ATOM     73  C   UNL A   1      42.045  21.103  27.639  1.00  0.00     0.001 A 
ATOM     74  C   UNL A   1      42.196  20.980  26.260  1.00  0.00     0.000 A 
ENDBRANCH  50  69
BRANCH  62  75
ATOM     75  C   UNL A   1      48.272  26.496  30.272  1.00  0.00    -0.014 A 
ATOM     76  C   UNL A   1      48.672  25.806  31.426  1.00  0.00     0.009 A 
ATOM     77  C   UNL A   1      49.210  26.712  29.250  1.00  0.00     0.009 A 
ATOM     78  C   UNL A   1      49.992  25.368  31.566  1.00  0.00     0.001 A 
ATOM     79  C   UNL A   1      50.519  26.247  29.379  1.00  0.00     0.001 A 
ATOM     80  C   UNL A   1      50.911  25.582  30.539  1.00  0.00     0.000 A 
ENDBRANCH  62  75
ENDBRANCH  36  37
ENDBRANCH  28  31
ENDBRANCH  26  27
ENDBRANCH  25  26
ENDBRANCH   1  25
TORSDOF 15
ENDMDL
MODEL 3
REMARK VINA RESULT:     -10.5      2.423      8.002
REMARK SMILES C=CCOc1ccccc1-c1cc(C(=O)NCCCNC(=O)c2ccc(-c3c4nc(c(-c5ccccc5)c5ccc([nH]5)c(-c5ccccc5)c5nc(c(-c6ccccc6)c6ccc3[nH]6)C=C5)C=C4)cc2)nc(N)n1
REMARK SMILES IDX 17 1 16 2 14 3 15 4 13 6 11 7 12 8 74 9 72 10 71 11 10 12
REMARK SMILES IDX 5 13 6 14 7 15 9 16 8 17 4 18 3 19 2 20 1 21 73 22 18 25
REMARK SMILES IDX 19 26 20 27 21 28 22 30 23 31 24 32 70 33 25 34 69 35 26 36
REMARK SMILES IDX 27 37 28 38 63 39 29 40 68 41 62 42 64 43 30 44 67 45 61 46
REMARK SMILES IDX 60 47 31 49 53 50 38 51 52 52 39 53 42 54 51 55 65 56 40 57
REMARK SMILES IDX 41 58 50 60 66 61 43 62 32 63 33 64 37 65 34 66 36 67 35 68
REMARK SMILES IDX 54 69 55 70 59 71 56 72 58 73 57 74 44 75 45 76 49 77 46 78
REMARK SMILES IDX 48 79 47 80
REMARK H PARENT 16 5 73 23 73 24 20 29 64 48 42 59
REMARK Flexibility Score: inf
ROOT
ATOM      1  C   UNL A   1      35.174  22.570  23.942  1.00  0.00     0.118 C 
ENDROOT
BRANCH   1   2
ATOM      2  N   UNL A   1      34.395  23.299  22.955  1.00  0.00    -0.351 N 
ATOM      3  C   UNL A   1      33.473  24.314  23.091  1.00  0.00     0.270 C 
ATOM      4  O   UNL A   1      32.973  24.765  22.058  1.00  0.00    -0.268 OA
ATOM      5  H   UNL A   1      34.553  23.017  22.026  1.00  0.00     0.163 HD
BRANCH   3   6
ATOM      6  C   UNL A   1      33.026  24.837  24.418  1.00  0.00     0.134 A 
ATOM      7  C   UNL A   1      32.777  26.631  25.873  1.00  0.00     0.080 A 
ATOM      8  C   UNL A   1      33.407  26.109  24.767  1.00  0.00     0.063 A 
ATOM      9  N   UNL A   1      31.912  25.910  26.621  1.00  0.00    -0.213 NA
ATOM     10  C   UNL A   1      31.651  24.668  26.221  1.00  0.00     0.221 A 
ATOM     11  N   UNL A   1      32.185  24.089  25.154  1.00  0.00    -0.208 NA
BRANCH   7  12
ATOM     12  C   UNL A   1      32.896  28.045  26.246  1.00  0.00     0.042 A 
ATOM     13  C   UNL A   1      31.929  29.005  25.886  1.00  0.00     0.129 A 
ATOM     14  C   UNL A   1      32.069  30.346  26.253  1.00  0.00     0.047 A 
ATOM     15  C   UNL A   1      33.169  30.747  27.009  1.00  0.00     0.004 A 
ATOM     16  C   UNL A   1      33.991  28.475  27.018  1.00  0.00     0.014 A 
ATOM     17  C   UNL A   1      34.129  29.814  27.391  1.00  0.00     0.001 A 
BRANCH  13  18
ATOM     18  O   UNL A   1      30.859  28.671  25.090  1.00  0.00    -0.489 OA
BRANCH  18  19
ATOM     19  C   UNL A   1      30.685  29.586  23.999  1.00  0.00     0.257 C 
BRANCH  19  20
ATOM     20  C   UNL A   1      30.354  28.799  22.763  1.00  0.00     0.006 C 
ATOM     21  C   UNL A   1      30.598  27.490  22.606  1.00  0.00     0.007 C 
ENDBRANCH  19  20
ENDBRANCH  18  19
ENDBRANCH  13  18
ENDBRANCH   7  12
BRANCH  10  22
ATOM     22  N   UNL A   1      30.681  23.975  26.887  1.00  0.00    -0.368 N 
ATOM     23  H   UNL A   1      30.020  23.447  26.384  1.00  0.00     0.159 HD
ATOM     24  H   UNL A   1      30.643  24.004  27.870  1.00  0.00     0.159 HD
ENDBRANCH  10  22
ENDBRANCH   3   6
ENDBRANCH   1   2
BRANCH   1  25
ATOM     25  C   UNL A   1      36.659  22.897  23.886  1.00  0.00     0.042 C 
BRANCH  25  26
ATOM     26  C   UNL A   1      37.266  23.332  25.210  1.00  0.00     0.118 C 
BRANCH  26  27
ATOM     27  N   UNL A   1      38.432  22.544  25.587  1.00  0.00    -0.352 N 
ATOM     28  C   UNL A   1      39.587  22.904  26.238  1.00  0.00     0.251 C 
ATOM     29  H   UNL A   1      38.383  21.594  25.334  1.00  0.00     0.163 HD
ATOM     30  O   UNL A   1      40.523  22.116  26.296  1.00  0.00    -0.269 OA
BRANCH  28  31
ATOM     31  C   UNL A   1      39.722  24.249  26.840  1.00  0.00     0.039 A 
ATOM     32  C   UNL A   1      39.220  24.463  28.126  1.00  0.00     0.014 A 
ATOM     33  C   UNL A   1      40.326  25.298  26.145  1.00  0.00     0.014 A 
ATOM     34  C   UNL A   1      39.407  25.700  28.749  1.00  0.00     0.010 A 
ATOM     35  C   UNL A   1      40.593  26.499  26.798  1.00  0.00     0.010 A 
ATOM     36  C   UNL A   1      40.142  26.710  28.110  1.00  0.00    -0.014 A 
BRANCH  36  37
ATOM     37  C   UNL A   1      40.482  27.979  28.804  1.00  0.00     0.031 A 
ATOM     38  C   UNL A   1      41.794  28.129  29.520  1.00  0.00     0.074 A 
ATOM     39  C   UNL A   1      39.568  28.966  28.862  1.00  0.00     0.049 A 
ATOM     40  N   UNL A   1      42.226  29.127  30.251  1.00  0.00    -0.248 NA
ATOM     41  C   UNL A   1      42.735  27.002  29.424  1.00  0.00     0.031 C 
ATOM     42  C   UNL A   1      38.239  28.930  28.246  1.00  0.00     0.029 A 
ATOM     43  N   UNL A   1      39.611  30.191  29.482  1.00  0.00    -0.354 N 
ATOM     44  C   UNL A   1      43.478  28.742  30.713  1.00  0.00     0.074 A 
ATOM     45  C   UNL A   1      43.714  27.401  30.223  1.00  0.00     0.031 C 
ATOM     46  C   UNL A   1      37.603  30.084  28.502  1.00  0.00     0.029 A 
ATOM     47  C   UNL A   1      38.455  30.920  29.342  1.00  0.00     0.049 A 
ATOM     48  H   UNL A   1      40.396  30.515  29.980  1.00  0.00     0.167 HD
ATOM     49  C   UNL A   1      44.359  29.446  31.464  1.00  0.00     0.031 A 
ATOM     50  C   UNL A   1      38.107  32.119  29.847  1.00  0.00     0.031 A 
ATOM     51  C   UNL A   1      44.121  30.777  31.955  1.00  0.00     0.049 A 
ATOM     52  C   UNL A   1      39.087  32.867  30.706  1.00  0.00     0.074 A 
ATOM     53  C   UNL A   1      44.974  31.596  32.675  1.00  0.00     0.029 A 
ATOM     54  N   UNL A   1      42.939  31.482  31.786  1.00  0.00    -0.354 N 
ATOM     55  N   UNL A   1      40.298  32.521  31.069  1.00  0.00    -0.248 NA
ATOM     56  C   UNL A   1      38.655  34.176  31.217  1.00  0.00     0.031 C 
ATOM     57  C   UNL A   1      44.286  32.769  32.999  1.00  0.00     0.029 A 
ATOM     58  C   UNL A   1      43.027  32.711  32.421  1.00  0.00     0.049 A 
ATOM     59  H   UNL A   1      42.154  31.158  31.289  1.00  0.00     0.167 HD
ATOM     60  C   UNL A   1      40.782  33.576  31.832  1.00  0.00     0.074 A 
ATOM     61  C   UNL A   1      39.740  34.583  31.862  1.00  0.00     0.031 C 
ATOM     62  C   UNL A   1      41.981  33.700  32.451  1.00  0.00     0.031 A 
BRANCH  49  63
ATOM     63  C   UNL A   1      45.659  28.774  31.815  1.00  0.00    -0.014 A 
ATOM     64  C   UNL A   1      46.782  28.870  30.977  1.00  0.00     0.009 A 
ATOM     65  C   UNL A   1      45.770  28.055  33.016  1.00  0.00     0.009 A 
ATOM     66  C   UNL A   1      47.974  28.223  31.313  1.00  0.00     0.001 A 
ATOM     67  C   UNL A   1      46.973  27.437  33.365  1.00  0.00     0.001 A 
ATOM     68  C   UNL A   1      48.069  27.512  32.508  1.00  0.00     0.000 A 
ENDBRANCH  49  63
BRANCH  50  69
ATOM     69  C   UNL A   1      36.761  32.681  29.558  1.00  0.00    -0.014 A 
ATOM     70  C   UNL A   1      36.511  33.358  28.354  1.00  0.00     0.009 A 
ATOM     71  C   UNL A   1      35.716  32.539  30.485  1.00  0.00     0.009 A 
ATOM     72  C   UNL A   1      35.250  33.901  28.097  1.00  0.00     0.001 A 
ATOM     73  C   UNL A   1      34.448  33.054  30.210  1.00  0.00     0.001 A 
ATOM     74  C   UNL A   1      34.218  33.743  29.021  1.00  0.00     0.000 A 
ENDBRANCH  50  69
BRANCH  62  75
ATOM     75  C   UNL A   1      42.245  34.980  33.194  1.00  0.00    -0.014 A 
ATOM     76  C   UNL A   1      41.765  35.180  34.498  1.00  0.00     0.009 A 
ATOM     77  C   UNL A   1      43.028  35.981  32.598  1.00  0.00     0.009 A 
ATOM     78  C   UNL A   1      42.040  36.370  35.177  1.00  0.00     0.001 A 
ATOM     79  C   UNL A   1      43.327  37.155  33.290  1.00  0.00     0.001 A 
ATOM     80  C   UNL A   1      42.827  37.352  34.576  1.00  0.00     0.000 A 
ENDBRANCH  62  75
ENDBRANCH  36  37
ENDBRANCH  28  31
ENDBRANCH  26  27
ENDBRANCH  25  26
ENDBRANCH   1  25
TORSDOF 15
ENDMDL
