MODEL 1
REMARK VINA RESULT:     -11.9      0.000      0.000
REMARK SMILES CCOC(=O)c1c(NC(=O)[C@H]2[C@@H]3CC[C@@H](C3)[C@@H]2C(=O)NCCCNC(=O)c2ccc(-c3c4nc(c(-c5ccccc5)c5ccc([nH]5)c(-c5ccccc5)c5nc(c(-c6ccccc6)c6ccc3[nH]6)C=C5)C=C4)cc2)sc2c1CCCC2
REMARK SMILES IDX 18 1 19 2 20 3 17 5 11 6 12 7 13 8 16 9 15 10 14 11 9 12
REMARK SMILES IDX 8 13 10 15 7 16 6 17 77 18 75 19 76 20 78 21 81 22 79 23
REMARK SMILES IDX 80 24 4 25 5 26 3 27 2 28 1 29 21 30 22 31 23 32 24 33 25 34
REMARK SMILES IDX 26 36 27 37 28 38 74 39 29 40 73 41 30 42 31 43 32 44 67 45
REMARK SMILES IDX 33 46 72 47 66 48 68 49 34 50 71 51 65 52 64 53 35 55 57 56
REMARK SMILES IDX 42 57 56 58 43 59 46 60 55 61 69 62 44 63 45 64 54 66 70 67
REMARK SMILES IDX 47 68 36 69 37 70 41 71 38 72 40 73 39 74 58 75 59 76 63 77
REMARK SMILES IDX 60 78 62 79 61 80 48 81 49 82 53 83 50 84 52 85 51 86
REMARK H PARENT 20 4 8 14 24 35 68 54 46 65
REMARK Flexibility Score: inf
ROOT
ATOM      1  C   UNL A   1      31.599  23.890  26.680  1.00  0.00     0.224 C 
ATOM      2  O   UNL A   1      30.831  23.109  27.239  1.00  0.00    -0.275 OA
ATOM      3  N   UNL A   1      31.321  25.249  26.751  1.00  0.00    -0.356 N 
ATOM      4  H   UNL A   1      30.473  25.486  27.191  1.00  0.00     0.163 HD
ENDROOT
BRANCH   1   5
ATOM      5  C   UNL A   1      32.805  23.415  25.862  1.00  0.00     0.094 C 
ATOM      6  C   UNL A   1      32.620  22.004  25.352  1.00  0.00     0.094 C 
ATOM      7  C   UNL A   1      33.919  21.279  25.784  1.00  0.00     0.002 C 
ATOM      8  C   UNL A   1      34.012  21.199  27.327  1.00  0.00     0.005 C 
ATOM      9  C   UNL A   1      34.948  22.355  25.471  1.00  0.00     0.009 C 
ATOM     10  C   UNL A   1      34.268  23.371  26.411  1.00  0.00     0.002 C 
ATOM     11  C   UNL A   1      34.399  22.623  27.729  1.00  0.00     0.005 C 
BRANCH   6  12
ATOM     12  C   UNL A   1      32.456  21.890  23.848  1.00  0.00     0.229 C 
ATOM     13  N   UNL A   1      32.115  22.825  22.932  1.00  0.00    -0.317 N 
ATOM     14  H   UNL A   1      32.224  22.418  22.042  1.00  0.00     0.170 HD
ATOM     15  O   UNL A   1      32.674  20.767  23.358  1.00  0.00    -0.274 OA
BRANCH  13  16
ATOM     16  C   UNL A   1      31.674  24.130  22.740  1.00  0.00     0.110 A 
ATOM     17  C   UNL A   1      31.968  25.420  22.269  1.00  0.00     0.098 A 
ATOM     18  C   UNL A   1      30.927  26.361  22.668  1.00  0.00    -0.017 A 
ATOM     19  S   UNL A   1      30.098  24.103  23.476  1.00  0.00    -0.122 S 
ATOM     20  C   UNL A   1      29.909  25.764  23.371  1.00  0.00     0.011 A 
ATOM     21  C   UNL A   1      30.894  27.832  22.344  1.00  0.00     0.038 C 
ATOM     22  C   UNL A   1      28.743  26.468  23.984  1.00  0.00     0.047 C 
ATOM     23  C   UNL A   1      29.909  28.594  23.237  1.00  0.00     0.005 C 
ATOM     24  C   UNL A   1      28.570  27.858  23.360  1.00  0.00     0.006 C 
BRANCH  17  25
ATOM     25  C   UNL A   1      33.073  25.972  21.463  1.00  0.00     0.341 C 
ATOM     26  O   UNL A   1      33.034  26.014  20.239  1.00  0.00    -0.246 OA
BRANCH  25  27
ATOM     27  O   UNL A   1      34.024  26.607  22.228  1.00  0.00    -0.462 OA
BRANCH  27  28
ATOM     28  C   UNL A   1      34.103  28.052  22.213  1.00  0.00     0.230 C 
ATOM     29  C   UNL A   1      34.082  28.644  23.618  1.00  0.00     0.049 C 
ENDBRANCH  27  28
ENDBRANCH  25  27
ENDBRANCH  17  25
ENDBRANCH  13  16
ENDBRANCH   6  12
ENDBRANCH   1   5
BRANCH   3  30
ATOM     30  C   UNL A   1      32.116  26.379  26.265  1.00  0.00     0.117 C 
BRANCH  30  31
ATOM     31  C   UNL A   1      31.453  27.757  26.277  1.00  0.00     0.042 C 
BRANCH  31  32
ATOM     32  C   UNL A   1      31.885  28.682  27.417  1.00  0.00     0.118 C 
BRANCH  32  33
ATOM     33  N   UNL A   1      31.833  30.114  27.106  1.00  0.00    -0.352 N 
ATOM     34  C   UNL A   1      32.771  31.128  27.146  1.00  0.00     0.251 C 
ATOM     35  H   UNL A   1      30.945  30.415  26.806  1.00  0.00     0.163 HD
ATOM     36  O   UNL A   1      32.413  32.265  26.837  1.00  0.00    -0.269 OA
BRANCH  34  37
ATOM     37  C   UNL A   1      34.175  30.925  27.598  1.00  0.00     0.039 A 
ATOM     38  C   UNL A   1      34.946  32.049  27.933  1.00  0.00     0.014 A 
ATOM     39  C   UNL A   1      34.765  29.668  27.686  1.00  0.00     0.014 A 
ATOM     40  C   UNL A   1      36.231  31.899  28.478  1.00  0.00     0.010 A 
ATOM     41  C   UNL A   1      35.995  29.511  28.328  1.00  0.00     0.010 A 
ATOM     42  C   UNL A   1      36.738  30.622  28.757  1.00  0.00    -0.014 A 
BRANCH  42  43
ATOM     43  C   UNL A   1      38.006  30.406  29.516  1.00  0.00     0.031 A 
ATOM     44  C   UNL A   1      39.130  29.595  28.919  1.00  0.00     0.074 A 
ATOM     45  C   UNL A   1      38.109  30.825  30.795  1.00  0.00     0.049 A 
ATOM     46  N   UNL A   1      40.209  29.123  29.493  1.00  0.00    -0.248 NA
ATOM     47  C   UNL A   1      39.001  29.235  27.498  1.00  0.00     0.031 C 
ATOM     48  C   UNL A   1      37.096  31.587  31.529  1.00  0.00     0.029 A 
ATOM     49  N   UNL A   1      39.116  30.649  31.715  1.00  0.00    -0.354 N 
ATOM     50  C   UNL A   1      40.859  28.372  28.522  1.00  0.00     0.074 A 
ATOM     51  C   UNL A   1      40.035  28.422  27.332  1.00  0.00     0.031 C 
ATOM     52  C   UNL A   1      37.541  31.832  32.772  1.00  0.00     0.029 A 
ATOM     53  C   UNL A   1      38.845  31.203  32.944  1.00  0.00     0.049 A 
ATOM     54  H   UNL A   1      39.953  30.172  31.512  1.00  0.00     0.167 HD
ATOM     55  C   UNL A   1      42.039  27.709  28.601  1.00  0.00     0.031 A 
ATOM     56  C   UNL A   1      39.552  31.193  34.090  1.00  0.00     0.031 A 
ATOM     57  C   UNL A   1      42.889  27.690  29.762  1.00  0.00     0.049 A 
ATOM     58  C   UNL A   1      40.870  30.473  34.147  1.00  0.00     0.074 A 
ATOM     59  C   UNL A   1      44.132  27.096  29.911  1.00  0.00     0.029 A 
ATOM     60  N   UNL A   1      42.592  28.303  30.967  1.00  0.00    -0.354 N 
ATOM     61  N   UNL A   1      41.480  29.795  33.208  1.00  0.00    -0.248 NA
ATOM     62  C   UNL A   1      41.597  30.524  35.424  1.00  0.00     0.031 C 
ATOM     63  C   UNL A   1      44.574  27.329  31.217  1.00  0.00     0.029 A 
ATOM     64  C   UNL A   1      43.625  28.100  31.867  1.00  0.00     0.049 A 
ATOM     65  H   UNL A   1      41.769  28.809  31.157  1.00  0.00     0.167 HD
ATOM     66  C   UNL A   1      42.674  29.363  33.770  1.00  0.00     0.074 A 
ATOM     67  C   UNL A   1      42.708  29.865  35.128  1.00  0.00     0.031 C 
ATOM     68  C   UNL A   1      43.654  28.614  33.210  1.00  0.00     0.031 A 
BRANCH  55  69
ATOM     69  C   UNL A   1      42.484  26.948  27.383  1.00  0.00    -0.014 A 
ATOM     70  C   UNL A   1      43.320  27.539  26.422  1.00  0.00     0.009 A 
ATOM     71  C   UNL A   1      42.088  25.613  27.208  1.00  0.00     0.009 A 
ATOM     72  C   UNL A   1      43.711  26.823  25.288  1.00  0.00     0.001 A 
ATOM     73  C   UNL A   1      42.505  24.890  26.088  1.00  0.00     0.001 A 
ATOM     74  C   UNL A   1      43.306  25.500  25.124  1.00  0.00     0.000 A 
ENDBRANCH  55  69
BRANCH  56  75
ATOM     75  C   UNL A   1      39.038  31.905  35.291  1.00  0.00    -0.014 A 
ATOM     76  C   UNL A   1      38.269  31.216  36.241  1.00  0.00     0.009 A 
ATOM     77  C   UNL A   1      39.297  33.270  35.485  1.00  0.00     0.009 A 
ATOM     78  C   UNL A   1      37.745  31.886  37.349  1.00  0.00     0.001 A 
ATOM     79  C   UNL A   1      38.796  33.931  36.609  1.00  0.00     0.001 A 
ATOM     80  C   UNL A   1      38.013  33.242  37.534  1.00  0.00     0.000 A 
ENDBRANCH  56  75
BRANCH  68  81
ATOM     81  C   UNL A   1      44.868  28.333  34.048  1.00  0.00    -0.014 A 
ATOM     82  C   UNL A   1      44.943  27.192  34.861  1.00  0.00     0.009 A 
ATOM     83  C   UNL A   1      45.966  29.206  33.994  1.00  0.00     0.009 A 
ATOM     84  C   UNL A   1      46.086  26.946  35.625  1.00  0.00     0.001 A 
ATOM     85  C   UNL A   1      47.114  28.946  34.741  1.00  0.00     0.001 A 
ATOM     86  C   UNL A   1      47.171  27.820  35.562  1.00  0.00     0.000 A 
ENDBRANCH  68  81
ENDBRANCH  42  43
ENDBRANCH  34  37
ENDBRANCH  32  33
ENDBRANCH  31  32
ENDBRANCH  30  31
ENDBRANCH   3  30
TORSDOF 15
ENDMDL
MODEL 2
REMARK VINA RESULT:     -11.8      2.278      6.309
REMARK SMILES CCOC(=O)c1c(NC(=O)[C@H]2[C@@H]3CC[C@@H](C3)[C@@H]2C(=O)NCCCNC(=O)c2ccc(-c3c4nc(c(-c5ccccc5)c5ccc([nH]5)c(-c5ccccc5)c5nc(c(-c6ccccc6)c6ccc3[nH]6)C=C5)C=C4)cc2)sc2c1CCCC2
REMARK SMILES IDX 18 1 19 2 20 3 17 5 11 6 12 7 13 8 16 9 15 10 14 11 9 12
REMARK SMILES IDX 8 13 10 15 7 16 6 17 77 18 75 19 76 20 78 21 81 22 79 23
REMARK SMILES IDX 80 24 4 25 5 26 3 27 2 28 1 29 21 30 22 31 23 32 24 33 25 34
REMARK SMILES IDX 26 36 27 37 28 38 74 39 29 40 73 41 30 42 31 43 32 44 67 45
REMARK SMILES IDX 33 46 72 47 66 48 68 49 34 50 71 51 65 52 64 53 35 55 57 56
REMARK SMILES IDX 42 57 56 58 43 59 46 60 55 61 69 62 44 63 45 64 54 66 70 67
REMARK SMILES IDX 47 68 36 69 37 70 41 71 38 72 40 73 39 74 58 75 59 76 63 77
REMARK SMILES IDX 60 78 62 79 61 80 48 81 49 82 53 83 50 84 52 85 51 86
REMARK H PARENT 20 4 8 14 24 35 68 54 46 65
REMARK Flexibility Score: inf
ROOT
ATOM      1  C   UNL A   1      34.458  22.544  26.775  1.00  0.00     0.224 C 
ATOM      2  O   UNL A   1      34.160  22.131  27.894  1.00  0.00    -0.275 OA
ATOM      3  N   UNL A   1      35.627  23.282  26.637  1.00  0.00    -0.356 N 
ATOM      4  H   UNL A   1      36.100  23.488  27.475  1.00  0.00     0.163 HD
ENDROOT
BRANCH   1   5
ATOM      5  C   UNL A   1      33.563  22.325  25.551  1.00  0.00     0.094 C 
ATOM      6  C   UNL A   1      32.256  21.661  25.921  1.00  0.00     0.094 C 
ATOM      7  C   UNL A   1      32.153  20.470  24.936  1.00  0.00     0.002 C 
ATOM      8  C   UNL A   1      33.280  19.443  25.201  1.00  0.00     0.005 C 
ATOM      9  C   UNL A   1      32.639  21.133  23.655  1.00  0.00     0.009 C 
ATOM     10  C   UNL A   1      33.993  21.511  24.288  1.00  0.00     0.002 C 
ATOM     11  C   UNL A   1      34.518  20.121  24.613  1.00  0.00     0.005 C 
BRANCH   6  12
ATOM     12  C   UNL A   1      31.031  22.544  25.773  1.00  0.00     0.229 C 
ATOM     13  N   UNL A   1      30.933  23.870  25.524  1.00  0.00    -0.317 N 
ATOM     14  H   UNL A   1      29.981  24.073  25.378  1.00  0.00     0.170 HD
ATOM     15  O   UNL A   1      29.930  21.975  25.886  1.00  0.00    -0.274 OA
BRANCH  13  16
ATOM     16  C   UNL A   1      31.637  25.062  25.390  1.00  0.00     0.110 A 
ATOM     17  C   UNL A   1      32.592  25.797  24.668  1.00  0.00     0.098 A 
ATOM     18  C   UNL A   1      32.943  27.021  25.381  1.00  0.00    -0.017 A 
ATOM     19  S   UNL A   1      31.106  25.966  26.778  1.00  0.00    -0.122 S 
ATOM     20  C   UNL A   1      32.244  27.175  26.553  1.00  0.00     0.011 A 
ATOM     21  C   UNL A   1      33.929  28.062  24.916  1.00  0.00     0.038 C 
ATOM     22  C   UNL A   1      32.434  28.278  27.543  1.00  0.00     0.047 C 
ATOM     23  C   UNL A   1      34.365  28.988  26.057  1.00  0.00     0.005 C 
ATOM     24  C   UNL A   1      33.169  29.457  26.894  1.00  0.00     0.006 C 
BRANCH  17  25
ATOM     25  C   UNL A   1      33.259  25.582  23.370  1.00  0.00     0.341 C 
ATOM     26  O   UNL A   1      33.985  24.618  23.158  1.00  0.00    -0.246 OA
BRANCH  25  27
ATOM     27  O   UNL A   1      32.815  26.445  22.395  1.00  0.00    -0.462 OA
BRANCH  27  28
ATOM     28  C   UNL A   1      31.411  26.460  22.043  1.00  0.00     0.230 C 
ATOM     29  C   UNL A   1      30.745  27.788  22.389  1.00  0.00     0.049 C 
ENDBRANCH  27  28
ENDBRANCH  25  27
ENDBRANCH  17  25
ENDBRANCH  13  16
ENDBRANCH   6  12
ENDBRANCH   1   5
BRANCH   3  30
ATOM     30  C   UNL A   1      36.253  23.797  25.417  1.00  0.00     0.117 C 
BRANCH  30  31
ATOM     31  C   UNL A   1      37.504  23.077  24.915  1.00  0.00     0.042 C 
BRANCH  31  32
ATOM     32  C   UNL A   1      38.241  22.237  25.962  1.00  0.00     0.118 C 
BRANCH  32  33
ATOM     33  N   UNL A   1      39.689  22.131  25.762  1.00  0.00    -0.352 N 
ATOM     34  C   UNL A   1      40.753  22.953  26.082  1.00  0.00     0.251 C 
ATOM     35  H   UNL A   1      39.960  21.302  25.305  1.00  0.00     0.163 HD
ATOM     36  O   UNL A   1      41.886  22.593  25.756  1.00  0.00    -0.269 OA
BRANCH  34  37
ATOM     37  C   UNL A   1      40.593  24.275  26.746  1.00  0.00     0.039 A 
ATOM     38  C   UNL A   1      39.673  24.395  27.799  1.00  0.00     0.014 A 
ATOM     39  C   UNL A   1      41.303  25.406  26.356  1.00  0.00     0.014 A 
ATOM     40  C   UNL A   1      39.576  25.589  28.532  1.00  0.00     0.010 A 
ATOM     41  C   UNL A   1      41.289  26.555  27.149  1.00  0.00     0.010 A 
ATOM     42  C   UNL A   1      40.443  26.658  28.265  1.00  0.00    -0.014 A 
BRANCH  42  43
ATOM     43  C   UNL A   1      40.523  27.868  29.135  1.00  0.00     0.031 A 
ATOM     44  C   UNL A   1      41.585  27.978  30.201  1.00  0.00     0.074 A 
ATOM     45  C   UNL A   1      39.566  28.818  29.064  1.00  0.00     0.049 A 
ATOM     46  N   UNL A   1      41.688  28.839  31.184  1.00  0.00    -0.248 NA
ATOM     47  C   UNL A   1      42.648  26.962  30.182  1.00  0.00     0.031 C 
ATOM     48  C   UNL A   1      38.450  28.837  28.115  1.00  0.00     0.029 A 
ATOM     49  N   UNL A   1      39.369  29.947  29.824  1.00  0.00    -0.354 N 
ATOM     50  C   UNL A   1      42.794  28.439  31.925  1.00  0.00     0.074 A 
ATOM     51  C   UNL A   1      43.306  27.239  31.298  1.00  0.00     0.031 C 
ATOM     52  C   UNL A   1      37.703  29.931  28.332  1.00  0.00     0.029 A 
ATOM     53  C   UNL A   1      38.251  30.665  29.467  1.00  0.00     0.049 A 
ATOM     54  H   UNL A   1      39.971  30.217  30.554  1.00  0.00     0.167 HD
ATOM     55  C   UNL A   1      43.346  29.020  33.019  1.00  0.00     0.031 A 
ATOM     56  C   UNL A   1      37.711  31.778  30.001  1.00  0.00     0.031 A 
ATOM     57  C   UNL A   1      42.874  30.238  33.623  1.00  0.00     0.049 A 
ATOM     58  C   UNL A   1      38.355  32.418  31.198  1.00  0.00     0.074 A 
ATOM     59  C   UNL A   1      43.409  30.932  34.695  1.00  0.00     0.029 A 
ATOM     60  N   UNL A   1      41.766  30.952  33.198  1.00  0.00    -0.354 N 
ATOM     61  N   UNL A   1      39.418  32.040  31.864  1.00  0.00    -0.248 NA
ATOM     62  C   UNL A   1      37.725  33.643  31.712  1.00  0.00     0.031 C 
ATOM     63  C   UNL A   1      42.608  32.053  34.936  1.00  0.00     0.029 A 
ATOM     64  C   UNL A   1      41.599  32.077  33.988  1.00  0.00     0.049 A 
ATOM     65  H   UNL A   1      41.184  30.698  32.445  1.00  0.00     0.167 HD
ATOM     66  C   UNL A   1      39.599  32.995  32.857  1.00  0.00     0.074 A 
ATOM     67  C   UNL A   1      38.545  33.975  32.698  1.00  0.00     0.031 C 
ATOM     68  C   UNL A   1      40.555  33.051  33.816  1.00  0.00     0.031 A 
BRANCH  55  69
ATOM     69  C   UNL A   1      44.536  28.337  33.634  1.00  0.00    -0.014 A 
ATOM     70  C   UNL A   1      44.378  27.355  34.624  1.00  0.00     0.009 A 
ATOM     71  C   UNL A   1      45.831  28.659  33.198  1.00  0.00     0.009 A 
ATOM     72  C   UNL A   1      45.495  26.742  35.198  1.00  0.00     0.001 A 
ATOM     73  C   UNL A   1      46.944  28.023  33.752  1.00  0.00     0.001 A 
ATOM     74  C   UNL A   1      46.775  27.075  34.759  1.00  0.00     0.000 A 
ENDBRANCH  55  69
BRANCH  56  75
ATOM     75  C   UNL A   1      36.493  32.379  29.397  1.00  0.00    -0.014 A 
ATOM     76  C   UNL A   1      36.609  33.447  28.494  1.00  0.00     0.009 A 
ATOM     77  C   UNL A   1      35.215  31.905  29.728  1.00  0.00     0.009 A 
ATOM     78  C   UNL A   1      35.469  34.047  27.955  1.00  0.00     0.001 A 
ATOM     79  C   UNL A   1      34.077  32.489  29.166  1.00  0.00     0.001 A 
ATOM     80  C   UNL A   1      34.204  33.564  28.288  1.00  0.00     0.000 A 
ENDBRANCH  56  75
BRANCH  68  81
ATOM     81  C   UNL A   1      40.533  34.235  34.737  1.00  0.00    -0.014 A 
ATOM     82  C   UNL A   1      39.789  34.219  35.927  1.00  0.00     0.009 A 
ATOM     83  C   UNL A   1      41.300  35.370  34.427  1.00  0.00     0.009 A 
ATOM     84  C   UNL A   1      39.791  35.329  36.773  1.00  0.00     0.001 A 
ATOM     85  C   UNL A   1      41.318  36.468  35.286  1.00  0.00     0.001 A 
ATOM     86  C   UNL A   1      40.558  36.451  36.455  1.00  0.00     0.000 A 
ENDBRANCH  68  81
ENDBRANCH  42  43
ENDBRANCH  34  37
ENDBRANCH  32  33
ENDBRANCH  31  32
ENDBRANCH  30  31
ENDBRANCH   3  30
TORSDOF 15
ENDMDL
MODEL 3
REMARK VINA RESULT:     -11.8      2.353      6.238
REMARK SMILES CCOC(=O)c1c(NC(=O)[C@H]2[C@@H]3CC[C@@H](C3)[C@@H]2C(=O)NCCCNC(=O)c2ccc(-c3c4nc(c(-c5ccccc5)c5ccc([nH]5)c(-c5ccccc5)c5nc(c(-c6ccccc6)c6ccc3[nH]6)C=C5)C=C4)cc2)sc2c1CCCC2
REMARK SMILES IDX 18 1 19 2 20 3 17 5 11 6 12 7 13 8 16 9 15 10 14 11 9 12
REMARK SMILES IDX 8 13 10 15 7 16 6 17 77 18 75 19 76 20 78 21 81 22 79 23
REMARK SMILES IDX 80 24 4 25 5 26 3 27 2 28 1 29 21 30 22 31 23 32 24 33 25 34
REMARK SMILES IDX 26 36 27 37 28 38 74 39 29 40 73 41 30 42 31 43 32 44 67 45
REMARK SMILES IDX 33 46 72 47 66 48 68 49 34 50 71 51 65 52 64 53 35 55 57 56
REMARK SMILES IDX 42 57 56 58 43 59 46 60 55 61 69 62 44 63 45 64 54 66 70 67
REMARK SMILES IDX 47 68 36 69 37 70 41 71 38 72 40 73 39 74 58 75 59 76 63 77
REMARK SMILES IDX 60 78 62 79 61 80 48 81 49 82 53 83 50 84 52 85 51 86
REMARK H PARENT 20 4 8 14 24 35 68 54 46 65
REMARK Flexibility Score: inf
ROOT
ATOM      1  C   UNL A   1      34.053  22.876  26.944  1.00  0.00     0.224 C 
ATOM      2  O   UNL A   1      33.775  22.150  27.896  1.00  0.00    -0.275 OA
ATOM      3  N   UNL A   1      35.373  23.278  26.787  1.00  0.00    -0.356 N 
ATOM      4  H   UNL A   1      35.988  23.006  27.506  1.00  0.00     0.163 HD
ENDROOT
BRANCH   1   5
ATOM      5  C   UNL A   1      32.991  23.398  25.969  1.00  0.00     0.094 C 
ATOM      6  C   UNL A   1      31.714  22.593  26.043  1.00  0.00     0.094 C 
ATOM      7  C   UNL A   1      31.420  22.225  24.568  1.00  0.00     0.002 C 
ATOM      8  C   UNL A   1      32.520  21.290  24.009  1.00  0.00     0.005 C 
ATOM      9  C   UNL A   1      31.763  23.541  23.885  1.00  0.00     0.009 C 
ATOM     10  C   UNL A   1      33.207  23.519  24.426  1.00  0.00     0.002 C 
ATOM     11  C   UNL A   1      33.701  22.234  23.780  1.00  0.00     0.005 C 
BRANCH   6  12
ATOM     12  C   UNL A   1      30.527  23.338  26.623  1.00  0.00     0.229 C 
ATOM     13  N   UNL A   1      30.121  24.615  26.438  1.00  0.00    -0.317 N 
ATOM     14  H   UNL A   1      29.246  24.713  26.879  1.00  0.00     0.170 HD
ATOM     15  O   UNL A   1      29.789  22.685  27.383  1.00  0.00    -0.274 OA
BRANCH  13  16
ATOM     16  C   UNL A   1      30.443  25.846  25.877  1.00  0.00     0.110 A 
ATOM     17  C   UNL A   1      31.102  27.078  26.026  1.00  0.00     0.098 A 
ATOM     18  C   UNL A   1      30.741  27.987  24.944  1.00  0.00    -0.017 A 
ATOM     19  S   UNL A   1      29.576  25.807  24.370  1.00  0.00    -0.122 S 
ATOM     20  C   UNL A   1      29.880  27.420  24.035  1.00  0.00     0.011 A 
ATOM     21  C   UNL A   1      31.251  29.394  24.764  1.00  0.00     0.038 C 
ATOM     22  C   UNL A   1      29.266  28.116  22.865  1.00  0.00     0.047 C 
ATOM     23  C   UNL A   1      30.383  30.198  23.790  1.00  0.00     0.005 C 
ATOM     24  C   UNL A   1      30.049  29.391  22.530  1.00  0.00     0.006 C 
BRANCH  17  25
ATOM     25  C   UNL A   1      32.066  27.592  27.017  1.00  0.00     0.341 C 
ATOM     26  O   UNL A   1      31.714  28.054  28.096  1.00  0.00    -0.246 OA
BRANCH  25  27
ATOM     27  O   UNL A   1      33.371  27.305  26.687  1.00  0.00    -0.462 OA
BRANCH  27  28
ATOM     28  C   UNL A   1      34.283  28.385  26.381  1.00  0.00     0.230 C 
ATOM     29  C   UNL A   1      34.068  29.593  27.287  1.00  0.00     0.049 C 
ENDBRANCH  27  28
ENDBRANCH  25  27
ENDBRANCH  17  25
ENDBRANCH  13  16
ENDBRANCH   6  12
ENDBRANCH   1   5
BRANCH   3  30
ATOM     30  C   UNL A   1      35.979  24.048  25.698  1.00  0.00     0.117 C 
BRANCH  30  31
ATOM     31  C   UNL A   1      37.280  23.511  25.101  1.00  0.00     0.042 C 
BRANCH  31  32
ATOM     32  C   UNL A   1      37.941  22.374  25.884  1.00  0.00     0.118 C 
BRANCH  32  33
ATOM     33  N   UNL A   1      39.388  22.247  25.687  1.00  0.00    -0.352 N 
ATOM     34  C   UNL A   1      40.465  23.044  26.025  1.00  0.00     0.251 C 
ATOM     35  H   UNL A   1      39.646  21.421  25.217  1.00  0.00     0.163 HD
ATOM     36  O   UNL A   1      41.592  22.671  25.697  1.00  0.00    -0.269 OA
BRANCH  34  37
ATOM     37  C   UNL A   1      40.325  24.358  26.712  1.00  0.00     0.039 A 
ATOM     38  C   UNL A   1      39.593  24.420  27.908  1.00  0.00     0.014 A 
ATOM     39  C   UNL A   1      40.873  25.534  26.210  1.00  0.00     0.014 A 
ATOM     40  C   UNL A   1      39.536  25.610  28.651  1.00  0.00     0.010 A 
ATOM     41  C   UNL A   1      40.910  26.686  26.997  1.00  0.00     0.010 A 
ATOM     42  C   UNL A   1      40.265  26.737  28.242  1.00  0.00    -0.014 A 
BRANCH  42  43
ATOM     43  C   UNL A   1      40.404  27.958  29.091  1.00  0.00     0.031 A 
ATOM     44  C   UNL A   1      41.514  28.063  30.107  1.00  0.00     0.074 A 
ATOM     45  C   UNL A   1      39.462  28.923  29.047  1.00  0.00     0.049 A 
ATOM     46  N   UNL A   1      41.676  28.936  31.072  1.00  0.00    -0.248 NA
ATOM     47  C   UNL A   1      42.557  27.027  30.056  1.00  0.00     0.031 C 
ATOM     48  C   UNL A   1      38.306  28.950  28.148  1.00  0.00     0.029 A 
ATOM     49  N   UNL A   1      39.319  30.067  29.798  1.00  0.00    -0.354 N 
ATOM     50  C   UNL A   1      42.805  28.526  31.769  1.00  0.00     0.074 A 
ATOM     51  C   UNL A   1      43.268  27.307  31.139  1.00  0.00     0.031 C 
ATOM     52  C   UNL A   1      37.588  30.061  28.382  1.00  0.00     0.029 A 
ATOM     53  C   UNL A   1      38.199  30.800  29.480  1.00  0.00     0.049 A 
ATOM     54  H   UNL A   1      39.957  30.336  30.497  1.00  0.00     0.167 HD
ATOM     55  C   UNL A   1      43.415  29.111  32.829  1.00  0.00     0.031 A 
ATOM     56  C   UNL A   1      37.703  31.930  30.021  1.00  0.00     0.031 A 
ATOM     57  C   UNL A   1      42.993  30.346  33.435  1.00  0.00     0.049 A 
ATOM     58  C   UNL A   1      38.411  32.575  31.179  1.00  0.00     0.074 A 
ATOM     59  C   UNL A   1      43.587  31.045  34.473  1.00  0.00     0.029 A 
ATOM     60  N   UNL A   1      41.880  31.074  33.049  1.00  0.00    -0.354 N 
ATOM     61  N   UNL A   1      39.494  32.187  31.803  1.00  0.00    -0.248 NA
ATOM     62  C   UNL A   1      37.825  33.819  31.702  1.00  0.00     0.031 C 
ATOM     63  C   UNL A   1      42.817  32.184  34.732  1.00  0.00     0.029 A 
ATOM     64  C   UNL A   1      41.767  32.213  33.829  1.00  0.00     0.049 A 
ATOM     65  H   UNL A   1      41.261  30.821  32.326  1.00  0.00     0.167 HD
ATOM     66  C   UNL A   1      39.736  33.152  32.773  1.00  0.00     0.074 A 
ATOM     67  C   UNL A   1      38.694  34.149  32.646  1.00  0.00     0.031 C 
ATOM     68  C   UNL A   1      40.734  33.204  33.688  1.00  0.00     0.031 A 
BRANCH  55  69
ATOM     69  C   UNL A   1      44.619  28.416  33.401  1.00  0.00    -0.014 A 
ATOM     70  C   UNL A   1      45.914  28.708  32.943  1.00  0.00     0.009 A 
ATOM     71  C   UNL A   1      44.462  27.477  34.433  1.00  0.00     0.009 A 
ATOM     72  C   UNL A   1      47.020  28.042  33.474  1.00  0.00     0.001 A 
ATOM     73  C   UNL A   1      45.572  26.833  34.982  1.00  0.00     0.001 A 
ATOM     74  C   UNL A   1      46.849  27.108  34.494  1.00  0.00     0.000 A 
ENDBRANCH  55  69
BRANCH  56  75
ATOM     75  C   UNL A   1      36.470  32.545  29.462  1.00  0.00    -0.014 A 
ATOM     76  C   UNL A   1      36.561  33.482  28.421  1.00  0.00     0.009 A 
ATOM     77  C   UNL A   1      35.205  32.215  29.972  1.00  0.00     0.009 A 
ATOM     78  C   UNL A   1      35.412  34.098  27.920  1.00  0.00     0.001 A 
ATOM     79  C   UNL A   1      34.056  32.812  29.449  1.00  0.00     0.001 A 
ATOM     80  C   UNL A   1      34.160  33.759  28.431  1.00  0.00     0.000 A 
ENDBRANCH  56  75
BRANCH  68  81
ATOM     81  C   UNL A   1      40.775  34.401  34.592  1.00  0.00    -0.014 A 
ATOM     82  C   UNL A   1      40.013  34.451  35.769  1.00  0.00     0.009 A 
ATOM     83  C   UNL A   1      41.617  35.479  34.278  1.00  0.00     0.009 A 
ATOM     84  C   UNL A   1      40.073  35.571  36.600  1.00  0.00     0.001 A 
ATOM     85  C   UNL A   1      41.692  36.587  35.122  1.00  0.00     0.001 A 
ATOM     86  C   UNL A   1      40.915  36.637  36.278  1.00  0.00     0.000 A 
ENDBRANCH  68  81
ENDBRANCH  42  43
ENDBRANCH  34  37
ENDBRANCH  32  33
ENDBRANCH  31  32
ENDBRANCH  30  31
ENDBRANCH   3  30
TORSDOF 15
ENDMDL
