MODEL 1
REMARK VINA RESULT:     -11.6      0.000      0.000
REMARK SMILES Cc1nc(-c2ccc(C3CC3)cc2)sc1C(=O)NCCCNC(=O)c1ccc(-c2c3nc(c(-c4ccccc4)c4ccc([nH]4)c(-c4ccccc4)c4nc(c(-c5ccccc5)c5ccc2[nH]5)C=C4)C=C3)cc1
REMARK SMILES IDX 20 1 19 2 18 3 16 4 17 5 15 7 1 8 2 9 3 10 4 11 14 12 5 13
REMARK SMILES IDX 6 14 13 15 7 16 12 17 8 18 9 19 10 20 11 21 21 22 22 23
REMARK SMILES IDX 23 24 24 26 25 27 26 28 72 29 27 30 71 31 28 32 29 33 30 34
REMARK SMILES IDX 65 35 31 36 70 37 64 38 66 39 32 40 69 41 63 42 62 43 33 45
REMARK SMILES IDX 55 46 40 47 54 48 41 49 44 50 53 51 67 52 42 53 43 54 52 56
REMARK SMILES IDX 68 57 45 58 34 59 35 60 39 61 36 62 38 63 37 64 56 65 57 66
REMARK SMILES IDX 61 67 58 68 60 69 59 70 46 71 47 72 51 73 48 74 50 75 49 76
REMARK H PARENT 18 6 22 25 66 44 44 55
REMARK Flexibility Score: inf
ROOT
ATOM      1  C   UNL A   1      37.439  19.616  24.998  1.00  0.00     0.042 C 
ENDROOT
BRANCH   1   2
ATOM      2  C   UNL A   1      36.220  20.533  24.941  1.00  0.00     0.118 C 
BRANCH   2   3
ATOM      3  N   UNL A   1      35.013  19.782  25.193  1.00  0.00    -0.351 N 
ATOM      4  C   UNL A   1      33.681  20.108  25.218  1.00  0.00     0.263 C 
ATOM      5  O   UNL A   1      32.964  19.140  25.501  1.00  0.00    -0.268 OA
ATOM      6  H   UNL A   1      35.183  18.832  25.390  1.00  0.00     0.163 HD
BRANCH   4   7
ATOM      7  C   UNL A   1      33.133  21.423  24.904  1.00  0.00     0.115 A 
ATOM      8  C   UNL A   1      32.099  21.591  22.488  1.00  0.00     0.068 C 
ATOM      9  C   UNL A   1      32.474  22.051  23.848  1.00  0.00     0.062 A 
ATOM     10  N   UNL A   1      32.132  23.378  24.071  1.00  0.00    -0.241 NA
ATOM     11  C   UNL A   1      32.622  23.812  25.204  1.00  0.00     0.124 A 
ATOM     12  S   UNL A   1      33.412  22.632  26.140  1.00  0.00    -0.108 S 
BRANCH  11  13
ATOM     13  C   UNL A   1      32.477  25.189  25.668  1.00  0.00     0.010 A 
ATOM     14  C   UNL A   1      33.601  26.017  25.702  1.00  0.00     0.011 A 
ATOM     15  C   UNL A   1      31.264  25.683  26.154  1.00  0.00     0.011 A 
ATOM     16  C   UNL A   1      33.505  27.322  26.191  1.00  0.00     0.005 A 
ATOM     17  C   UNL A   1      31.178  26.990  26.649  1.00  0.00     0.005 A 
ATOM     18  C   UNL A   1      32.294  27.846  26.674  1.00  0.00    -0.045 A 
BRANCH  18  19
ATOM     19  C   UNL A   1      32.257  29.272  27.183  1.00  0.00     0.019 C 
ATOM     20  C   UNL A   1      33.233  30.339  26.754  1.00  0.00     0.009 C 
ATOM     21  C   UNL A   1      31.821  30.374  26.248  1.00  0.00     0.009 C 
ENDBRANCH  18  19
ENDBRANCH  11  13
ENDBRANCH   4   7
ENDBRANCH   2   3
ENDBRANCH   1   2
BRANCH   1  22
ATOM     22  C   UNL A   1      38.717  20.325  25.430  1.00  0.00     0.118 C 
BRANCH  22  23
ATOM     23  N   UNL A   1      39.800  19.384  25.665  1.00  0.00    -0.352 N 
ATOM     24  C   UNL A   1      41.095  19.608  26.062  1.00  0.00     0.251 C 
ATOM     25  H   UNL A   1      39.568  18.439  25.516  1.00  0.00     0.163 HD
ATOM     26  O   UNL A   1      41.920  18.705  25.952  1.00  0.00    -0.269 OA
BRANCH  24  27
ATOM     27  C   UNL A   1      41.514  20.919  26.612  1.00  0.00     0.039 A 
ATOM     28  C   UNL A   1      41.985  21.898  25.731  1.00  0.00     0.014 A 
ATOM     29  C   UNL A   1      41.511  21.170  27.986  1.00  0.00     0.014 A 
ATOM     30  C   UNL A   1      42.408  23.137  26.222  1.00  0.00     0.010 A 
ATOM     31  C   UNL A   1      41.857  22.431  28.468  1.00  0.00     0.010 A 
ATOM     32  C   UNL A   1      42.323  23.422  27.593  1.00  0.00    -0.014 A 
BRANCH  32  33
ATOM     33  C   UNL A   1      42.738  24.740  28.138  1.00  0.00     0.031 A 
ATOM     34  C   UNL A   1      41.712  25.813  28.382  1.00  0.00     0.074 A 
ATOM     35  C   UNL A   1      44.043  24.995  28.350  1.00  0.00     0.049 A 
ATOM     36  N   UNL A   1      41.887  27.052  28.768  1.00  0.00    -0.248 NA
ATOM     37  C   UNL A   1      40.306  25.454  28.136  1.00  0.00     0.031 C 
ATOM     38  C   UNL A   1      45.141  24.053  28.122  1.00  0.00     0.029 A 
ATOM     39  N   UNL A   1      44.669  26.133  28.797  1.00  0.00    -0.354 N 
ATOM     40  C   UNL A   1      40.620  27.624  28.786  1.00  0.00     0.074 A 
ATOM     41  C   UNL A   1      39.693  26.612  28.332  1.00  0.00     0.031 C 
ATOM     42  C   UNL A   1      46.302  24.644  28.448  1.00  0.00     0.029 A 
ATOM     43  C   UNL A   1      46.036  26.016  28.868  1.00  0.00     0.049 A 
ATOM     44  H   UNL A   1      44.184  26.954  29.041  1.00  0.00     0.167 HD
ATOM     45  C   UNL A   1      40.259  28.874  29.162  1.00  0.00     0.031 A 
ATOM     46  C   UNL A   1      46.972  26.916  29.223  1.00  0.00     0.031 A 
ATOM     47  C   UNL A   1      41.178  29.875  29.632  1.00  0.00     0.049 A 
ATOM     48  C   UNL A   1      46.547  28.297  29.635  1.00  0.00     0.074 A 
ATOM     49  C   UNL A   1      40.903  31.153  30.088  1.00  0.00     0.029 A 
ATOM     50  N   UNL A   1      42.552  29.710  29.705  1.00  0.00    -0.354 N 
ATOM     51  N   UNL A   1      45.340  28.805  29.697  1.00  0.00    -0.248 NA
ATOM     52  C   UNL A   1      47.614  29.226  30.033  1.00  0.00     0.031 C 
ATOM     53  C   UNL A   1      42.117  31.776  30.399  1.00  0.00     0.029 A 
ATOM     54  C   UNL A   1      43.142  30.868  30.183  1.00  0.00     0.049 A 
ATOM     55  H   UNL A   1      43.037  28.890  29.457  1.00  0.00     0.167 HD
ATOM     56  C   UNL A   1      45.499  30.101  30.165  1.00  0.00     0.074 A 
ATOM     57  C   UNL A   1      46.916  30.299  30.385  1.00  0.00     0.031 C 
ATOM     58  C   UNL A   1      44.554  31.046  30.395  1.00  0.00     0.031 A 
BRANCH  45  59
ATOM     59  C   UNL A   1      38.800  29.228  29.075  1.00  0.00    -0.014 A 
ATOM     60  C   UNL A   1      38.236  29.703  27.880  1.00  0.00     0.009 A 
ATOM     61  C   UNL A   1      37.970  29.052  30.193  1.00  0.00     0.009 A 
ATOM     62  C   UNL A   1      36.881  30.033  27.818  1.00  0.00     0.001 A 
ATOM     63  C   UNL A   1      36.610  29.355  30.121  1.00  0.00     0.001 A 
ATOM     64  C   UNL A   1      36.068  29.854  28.938  1.00  0.00     0.000 A 
ENDBRANCH  45  59
BRANCH  46  65
ATOM     65  C   UNL A   1      48.408  26.534  29.217  1.00  0.00    -0.014 A 
ATOM     66  C   UNL A   1      48.982  25.910  30.337  1.00  0.00     0.009 A 
ATOM     67  C   UNL A   1      49.210  26.785  28.094  1.00  0.00     0.009 A 
ATOM     68  C   UNL A   1      50.336  25.568  30.339  1.00  0.00     0.001 A 
ATOM     69  C   UNL A   1      50.557  26.416  28.089  1.00  0.00     0.001 A 
ATOM     70  C   UNL A   1      51.121  25.817  29.214  1.00  0.00     0.000 A 
ENDBRANCH  46  65
BRANCH  58  71
ATOM     71  C   UNL A   1      45.021  32.365  30.939  1.00  0.00    -0.014 A 
ATOM     72  C   UNL A   1      45.324  33.438  30.087  1.00  0.00     0.009 A 
ATOM     73  C   UNL A   1      45.115  32.548  32.328  1.00  0.00     0.009 A 
ATOM     74  C   UNL A   1      45.742  34.661  30.616  1.00  0.00     0.001 A 
ATOM     75  C   UNL A   1      45.509  33.780  32.853  1.00  0.00     0.001 A 
ATOM     76  C   UNL A   1      45.829  34.832  31.997  1.00  0.00     0.000 A 
ENDBRANCH  58  71
ENDBRANCH  32  33
ENDBRANCH  24  27
ENDBRANCH  22  23
ENDBRANCH   1  22
TORSDOF 12
ENDMDL
MODEL 2
REMARK VINA RESULT:     -11.4      4.220      9.161
REMARK SMILES Cc1nc(-c2ccc(C3CC3)cc2)sc1C(=O)NCCCNC(=O)c1ccc(-c2c3nc(c(-c4ccccc4)c4ccc([nH]4)c(-c4ccccc4)c4nc(c(-c5ccccc5)c5ccc2[nH]5)C=C4)C=C3)cc1
REMARK SMILES IDX 20 1 19 2 18 3 16 4 17 5 15 7 1 8 2 9 3 10 4 11 14 12 5 13
REMARK SMILES IDX 6 14 13 15 7 16 12 17 8 18 9 19 10 20 11 21 21 22 22 23
REMARK SMILES IDX 23 24 24 26 25 27 26 28 72 29 27 30 71 31 28 32 29 33 30 34
REMARK SMILES IDX 65 35 31 36 70 37 64 38 66 39 32 40 69 41 63 42 62 43 33 45
REMARK SMILES IDX 55 46 40 47 54 48 41 49 44 50 53 51 67 52 42 53 43 54 52 56
REMARK SMILES IDX 68 57 45 58 34 59 35 60 39 61 36 62 38 63 37 64 56 65 57 66
REMARK SMILES IDX 61 67 58 68 60 69 59 70 46 71 47 72 51 73 48 74 50 75 49 76
REMARK H PARENT 18 6 22 25 66 44 44 55
REMARK Flexibility Score: inf
ROOT
ATOM      1  C   UNL A   1      31.109  31.630  25.945  1.00  0.00     0.042 C 
ENDROOT
BRANCH   1   2
ATOM      2  C   UNL A   1      31.258  30.216  25.390  1.00  0.00     0.118 C 
BRANCH   2   3
ATOM      3  N   UNL A   1      30.730  30.143  24.049  1.00  0.00    -0.351 N 
ATOM      4  C   UNL A   1      30.604  29.130  23.133  1.00  0.00     0.263 C 
ATOM      5  O   UNL A   1      30.098  29.514  22.071  1.00  0.00    -0.268 OA
ATOM      6  H   UNL A   1      30.385  31.005  23.722  1.00  0.00     0.163 HD
BRANCH   4   7
ATOM      7  C   UNL A   1      30.972  27.738  23.367  1.00  0.00     0.115 A 
ATOM      8  C   UNL A   1      28.928  26.189  23.969  1.00  0.00     0.068 C 
ATOM      9  C   UNL A   1      30.341  26.532  23.673  1.00  0.00     0.062 A 
ATOM     10  N   UNL A   1      31.184  25.434  23.774  1.00  0.00    -0.241 NA
ATOM     11  C   UNL A   1      32.441  25.788  23.680  1.00  0.00     0.124 A 
ATOM     12  S   UNL A   1      32.696  27.434  23.338  1.00  0.00    -0.108 S 
BRANCH  11  13
ATOM     13  C   UNL A   1      33.552  24.850  23.814  1.00  0.00     0.010 A 
ATOM     14  C   UNL A   1      34.428  24.985  24.894  1.00  0.00     0.011 A 
ATOM     15  C   UNL A   1      33.814  23.869  22.855  1.00  0.00     0.011 A 
ATOM     16  C   UNL A   1      35.532  24.138  25.020  1.00  0.00     0.005 A 
ATOM     17  C   UNL A   1      34.926  23.028  22.987  1.00  0.00     0.005 A 
ATOM     18  C   UNL A   1      35.810  23.135  24.075  1.00  0.00    -0.045 A 
BRANCH  18  19
ATOM     19  C   UNL A   1      37.018  22.245  24.277  1.00  0.00     0.019 C 
ATOM     20  C   UNL A   1      37.680  22.022  25.614  1.00  0.00     0.009 C 
ATOM     21  C   UNL A   1      36.850  20.931  25.002  1.00  0.00     0.009 C 
ENDBRANCH  18  19
ENDBRANCH  11  13
ENDBRANCH   4   7
ENDBRANCH   2   3
ENDBRANCH   1   2
BRANCH   1  22
ATOM     22  C   UNL A   1      32.206  32.020  26.929  1.00  0.00     0.118 C 
BRANCH  22  23
ATOM     23  N   UNL A   1      32.147  33.432  27.268  1.00  0.00    -0.352 N 
ATOM     24  C   UNL A   1      32.927  34.169  28.124  1.00  0.00     0.251 C 
ATOM     25  H   UNL A   1      31.436  33.939  26.813  1.00  0.00     0.163 HD
ATOM     26  O   UNL A   1      32.552  35.287  28.464  1.00  0.00    -0.269 OA
BRANCH  24  27
ATOM     27  C   UNL A   1      34.207  33.636  28.648  1.00  0.00     0.039 A 
ATOM     28  C   UNL A   1      35.391  33.933  27.962  1.00  0.00     0.014 A 
ATOM     29  C   UNL A   1      34.247  32.796  29.763  1.00  0.00     0.014 A 
ATOM     30  C   UNL A   1      36.610  33.427  28.420  1.00  0.00     0.010 A 
ATOM     31  C   UNL A   1      35.471  32.356  30.264  1.00  0.00     0.010 A 
ATOM     32  C   UNL A   1      36.663  32.655  29.590  1.00  0.00    -0.014 A 
BRANCH  32  33
ATOM     33  C   UNL A   1      37.950  32.128  30.114  1.00  0.00     0.031 A 
ATOM     34  C   UNL A   1      38.510  30.838  29.582  1.00  0.00     0.074 A 
ATOM     35  C   UNL A   1      38.579  32.774  31.114  1.00  0.00     0.049 A 
ATOM     36  N   UNL A   1      39.569  30.173  29.971  1.00  0.00    -0.248 NA
ATOM     37  C   UNL A   1      37.770  30.197  28.482  1.00  0.00     0.031 C 
ATOM     38  C   UNL A   1      38.124  34.017  31.741  1.00  0.00     0.029 A 
ATOM     39  N   UNL A   1      39.736  32.467  31.786  1.00  0.00    -0.354 N 
ATOM     40  C   UNL A   1      39.605  29.027  29.185  1.00  0.00     0.074 A 
ATOM     41  C   UNL A   1      38.442  29.066  28.327  1.00  0.00     0.031 C 
ATOM     42  C   UNL A   1      39.001  34.375  32.693  1.00  0.00     0.029 A 
ATOM     43  C   UNL A   1      40.056  33.369  32.770  1.00  0.00     0.049 A 
ATOM     44  H   UNL A   1      40.283  31.674  31.583  1.00  0.00     0.167 HD
ATOM     45  C   UNL A   1      40.532  28.039  29.167  1.00  0.00     0.031 A 
ATOM     46  C   UNL A   1      41.079  33.383  33.645  1.00  0.00     0.031 A 
ATOM     47  C   UNL A   1      41.699  28.010  30.006  1.00  0.00     0.049 A 
ATOM     48  C   UNL A   1      42.094  32.275  33.607  1.00  0.00     0.074 A 
ATOM     49  C   UNL A   1      42.726  27.081  30.024  1.00  0.00     0.029 A 
ATOM     50  N   UNL A   1      41.995  28.954  30.977  1.00  0.00    -0.354 N 
ATOM     51  N   UNL A   1      42.143  31.227  32.821  1.00  0.00    -0.248 NA
ATOM     52  C   UNL A   1      43.200  32.358  34.571  1.00  0.00     0.031 C 
ATOM     53  C   UNL A   1      43.622  27.441  31.036  1.00  0.00     0.029 A 
ATOM     54  C   UNL A   1      43.179  28.620  31.613  1.00  0.00     0.049 A 
ATOM     55  H   UNL A   1      41.446  29.744  31.183  1.00  0.00     0.167 HD
ATOM     56  C   UNL A   1      43.295  30.540  33.177  1.00  0.00     0.074 A 
ATOM     57  C   UNL A   1      43.924  31.297  34.239  1.00  0.00     0.031 C 
ATOM     58  C   UNL A   1      43.790  29.385  32.668  1.00  0.00     0.031 A 
BRANCH  45  59
ATOM     59  C   UNL A   1      40.314  26.904  28.204  1.00  0.00    -0.014 A 
ATOM     60  C   UNL A   1      40.883  26.919  26.920  1.00  0.00     0.009 A 
ATOM     61  C   UNL A   1      39.558  25.790  28.598  1.00  0.00     0.009 A 
ATOM     62  C   UNL A   1      40.665  25.860  26.037  1.00  0.00     0.001 A 
ATOM     63  C   UNL A   1      39.365  24.719  27.724  1.00  0.00     0.001 A 
ATOM     64  C   UNL A   1      39.910  24.759  26.441  1.00  0.00     0.000 A 
ENDBRANCH  45  59
BRANCH  46  65
ATOM     65  C   UNL A   1      41.203  34.492  34.626  1.00  0.00    -0.014 A 
ATOM     66  C   UNL A   1      41.926  35.650  34.301  1.00  0.00     0.009 A 
ATOM     67  C   UNL A   1      40.597  34.401  35.888  1.00  0.00     0.009 A 
ATOM     68  C   UNL A   1      42.058  36.685  35.230  1.00  0.00     0.001 A 
ATOM     69  C   UNL A   1      40.707  35.449  36.804  1.00  0.00     0.001 A 
ATOM     70  C   UNL A   1      41.445  36.586  36.478  1.00  0.00     0.000 A 
ENDBRANCH  46  65
BRANCH  58  71
ATOM     71  C   UNL A   1      45.089  28.888  33.233  1.00  0.00    -0.014 A 
ATOM     72  C   UNL A   1      45.117  27.959  34.284  1.00  0.00     0.009 A 
ATOM     73  C   UNL A   1      46.300  29.324  32.674  1.00  0.00     0.009 A 
ATOM     74  C   UNL A   1      46.337  27.498  34.784  1.00  0.00     0.001 A 
ATOM     75  C   UNL A   1      47.517  28.842  33.160  1.00  0.00     0.001 A 
ATOM     76  C   UNL A   1      47.534  27.936  34.219  1.00  0.00     0.000 A 
ENDBRANCH  58  71
ENDBRANCH  32  33
ENDBRANCH  24  27
ENDBRANCH  22  23
ENDBRANCH   1  22
TORSDOF 12
ENDMDL
MODEL 3
REMARK VINA RESULT:     -11.4      0.465      6.110
REMARK SMILES Cc1nc(-c2ccc(C3CC3)cc2)sc1C(=O)NCCCNC(=O)c1ccc(-c2c3nc(c(-c4ccccc4)c4ccc([nH]4)c(-c4ccccc4)c4nc(c(-c5ccccc5)c5ccc2[nH]5)C=C4)C=C3)cc1
REMARK SMILES IDX 20 1 19 2 18 3 16 4 17 5 15 7 1 8 2 9 3 10 4 11 14 12 5 13
REMARK SMILES IDX 6 14 13 15 7 16 12 17 8 18 9 19 10 20 11 21 21 22 22 23
REMARK SMILES IDX 23 24 24 26 25 27 26 28 72 29 27 30 71 31 28 32 29 33 30 34
REMARK SMILES IDX 65 35 31 36 70 37 64 38 66 39 32 40 69 41 63 42 62 43 33 45
REMARK SMILES IDX 55 46 40 47 54 48 41 49 44 50 53 51 67 52 42 53 43 54 52 56
REMARK SMILES IDX 68 57 45 58 34 59 35 60 39 61 36 62 38 63 37 64 56 65 57 66
REMARK SMILES IDX 61 67 58 68 60 69 59 70 46 71 47 72 51 73 48 74 50 75 49 76
REMARK H PARENT 18 6 22 25 66 44 44 55
REMARK Flexibility Score: inf
ROOT
ATOM      1  C   UNL A   1      37.489  19.368  24.985  1.00  0.00     0.042 C 
ENDROOT
BRANCH   1   2
ATOM      2  C   UNL A   1      36.263  20.234  24.708  1.00  0.00     0.118 C 
BRANCH   2   3
ATOM      3  N   UNL A   1      35.057  19.532  25.079  1.00  0.00    -0.351 N 
ATOM      4  C   UNL A   1      33.745  19.908  25.213  1.00  0.00     0.263 C 
ATOM      5  O   UNL A   1      33.020  18.972  25.576  1.00  0.00    -0.268 OA
ATOM      6  H   UNL A   1      35.209  18.580  25.278  1.00  0.00     0.163 HD
BRANCH   4   7
ATOM      7  C   UNL A   1      33.218  21.237  24.924  1.00  0.00     0.115 A 
ATOM      8  C   UNL A   1      32.114  21.444  22.542  1.00  0.00     0.068 C 
ATOM      9  C   UNL A   1      32.541  21.887  23.892  1.00  0.00     0.062 A 
ATOM     10  N   UNL A   1      32.239  23.220  24.133  1.00  0.00    -0.241 NA
ATOM     11  C   UNL A   1      32.774  23.636  25.252  1.00  0.00     0.124 A 
ATOM     12  S   UNL A   1      33.564  22.432  26.157  1.00  0.00    -0.108 S 
BRANCH  11  13
ATOM     13  C   UNL A   1      32.675  25.012  25.728  1.00  0.00     0.010 A 
ATOM     14  C   UNL A   1      31.438  25.495  26.160  1.00  0.00     0.011 A 
ATOM     15  C   UNL A   1      33.763  25.889  25.692  1.00  0.00     0.011 A 
ATOM     16  C   UNL A   1      31.300  26.824  26.570  1.00  0.00     0.005 A 
ATOM     17  C   UNL A   1      33.614  27.221  26.099  1.00  0.00     0.005 A 
ATOM     18  C   UNL A   1      32.381  27.721  26.555  1.00  0.00    -0.045 A 
BRANCH  18  19
ATOM     19  C   UNL A   1      32.165  29.146  27.021  1.00  0.00     0.019 C 
ATOM     20  C   UNL A   1      33.115  30.278  26.723  1.00  0.00     0.009 C 
ATOM     21  C   UNL A   1      31.799  30.203  26.006  1.00  0.00     0.009 C 
ENDBRANCH  18  19
ENDBRANCH  11  13
ENDBRANCH   4   7
ENDBRANCH   2   3
ENDBRANCH   1   2
BRANCH   1  22
ATOM     22  C   UNL A   1      38.677  20.148  25.534  1.00  0.00     0.118 C 
BRANCH  22  23
ATOM     23  N   UNL A   1      39.829  19.289  25.753  1.00  0.00    -0.352 N 
ATOM     24  C   UNL A   1      41.119  19.611  26.100  1.00  0.00     0.251 C 
ATOM     25  H   UNL A   1      39.658  18.327  25.634  1.00  0.00     0.163 HD
ATOM     26  O   UNL A   1      41.999  18.763  25.983  1.00  0.00    -0.269 OA
BRANCH  24  27
ATOM     27  C   UNL A   1      41.464  20.961  26.603  1.00  0.00     0.039 A 
ATOM     28  C   UNL A   1      41.246  21.252  27.954  1.00  0.00     0.014 A 
ATOM     29  C   UNL A   1      41.937  21.961  25.749  1.00  0.00     0.014 A 
ATOM     30  C   UNL A   1      41.543  22.523  28.454  1.00  0.00     0.010 A 
ATOM     31  C   UNL A   1      42.306  23.202  26.262  1.00  0.00     0.010 A 
ATOM     32  C   UNL A   1      42.099  23.501  27.616  1.00  0.00    -0.014 A 
BRANCH  32  33
ATOM     33  C   UNL A   1      42.450  24.851  28.128  1.00  0.00     0.031 A 
ATOM     34  C   UNL A   1      43.863  25.157  28.543  1.00  0.00     0.074 A 
ATOM     35  C   UNL A   1      41.487  25.780  28.281  1.00  0.00     0.049 A 
ATOM     36  N   UNL A   1      44.347  26.242  29.094  1.00  0.00    -0.248 NA
ATOM     37  C   UNL A   1      44.861  24.094  28.335  1.00  0.00     0.031 C 
ATOM     38  C   UNL A   1      40.073  25.599  27.948  1.00  0.00     0.029 A 
ATOM     39  N   UNL A   1      41.552  27.061  28.769  1.00  0.00    -0.354 N 
ATOM     40  C   UNL A   1      45.694  25.982  29.320  1.00  0.00     0.074 A 
ATOM     41  C   UNL A   1      45.941  24.625  28.887  1.00  0.00     0.031 C 
ATOM     42  C   UNL A   1      39.408  26.733  28.224  1.00  0.00     0.029 A 
ATOM     43  C   UNL A   1      40.340  27.705  28.789  1.00  0.00     0.049 A 
ATOM     44  H   UNL A   1      42.389  27.479  29.077  1.00  0.00     0.167 HD
ATOM     45  C   UNL A   1      46.643  26.805  29.827  1.00  0.00     0.031 A 
ATOM     46  C   UNL A   1      40.010  28.936  29.222  1.00  0.00     0.031 A 
ATOM     47  C   UNL A   1      46.402  28.161  30.240  1.00  0.00     0.049 A 
ATOM     48  C   UNL A   1      41.081  29.830  29.782  1.00  0.00     0.074 A 
ATOM     49  C   UNL A   1      47.309  29.093  30.715  1.00  0.00     0.029 A 
ATOM     50  N   UNL A   1      45.162  28.779  30.226  1.00  0.00    -0.354 N 
ATOM     51  N   UNL A   1      42.359  29.587  29.939  1.00  0.00    -0.248 NA
ATOM     52  C   UNL A   1      40.662  31.170  30.217  1.00  0.00     0.031 C 
ATOM     53  C   UNL A   1      46.609  30.263  31.029  1.00  0.00     0.029 A 
ATOM     54  C   UNL A   1      45.276  30.075  30.701  1.00  0.00     0.049 A 
ATOM     55  H   UNL A   1      44.325  28.361  29.922  1.00  0.00     0.167 HD
ATOM     56  C   UNL A   1      42.903  30.751  30.465  1.00  0.00     0.074 A 
ATOM     57  C   UNL A   1      41.819  31.704  30.587  1.00  0.00     0.031 C 
ATOM     58  C   UNL A   1      44.187  31.008  30.816  1.00  0.00     0.031 A 
BRANCH  45  59
ATOM     59  C   UNL A   1      48.035  26.252  29.966  1.00  0.00    -0.014 A 
ATOM     60  C   UNL A   1      48.943  26.291  28.896  1.00  0.00     0.009 A 
ATOM     61  C   UNL A   1      48.454  25.713  31.192  1.00  0.00     0.009 A 
ATOM     62  C   UNL A   1      50.229  25.768  29.040  1.00  0.00     0.001 A 
ATOM     63  C   UNL A   1      49.749  25.216  31.342  1.00  0.00     0.001 A 
ATOM     64  C   UNL A   1      50.633  25.234  30.263  1.00  0.00     0.000 A 
ENDBRANCH  45  59
BRANCH  46  65
ATOM     65  C   UNL A   1      38.602  29.403  29.131  1.00  0.00    -0.014 A 
ATOM     66  C   UNL A   1      38.113  29.956  27.936  1.00  0.00     0.009 A 
ATOM     67  C   UNL A   1      37.740  29.295  30.232  1.00  0.00     0.009 A 
ATOM     68  C   UNL A   1      36.796  30.411  27.856  1.00  0.00     0.001 A 
ATOM     69  C   UNL A   1      36.416  29.726  30.140  1.00  0.00     0.001 A 
ATOM     70  C   UNL A   1      35.947  30.292  28.956  1.00  0.00     0.000 A 
ENDBRANCH  46  65
BRANCH  58  71
ATOM     71  C   UNL A   1      44.493  32.384  31.334  1.00  0.00    -0.014 A 
ATOM     72  C   UNL A   1      44.308  32.710  32.686  1.00  0.00     0.009 A 
ATOM     73  C   UNL A   1      45.016  33.353  30.463  1.00  0.00     0.009 A 
ATOM     74  C   UNL A   1      44.615  33.992  33.149  1.00  0.00     0.001 A 
ATOM     75  C   UNL A   1      45.345  34.624  30.935  1.00  0.00     0.001 A 
ATOM     76  C   UNL A   1      45.137  34.945  32.276  1.00  0.00     0.000 A 
ENDBRANCH  58  71
ENDBRANCH  32  33
ENDBRANCH  24  27
ENDBRANCH  22  23
ENDBRANCH   1  22
TORSDOF 12
ENDMDL
