MODEL 1
REMARK VINA RESULT:     -11.3      0.000      0.000
REMARK SMILES O=C(NCCCNC(=O)c1cccc(N2CCCCC2)n1)c1ccc(-c2c3nc(c(-c4ccccc4)c4ccc([nH]4)c(-c4ccccc4)c4nc(c(-c5ccccc5)c5ccc2[nH]5)C=C4)C=C3)cc1
REMARK SMILES IDX 4 1 3 2 1 3 2 4 22 6 23 7 69 8 24 9 68 10 25 11 26 12 27 13
REMARK SMILES IDX 62 14 28 15 67 16 61 17 63 18 29 19 66 20 60 21 59 22 30 24
REMARK SMILES IDX 52 25 37 26 51 27 38 28 41 29 50 30 64 31 39 32 40 33 49 35
REMARK SMILES IDX 65 36 42 37 31 38 32 39 36 40 33 41 35 42 34 43 53 44 54 45
REMARK SMILES IDX 58 46 55 47 57 48 56 49 43 50 44 51 48 52 45 53 47 54 46 55
REMARK SMILES IDX 5 56 6 57 7 58 8 59 9 61 10 62 11 63 21 64 12 65 14 66 13 67
REMARK SMILES IDX 15 68 16 69 20 70 17 71 19 72 18 73
REMARK H PARENT 3 5 63 23 41 34 7 60
REMARK Flexibility Score: inf
ROOT
ATOM      1  C   UNL A   1      38.889  20.077  26.040  1.00  0.00     0.118 C 
ENDROOT
BRANCH   1   2
ATOM      2  N   UNL A   1      40.099  19.278  25.876  1.00  0.00    -0.352 N 
ATOM      3  O   UNL A   1      42.298  18.870  25.612  1.00  0.00    -0.269 OA
ATOM      4  C   UNL A   1      41.418  19.643  25.980  1.00  0.00     0.251 C 
ATOM      5  H   UNL A   1      39.945  18.330  25.658  1.00  0.00     0.163 HD
BRANCH   4   6
ATOM      6  C   UNL A   1      41.781  20.970  26.520  1.00  0.00     0.039 A 
ATOM      7  C   UNL A   1      42.054  22.033  25.659  1.00  0.00     0.014 A 
ATOM      8  C   UNL A   1      41.820  21.164  27.904  1.00  0.00     0.014 A 
ATOM      9  C   UNL A   1      42.517  23.236  26.170  1.00  0.00     0.010 A 
ATOM     10  C   UNL A   1      42.178  22.413  28.421  1.00  0.00     0.010 A 
ATOM     11  C   UNL A   1      42.548  23.453  27.556  1.00  0.00    -0.014 A 
BRANCH  11  12
ATOM     12  C   UNL A   1      42.857  24.816  28.056  1.00  0.00     0.031 A 
ATOM     13  C   UNL A   1      41.778  25.832  28.293  1.00  0.00     0.074 A 
ATOM     14  C   UNL A   1      44.145  25.113  28.323  1.00  0.00     0.049 A 
ATOM     15  N   UNL A   1      41.892  27.054  28.751  1.00  0.00    -0.248 NA
ATOM     16  C   UNL A   1      40.396  25.438  27.974  1.00  0.00     0.031 C 
ATOM     17  C   UNL A   1      45.280  24.205  28.122  1.00  0.00     0.029 A 
ATOM     18  N   UNL A   1      44.718  26.246  28.839  1.00  0.00    -0.354 N 
ATOM     19  C   UNL A   1      40.607  27.582  28.756  1.00  0.00     0.074 A 
ATOM     20  C   UNL A   1      39.728  26.554  28.240  1.00  0.00     0.031 C 
ATOM     21  C   UNL A   1      46.400  24.795  28.558  1.00  0.00     0.029 A 
ATOM     22  C   UNL A   1      46.079  26.147  28.994  1.00  0.00     0.049 A 
ATOM     23  H   UNL A   1      44.204  27.051  29.075  1.00  0.00     0.167 HD
ATOM     24  C   UNL A   1      40.204  28.811  29.156  1.00  0.00     0.031 A 
ATOM     25  C   UNL A   1      46.980  27.053  29.414  1.00  0.00     0.031 A 
ATOM     26  C   UNL A   1      41.086  29.827  29.673  1.00  0.00     0.049 A 
ATOM     27  C   UNL A   1      46.501  28.418  29.810  1.00  0.00     0.074 A 
ATOM     28  C   UNL A   1      40.762  31.087  30.147  1.00  0.00     0.029 A 
ATOM     29  N   UNL A   1      42.463  29.704  29.775  1.00  0.00    -0.354 N 
ATOM     30  N   UNL A   1      45.276  28.880  29.859  1.00  0.00    -0.248 NA
ATOM     31  C   UNL A   1      47.531  29.386  30.207  1.00  0.00     0.031 C 
ATOM     32  C   UNL A   1      41.949  31.749  30.476  1.00  0.00     0.029 A 
ATOM     33  C   UNL A   1      43.006  30.879  30.268  1.00  0.00     0.049 A 
ATOM     34  H   UNL A   1      42.979  28.900  29.534  1.00  0.00     0.167 HD
ATOM     35  C   UNL A   1      45.386  30.188  30.306  1.00  0.00     0.074 A 
ATOM     36  C   UNL A   1      46.794  30.434  30.544  1.00  0.00     0.031 C 
ATOM     37  C   UNL A   1      44.410  31.108  30.493  1.00  0.00     0.031 A 
BRANCH  24  38
ATOM     38  C   UNL A   1      38.745  29.155  29.032  1.00  0.00    -0.014 A 
ATOM     39  C   UNL A   1      37.865  29.016  30.115  1.00  0.00     0.009 A 
ATOM     40  C   UNL A   1      38.267  29.716  27.835  1.00  0.00     0.009 A 
ATOM     41  C   UNL A   1      36.532  29.421  29.998  1.00  0.00     0.001 A 
ATOM     42  C   UNL A   1      36.942  30.141  27.729  1.00  0.00     0.001 A 
ATOM     43  C   UNL A   1      36.075  29.990  28.810  1.00  0.00     0.000 A 
ENDBRANCH  24  38
BRANCH  25  44
ATOM     44  C   UNL A   1      48.427  26.713  29.434  1.00  0.00    -0.014 A 
ATOM     45  C   UNL A   1      49.241  26.965  28.320  1.00  0.00     0.009 A 
ATOM     46  C   UNL A   1      48.996  26.114  30.570  1.00  0.00     0.009 A 
ATOM     47  C   UNL A   1      50.587  26.590  28.331  1.00  0.00     0.001 A 
ATOM     48  C   UNL A   1      50.349  25.775  30.591  1.00  0.00     0.001 A 
ATOM     49  C   UNL A   1      51.140  26.000  29.467  1.00  0.00     0.000 A 
ENDBRANCH  25  44
BRANCH  37  50
ATOM     50  C   UNL A   1      44.835  32.453  31.006  1.00  0.00    -0.014 A 
ATOM     51  C   UNL A   1      45.153  33.499  30.124  1.00  0.00     0.009 A 
ATOM     52  C   UNL A   1      44.902  32.684  32.388  1.00  0.00     0.009 A 
ATOM     53  C   UNL A   1      45.567  34.737  30.619  1.00  0.00     0.001 A 
ATOM     54  C   UNL A   1      45.284  33.932  32.880  1.00  0.00     0.001 A 
ATOM     55  C   UNL A   1      45.627  34.953  31.995  1.00  0.00     0.000 A 
ENDBRANCH  37  50
ENDBRANCH  11  12
ENDBRANCH   4   6
ENDBRANCH   1   2
BRANCH   1  56
ATOM     56  C   UNL A   1      37.980  20.016  24.823  1.00  0.00     0.042 C 
BRANCH  56  57
ATOM     57  C   UNL A   1      37.204  21.301  24.588  1.00  0.00     0.118 C 
BRANCH  57  58
ATOM     58  N   UNL A   1      36.568  21.781  25.805  1.00  0.00    -0.351 N 
ATOM     59  C   UNL A   1      35.238  22.064  26.032  1.00  0.00     0.269 C 
ATOM     60  H   UNL A   1      37.169  21.923  26.572  1.00  0.00     0.163 HD
ATOM     61  O   UNL A   1      34.915  22.632  27.072  1.00  0.00    -0.268 OA
BRANCH  59  62
ATOM     62  C   UNL A   1      34.217  21.630  25.040  1.00  0.00     0.130 A 
ATOM     63  C   UNL A   1      33.719  22.567  24.141  1.00  0.00     0.034 A 
ATOM     64  N   UNL A   1      33.839  20.327  25.079  1.00  0.00    -0.226 NA
ATOM     65  C   UNL A   1      32.727  22.159  23.270  1.00  0.00     0.006 A 
ATOM     66  C   UNL A   1      32.931  19.915  24.173  1.00  0.00     0.129 A 
ATOM     67  C   UNL A   1      32.338  20.824  23.288  1.00  0.00     0.047 A 
BRANCH  66  68
ATOM     68  N   UNL A   1      32.563  18.582  24.126  1.00  0.00    -0.357 N 
ATOM     69  C   UNL A   1      32.395  17.832  25.367  1.00  0.00     0.118 C 
ATOM     70  C   UNL A   1      32.807  17.827  22.900  1.00  0.00     0.118 C 
ATOM     71  C   UNL A   1      33.514  16.812  25.564  1.00  0.00     0.022 C 
ATOM     72  C   UNL A   1      33.961  16.844  23.101  1.00  0.00     0.022 C 
ATOM     73  C   UNL A   1      33.714  15.955  24.316  1.00  0.00     0.004 C 
ENDBRANCH  66  68
ENDBRANCH  59  62
ENDBRANCH  57  58
ENDBRANCH  56  57
ENDBRANCH   1  56
TORSDOF 11
ENDMDL
MODEL 2
REMARK VINA RESULT:     -11.2      1.262      6.233
REMARK SMILES O=C(NCCCNC(=O)c1cccc(N2CCCCC2)n1)c1ccc(-c2c3nc(c(-c4ccccc4)c4ccc([nH]4)c(-c4ccccc4)c4nc(c(-c5ccccc5)c5ccc2[nH]5)C=C4)C=C3)cc1
REMARK SMILES IDX 4 1 3 2 1 3 2 4 22 6 23 7 69 8 24 9 68 10 25 11 26 12 27 13
REMARK SMILES IDX 62 14 28 15 67 16 61 17 63 18 29 19 66 20 60 21 59 22 30 24
REMARK SMILES IDX 52 25 37 26 51 27 38 28 41 29 50 30 64 31 39 32 40 33 49 35
REMARK SMILES IDX 65 36 42 37 31 38 32 39 36 40 33 41 35 42 34 43 53 44 54 45
REMARK SMILES IDX 58 46 55 47 57 48 56 49 43 50 44 51 48 52 45 53 47 54 46 55
REMARK SMILES IDX 5 56 6 57 7 58 8 59 9 61 10 62 11 63 21 64 12 65 14 66 13 67
REMARK SMILES IDX 15 68 16 69 20 70 17 71 19 72 18 73
REMARK H PARENT 3 5 63 23 41 34 7 60
REMARK Flexibility Score: inf
ROOT
ATOM      1  C   UNL A   1      38.994  20.134  26.123  1.00  0.00     0.118 C 
ENDROOT
BRANCH   1   2
ATOM      2  N   UNL A   1      40.113  19.203  26.025  1.00  0.00    -0.352 N 
ATOM      3  O   UNL A   1      42.250  18.545  25.752  1.00  0.00    -0.269 OA
ATOM      4  C   UNL A   1      41.464  19.443  26.045  1.00  0.00     0.251 C 
ATOM      5  H   UNL A   1      39.859  18.256  25.932  1.00  0.00     0.163 HD
BRANCH   4   6
ATOM      6  C   UNL A   1      41.977  20.781  26.405  1.00  0.00     0.039 A 
ATOM      7  C   UNL A   1      42.193  21.744  25.419  1.00  0.00     0.014 A 
ATOM      8  C   UNL A   1      42.214  21.090  27.748  1.00  0.00     0.014 A 
ATOM      9  C   UNL A   1      42.792  22.950  25.749  1.00  0.00     0.010 A 
ATOM     10  C   UNL A   1      42.714  22.351  28.093  1.00  0.00     0.010 A 
ATOM     11  C   UNL A   1      43.024  23.283  27.092  1.00  0.00    -0.014 A 
BRANCH  11  12
ATOM     12  C   UNL A   1      43.480  24.657  27.417  1.00  0.00     0.031 A 
ATOM     13  C   UNL A   1      44.917  25.067  27.273  1.00  0.00     0.074 A 
ATOM     14  C   UNL A   1      42.553  25.549  27.822  1.00  0.00     0.049 A 
ATOM     15  N   UNL A   1      45.459  26.237  27.495  1.00  0.00    -0.248 NA
ATOM     16  C   UNL A   1      45.872  24.038  26.831  1.00  0.00     0.031 C 
ATOM     17  C   UNL A   1      41.127  25.260  28.007  1.00  0.00     0.029 A 
ATOM     18  N   UNL A   1      42.661  26.880  28.131  1.00  0.00    -0.354 N 
ATOM     19  C   UNL A   1      46.817  26.085  27.241  1.00  0.00     0.074 A 
ATOM     20  C   UNL A   1      47.021  24.703  26.864  1.00  0.00     0.031 C 
ATOM     21  C   UNL A   1      40.488  26.388  28.344  1.00  0.00     0.029 A 
ATOM     22  C   UNL A   1      41.465  27.459  28.477  1.00  0.00     0.049 A 
ATOM     23  H   UNL A   1      43.513  27.372  28.107  1.00  0.00     0.167 HD
ATOM     24  C   UNL A   1      47.797  27.016  27.317  1.00  0.00     0.031 A 
ATOM     25  C   UNL A   1      41.183  28.710  28.886  1.00  0.00     0.031 A 
ATOM     26  C   UNL A   1      47.584  28.392  27.689  1.00  0.00     0.049 A 
ATOM     27  C   UNL A   1      42.301  29.702  28.997  1.00  0.00     0.074 A 
ATOM     28  C   UNL A   1      48.509  29.420  27.749  1.00  0.00     0.029 A 
ATOM     29  N   UNL A   1      46.365  28.929  28.073  1.00  0.00    -0.354 N 
ATOM     30  N   UNL A   1      43.569  29.552  28.701  1.00  0.00    -0.248 NA
ATOM     31  C   UNL A   1      41.949  31.035  29.501  1.00  0.00     0.031 C 
ATOM     32  C   UNL A   1      47.863  30.563  28.230  1.00  0.00     0.029 A 
ATOM     33  C   UNL A   1      46.523  30.264  28.408  1.00  0.00     0.049 A 
ATOM     34  H   UNL A   1      45.513  28.435  28.102  1.00  0.00     0.167 HD
ATOM     35  C   UNL A   1      44.163  30.776  28.969  1.00  0.00     0.074 A 
ATOM     36  C   UNL A   1      43.112  31.665  29.420  1.00  0.00     0.031 C 
ATOM     37  C   UNL A   1      45.466  31.131  28.860  1.00  0.00     0.031 A 
BRANCH  24  38
ATOM     38  C   UNL A   1      49.207  26.587  27.019  1.00  0.00    -0.014 A 
ATOM     39  C   UNL A   1      50.046  26.081  28.024  1.00  0.00     0.009 A 
ATOM     40  C   UNL A   1      49.669  26.600  25.691  1.00  0.00     0.009 A 
ATOM     41  C   UNL A   1      51.324  25.611  27.706  1.00  0.00     0.001 A 
ATOM     42  C   UNL A   1      50.935  26.107  25.375  1.00  0.00     0.001 A 
ATOM     43  C   UNL A   1      51.763  25.616  26.382  1.00  0.00     0.000 A 
ENDBRANCH  24  38
BRANCH  25  44
ATOM     44  C   UNL A   1      39.793  29.075  29.264  1.00  0.00    -0.014 A 
ATOM     45  C   UNL A   1      39.311  28.827  30.558  1.00  0.00     0.009 A 
ATOM     46  C   UNL A   1      38.934  29.661  28.320  1.00  0.00     0.009 A 
ATOM     47  C   UNL A   1      37.986  29.125  30.885  1.00  0.00     0.001 A 
ATOM     48  C   UNL A   1      37.623  29.991  28.661  1.00  0.00     0.001 A 
ATOM     49  C   UNL A   1      37.145  29.710  29.940  1.00  0.00     0.000 A 
ENDBRANCH  25  44
BRANCH  37  50
ATOM     50  C   UNL A   1      45.814  32.549  29.212  1.00  0.00    -0.014 A 
ATOM     51  C   UNL A   1      45.756  33.571  28.251  1.00  0.00     0.009 A 
ATOM     52  C   UNL A   1      46.187  32.869  30.526  1.00  0.00     0.009 A 
ATOM     53  C   UNL A   1      46.103  34.879  28.592  1.00  0.00     0.001 A 
ATOM     54  C   UNL A   1      46.502  34.183  30.871  1.00  0.00     0.001 A 
ATOM     55  C   UNL A   1      46.471  35.185  29.902  1.00  0.00     0.000 A 
ENDBRANCH  37  50
ENDBRANCH  11  12
ENDBRANCH   4   6
ENDBRANCH   1   2
BRANCH   1  56
ATOM     56  C   UNL A   1      38.000  19.975  24.984  1.00  0.00     0.042 C 
BRANCH  56  57
ATOM     57  C   UNL A   1      37.221  21.244  24.684  1.00  0.00     0.118 C 
BRANCH  57  58
ATOM     58  N   UNL A   1      36.552  21.762  25.867  1.00  0.00    -0.351 N 
ATOM     59  C   UNL A   1      35.215  22.043  26.051  1.00  0.00     0.269 C 
ATOM     60  H   UNL A   1      37.133  21.936  26.643  1.00  0.00     0.163 HD
ATOM     61  O   UNL A   1      34.863  22.646  27.062  1.00  0.00    -0.268 OA
BRANCH  59  62
ATOM     62  C   UNL A   1      34.222  21.567  25.050  1.00  0.00     0.130 A 
ATOM     63  C   UNL A   1      33.727  22.471  24.117  1.00  0.00     0.034 A 
ATOM     64  N   UNL A   1      33.864  20.259  25.116  1.00  0.00    -0.226 NA
ATOM     65  C   UNL A   1      32.760  22.024  23.238  1.00  0.00     0.006 A 
ATOM     66  C   UNL A   1      32.982  19.809  24.203  1.00  0.00     0.129 A 
ATOM     67  C   UNL A   1      32.393  20.684  23.283  1.00  0.00     0.047 A 
BRANCH  66  68
ATOM     68  N   UNL A   1      32.637  18.469  24.184  1.00  0.00    -0.357 N 
ATOM     69  C   UNL A   1      32.527  17.730  25.438  1.00  0.00     0.118 C 
ATOM     70  C   UNL A   1      32.851  17.704  22.958  1.00  0.00     0.118 C 
ATOM     71  C   UNL A   1      33.670  16.732  25.605  1.00  0.00     0.022 C 
ATOM     72  C   UNL A   1      34.029  16.744  23.128  1.00  0.00     0.022 C 
ATOM     73  C   UNL A   1      33.841  15.865  24.360  1.00  0.00     0.004 C 
ENDBRANCH  66  68
ENDBRANCH  59  62
ENDBRANCH  57  58
ENDBRANCH  56  57
ENDBRANCH   1  56
TORSDOF 11
ENDMDL
MODEL 3
REMARK VINA RESULT:     -11.1      5.835     10.222
REMARK SMILES O=C(NCCCNC(=O)c1cccc(N2CCCCC2)n1)c1ccc(-c2c3nc(c(-c4ccccc4)c4ccc([nH]4)c(-c4ccccc4)c4nc(c(-c5ccccc5)c5ccc2[nH]5)C=C4)C=C3)cc1
REMARK SMILES IDX 4 1 3 2 1 3 2 4 22 6 23 7 69 8 24 9 68 10 25 11 26 12 27 13
REMARK SMILES IDX 62 14 28 15 67 16 61 17 63 18 29 19 66 20 60 21 59 22 30 24
REMARK SMILES IDX 52 25 37 26 51 27 38 28 41 29 50 30 64 31 39 32 40 33 49 35
REMARK SMILES IDX 65 36 42 37 31 38 32 39 36 40 33 41 35 42 34 43 53 44 54 45
REMARK SMILES IDX 58 46 55 47 57 48 56 49 43 50 44 51 48 52 45 53 47 54 46 55
REMARK SMILES IDX 5 56 6 57 7 58 8 59 9 61 10 62 11 63 21 64 12 65 14 66 13 67
REMARK SMILES IDX 15 68 16 69 20 70 17 71 19 72 18 73
REMARK H PARENT 3 5 63 23 41 34 7 60
REMARK Flexibility Score: inf
ROOT
ATOM      1  C   UNL A   1      32.730  32.598  26.930  1.00  0.00     0.118 C 
ENDROOT
BRANCH   1   2
ATOM      2  N   UNL A   1      32.483  33.916  27.502  1.00  0.00    -0.352 N 
ATOM      3  O   UNL A   1      32.621  35.587  29.007  1.00  0.00    -0.269 OA
ATOM      4  C   UNL A   1      33.104  34.555  28.547  1.00  0.00     0.251 C 
ATOM      5  H   UNL A   1      31.760  34.428  27.071  1.00  0.00     0.163 HD
BRANCH   4   6
ATOM      6  C   UNL A   1      34.342  33.998  29.129  1.00  0.00     0.039 A 
ATOM      7  C   UNL A   1      34.280  33.089  30.186  1.00  0.00     0.014 A 
ATOM      8  C   UNL A   1      35.581  34.361  28.591  1.00  0.00     0.014 A 
ATOM      9  C   UNL A   1      35.447  32.670  30.807  1.00  0.00     0.010 A 
ATOM     10  C   UNL A   1      36.757  33.849  29.147  1.00  0.00     0.010 A 
ATOM     11  C   UNL A   1      36.698  33.014  30.273  1.00  0.00    -0.014 A 
BRANCH  11  12
ATOM     12  C   UNL A   1      37.913  32.384  30.846  1.00  0.00     0.031 A 
ATOM     13  C   UNL A   1      38.547  32.895  32.108  1.00  0.00     0.074 A 
ATOM     14  C   UNL A   1      38.425  31.310  30.212  1.00  0.00     0.049 A 
ATOM     15  N   UNL A   1      39.596  32.434  32.741  1.00  0.00    -0.248 NA
ATOM     16  C   UNL A   1      37.936  34.076  32.741  1.00  0.00     0.031 C 
ATOM     17  C   UNL A   1      37.898  30.730  28.972  1.00  0.00     0.029 A 
ATOM     18  N   UNL A   1      39.485  30.500  30.528  1.00  0.00    -0.354 N 
ATOM     19  C   UNL A   1      39.785  33.273  33.832  1.00  0.00     0.074 A 
ATOM     20  C   UNL A   1      38.752  34.285  33.767  1.00  0.00     0.031 C 
ATOM     21  C   UNL A   1      38.599  29.632  28.664  1.00  0.00     0.029 A 
ATOM     22  C   UNL A   1      39.673  29.473  29.635  1.00  0.00     0.049 A 
ATOM     23  H   UNL A   1      40.054  30.640  31.318  1.00  0.00     0.167 HD
ATOM     24  C   UNL A   1      40.734  33.201  34.794  1.00  0.00     0.031 A 
ATOM     25  C   UNL A   1      40.623  28.522  29.581  1.00  0.00     0.031 A 
ATOM     26  C   UNL A   1      41.757  32.186  34.853  1.00  0.00     0.049 A 
ATOM     27  C   UNL A   1      41.682  28.499  30.642  1.00  0.00     0.074 A 
ATOM     28  C   UNL A   1      42.733  32.006  35.817  1.00  0.00     0.029 A 
ATOM     29  N   UNL A   1      41.940  31.190  33.907  1.00  0.00    -0.354 N 
ATOM     30  N   UNL A   1      41.811  29.269  31.695  1.00  0.00    -0.248 NA
ATOM     31  C   UNL A   1      42.727  27.476  30.506  1.00  0.00     0.031 C 
ATOM     32  C   UNL A   1      43.547  30.939  35.421  1.00  0.00     0.029 A 
ATOM     33  C   UNL A   1      43.038  30.416  34.245  1.00  0.00     0.049 A 
ATOM     34  H   UNL A   1      41.373  31.053  33.113  1.00  0.00     0.167 HD
ATOM     35  C   UNL A   1      42.943  28.815  32.355  1.00  0.00     0.074 A 
ATOM     36  C   UNL A   1      43.443  27.683  31.601  1.00  0.00     0.031 C 
ATOM     37  C   UNL A   1      43.523  29.297  33.480  1.00  0.00     0.031 A 
BRANCH  24  38
ATOM     38  C   UNL A   1      40.743  34.260  35.861  1.00  0.00    -0.014 A 
ATOM     39  C   UNL A   1      41.460  35.456  35.700  1.00  0.00     0.009 A 
ATOM     40  C   UNL A   1      39.943  34.097  37.005  1.00  0.00     0.009 A 
ATOM     41  C   UNL A   1      41.385  36.460  36.670  1.00  0.00     0.001 A 
ATOM     42  C   UNL A   1      39.851  35.111  37.959  1.00  0.00     0.001 A 
ATOM     43  C   UNL A   1      40.575  36.291  37.792  1.00  0.00     0.000 A 
ENDBRANCH  24  38
BRANCH  25  44
ATOM     44  C   UNL A   1      40.641  27.548  28.459  1.00  0.00    -0.014 A 
ATOM     45  C   UNL A   1      41.347  27.823  27.279  1.00  0.00     0.009 A 
ATOM     46  C   UNL A   1      39.931  26.340  28.560  1.00  0.00     0.009 A 
ATOM     47  C   UNL A   1      41.312  26.924  26.210  1.00  0.00     0.001 A 
ATOM     48  C   UNL A   1      39.928  25.428  27.505  1.00  0.00     0.001 A 
ATOM     49  C   UNL A   1      40.607  25.727  26.326  1.00  0.00     0.000 A 
ENDBRANCH  25  44
BRANCH  37  50
ATOM     50  C   UNL A   1      44.748  28.580  33.972  1.00  0.00    -0.014 A 
ATOM     51  C   UNL A   1      46.034  28.987  33.581  1.00  0.00     0.009 A 
ATOM     52  C   UNL A   1      44.614  27.495  34.852  1.00  0.00     0.009 A 
ATOM     53  C   UNL A   1      47.159  28.296  34.033  1.00  0.00     0.001 A 
ATOM     54  C   UNL A   1      45.742  26.827  35.327  1.00  0.00     0.001 A 
ATOM     55  C   UNL A   1      47.012  27.220  34.908  1.00  0.00     0.000 A 
ENDBRANCH  37  50
ENDBRANCH  11  12
ENDBRANCH   4   6
ENDBRANCH   1   2
BRANCH   1  56
ATOM     56  C   UNL A   1      31.452  31.800  26.728  1.00  0.00     0.042 C 
BRANCH  56  57
ATOM     57  C   UNL A   1      31.689  30.304  26.610  1.00  0.00     0.118 C 
BRANCH  57  58
ATOM     58  N   UNL A   1      32.658  29.989  25.572  1.00  0.00    -0.351 N 
ATOM     59  C   UNL A   1      32.509  29.178  24.467  1.00  0.00     0.269 C 
ATOM     60  H   UNL A   1      33.541  30.413  25.671  1.00  0.00     0.163 HD
ATOM     61  O   UNL A   1      33.497  28.889  23.798  1.00  0.00    -0.268 OA
BRANCH  59  62
ATOM     62  C   UNL A   1      31.149  28.712  24.079  1.00  0.00     0.130 A 
ATOM     63  C   UNL A   1      30.817  27.377  24.280  1.00  0.00     0.034 A 
ATOM     64  N   UNL A   1      30.312  29.640  23.548  1.00  0.00    -0.226 NA
ATOM     65  C   UNL A   1      29.573  26.953  23.855  1.00  0.00     0.006 A 
ATOM     66  C   UNL A   1      29.072  29.238  23.211  1.00  0.00     0.129 A 
ATOM     67  C   UNL A   1      28.698  27.893  23.322  1.00  0.00     0.047 A 
BRANCH  66  68
ATOM     68  N   UNL A   1      28.158  30.159  22.730  1.00  0.00    -0.357 N 
ATOM     69  C   UNL A   1      27.959  30.299  21.291  1.00  0.00     0.118 C 
ATOM     70  C   UNL A   1      27.769  31.278  23.584  1.00  0.00     0.118 C 
ATOM     71  C   UNL A   1      28.532  31.614  20.769  1.00  0.00     0.022 C 
ATOM     72  C   UNL A   1      28.391  32.579  23.074  1.00  0.00     0.022 C 
ATOM     73  C   UNL A   1      28.056  32.801  21.603  1.00  0.00     0.004 C 
ENDBRANCH  66  68
ENDBRANCH  59  62
ENDBRANCH  57  58
ENDBRANCH  56  57
ENDBRANCH   1  56
TORSDOF 11
ENDMDL
