MODEL 1
REMARK VINA RESULT:      -9.0      0.000      0.000
REMARK SMILES C[C@@H](C(=O)NCCCNC(=O)c1ccc(-c2c3nc(c(-c4ccccc4)c4ccc([nH]4)c(-c4ccccc4)c4nc(c(-c5ccccc5)c5ccc2[nH]5)C=C4)C=C3)cc1)c1ccc(C[C@H]2CCCC2=O)cc1F
REMARK SMILES IDX 6 1 5 2 3 3 4 4 2 6 1 7 60 8 61 9 72 10 62 11 71 12 73 13
REMARK SMILES IDX 63 14 64 15 65 16 66 17 69 18 67 19 68 20 70 21 7 22 8 23
REMARK SMILES IDX 9 24 10 25 11 27 12 28 13 29 59 30 14 31 58 32 15 33 16 34
REMARK SMILES IDX 17 35 52 36 18 37 57 38 51 39 53 40 19 41 56 42 50 43 49 44
REMARK SMILES IDX 20 46 42 47 27 48 41 49 28 50 31 51 40 52 54 53 29 54 30 55
REMARK SMILES IDX 39 57 55 58 32 59 21 60 22 61 26 62 23 63 25 64 24 65 43 66
REMARK SMILES IDX 44 67 48 68 45 69 47 70 46 71 33 72 34 73 38 74 35 75 37 76
REMARK SMILES IDX 36 77
REMARK H PARENT 5 5 9 26 53 45 31 56
REMARK Flexibility Score: inf
ROOT
ATOM      1  C   UNL A   1      36.981  33.650  29.918  1.00  0.00     0.117 C 
ENDROOT
BRANCH   1   2
ATOM      2  N   UNL A   1      37.188  34.511  31.068  1.00  0.00    -0.356 N 
ATOM      3  C   UNL A   1      36.877  34.327  32.385  1.00  0.00     0.227 C 
ATOM      4  O   UNL A   1      36.937  35.328  33.103  1.00  0.00    -0.274 OA
ATOM      5  H   UNL A   1      37.625  35.370  30.865  1.00  0.00     0.163 HD
BRANCH   3   6
ATOM      6  C   UNL A   1      36.517  32.924  32.914  1.00  0.00     0.108 C 
ATOM      7  C   UNL A   1      35.446  33.059  34.001  1.00  0.00     0.023 C 
BRANCH   6   8
ATOM      8  C   UNL A   1      37.751  32.116  33.338  1.00  0.00    -0.000 A 
ATOM      9  C   UNL A   1      38.905  32.789  33.784  1.00  0.00     0.008 A 
ATOM     10  C   UNL A   1      37.825  30.718  33.276  1.00  0.00     0.127 A 
ATOM     11  C   UNL A   1      40.045  32.091  34.198  1.00  0.00     0.004 A 
ATOM     12  C   UNL A   1      38.972  30.018  33.651  1.00  0.00     0.043 A 
ATOM     13  F   UNL A   1      36.793  29.983  32.842  1.00  0.00    -0.207 F 
ATOM     14  C   UNL A   1      40.100  30.697  34.114  1.00  0.00    -0.044 A 
BRANCH  14  15
ATOM     15  C   UNL A   1      41.340  29.934  34.507  1.00  0.00     0.047 C 
BRANCH  15  16
ATOM     16  C   UNL A   1      41.293  28.413  34.318  1.00  0.00     0.060 C 
ATOM     17  C   UNL A   1      42.206  27.828  33.237  1.00  0.00     0.012 C 
ATOM     18  C   UNL A   1      41.742  27.667  35.551  1.00  0.00     0.136 C 
ATOM     19  C   UNL A   1      43.457  27.330  33.952  1.00  0.00     0.009 C 
ATOM     20  C   UNL A   1      42.990  26.858  35.321  1.00  0.00     0.076 C 
ATOM     21  O   UNL A   1      41.153  27.710  36.625  1.00  0.00    -0.299 OA
ENDBRANCH  15  16
ENDBRANCH  14  15
ENDBRANCH   6   8
ENDBRANCH   3   6
ENDBRANCH   1   2
BRANCH   1  22
ATOM     22  C   UNL A   1      35.517  33.673  29.468  1.00  0.00     0.042 C 
BRANCH  22  23
ATOM     23  C   UNL A   1      35.301  33.267  28.014  1.00  0.00     0.118 C 
BRANCH  23  24
ATOM     24  N   UNL A   1      34.268  32.254  27.864  1.00  0.00    -0.352 N 
ATOM     25  C   UNL A   1      34.373  30.886  27.830  1.00  0.00     0.251 C 
ATOM     26  H   UNL A   1      33.352  32.603  27.775  1.00  0.00     0.163 HD
ATOM     27  O   UNL A   1      33.402  30.210  27.493  1.00  0.00    -0.269 OA
BRANCH  25  28
ATOM     28  C   UNL A   1      35.651  30.218  28.159  1.00  0.00     0.039 A 
ATOM     29  C   UNL A   1      36.614  30.078  27.155  1.00  0.00     0.014 A 
ATOM     30  C   UNL A   1      35.903  29.722  29.441  1.00  0.00     0.014 A 
ATOM     31  C   UNL A   1      37.861  29.529  27.460  1.00  0.00     0.010 A 
ATOM     32  C   UNL A   1      37.170  29.235  29.760  1.00  0.00     0.010 A 
ATOM     33  C   UNL A   1      38.169  29.152  28.778  1.00  0.00    -0.014 A 
BRANCH  33  34
ATOM     34  C   UNL A   1      39.546  28.749  29.160  1.00  0.00     0.031 A 
ATOM     35  C   UNL A   1      40.466  29.711  29.860  1.00  0.00     0.074 A 
ATOM     36  C   UNL A   1      39.997  27.531  28.795  1.00  0.00     0.049 A 
ATOM     37  N   UNL A   1      41.724  29.554  30.188  1.00  0.00    -0.248 NA
ATOM     38  C   UNL A   1      39.909  31.023  30.226  1.00  0.00     0.031 C 
ATOM     39  C   UNL A   1      39.216  26.518  28.078  1.00  0.00     0.029 A 
ATOM     40  N   UNL A   1      41.227  26.942  28.957  1.00  0.00    -0.354 N 
ATOM     41  C   UNL A   1      42.114  30.749  30.778  1.00  0.00     0.074 A 
ATOM     42  C   UNL A   1      40.969  31.633  30.741  1.00  0.00     0.031 C 
ATOM     43  C   UNL A   1      39.980  25.433  27.876  1.00  0.00     0.029 A 
ATOM     44  C   UNL A   1      41.317  25.690  28.398  1.00  0.00     0.049 A 
ATOM     45  H   UNL A   1      41.974  27.377  29.430  1.00  0.00     0.167 HD
ATOM     46  C   UNL A   1      43.316  31.075  31.311  1.00  0.00     0.031 A 
ATOM     47  C   UNL A   1      42.364  24.849  28.289  1.00  0.00     0.031 A 
ATOM     48  C   UNL A   1      44.451  30.190  31.359  1.00  0.00     0.049 A 
ATOM     49  C   UNL A   1      43.696  25.261  28.855  1.00  0.00     0.074 A 
ATOM     50  C   UNL A   1      45.683  30.406  31.953  1.00  0.00     0.029 A 
ATOM     51  N   UNL A   1      44.502  28.933  30.780  1.00  0.00    -0.354 N 
ATOM     52  N   UNL A   1      44.016  26.355  29.501  1.00  0.00    -0.248 NA
ATOM     53  C   UNL A   1      44.812  24.319  28.675  1.00  0.00     0.031 C 
ATOM     54  C   UNL A   1      46.502  29.309  31.673  1.00  0.00     0.029 A 
ATOM     55  C   UNL A   1      45.759  28.384  30.959  1.00  0.00     0.049 A 
ATOM     56  H   UNL A   1      43.754  28.496  30.311  1.00  0.00     0.167 HD
ATOM     57  C   UNL A   1      45.362  26.224  29.819  1.00  0.00     0.074 A 
ATOM     58  C   UNL A   1      45.790  24.934  29.322  1.00  0.00     0.031 C 
ATOM     59  C   UNL A   1      46.173  27.100  30.459  1.00  0.00     0.031 A 
BRANCH  46  60
ATOM     60  C   UNL A   1      43.491  32.455  31.880  1.00  0.00    -0.014 A 
ATOM     61  C   UNL A   1      43.383  32.693  33.259  1.00  0.00     0.009 A 
ATOM     62  C   UNL A   1      43.871  33.510  31.036  1.00  0.00     0.009 A 
ATOM     63  C   UNL A   1      43.641  33.964  33.777  1.00  0.00     0.001 A 
ATOM     64  C   UNL A   1      44.153  34.773  31.559  1.00  0.00     0.001 A 
ATOM     65  C   UNL A   1      44.034  35.000  32.929  1.00  0.00     0.000 A 
ENDBRANCH  46  60
BRANCH  47  66
ATOM     66  C   UNL A   1      42.219  23.548  27.583  1.00  0.00    -0.014 A 
ATOM     67  C   UNL A   1      41.789  22.403  28.272  1.00  0.00     0.009 A 
ATOM     68  C   UNL A   1      42.559  23.433  26.225  1.00  0.00     0.009 A 
ATOM     69  C   UNL A   1      41.744  21.164  27.626  1.00  0.00     0.001 A 
ATOM     70  C   UNL A   1      42.478  22.201  25.574  1.00  0.00     0.001 A 
ATOM     71  C   UNL A   1      42.085  21.065  26.279  1.00  0.00     0.000 A 
ENDBRANCH  47  66
BRANCH  59  72
ATOM     72  C   UNL A   1      47.601  26.686  30.673  1.00  0.00    -0.014 A 
ATOM     73  C   UNL A   1      47.984  25.973  31.820  1.00  0.00     0.009 A 
ATOM     74  C   UNL A   1      48.566  26.970  29.694  1.00  0.00     0.009 A 
ATOM     75  C   UNL A   1      49.312  25.577  31.995  1.00  0.00     0.001 A 
ATOM     76  C   UNL A   1      49.886  26.546  29.857  1.00  0.00     0.001 A 
ATOM     77  C   UNL A   1      50.259  25.857  31.010  1.00  0.00     0.000 A 
ENDBRANCH  59  72
ENDBRANCH  33  34
ENDBRANCH  25  28
ENDBRANCH  23  24
ENDBRANCH  22  23
ENDBRANCH   1  22
TORSDOF 13
ENDMDL
MODEL 2
REMARK VINA RESULT:      -8.9      4.100      9.733
REMARK SMILES C[C@@H](C(=O)NCCCNC(=O)c1ccc(-c2c3nc(c(-c4ccccc4)c4ccc([nH]4)c(-c4ccccc4)c4nc(c(-c5ccccc5)c5ccc2[nH]5)C=C4)C=C3)cc1)c1ccc(C[C@H]2CCCC2=O)cc1F
REMARK SMILES IDX 6 1 5 2 3 3 4 4 2 6 1 7 60 8 61 9 72 10 62 11 71 12 73 13
REMARK SMILES IDX 63 14 64 15 65 16 66 17 69 18 67 19 68 20 70 21 7 22 8 23
REMARK SMILES IDX 9 24 10 25 11 27 12 28 13 29 59 30 14 31 58 32 15 33 16 34
REMARK SMILES IDX 17 35 52 36 18 37 57 38 51 39 53 40 19 41 56 42 50 43 49 44
REMARK SMILES IDX 20 46 42 47 27 48 41 49 28 50 31 51 40 52 54 53 29 54 30 55
REMARK SMILES IDX 39 57 55 58 32 59 21 60 22 61 26 62 23 63 25 64 24 65 43 66
REMARK SMILES IDX 44 67 48 68 45 69 47 70 46 71 33 72 34 73 38 74 35 75 37 76
REMARK SMILES IDX 36 77
REMARK H PARENT 5 5 9 26 53 45 31 56
REMARK Flexibility Score: inf
ROOT
ATOM      1  C   UNL A   1      36.608  21.546  24.673  1.00  0.00     0.117 C 
ENDROOT
BRANCH   1   2
ATOM      2  N   UNL A   1      35.218  21.127  24.661  1.00  0.00    -0.356 N 
ATOM      3  C   UNL A   1      34.195  21.415  25.518  1.00  0.00     0.227 C 
ATOM      4  O   UNL A   1      33.182  20.721  25.409  1.00  0.00    -0.274 OA
ATOM      5  H   UNL A   1      34.974  20.537  23.911  1.00  0.00     0.163 HD
BRANCH   3   6
ATOM      6  C   UNL A   1      34.321  22.580  26.522  1.00  0.00     0.108 C 
ATOM      7  C   UNL A   1      33.959  22.074  27.921  1.00  0.00     0.023 C 
BRANCH   6   8
ATOM      8  C   UNL A   1      33.548  23.830  26.080  1.00  0.00    -0.000 A 
ATOM      9  C   UNL A   1      32.269  24.082  26.614  1.00  0.00     0.008 A 
ATOM     10  C   UNL A   1      34.023  24.743  25.131  1.00  0.00     0.127 A 
ATOM     11  C   UNL A   1      31.538  25.219  26.254  1.00  0.00     0.004 A 
ATOM     12  C   UNL A   1      33.283  25.859  24.739  1.00  0.00     0.043 A 
ATOM     13  F   UNL A   1      35.216  24.583  24.542  1.00  0.00    -0.207 F 
ATOM     14  C   UNL A   1      32.027  26.110  25.293  1.00  0.00    -0.044 A 
BRANCH  14  15
ATOM     15  C   UNL A   1      31.227  27.313  24.857  1.00  0.00     0.047 C 
BRANCH  15  16
ATOM     16  C   UNL A   1      31.608  28.652  25.499  1.00  0.00     0.060 C 
ATOM     17  C   UNL A   1      31.725  28.671  27.026  1.00  0.00     0.012 C 
ATOM     18  C   UNL A   1      32.976  29.125  25.069  1.00  0.00     0.136 C 
ATOM     19  C   UNL A   1      33.208  28.516  27.346  1.00  0.00     0.009 C 
ATOM     20  C   UNL A   1      33.951  29.207  26.213  1.00  0.00     0.076 C 
ATOM     21  O   UNL A   1      33.263  29.418  23.914  1.00  0.00    -0.299 OA
ENDBRANCH  15  16
ENDBRANCH  14  15
ENDBRANCH   6   8
ENDBRANCH   3   6
ENDBRANCH   1   2
BRANCH   1  22
ATOM     22  C   UNL A   1      37.538  20.362  24.954  1.00  0.00     0.042 C 
BRANCH  22  23
ATOM     23  C   UNL A   1      38.807  20.728  25.718  1.00  0.00     0.118 C 
BRANCH  23  24
ATOM     24  N   UNL A   1      39.777  19.645  25.743  1.00  0.00    -0.352 N 
ATOM     25  C   UNL A   1      41.120  19.670  26.025  1.00  0.00     0.251 C 
ATOM     26  H   UNL A   1      39.415  18.755  25.527  1.00  0.00     0.163 HD
ATOM     27  O   UNL A   1      41.809  18.676  25.796  1.00  0.00    -0.269 OA
BRANCH  25  28
ATOM     28  C   UNL A   1      41.756  20.891  26.567  1.00  0.00     0.039 A 
ATOM     29  C   UNL A   1      42.345  21.793  25.677  1.00  0.00     0.014 A 
ATOM     30  C   UNL A   1      41.781  21.148  27.940  1.00  0.00     0.014 A 
ATOM     31  C   UNL A   1      42.877  22.993  26.154  1.00  0.00     0.010 A 
ATOM     32  C   UNL A   1      42.252  22.375  28.408  1.00  0.00     0.010 A 
ATOM     33  C   UNL A   1      42.785  23.319  27.517  1.00  0.00    -0.014 A 
BRANCH  33  34
ATOM     34  C   UNL A   1      43.166  24.666  28.013  1.00  0.00     0.031 A 
ATOM     35  C   UNL A   1      42.122  25.719  28.266  1.00  0.00     0.074 A 
ATOM     36  C   UNL A   1      44.473  24.966  28.154  1.00  0.00     0.049 A 
ATOM     37  N   UNL A   1      42.286  26.971  28.616  1.00  0.00    -0.248 NA
ATOM     38  C   UNL A   1      40.716  25.324  28.089  1.00  0.00     0.031 C 
ATOM     39  C   UNL A   1      45.586  24.045  27.904  1.00  0.00     0.029 A 
ATOM     40  N   UNL A   1      45.092  26.136  28.522  1.00  0.00    -0.354 N 
ATOM     41  C   UNL A   1      41.010  27.516  28.682  1.00  0.00     0.074 A 
ATOM     42  C   UNL A   1      40.083  26.469  28.311  1.00  0.00     0.031 C 
ATOM     43  C   UNL A   1      46.746  24.680  28.138  1.00  0.00     0.029 A 
ATOM     44  C   UNL A   1      46.465  26.063  28.502  1.00  0.00     0.049 A 
ATOM     45  H   UNL A   1      44.599  26.949  28.777  1.00  0.00     0.167 HD
ATOM     46  C   UNL A   1      40.646  28.773  29.029  1.00  0.00     0.031 A 
ATOM     47  C   UNL A   1      47.398  27.010  28.723  1.00  0.00     0.031 A 
ATOM     48  C   UNL A   1      41.568  29.811  29.410  1.00  0.00     0.049 A 
ATOM     49  C   UNL A   1      46.958  28.407  29.066  1.00  0.00     0.074 A 
ATOM     50  C   UNL A   1      41.284  31.089  29.858  1.00  0.00     0.029 A 
ATOM     51  N   UNL A   1      42.948  29.697  29.375  1.00  0.00    -0.354 N 
ATOM     52  N   UNL A   1      45.745  28.875  29.223  1.00  0.00    -0.248 NA
ATOM     53  C   UNL A   1      48.020  29.406  29.260  1.00  0.00     0.031 C 
ATOM     54  C   UNL A   1      42.491  31.773  30.026  1.00  0.00     0.029 A 
ATOM     55  C   UNL A   1      43.528  30.899  29.743  1.00  0.00     0.049 A 
ATOM     56  H   UNL A   1      43.442  28.883  29.125  1.00  0.00     0.167 HD
ATOM     57  C   UNL A   1      45.898  30.215  29.553  1.00  0.00     0.074 A 
ATOM     58  C   UNL A   1      47.321  30.478  29.602  1.00  0.00     0.031 C 
ATOM     59  C   UNL A   1      44.944  31.148  29.786  1.00  0.00     0.031 A 
BRANCH  46  60
ATOM     60  C   UNL A   1      39.185  29.122  29.005  1.00  0.00    -0.014 A 
ATOM     61  C   UNL A   1      38.566  29.587  27.834  1.00  0.00     0.009 A 
ATOM     62  C   UNL A   1      38.395  28.882  30.141  1.00  0.00     0.009 A 
ATOM     63  C   UNL A   1      37.188  29.815  27.807  1.00  0.00     0.001 A 
ATOM     64  C   UNL A   1      37.015  29.088  30.105  1.00  0.00     0.001 A 
ATOM     65  C   UNL A   1      36.414  29.558  28.938  1.00  0.00     0.000 A 
ENDBRANCH  46  60
BRANCH  47  66
ATOM     66  C   UNL A   1      48.845  26.691  28.590  1.00  0.00    -0.014 A 
ATOM     67  C   UNL A   1      49.610  26.347  29.716  1.00  0.00     0.009 A 
ATOM     68  C   UNL A   1      49.481  26.777  27.341  1.00  0.00     0.009 A 
ATOM     69  C   UNL A   1      50.986  26.138  29.599  1.00  0.00     0.001 A 
ATOM     70  C   UNL A   1      50.851  26.533  27.222  1.00  0.00     0.001 A 
ATOM     71  C   UNL A   1      51.605  26.229  28.354  1.00  0.00     0.000 A 
ENDBRANCH  47  66
BRANCH  59  72
ATOM     72  C   UNL A   1      45.406  32.536  30.131  1.00  0.00    -0.014 A 
ATOM     73  C   UNL A   1      45.686  32.896  31.459  1.00  0.00     0.009 A 
ATOM     74  C   UNL A   1      45.612  33.478  29.111  1.00  0.00     0.009 A 
ATOM     75  C   UNL A   1      46.135  34.184  31.761  1.00  0.00     0.001 A 
ATOM     76  C   UNL A   1      46.090  34.754  29.413  1.00  0.00     0.001 A 
ATOM     77  C   UNL A   1      46.343  35.108  30.738  1.00  0.00     0.000 A 
ENDBRANCH  59  72
ENDBRANCH  33  34
ENDBRANCH  25  28
ENDBRANCH  23  24
ENDBRANCH  22  23
ENDBRANCH   1  22
TORSDOF 13
ENDMDL
MODEL 3
REMARK VINA RESULT:      -8.9      3.426      9.528
REMARK SMILES C[C@@H](C(=O)NCCCNC(=O)c1ccc(-c2c3nc(c(-c4ccccc4)c4ccc([nH]4)c(-c4ccccc4)c4nc(c(-c5ccccc5)c5ccc2[nH]5)C=C4)C=C3)cc1)c1ccc(C[C@H]2CCCC2=O)cc1F
REMARK SMILES IDX 6 1 5 2 3 3 4 4 2 6 1 7 60 8 61 9 72 10 62 11 71 12 73 13
REMARK SMILES IDX 63 14 64 15 65 16 66 17 69 18 67 19 68 20 70 21 7 22 8 23
REMARK SMILES IDX 9 24 10 25 11 27 12 28 13 29 59 30 14 31 58 32 15 33 16 34
REMARK SMILES IDX 17 35 52 36 18 37 57 38 51 39 53 40 19 41 56 42 50 43 49 44
REMARK SMILES IDX 20 46 42 47 27 48 41 49 28 50 31 51 40 52 54 53 29 54 30 55
REMARK SMILES IDX 39 57 55 58 32 59 21 60 22 61 26 62 23 63 25 64 24 65 43 66
REMARK SMILES IDX 44 67 48 68 45 69 47 70 46 71 33 72 34 73 38 74 35 75 37 76
REMARK SMILES IDX 36 77
REMARK H PARENT 5 5 9 26 53 45 31 56
REMARK Flexibility Score: inf
ROOT
ATOM      1  C   UNL A   1      42.938  22.814  28.350  1.00  0.00     0.117 C 
ENDROOT
BRANCH   1   2
ATOM      2  N   UNL A   1      44.368  22.874  28.104  1.00  0.00    -0.356 N 
ATOM      3  C   UNL A   1      45.068  23.372  27.043  1.00  0.00     0.227 C 
ATOM      4  O   UNL A   1      46.260  23.063  26.983  1.00  0.00    -0.274 OA
ATOM      5  H   UNL A   1      44.924  22.491  28.820  1.00  0.00     0.163 HD
BRANCH   3   6
ATOM      6  C   UNL A   1      44.382  24.302  26.021  1.00  0.00     0.108 C 
ATOM      7  C   UNL A   1      44.740  23.841  24.605  1.00  0.00     0.023 C 
BRANCH   6   8
ATOM      8  C   UNL A   1      44.657  25.787  26.293  1.00  0.00    -0.000 A 
ATOM      9  C   UNL A   1      45.675  26.153  27.193  1.00  0.00     0.008 A 
ATOM     10  C   UNL A   1      43.922  26.833  25.718  1.00  0.00     0.127 A 
ATOM     11  C   UNL A   1      45.973  27.495  27.455  1.00  0.00     0.004 A 
ATOM     12  C   UNL A   1      44.187  28.172  26.005  1.00  0.00     0.043 A 
ATOM     13  F   UNL A   1      42.914  26.593  24.868  1.00  0.00    -0.207 F 
ATOM     14  C   UNL A   1      45.216  28.521  26.881  1.00  0.00    -0.044 A 
BRANCH  14  15
ATOM     15  C   UNL A   1      45.491  29.971  27.194  1.00  0.00     0.047 C 
BRANCH  15  16
ATOM     16  C   UNL A   1      44.320  30.942  27.005  1.00  0.00     0.060 C 
ATOM     17  C   UNL A   1      43.608  31.412  28.276  1.00  0.00     0.012 C 
ATOM     18  C   UNL A   1      44.752  32.247  26.381  1.00  0.00     0.136 C 
ATOM     19  C   UNL A   1      44.200  32.773  28.624  1.00  0.00     0.009 C 
ATOM     20  C   UNL A   1      44.545  33.426  27.294  1.00  0.00     0.076 C 
ATOM     21  O   UNL A   1      45.217  32.341  25.251  1.00  0.00    -0.299 OA
ENDBRANCH  15  16
ENDBRANCH  14  15
ENDBRANCH   6   8
ENDBRANCH   3   6
ENDBRANCH   1   2
BRANCH   1  22
ATOM     22  C   UNL A   1      42.277  21.728  27.498  1.00  0.00     0.042 C 
BRANCH  22  23
ATOM     23  C   UNL A   1      41.820  22.201  26.121  1.00  0.00     0.118 C 
BRANCH  23  24
ATOM     24  N   UNL A   1      40.404  21.961  25.889  1.00  0.00    -0.352 N 
ATOM     25  C   UNL A   1      39.312  22.707  26.254  1.00  0.00     0.251 C 
ATOM     26  H   UNL A   1      40.197  21.136  25.392  1.00  0.00     0.163 HD
ATOM     27  O   UNL A   1      38.183  22.231  26.139  1.00  0.00    -0.269 OA
BRANCH  25  28
ATOM     28  C   UNL A   1      39.479  24.065  26.818  1.00  0.00     0.039 A 
ATOM     29  C   UNL A   1      38.979  24.327  28.096  1.00  0.00     0.014 A 
ATOM     30  C   UNL A   1      40.114  25.078  26.095  1.00  0.00     0.014 A 
ATOM     31  C   UNL A   1      39.198  25.574  28.686  1.00  0.00     0.010 A 
ATOM     32  C   UNL A   1      40.390  26.300  26.710  1.00  0.00     0.010 A 
ATOM     33  C   UNL A   1      39.953  26.553  28.019  1.00  0.00    -0.014 A 
BRANCH  33  34
ATOM     34  C   UNL A   1      40.361  27.807  28.702  1.00  0.00     0.031 A 
ATOM     35  C   UNL A   1      41.696  27.914  29.387  1.00  0.00     0.074 A 
ATOM     36  C   UNL A   1      39.482  28.827  28.777  1.00  0.00     0.049 A 
ATOM     37  N   UNL A   1      42.175  28.901  30.103  1.00  0.00    -0.248 NA
ATOM     38  C   UNL A   1      42.603  26.762  29.268  1.00  0.00     0.031 C 
ATOM     39  C   UNL A   1      38.140  28.835  28.187  1.00  0.00     0.029 A 
ATOM     40  N   UNL A   1      39.574  30.049  29.396  1.00  0.00    -0.354 N 
ATOM     41  C   UNL A   1      43.427  28.483  30.534  1.00  0.00     0.074 A 
ATOM     42  C   UNL A   1      43.625  27.143  30.024  1.00  0.00     0.031 C 
ATOM     43  C   UNL A   1      37.543  30.006  28.462  1.00  0.00     0.029 A 
ATOM     44  C   UNL A   1      38.434  30.810  29.289  1.00  0.00     0.049 A 
ATOM     45  H   UNL A   1      40.382  30.352  29.872  1.00  0.00     0.167 HD
ATOM     46  C   UNL A   1      44.332  29.159  31.281  1.00  0.00     0.031 A 
ATOM     47  C   UNL A   1      38.124  32.009  29.820  1.00  0.00     0.031 A 
ATOM     48  C   UNL A   1      44.140  30.497  31.777  1.00  0.00     0.049 A 
ATOM     49  C   UNL A   1      39.138  32.713  30.680  1.00  0.00     0.074 A 
ATOM     50  C   UNL A   1      45.036  31.291  32.471  1.00  0.00     0.029 A 
ATOM     51  N   UNL A   1      42.972  31.230  31.649  1.00  0.00    -0.354 N 
ATOM     52  N   UNL A   1      40.356  32.345  30.990  1.00  0.00    -0.248 NA
ATOM     53  C   UNL A   1      38.731  34.002  31.262  1.00  0.00     0.031 C 
ATOM     54  C   UNL A   1      44.387  32.477  32.824  1.00  0.00     0.029 A 
ATOM     55  C   UNL A   1      43.107  32.446  32.295  1.00  0.00     0.049 A 
ATOM     56  H   UNL A   1      42.166  30.930  31.170  1.00  0.00     0.167 HD
ATOM     57  C   UNL A   1      40.866  33.362  31.787  1.00  0.00     0.074 A 
ATOM     58  C   UNL A   1      39.837  34.375  31.887  1.00  0.00     0.031 C 
ATOM     59  C   UNL A   1      42.076  33.445  32.389  1.00  0.00     0.031 A 
BRANCH  46  60
ATOM     60  C   UNL A   1      45.621  28.471  31.630  1.00  0.00    -0.014 A 
ATOM     61  C   UNL A   1      46.754  28.585  30.810  1.00  0.00     0.009 A 
ATOM     62  C   UNL A   1      45.733  27.785  32.851  1.00  0.00     0.009 A 
ATOM     63  C   UNL A   1      47.969  28.016  31.200  1.00  0.00     0.001 A 
ATOM     64  C   UNL A   1      46.953  27.239  33.251  1.00  0.00     0.001 A 
ATOM     65  C   UNL A   1      48.069  27.351  32.423  1.00  0.00     0.000 A 
ENDBRANCH  46  60
BRANCH  47  66
ATOM     66  C   UNL A   1      36.783  32.611  29.596  1.00  0.00    -0.014 A 
ATOM     67  C   UNL A   1      36.526  33.382  28.451  1.00  0.00     0.009 A 
ATOM     68  C   UNL A   1      35.766  32.460  30.552  1.00  0.00     0.009 A 
ATOM     69  C   UNL A   1      35.294  34.021  28.290  1.00  0.00     0.001 A 
ATOM     70  C   UNL A   1      34.523  33.071  30.371  1.00  0.00     0.001 A 
ATOM     71  C   UNL A   1      34.294  33.864  29.248  1.00  0.00     0.000 A 
ENDBRANCH  47  66
BRANCH  59  72
ATOM     72  C   UNL A   1      42.361  34.679  33.197  1.00  0.00    -0.014 A 
ATOM     73  C   UNL A   1      43.032  35.775  32.632  1.00  0.00     0.009 A 
ATOM     74  C   UNL A   1      41.911  34.767  34.523  1.00  0.00     0.009 A 
ATOM     75  C   UNL A   1      43.271  36.924  33.389  1.00  0.00     0.001 A 
ATOM     76  C   UNL A   1      42.124  35.928  35.268  1.00  0.00     0.001 A 
ATOM     77  C   UNL A   1      42.810  37.002  34.703  1.00  0.00     0.000 A 
ENDBRANCH  59  72
ENDBRANCH  33  34
ENDBRANCH  25  28
ENDBRANCH  23  24
ENDBRANCH  22  23
ENDBRANCH   1  22
TORSDOF 13
ENDMDL
