MODEL 1
REMARK VINA RESULT:     -11.8      0.000      0.000
REMARK SMILES O=C(NCCCNC(=O)[C@@H]1[C@H](C(=O)Nc2ccccc2OC(F)F)[C@@H]2C=C[C@H]1C2)c1ccc(-c2c3nc(c(-c4ccccc4)c4ccc([nH]4)c(-c4ccccc4)c4nc(c(-c5ccccc5)c5ccc2[nH]5)C=C4)C=C3)cc1
REMARK SMILES IDX 6 1 5 2 4 3 3 4 1 5 2 6 30 8 31 9 77 10 32 11 76 12 33 13
REMARK SMILES IDX 34 14 35 15 70 16 36 17 75 18 69 19 71 20 37 21 74 22 68 23
REMARK SMILES IDX 67 24 38 26 60 27 45 28 59 29 46 30 49 31 58 32 72 33 47 34
REMARK SMILES IDX 48 35 57 37 73 38 50 39 39 40 40 41 44 42 41 43 43 44 42 45
REMARK SMILES IDX 61 46 62 47 66 48 63 49 65 50 64 51 51 52 52 53 56 54 53 55
REMARK SMILES IDX 55 56 54 57 7 58 8 59 9 61 10 62 11 63 28 64 25 65 27 66
REMARK SMILES IDX 29 67 26 68 12 69 13 70 14 71 15 73 16 74 20 75 17 76 19 77
REMARK SMILES IDX 18 78 21 79 22 80 23 81 24 82
REMARK H PARENT 3 7 71 25 49 36 7 60 14 72
REMARK Flexibility Score: inf
ROOT
ATOM      1  C   UNL A   1      32.035  28.225  27.694  1.00  0.00     0.117 C 
ENDROOT
BRANCH   1   2
ATOM      2  C   UNL A   1      32.164  29.729  27.261  1.00  0.00     0.042 C 
BRANCH   2   3
ATOM      3  C   UNL A   1      33.500  30.393  26.895  1.00  0.00     0.118 C 
BRANCH   3   4
ATOM      4  N   UNL A   1      34.007  31.189  28.024  1.00  0.00    -0.352 N 
ATOM      5  O   UNL A   1      34.938  31.782  29.953  1.00  0.00    -0.269 OA
ATOM      6  C   UNL A   1      35.021  31.058  28.940  1.00  0.00     0.251 C 
ATOM      7  H   UNL A   1      33.493  32.018  28.155  1.00  0.00     0.163 HD
BRANCH   6   8
ATOM      8  C   UNL A   1      36.226  30.185  28.825  1.00  0.00     0.039 A 
ATOM      9  C   UNL A   1      36.993  30.085  27.666  1.00  0.00     0.014 A 
ATOM     10  C   UNL A   1      36.730  29.577  29.997  1.00  0.00     0.014 A 
ATOM     11  C   UNL A   1      38.203  29.370  27.670  1.00  0.00     0.010 A 
ATOM     12  C   UNL A   1      37.977  28.922  30.020  1.00  0.00     0.010 A 
ATOM     13  C   UNL A   1      38.739  28.821  28.852  1.00  0.00    -0.014 A 
BRANCH  13  14
ATOM     14  C   UNL A   1      40.146  28.307  28.847  1.00  0.00     0.031 A 
ATOM     15  C   UNL A   1      40.496  26.891  28.473  1.00  0.00     0.074 A 
ATOM     16  C   UNL A   1      41.143  29.167  29.150  1.00  0.00     0.049 A 
ATOM     17  N   UNL A   1      41.682  26.356  28.297  1.00  0.00    -0.248 NA
ATOM     18  C   UNL A   1      39.384  25.952  28.278  1.00  0.00     0.031 C 
ATOM     19  C   UNL A   1      40.951  30.551  29.592  1.00  0.00     0.029 A 
ATOM     20  N   UNL A   1      42.510  29.028  29.097  1.00  0.00    -0.354 N 
ATOM     21  C   UNL A   1      41.461  25.023  27.971  1.00  0.00     0.074 A 
ATOM     22  C   UNL A   1      40.027  24.822  28.006  1.00  0.00     0.031 C 
ATOM     23  C   UNL A   1      42.145  31.156  29.684  1.00  0.00     0.029 A 
ATOM     24  C   UNL A   1      43.191  30.192  29.366  1.00  0.00     0.049 A 
ATOM     25  H   UNL A   1      42.958  28.177  28.884  1.00  0.00     0.167 HD
ATOM     26  C   UNL A   1      42.365  24.057  27.665  1.00  0.00     0.031 A 
ATOM     27  C   UNL A   1      44.510  30.468  29.357  1.00  0.00     0.031 A 
ATOM     28  C   UNL A   1      43.795  24.244  27.648  1.00  0.00     0.049 A 
ATOM     29  C   UNL A   1      45.486  29.386  29.000  1.00  0.00     0.074 A 
ATOM     30  C   UNL A   1      44.784  23.322  27.342  1.00  0.00     0.029 A 
ATOM     31  N   UNL A   1      44.444  25.431  27.952  1.00  0.00    -0.354 N 
ATOM     32  N   UNL A   1      45.248  28.145  28.649  1.00  0.00    -0.248 NA
ATOM     33  C   UNL A   1      46.911  29.744  29.036  1.00  0.00     0.031 C 
ATOM     34  C   UNL A   1      46.030  23.940  27.499  1.00  0.00     0.029 A 
ATOM     35  C   UNL A   1      45.816  25.262  27.853  1.00  0.00     0.049 A 
ATOM     36  H   UNL A   1      43.994  26.271  28.203  1.00  0.00     0.167 HD
ATOM     37  C   UNL A   1      46.492  27.574  28.425  1.00  0.00     0.074 A 
ATOM     38  C   UNL A   1      47.480  28.610  28.636  1.00  0.00     0.031 C 
ATOM     39  C   UNL A   1      46.791  26.296  28.084  1.00  0.00     0.031 A 
BRANCH  26  40
ATOM     40  C   UNL A   1      41.834  22.690  27.325  1.00  0.00    -0.014 A 
ATOM     41  C   UNL A   1      41.471  22.361  26.009  1.00  0.00     0.009 A 
ATOM     42  C   UNL A   1      41.753  21.699  28.316  1.00  0.00     0.009 A 
ATOM     43  C   UNL A   1      41.012  21.079  25.699  1.00  0.00     0.001 A 
ATOM     44  C   UNL A   1      41.317  20.410  27.999  1.00  0.00     0.001 A 
ATOM     45  C   UNL A   1      40.939  20.103  26.693  1.00  0.00     0.000 A 
ENDBRANCH  26  40
BRANCH  27  46
ATOM     46  C   UNL A   1      44.985  31.834  29.705  1.00  0.00    -0.014 A 
ATOM     47  C   UNL A   1      45.202  32.799  28.710  1.00  0.00     0.009 A 
ATOM     48  C   UNL A   1      45.221  32.179  31.046  1.00  0.00     0.009 A 
ATOM     49  C   UNL A   1      45.664  34.073  29.048  1.00  0.00     0.001 A 
ATOM     50  C   UNL A   1      45.650  33.464  31.384  1.00  0.00     0.001 A 
ATOM     51  C   UNL A   1      45.881  34.407  30.385  1.00  0.00     0.000 A 
ENDBRANCH  27  46
BRANCH  39  52
ATOM     52  C   UNL A   1      48.245  25.963  27.919  1.00  0.00    -0.014 A 
ATOM     53  C   UNL A   1      49.021  25.541  29.011  1.00  0.00     0.009 A 
ATOM     54  C   UNL A   1      48.850  26.072  26.657  1.00  0.00     0.009 A 
ATOM     55  C   UNL A   1      50.382  25.276  28.851  1.00  0.00     0.001 A 
ATOM     56  C   UNL A   1      50.205  25.782  26.494  1.00  0.00     0.001 A 
ATOM     57  C   UNL A   1      50.973  25.395  27.593  1.00  0.00     0.000 A 
ENDBRANCH  39  52
ENDBRANCH  13  14
ENDBRANCH   6   8
ENDBRANCH   3   4
ENDBRANCH   2   3
ENDBRANCH   1   2
BRANCH   1  58
ATOM     58  N   UNL A   1      31.173  27.152  27.056  1.00  0.00    -0.356 N 
ATOM     59  C   UNL A   1      30.726  26.423  26.000  1.00  0.00     0.224 C 
ATOM     60  H   UNL A   1      30.663  26.788  27.815  1.00  0.00     0.163 HD
ATOM     61  O   UNL A   1      30.102  25.457  26.510  1.00  0.00    -0.275 OA
BRANCH  59  62
ATOM     62  C   UNL A   1      30.869  26.339  24.367  1.00  0.00     0.098 C 
ATOM     63  C   UNL A   1      31.858  25.994  23.084  1.00  0.00     0.099 C 
ATOM     64  C   UNL A   1      30.411  27.790  23.870  1.00  0.00     0.025 C 
ATOM     65  C   UNL A   1      31.734  27.259  22.170  1.00  0.00     0.025 C 
ATOM     66  C   UNL A   1      31.606  28.723  23.914  1.00  0.00    -0.027 C 
ATOM     67  C   UNL A   1      30.280  27.638  22.354  1.00  0.00     0.017 C 
ATOM     68  C   UNL A   1      32.389  28.417  22.872  1.00  0.00    -0.027 C 
BRANCH  63  69
ATOM     69  C   UNL A   1      33.290  25.497  22.682  1.00  0.00     0.229 C 
ATOM     70  O   UNL A   1      33.749  25.859  21.587  1.00  0.00    -0.274 OA
ATOM     71  N   UNL A   1      34.147  24.786  23.462  1.00  0.00    -0.323 N 
ATOM     72  H   UNL A   1      35.097  24.798  23.202  1.00  0.00     0.170 HD
BRANCH  71  73
ATOM     73  C   UNL A   1      33.820  24.048  24.583  1.00  0.00     0.084 A 
ATOM     74  C   UNL A   1      33.868  24.652  25.845  1.00  0.00     0.030 A 
ATOM     75  C   UNL A   1      33.322  22.778  24.428  1.00  0.00     0.149 A 
ATOM     76  C   UNL A   1      33.185  24.075  26.918  1.00  0.00     0.002 A 
ATOM     77  C   UNL A   1      32.624  22.218  25.513  1.00  0.00     0.049 A 
ATOM     78  C   UNL A   1      32.514  22.875  26.736  1.00  0.00     0.004 A 
BRANCH  75  79
ATOM     79  O   UNL A   1      33.327  22.125  23.226  1.00  0.00    -0.433 OA
BRANCH  79  80
ATOM     80  C   UNL A   1      32.211  21.914  22.345  1.00  0.00     0.542 C 
ATOM     81  F   UNL A   1      31.812  20.626  22.376  1.00  0.00    -0.167 F 
ATOM     82  F   UNL A   1      31.186  22.668  22.841  1.00  0.00    -0.167 F 
ENDBRANCH  79  80
ENDBRANCH  75  79
ENDBRANCH  71  73
ENDBRANCH  63  69
ENDBRANCH  59  62
ENDBRANCH   1  58
TORSDOF 14
ENDMDL
MODEL 2
REMARK VINA RESULT:     -11.8      3.974      8.843
REMARK SMILES O=C(NCCCNC(=O)[C@@H]1[C@H](C(=O)Nc2ccccc2OC(F)F)[C@@H]2C=C[C@H]1C2)c1ccc(-c2c3nc(c(-c4ccccc4)c4ccc([nH]4)c(-c4ccccc4)c4nc(c(-c5ccccc5)c5ccc2[nH]5)C=C4)C=C3)cc1
REMARK SMILES IDX 6 1 5 2 4 3 3 4 1 5 2 6 30 8 31 9 77 10 32 11 76 12 33 13
REMARK SMILES IDX 34 14 35 15 70 16 36 17 75 18 69 19 71 20 37 21 74 22 68 23
REMARK SMILES IDX 67 24 38 26 60 27 45 28 59 29 46 30 49 31 58 32 72 33 47 34
REMARK SMILES IDX 48 35 57 37 73 38 50 39 39 40 40 41 44 42 41 43 43 44 42 45
REMARK SMILES IDX 61 46 62 47 66 48 63 49 65 50 64 51 51 52 52 53 56 54 53 55
REMARK SMILES IDX 55 56 54 57 7 58 8 59 9 61 10 62 11 63 28 64 25 65 27 66
REMARK SMILES IDX 29 67 26 68 12 69 13 70 14 71 15 73 16 74 20 75 17 76 19 77
REMARK SMILES IDX 18 78 21 79 22 80 23 81 24 82
REMARK H PARENT 3 7 71 25 49 36 7 60 14 72
REMARK Flexibility Score: inf
ROOT
ATOM      1  C   UNL A   1      36.301  20.390  25.010  1.00  0.00     0.117 C 
ENDROOT
BRANCH   1   2
ATOM      2  C   UNL A   1      37.762  20.964  25.001  1.00  0.00     0.042 C 
BRANCH   2   3
ATOM      3  C   UNL A   1      38.153  22.295  25.658  1.00  0.00     0.118 C 
BRANCH   3   4
ATOM      4  N   UNL A   1      39.604  22.344  25.900  1.00  0.00    -0.352 N 
ATOM      5  O   UNL A   1      41.707  23.049  26.056  1.00  0.00    -0.269 OA
ATOM      6  C   UNL A   1      40.505  23.312  26.270  1.00  0.00     0.251 C 
ATOM      7  H   UNL A   1      40.034  21.469  25.762  1.00  0.00     0.163 HD
BRANCH   6   8
ATOM      8  C   UNL A   1      40.202  24.610  26.941  1.00  0.00     0.039 A 
ATOM      9  C   UNL A   1      39.400  24.718  28.075  1.00  0.00     0.014 A 
ATOM     10  C   UNL A   1      40.912  25.761  26.529  1.00  0.00     0.014 A 
ATOM     11  C   UNL A   1      39.282  25.945  28.751  1.00  0.00     0.010 A 
ATOM     12  C   UNL A   1      40.850  26.971  27.248  1.00  0.00     0.010 A 
ATOM     13  C   UNL A   1      40.039  27.074  28.382  1.00  0.00    -0.014 A 
BRANCH  13  14
ATOM     14  C   UNL A   1      40.071  28.262  29.294  1.00  0.00     0.031 A 
ATOM     15  C   UNL A   1      39.026  29.346  29.257  1.00  0.00     0.074 A 
ATOM     16  C   UNL A   1      41.057  28.337  30.214  1.00  0.00     0.049 A 
ATOM     17  N   UNL A   1      38.862  30.357  30.079  1.00  0.00    -0.248 NA
ATOM     18  C   UNL A   1      38.048  29.303  28.163  1.00  0.00     0.031 C 
ATOM     19  C   UNL A   1      42.172  27.394  30.326  1.00  0.00     0.029 A 
ATOM     20  N   UNL A   1      41.265  29.215  31.252  1.00  0.00    -0.354 N 
ATOM     21  C   UNL A   1      37.765  31.067  29.604  1.00  0.00     0.074 A 
ATOM     22  C   UNL A   1      37.323  30.389  28.402  1.00  0.00     0.031 C 
ATOM     23  C   UNL A   1      42.893  27.688  31.418  1.00  0.00     0.029 A 
ATOM     24  C   UNL A   1      42.330  28.873  32.053  1.00  0.00     0.049 A 
ATOM     25  H   UNL A   1      40.705  30.009  31.408  1.00  0.00     0.167 HD
ATOM     26  C   UNL A   1      37.175  32.174  30.121  1.00  0.00     0.031 A 
ATOM     27  C   UNL A   1      42.808  29.439  33.179  1.00  0.00     0.031 A 
ATOM     28  C   UNL A   1      37.620  32.868  31.305  1.00  0.00     0.049 A 
ATOM     29  C   UNL A   1      42.127  30.654  33.738  1.00  0.00     0.074 A 
ATOM     30  C   UNL A   1      37.077  33.994  31.905  1.00  0.00     0.029 A 
ATOM     31  N   UNL A   1      38.717  32.504  32.071  1.00  0.00    -0.354 N 
ATOM     32  N   UNL A   1      41.062  31.278  33.296  1.00  0.00    -0.248 NA
ATOM     33  C   UNL A   1      42.714  31.240  34.951  1.00  0.00     0.031 C 
ATOM     34  C   UNL A   1      37.868  34.333  33.009  1.00  0.00     0.029 A 
ATOM     35  C   UNL A   1      38.874  33.389  33.128  1.00  0.00     0.049 A 
ATOM     36  H   UNL A   1      39.300  31.731  31.891  1.00  0.00     0.167 HD
ATOM     37  C   UNL A   1      40.853  32.330  34.175  1.00  0.00     0.074 A 
ATOM     38  C   UNL A   1      41.872  32.239  35.198  1.00  0.00     0.031 C 
ATOM     39  C   UNL A   1      39.903  33.298  34.130  1.00  0.00     0.031 A 
BRANCH  26  40
ATOM     40  C   UNL A   1      35.971  32.723  29.401  1.00  0.00    -0.014 A 
ATOM     41  C   UNL A   1      36.043  33.934  28.693  1.00  0.00     0.009 A 
ATOM     42  C   UNL A   1      34.772  31.994  29.376  1.00  0.00     0.009 A 
ATOM     43  C   UNL A   1      34.930  34.417  28.000  1.00  0.00     0.001 A 
ATOM     44  C   UNL A   1      33.668  32.467  28.662  1.00  0.00     0.001 A 
ATOM     45  C   UNL A   1      33.744  33.682  27.982  1.00  0.00     0.000 A 
ENDBRANCH  26  40
BRANCH  27  46
ATOM     46  C   UNL A   1      44.003  28.863  33.851  1.00  0.00    -0.014 A 
ATOM     47  C   UNL A   1      45.297  29.292  33.516  1.00  0.00     0.009 A 
ATOM     48  C   UNL A   1      43.851  27.876  34.839  1.00  0.00     0.009 A 
ATOM     49  C   UNL A   1      46.413  28.731  34.143  1.00  0.00     0.001 A 
ATOM     50  C   UNL A   1      44.966  27.342  35.487  1.00  0.00     0.001 A 
ATOM     51  C   UNL A   1      46.246  27.763  35.133  1.00  0.00     0.000 A 
ENDBRANCH  27  46
BRANCH  39  52
ATOM     52  C   UNL A   1      39.932  34.324  35.226  1.00  0.00    -0.014 A 
ATOM     53  C   UNL A   1      40.639  35.528  35.074  1.00  0.00     0.009 A 
ATOM     54  C   UNL A   1      39.245  34.085  36.427  1.00  0.00     0.009 A 
ATOM     55  C   UNL A   1      40.691  36.453  36.118  1.00  0.00     0.001 A 
ATOM     56  C   UNL A   1      39.278  35.023  37.459  1.00  0.00     0.001 A 
ATOM     57  C   UNL A   1      40.011  36.201  37.309  1.00  0.00     0.000 A 
ENDBRANCH  39  52
ENDBRANCH  13  14
ENDBRANCH   6   8
ENDBRANCH   3   4
ENDBRANCH   2   3
ENDBRANCH   1   2
BRANCH   1  58
ATOM     58  N   UNL A   1      35.123  20.880  25.832  1.00  0.00    -0.356 N 
ATOM     59  C   UNL A   1      34.259  21.834  26.267  1.00  0.00     0.224 C 
ATOM     60  H   UNL A   1      34.823  20.070  26.305  1.00  0.00     0.163 HD
ATOM     61  O   UNL A   1      33.327  21.202  26.829  1.00  0.00    -0.275 OA
BRANCH  59  62
ATOM     62  C   UNL A   1      33.998  23.450  26.158  1.00  0.00     0.098 C 
ATOM     63  C   UNL A   1      32.877  24.670  26.150  1.00  0.00     0.099 C 
ATOM     64  C   UNL A   1      34.741  23.865  24.803  1.00  0.00     0.025 C 
ATOM     65  C   UNL A   1      33.228  25.487  24.861  1.00  0.00     0.025 C 
ATOM     66  C   UNL A   1      33.794  23.647  23.638  1.00  0.00    -0.027 C 
ATOM     67  C   UNL A   1      34.738  25.394  24.831  1.00  0.00     0.017 C 
ATOM     68  C   UNL A   1      32.898  24.641  23.661  1.00  0.00    -0.027 C 
BRANCH  63  69
ATOM     69  C   UNL A   1      31.348  24.991  26.278  1.00  0.00     0.229 C 
ATOM     70  O   UNL A   1      30.544  24.047  26.208  1.00  0.00    -0.274 OA
ATOM     71  N   UNL A   1      30.797  26.198  26.573  1.00  0.00    -0.323 N 
ATOM     72  H   UNL A   1      29.871  26.194  26.907  1.00  0.00     0.170 HD
BRANCH  71  73
ATOM     73  C   UNL A   1      31.407  27.432  26.450  1.00  0.00     0.084 A 
ATOM     74  C   UNL A   1      32.204  27.915  27.494  1.00  0.00     0.030 A 
ATOM     75  C   UNL A   1      31.332  28.101  25.253  1.00  0.00     0.149 A 
ATOM     76  C   UNL A   1      33.123  28.938  27.251  1.00  0.00     0.002 A 
ATOM     77  C   UNL A   1      32.274  29.118  25.018  1.00  0.00     0.049 A 
ATOM     78  C   UNL A   1      33.195  29.507  25.989  1.00  0.00     0.004 A 
BRANCH  75  79
ATOM     79  O   UNL A   1      30.508  27.703  24.236  1.00  0.00    -0.433 OA
BRANCH  79  80
ATOM     80  C   UNL A   1      30.176  28.439  23.047  1.00  0.00     0.542 C 
ATOM     81  F   UNL A   1      30.640  27.809  21.948  1.00  0.00    -0.167 F 
ATOM     82  F   UNL A   1      28.814  28.441  22.967  1.00  0.00    -0.167 F 
ENDBRANCH  79  80
ENDBRANCH  75  79
ENDBRANCH  71  73
ENDBRANCH  63  69
ENDBRANCH  59  62
ENDBRANCH   1  58
TORSDOF 14
ENDMDL
MODEL 3
REMARK VINA RESULT:     -11.7      1.320      2.766
REMARK SMILES O=C(NCCCNC(=O)[C@@H]1[C@H](C(=O)Nc2ccccc2OC(F)F)[C@@H]2C=C[C@H]1C2)c1ccc(-c2c3nc(c(-c4ccccc4)c4ccc([nH]4)c(-c4ccccc4)c4nc(c(-c5ccccc5)c5ccc2[nH]5)C=C4)C=C3)cc1
REMARK SMILES IDX 6 1 5 2 4 3 3 4 1 5 2 6 30 8 31 9 77 10 32 11 76 12 33 13
REMARK SMILES IDX 34 14 35 15 70 16 36 17 75 18 69 19 71 20 37 21 74 22 68 23
REMARK SMILES IDX 67 24 38 26 60 27 45 28 59 29 46 30 49 31 58 32 72 33 47 34
REMARK SMILES IDX 48 35 57 37 73 38 50 39 39 40 40 41 44 42 41 43 43 44 42 45
REMARK SMILES IDX 61 46 62 47 66 48 63 49 65 50 64 51 51 52 52 53 56 54 53 55
REMARK SMILES IDX 55 56 54 57 7 58 8 59 9 61 10 62 11 63 28 64 25 65 27 66
REMARK SMILES IDX 29 67 26 68 12 69 13 70 14 71 15 73 16 74 20 75 17 76 19 77
REMARK SMILES IDX 18 78 21 79 22 80 23 81 24 82
REMARK H PARENT 3 7 71 25 49 36 7 60 14 72
REMARK Flexibility Score: inf
ROOT
ATOM      1  C   UNL A   1      31.796  28.281  27.581  1.00  0.00     0.117 C 
ENDROOT
BRANCH   1   2
ATOM      2  C   UNL A   1      33.219  28.928  27.441  1.00  0.00     0.042 C 
BRANCH   2   3
ATOM      3  C   UNL A   1      33.452  30.366  26.956  1.00  0.00     0.118 C 
BRANCH   3   4
ATOM      4  N   UNL A   1      33.990  31.197  28.045  1.00  0.00    -0.352 N 
ATOM      5  O   UNL A   1      34.974  31.851  29.927  1.00  0.00    -0.269 OA
ATOM      6  C   UNL A   1      35.029  31.095  28.936  1.00  0.00     0.251 C 
ATOM      7  H   UNL A   1      33.479  32.031  28.163  1.00  0.00     0.163 HD
BRANCH   6   8
ATOM      8  C   UNL A   1      36.231  30.219  28.814  1.00  0.00     0.039 A 
ATOM      9  C   UNL A   1      37.012  30.143  27.663  1.00  0.00     0.014 A 
ATOM     10  C   UNL A   1      36.718  29.581  29.978  1.00  0.00     0.014 A 
ATOM     11  C   UNL A   1      38.219  29.421  27.665  1.00  0.00     0.010 A 
ATOM     12  C   UNL A   1      37.962  28.920  30.000  1.00  0.00     0.010 A 
ATOM     13  C   UNL A   1      38.738  28.842  28.840  1.00  0.00    -0.014 A 
BRANCH  13  14
ATOM     14  C   UNL A   1      40.142  28.321  28.840  1.00  0.00     0.031 A 
ATOM     15  C   UNL A   1      40.486  26.904  28.464  1.00  0.00     0.074 A 
ATOM     16  C   UNL A   1      41.142  29.176  29.149  1.00  0.00     0.049 A 
ATOM     17  N   UNL A   1      41.670  26.364  28.293  1.00  0.00    -0.248 NA
ATOM     18  C   UNL A   1      39.370  25.971  28.263  1.00  0.00     0.031 C 
ATOM     19  C   UNL A   1      40.954  30.559  29.592  1.00  0.00     0.029 A 
ATOM     20  N   UNL A   1      42.508  29.029  29.101  1.00  0.00    -0.354 N 
ATOM     21  C   UNL A   1      41.444  25.033  27.963  1.00  0.00     0.074 A 
ATOM     22  C   UNL A   1      40.009  24.838  27.991  1.00  0.00     0.031 C 
ATOM     23  C   UNL A   1      42.151  31.158  29.691  1.00  0.00     0.029 A 
ATOM     24  C   UNL A   1      43.193  30.190  29.376  1.00  0.00     0.049 A 
ATOM     25  H   UNL A   1      42.952  28.177  28.889  1.00  0.00     0.167 HD
ATOM     26  C   UNL A   1      42.344  24.063  27.659  1.00  0.00     0.031 A 
ATOM     27  C   UNL A   1      44.514  30.459  29.373  1.00  0.00     0.031 A 
ATOM     28  C   UNL A   1      43.775  24.242  27.648  1.00  0.00     0.049 A 
ATOM     29  C   UNL A   1      45.486  29.373  29.018  1.00  0.00     0.074 A 
ATOM     30  C   UNL A   1      44.761  23.315  27.345  1.00  0.00     0.029 A 
ATOM     31  N   UNL A   1      44.429  25.425  27.958  1.00  0.00    -0.354 N 
ATOM     32  N   UNL A   1      45.243  28.134  28.663  1.00  0.00    -0.248 NA
ATOM     33  C   UNL A   1      46.913  29.724  29.060  1.00  0.00     0.031 C 
ATOM     34  C   UNL A   1      46.010  23.927  27.508  1.00  0.00     0.029 A 
ATOM     35  C   UNL A   1      45.801  25.250  27.864  1.00  0.00     0.049 A 
ATOM     36  H   UNL A   1      43.983  26.267  28.208  1.00  0.00     0.167 HD
ATOM     37  C   UNL A   1      46.486  27.557  28.443  1.00  0.00     0.074 A 
ATOM     38  C   UNL A   1      47.478  28.588  28.661  1.00  0.00     0.031 C 
ATOM     39  C   UNL A   1      46.779  26.278  28.101  1.00  0.00     0.031 A 
BRANCH  26  40
ATOM     40  C   UNL A   1      41.808  22.698  27.314  1.00  0.00    -0.014 A 
ATOM     41  C   UNL A   1      41.954  21.619  28.200  1.00  0.00     0.009 A 
ATOM     42  C   UNL A   1      41.094  22.503  26.121  1.00  0.00     0.009 A 
ATOM     43  C   UNL A   1      41.423  20.366  27.885  1.00  0.00     0.001 A 
ATOM     44  C   UNL A   1      40.542  21.254  25.820  1.00  0.00     0.001 A 
ATOM     45  C   UNL A   1      40.714  20.185  26.698  1.00  0.00     0.000 A 
ENDBRANCH  26  40
BRANCH  27  46
ATOM     46  C   UNL A   1      44.995  31.822  29.726  1.00  0.00    -0.014 A 
ATOM     47  C   UNL A   1      45.128  32.817  28.746  1.00  0.00     0.009 A 
ATOM     48  C   UNL A   1      45.320  32.134  31.056  1.00  0.00     0.009 A 
ATOM     49  C   UNL A   1      45.596  34.089  29.087  1.00  0.00     0.001 A 
ATOM     50  C   UNL A   1      45.755  33.415  31.399  1.00  0.00     0.001 A 
ATOM     51  C   UNL A   1      45.902  34.388  30.414  1.00  0.00     0.000 A 
ENDBRANCH  27  46
BRANCH  39  52
ATOM     52  C   UNL A   1      48.233  25.938  27.942  1.00  0.00    -0.014 A 
ATOM     53  C   UNL A   1      48.987  25.452  29.023  1.00  0.00     0.009 A 
ATOM     54  C   UNL A   1      48.859  26.106  26.697  1.00  0.00     0.009 A 
ATOM     55  C   UNL A   1      50.347  25.181  28.870  1.00  0.00     0.001 A 
ATOM     56  C   UNL A   1      50.213  25.809  26.540  1.00  0.00     0.001 A 
ATOM     57  C   UNL A   1      50.960  25.359  27.629  1.00  0.00     0.000 A 
ENDBRANCH  39  52
ENDBRANCH  13  14
ENDBRANCH   6   8
ENDBRANCH   3   4
ENDBRANCH   2   3
ENDBRANCH   1   2
BRANCH   1  58
ATOM     58  N   UNL A   1      31.363  26.898  27.130  1.00  0.00    -0.356 N 
ATOM     59  C   UNL A   1      31.598  25.650  26.648  1.00  0.00     0.224 C 
ATOM     60  H   UNL A   1      30.386  26.913  27.254  1.00  0.00     0.163 HD
ATOM     61  O   UNL A   1      30.531  25.014  26.851  1.00  0.00    -0.275 OA
BRANCH  59  62
ATOM     62  C   UNL A   1      32.821  24.730  26.056  1.00  0.00     0.098 C 
ATOM     63  C   UNL A   1      33.682  24.274  24.716  1.00  0.00     0.099 C 
ATOM     64  C   UNL A   1      32.469  23.254  26.567  1.00  0.00     0.025 C 
ATOM     65  C   UNL A   1      33.650  22.710  24.769  1.00  0.00     0.025 C 
ATOM     66  C   UNL A   1      31.519  22.607  25.576  1.00  0.00    -0.027 C 
ATOM     67  C   UNL A   1      33.728  22.444  26.257  1.00  0.00     0.017 C 
ATOM     68  C   UNL A   1      32.240  22.256  24.504  1.00  0.00    -0.027 C 
BRANCH  63  69
ATOM     69  C   UNL A   1      33.843  24.500  23.173  1.00  0.00     0.229 C 
ATOM     70  O   UNL A   1      34.900  24.132  22.634  1.00  0.00    -0.274 OA
ATOM     71  N   UNL A   1      32.892  24.966  22.320  1.00  0.00    -0.323 N 
ATOM     72  H   UNL A   1      33.026  24.781  21.362  1.00  0.00     0.170 HD
BRANCH  71  73
ATOM     73  C   UNL A   1      31.756  25.673  22.663  1.00  0.00     0.084 A 
ATOM     74  C   UNL A   1      30.565  24.984  22.919  1.00  0.00     0.030 A 
ATOM     75  C   UNL A   1      31.849  27.026  22.880  1.00  0.00     0.149 A 
ATOM     76  C   UNL A   1      29.539  25.610  23.630  1.00  0.00     0.002 A 
ATOM     77  C   UNL A   1      30.814  27.638  23.611  1.00  0.00     0.049 A 
ATOM     78  C   UNL A   1      29.687  26.931  24.025  1.00  0.00     0.004 A 
BRANCH  75  79
ATOM     79  O   UNL A   1      32.969  27.748  22.573  1.00  0.00    -0.433 OA
BRANCH  79  80
ATOM     80  C   UNL A   1      33.854  28.414  23.488  1.00  0.00     0.542 C 
ATOM     81  F   UNL A   1      34.209  27.591  24.496  1.00  0.00    -0.167 F 
ATOM     82  F   UNL A   1      34.986  28.702  22.782  1.00  0.00    -0.167 F 
ENDBRANCH  79  80
ENDBRANCH  75  79
ENDBRANCH  71  73
ENDBRANCH  63  69
ENDBRANCH  59  62
ENDBRANCH   1  58
TORSDOF 14
ENDMDL
