MODEL 1
REMARK VINA RESULT:     -10.1      0.000      0.000
REMARK SMILES CCN1C[C@@H](C(=O)NCCCNC(=O)c2ccc(-c3c4nc(c(-c5ccccc5)c5ccc([nH]5)c(-c5ccccc5)c5nc(c(-c6ccccc6)c6ccc3[nH]6)C=C5)C=C4)cc2)CC1=O
REMARK SMILES IDX 10 1 9 2 8 3 6 4 7 5 5 7 3 8 4 9 64 10 63 11 65 12 2 13 1 14
REMARK SMILES IDX 11 15 12 16 13 17 14 19 15 20 16 21 62 22 17 23 61 24 18 25
REMARK SMILES IDX 19 26 20 27 55 28 21 29 60 30 54 31 56 32 22 33 59 34 53 35
REMARK SMILES IDX 52 36 23 38 45 39 30 40 44 41 31 42 34 43 43 44 57 45 32 46
REMARK SMILES IDX 33 47 42 49 58 50 35 51 24 52 25 53 29 54 26 55 28 56 27 57
REMARK SMILES IDX 46 58 47 59 51 60 48 61 50 62 49 63 36 64 37 65 41 66 38 67
REMARK SMILES IDX 40 68 39 69
REMARK H PARENT 8 6 12 18 56 37 34 48
REMARK Flexibility Score: inf
ROOT
ATOM      1  C   UNL A   1      32.140  28.207  27.290  1.00  0.00     0.042 C 
ENDROOT
BRANCH   1   2
ATOM      2  C   UNL A   1      31.919  27.110  26.257  1.00  0.00     0.117 C 
BRANCH   2   3
ATOM      3  N   UNL A   1      31.306  25.927  26.838  1.00  0.00    -0.356 N 
ATOM      4  C   UNL A   1      31.562  24.604  26.673  1.00  0.00     0.225 C 
ATOM      5  O   UNL A   1      30.854  23.811  27.298  1.00  0.00    -0.275 OA
ATOM      6  H   UNL A   1      30.571  26.119  27.463  1.00  0.00     0.163 HD
BRANCH   4   7
ATOM      7  C   UNL A   1      32.673  24.087  25.786  1.00  0.00     0.107 C 
ATOM      8  N   UNL A   1      33.406  21.974  25.074  1.00  0.00    -0.342 N 
ATOM      9  C   UNL A   1      32.266  22.853  25.000  1.00  0.00     0.133 C 
ATOM     10  C   UNL A   1      34.392  22.423  25.932  1.00  0.00     0.223 C 
ATOM     11  C   UNL A   1      33.964  23.739  26.520  1.00  0.00     0.115 C 
ATOM     12  O   UNL A   1      35.434  21.849  26.210  1.00  0.00    -0.275 OA
BRANCH   8  13
ATOM     13  C   UNL A   1      33.444  20.687  24.398  1.00  0.00     0.116 C 
ATOM     14  C   UNL A   1      32.975  19.547  25.284  1.00  0.00     0.027 C 
ENDBRANCH   8  13
ENDBRANCH   4   7
ENDBRANCH   2   3
ENDBRANCH   1   2
BRANCH   1  15
ATOM     15  C   UNL A   1      33.559  28.762  27.314  1.00  0.00     0.118 C 
BRANCH  15  16
ATOM     16  N   UNL A   1      33.616  30.152  27.748  1.00  0.00    -0.352 N 
ATOM     17  C   UNL A   1      34.619  30.840  28.384  1.00  0.00     0.251 C 
ATOM     18  H   UNL A   1      32.808  30.680  27.554  1.00  0.00     0.163 HD
ATOM     19  O   UNL A   1      34.398  31.961  28.832  1.00  0.00    -0.269 OA
BRANCH  17  20
ATOM     20  C   UNL A   1      35.956  30.231  28.553  1.00  0.00     0.039 A 
ATOM     21  C   UNL A   1      36.853  30.263  27.483  1.00  0.00     0.014 A 
ATOM     22  C   UNL A   1      36.323  29.618  29.754  1.00  0.00     0.014 A 
ATOM     23  C   UNL A   1      38.141  29.746  27.643  1.00  0.00     0.010 A 
ATOM     24  C   UNL A   1      37.633  29.190  29.942  1.00  0.00     0.010 A 
ATOM     25  C   UNL A   1      38.556  29.245  28.887  1.00  0.00    -0.014 A 
BRANCH  25  26
ATOM     26  C   UNL A   1      39.948  28.775  29.105  1.00  0.00     0.031 A 
ATOM     27  C   UNL A   1      40.979  29.699  29.692  1.00  0.00     0.074 A 
ATOM     28  C   UNL A   1      40.300  27.534  28.714  1.00  0.00     0.049 A 
ATOM     29  N   UNL A   1      42.255  29.487  29.903  1.00  0.00    -0.248 NA
ATOM     30  C   UNL A   1      40.526  31.048  30.069  1.00  0.00     0.031 C 
ATOM     31  C   UNL A   1      39.408  26.552  28.094  1.00  0.00     0.029 A 
ATOM     32  N   UNL A   1      41.510  26.887  28.775  1.00  0.00    -0.354 N 
ATOM     33  C   UNL A   1      42.755  30.676  30.418  1.00  0.00     0.074 A 
ATOM     34  C   UNL A   1      41.662  31.622  30.438  1.00  0.00     0.031 C 
ATOM     35  C   UNL A   1      40.090  25.421  27.862  1.00  0.00     0.029 A 
ATOM     36  C   UNL A   1      41.479  25.610  28.270  1.00  0.00     0.049 A 
ATOM     37  H   UNL A   1      42.324  27.300  29.147  1.00  0.00     0.167 HD
ATOM     38  C   UNL A   1      44.008  30.952  30.854  1.00  0.00     0.031 A 
ATOM     39  C   UNL A   1      42.458  24.696  28.137  1.00  0.00     0.031 A 
ATOM     40  C   UNL A   1      45.094  30.008  30.839  1.00  0.00     0.049 A 
ATOM     41  C   UNL A   1      43.846  25.035  28.607  1.00  0.00     0.074 A 
ATOM     42  C   UNL A   1      46.385  30.174  31.312  1.00  0.00     0.029 A 
ATOM     43  N   UNL A   1      45.020  28.725  30.319  1.00  0.00    -0.354 N 
ATOM     44  N   UNL A   1      44.285  26.139  29.159  1.00  0.00    -0.248 NA
ATOM     45  C   UNL A   1      44.870  23.994  28.444  1.00  0.00     0.031 C 
ATOM     46  C   UNL A   1      47.108  29.013  31.020  1.00  0.00     0.029 A 
ATOM     47  C   UNL A   1      46.250  28.099  30.431  1.00  0.00     0.049 A 
ATOM     48  H   UNL A   1      44.211  28.320  29.929  1.00  0.00     0.167 HD
ATOM     49  C   UNL A   1      45.628  25.916  29.438  1.00  0.00     0.074 A 
ATOM     50  C   UNL A   1      45.925  24.564  29.010  1.00  0.00     0.031 C 
ATOM     51  C   UNL A   1      46.533  26.755  29.999  1.00  0.00     0.031 A 
BRANCH  38  52
ATOM     52  C   UNL A   1      44.272  32.338  31.375  1.00  0.00    -0.014 A 
ATOM     53  C   UNL A   1      44.108  32.651  32.734  1.00  0.00     0.009 A 
ATOM     54  C   UNL A   1      44.731  33.336  30.501  1.00  0.00     0.009 A 
ATOM     55  C   UNL A   1      44.360  33.944  33.199  1.00  0.00     0.001 A 
ATOM     56  C   UNL A   1      45.013  34.619  30.974  1.00  0.00     0.001 A 
ATOM     57  C   UNL A   1      44.817  34.925  32.320  1.00  0.00     0.000 A 
ENDBRANCH  38  52
BRANCH  39  58
ATOM     58  C   UNL A   1      42.162  23.365  27.542  1.00  0.00    -0.014 A 
ATOM     59  C   UNL A   1      41.623  22.334  28.326  1.00  0.00     0.009 A 
ATOM     60  C   UNL A   1      42.426  23.116  26.185  1.00  0.00     0.009 A 
ATOM     61  C   UNL A   1      41.385  21.074  27.774  1.00  0.00     0.001 A 
ATOM     62  C   UNL A   1      42.155  21.865  25.628  1.00  0.00     0.001 A 
ATOM     63  C   UNL A   1      41.645  20.841  26.425  1.00  0.00     0.000 A 
ENDBRANCH  39  58
BRANCH  51  64
ATOM     64  C   UNL A   1      47.921  26.222  30.220  1.00  0.00    -0.014 A 
ATOM     65  C   UNL A   1      48.878  26.216  29.192  1.00  0.00     0.009 A 
ATOM     66  C   UNL A   1      48.289  25.757  31.492  1.00  0.00     0.009 A 
ATOM     67  C   UNL A   1      50.162  25.720  29.426  1.00  0.00     0.001 A 
ATOM     68  C   UNL A   1      49.584  25.295  31.733  1.00  0.00     0.001 A 
ATOM     69  C   UNL A   1      50.515  25.266  30.696  1.00  0.00     0.000 A 
ENDBRANCH  51  64
ENDBRANCH  25  26
ENDBRANCH  17  20
ENDBRANCH  15  16
ENDBRANCH   1  15
TORSDOF 11
ENDMDL
MODEL 2
REMARK VINA RESULT:     -10.0      1.538      7.399
REMARK SMILES CCN1C[C@@H](C(=O)NCCCNC(=O)c2ccc(-c3c4nc(c(-c5ccccc5)c5ccc([nH]5)c(-c5ccccc5)c5nc(c(-c6ccccc6)c6ccc3[nH]6)C=C5)C=C4)cc2)CC1=O
REMARK SMILES IDX 10 1 9 2 8 3 6 4 7 5 5 7 3 8 4 9 64 10 63 11 65 12 2 13 1 14
REMARK SMILES IDX 11 15 12 16 13 17 14 19 15 20 16 21 62 22 17 23 61 24 18 25
REMARK SMILES IDX 19 26 20 27 55 28 21 29 60 30 54 31 56 32 22 33 59 34 53 35
REMARK SMILES IDX 52 36 23 38 45 39 30 40 44 41 31 42 34 43 43 44 57 45 32 46
REMARK SMILES IDX 33 47 42 49 58 50 35 51 24 52 25 53 29 54 26 55 28 56 27 57
REMARK SMILES IDX 46 58 47 59 51 60 48 61 50 62 49 63 36 64 37 65 41 66 38 67
REMARK SMILES IDX 40 68 39 69
REMARK H PARENT 8 6 12 18 56 37 34 48
REMARK Flexibility Score: inf
ROOT
ATOM      1  C   UNL A   1      36.968  20.268  25.001  1.00  0.00     0.042 C 
ENDROOT
BRANCH   1   2
ATOM      2  C   UNL A   1      35.865  21.317  25.046  1.00  0.00     0.117 C 
BRANCH   2   3
ATOM      3  N   UNL A   1      35.458  21.626  26.407  1.00  0.00    -0.356 N 
ATOM      4  C   UNL A   1      34.511  22.465  26.898  1.00  0.00     0.225 C 
ATOM      5  O   UNL A   1      34.401  22.533  28.125  1.00  0.00    -0.275 OA
ATOM      6  H   UNL A   1      35.962  21.140  27.098  1.00  0.00     0.163 HD
BRANCH   4   7
ATOM      7  C   UNL A   1      33.598  23.282  26.011  1.00  0.00     0.107 C 
ATOM      8  N   UNL A   1      33.123  25.565  25.741  1.00  0.00    -0.342 N 
ATOM      9  C   UNL A   1      34.204  24.618  25.622  1.00  0.00     0.133 C 
ATOM     10  C   UNL A   1      31.982  25.027  26.305  1.00  0.00     0.223 C 
ATOM     11  C   UNL A   1      32.226  23.575  26.608  1.00  0.00     0.115 C 
ATOM     12  O   UNL A   1      30.944  25.621  26.558  1.00  0.00    -0.275 OA
BRANCH   8  13
ATOM     13  C   UNL A   1      33.276  26.971  25.404  1.00  0.00     0.116 C 
ATOM     14  C   UNL A   1      33.719  27.811  26.588  1.00  0.00     0.027 C 
ENDBRANCH   8  13
ENDBRANCH   4   7
ENDBRANCH   2   3
ENDBRANCH   1   2
BRANCH   1  15
ATOM     15  C   UNL A   1      38.335  20.785  25.433  1.00  0.00     0.118 C 
BRANCH  15  16
ATOM     16  N   UNL A   1      39.326  19.725  25.560  1.00  0.00    -0.352 N 
ATOM     17  C   UNL A   1      40.634  19.781  25.973  1.00  0.00     0.251 C 
ATOM     18  H   UNL A   1      39.007  18.827  25.311  1.00  0.00     0.163 HD
ATOM     19  O   UNL A   1      41.359  18.801  25.831  1.00  0.00    -0.269 OA
BRANCH  17  20
ATOM     20  C   UNL A   1      41.181  21.021  26.566  1.00  0.00     0.039 A 
ATOM     21  C   UNL A   1      41.801  21.953  25.731  1.00  0.00     0.014 A 
ATOM     22  C   UNL A   1      41.097  21.261  27.940  1.00  0.00     0.014 A 
ATOM     23  C   UNL A   1      42.270  23.156  26.263  1.00  0.00     0.010 A 
ATOM     24  C   UNL A   1      41.479  22.497  28.452  1.00  0.00     0.010 A 
ATOM     25  C   UNL A   1      42.074  23.457  27.620  1.00  0.00    -0.014 A 
BRANCH  25  26
ATOM     26  C   UNL A   1      42.483  24.767  28.188  1.00  0.00     0.031 A 
ATOM     27  C   UNL A   1      41.469  25.861  28.381  1.00  0.00     0.074 A 
ATOM     28  C   UNL A   1      43.782  24.995  28.469  1.00  0.00     0.049 A 
ATOM     29  N   UNL A   1      41.648  27.087  28.808  1.00  0.00    -0.248 NA
ATOM     30  C   UNL A   1      40.076  25.548  28.025  1.00  0.00     0.031 C 
ATOM     31  C   UNL A   1      44.871  24.033  28.290  1.00  0.00     0.029 A 
ATOM     32  N   UNL A   1      44.406  26.113  28.962  1.00  0.00    -0.354 N 
ATOM     33  C   UNL A   1      40.398  27.691  28.754  1.00  0.00     0.074 A 
ATOM     34  C   UNL A   1      39.481  26.718  28.204  1.00  0.00     0.031 C 
ATOM     35  C   UNL A   1      46.022  24.591  28.695  1.00  0.00     0.029 A 
ATOM     36  C   UNL A   1      45.764  25.963  29.118  1.00  0.00     0.049 A 
ATOM     37  H   UNL A   1      43.927  26.945  29.184  1.00  0.00     0.167 HD
ATOM     38  C   UNL A   1      40.040  28.937  29.145  1.00  0.00     0.031 A 
ATOM     39  C   UNL A   1      46.698  26.834  29.542  1.00  0.00     0.031 A 
ATOM     40  C   UNL A   1      40.952  29.904  29.698  1.00  0.00     0.049 A 
ATOM     41  C   UNL A   1      46.279  28.221  29.948  1.00  0.00     0.074 A 
ATOM     42  C   UNL A   1      40.675  31.173  30.177  1.00  0.00     0.029 A 
ATOM     43  N   UNL A   1      42.317  29.711  29.839  1.00  0.00    -0.354 N 
ATOM     44  N   UNL A   1      45.080  28.751  29.961  1.00  0.00    -0.248 NA
ATOM     45  C   UNL A   1      47.342  29.123  30.410  1.00  0.00     0.031 C 
ATOM     46  C   UNL A   1      41.883  31.771  30.549  1.00  0.00     0.029 A 
ATOM     47  C   UNL A   1      42.901  30.849  30.369  1.00  0.00     0.049 A 
ATOM     48  H   UNL A   1      42.799  28.887  29.599  1.00  0.00     0.167 HD
ATOM     49  C   UNL A   1      45.240  30.038  30.459  1.00  0.00     0.074 A 
ATOM     50  C   UNL A   1      46.650  30.200  30.754  1.00  0.00     0.031 C 
ATOM     51  C   UNL A   1      44.305  30.999  30.656  1.00  0.00     0.031 A 
BRANCH  38  52
ATOM     52  C   UNL A   1      38.597  29.331  28.978  1.00  0.00    -0.014 A 
ATOM     53  C   UNL A   1      38.103  29.793  27.748  1.00  0.00     0.009 A 
ATOM     54  C   UNL A   1      37.709  29.201  30.058  1.00  0.00     0.009 A 
ATOM     55  C   UNL A   1      36.760  30.152  27.613  1.00  0.00     0.001 A 
ATOM     56  C   UNL A   1      36.361  29.530  29.912  1.00  0.00     0.001 A 
ATOM     57  C   UNL A   1      35.890  30.015  28.692  1.00  0.00     0.000 A 
ENDBRANCH  38  52
BRANCH  39  58
ATOM     58  C   UNL A   1      48.125  26.422  29.615  1.00  0.00    -0.014 A 
ATOM     59  C   UNL A   1      48.981  26.610  28.518  1.00  0.00     0.009 A 
ATOM     60  C   UNL A   1      48.638  25.828  30.779  1.00  0.00     0.009 A 
ATOM     61  C   UNL A   1      50.310  26.185  28.574  1.00  0.00     0.001 A 
ATOM     62  C   UNL A   1      49.977  25.434  30.844  1.00  0.00     0.001 A 
ATOM     63  C   UNL A   1      50.808  25.602  29.738  1.00  0.00     0.000 A 
ENDBRANCH  39  58
BRANCH  51  64
ATOM     64  C   UNL A   1      44.766  32.298  31.255  1.00  0.00    -0.014 A 
ATOM     65  C   UNL A   1      45.154  33.381  30.450  1.00  0.00     0.009 A 
ATOM     66  C   UNL A   1      44.773  32.452  32.650  1.00  0.00     0.009 A 
ATOM     67  C   UNL A   1      45.574  34.578  31.033  1.00  0.00     0.001 A 
ATOM     68  C   UNL A   1      45.159  33.662  33.230  1.00  0.00     0.001 A 
ATOM     69  C   UNL A   1      45.570  34.720  32.420  1.00  0.00     0.000 A 
ENDBRANCH  51  64
ENDBRANCH  25  26
ENDBRANCH  17  20
ENDBRANCH  15  16
ENDBRANCH   1  15
TORSDOF 11
ENDMDL
MODEL 3
REMARK VINA RESULT:     -10.0      2.089      7.608
REMARK SMILES CCN1C[C@@H](C(=O)NCCCNC(=O)c2ccc(-c3c4nc(c(-c5ccccc5)c5ccc([nH]5)c(-c5ccccc5)c5nc(c(-c6ccccc6)c6ccc3[nH]6)C=C5)C=C4)cc2)CC1=O
REMARK SMILES IDX 10 1 9 2 8 3 6 4 7 5 5 7 3 8 4 9 64 10 63 11 65 12 2 13 1 14
REMARK SMILES IDX 11 15 12 16 13 17 14 19 15 20 16 21 62 22 17 23 61 24 18 25
REMARK SMILES IDX 19 26 20 27 55 28 21 29 60 30 54 31 56 32 22 33 59 34 53 35
REMARK SMILES IDX 52 36 23 38 45 39 30 40 44 41 31 42 34 43 43 44 57 45 32 46
REMARK SMILES IDX 33 47 42 49 58 50 35 51 24 52 25 53 29 54 26 55 28 56 27 57
REMARK SMILES IDX 46 58 47 59 51 60 48 61 50 62 49 63 36 64 37 65 41 66 38 67
REMARK SMILES IDX 40 68 39 69
REMARK H PARENT 8 6 12 18 56 37 34 48
REMARK Flexibility Score: inf
ROOT
ATOM      1  C   UNL A   1      37.779  19.736  24.999  1.00  0.00     0.042 C 
ENDROOT
BRANCH   1   2
ATOM      2  C   UNL A   1      36.549  20.634  25.026  1.00  0.00     0.117 C 
BRANCH   2   3
ATOM      3  N   UNL A   1      35.314  19.873  24.938  1.00  0.00    -0.356 N 
ATOM      4  C   UNL A   1      34.019  20.262  24.829  1.00  0.00     0.225 C 
ATOM      5  O   UNL A   1      33.164  19.373  24.790  1.00  0.00    -0.275 OA
ATOM      6  H   UNL A   1      35.439  18.897  24.964  1.00  0.00     0.163 HD
BRANCH   4   7
ATOM      7  C   UNL A   1      33.603  21.714  24.735  1.00  0.00     0.107 C 
ATOM      8  N   UNL A   1      31.854  23.018  25.602  1.00  0.00    -0.342 N 
ATOM      9  C   UNL A   1      32.984  22.228  26.023  1.00  0.00     0.133 C 
ATOM     10  C   UNL A   1      31.594  22.927  24.249  1.00  0.00     0.223 C 
ATOM     11  C   UNL A   1      32.616  22.022  23.616  1.00  0.00     0.115 C 
ATOM     12  O   UNL A   1      30.673  23.457  23.645  1.00  0.00    -0.275 OA
BRANCH   8  13
ATOM     13  C   UNL A   1      31.011  23.738  26.543  1.00  0.00     0.116 C 
ATOM     14  C   UNL A   1      29.828  22.913  27.018  1.00  0.00     0.027 C 
ENDBRANCH   8  13
ENDBRANCH   4   7
ENDBRANCH   2   3
ENDBRANCH   1   2
BRANCH   1  15
ATOM     15  C   UNL A   1      38.961  20.278  25.794  1.00  0.00     0.118 C 
BRANCH  15  16
ATOM     16  N   UNL A   1      40.093  19.360  25.822  1.00  0.00    -0.352 N 
ATOM     17  C   UNL A   1      41.418  19.598  26.088  1.00  0.00     0.251 C 
ATOM     18  H   UNL A   1      39.871  18.423  25.617  1.00  0.00     0.163 HD
ATOM     19  O   UNL A   1      42.248  18.719  25.876  1.00  0.00    -0.269 OA
BRANCH  17  20
ATOM     20  C   UNL A   1      41.856  20.913  26.606  1.00  0.00     0.039 A 
ATOM     21  C   UNL A   1      42.289  21.885  25.701  1.00  0.00     0.014 A 
ATOM     22  C   UNL A   1      41.852  21.186  27.976  1.00  0.00     0.014 A 
ATOM     23  C   UNL A   1      42.650  23.152  26.166  1.00  0.00     0.010 A 
ATOM     24  C   UNL A   1      42.121  22.474  28.427  1.00  0.00     0.010 A 
ATOM     25  C   UNL A   1      42.527  23.471  27.528  1.00  0.00    -0.014 A 
BRANCH  25  26
ATOM     26  C   UNL A   1      42.817  24.838  28.030  1.00  0.00     0.031 A 
ATOM     27  C   UNL A   1      44.217  25.222  28.423  1.00  0.00     0.074 A 
ATOM     28  C   UNL A   1      41.807  25.715  28.193  1.00  0.00     0.049 A 
ATOM     29  N   UNL A   1      44.652  26.347  28.935  1.00  0.00    -0.248 NA
ATOM     30  C   UNL A   1      45.263  24.202  28.243  1.00  0.00     0.031 C 
ATOM     31  C   UNL A   1      40.398  25.455  27.889  1.00  0.00     0.029 A 
ATOM     32  N   UNL A   1      41.810  27.005  28.663  1.00  0.00    -0.354 N 
ATOM     33  C   UNL A   1      46.012  26.162  29.152  1.00  0.00     0.074 A 
ATOM     34  C   UNL A   1      46.320  24.802  28.769  1.00  0.00     0.031 C 
ATOM     35  C   UNL A   1      39.681  26.559  28.150  1.00  0.00     0.029 A 
ATOM     36  C   UNL A   1      40.566  27.588  28.684  1.00  0.00     0.049 A 
ATOM     37  H   UNL A   1      42.628  27.469  28.957  1.00  0.00     0.167 HD
ATOM     38  C   UNL A   1      46.927  27.049  29.611  1.00  0.00     0.031 A 
ATOM     39  C   UNL A   1      40.177  28.809  29.097  1.00  0.00     0.031 A 
ATOM     40  C   UNL A   1      46.620  28.404  29.987  1.00  0.00     0.049 A 
ATOM     41  C   UNL A   1      41.209  29.767  29.626  1.00  0.00     0.074 A 
ATOM     42  C   UNL A   1      47.488  29.397  30.410  1.00  0.00     0.029 A 
ATOM     43  N   UNL A   1      45.348  28.954  29.993  1.00  0.00    -0.354 N 
ATOM     44  N   UNL A   1      42.503  29.601  29.755  1.00  0.00    -0.248 NA
ATOM     45  C   UNL A   1      40.725  31.087  30.054  1.00  0.00     0.031 C 
ATOM     46  C   UNL A   1      46.731  30.528  30.731  1.00  0.00     0.029 A 
ATOM     47  C   UNL A   1      45.402  30.263  30.441  1.00  0.00     0.049 A 
ATOM     48  H   UNL A   1      44.528  28.483  29.718  1.00  0.00     0.167 HD
ATOM     49  C   UNL A   1      42.992  30.803  30.250  1.00  0.00     0.074 A 
ATOM     50  C   UNL A   1      41.857  31.695  30.380  1.00  0.00     0.031 C 
ATOM     51  C   UNL A   1      44.266  31.139  30.568  1.00  0.00     0.031 A 
BRANCH  38  52
ATOM     52  C   UNL A   1      48.349  26.576  29.742  1.00  0.00    -0.014 A 
ATOM     53  C   UNL A   1      49.281  26.770  28.710  1.00  0.00     0.009 A 
ATOM     54  C   UNL A   1      48.773  25.961  30.930  1.00  0.00     0.009 A 
ATOM     55  C   UNL A   1      50.598  26.324  28.851  1.00  0.00     0.001 A 
ATOM     56  C   UNL A   1      50.097  25.544  31.081  1.00  0.00     0.001 A 
ATOM     57  C   UNL A   1      51.005  25.717  30.037  1.00  0.00     0.000 A 
ENDBRANCH  38  52
BRANCH  39  58
ATOM     58  C   UNL A   1      38.745  29.201  29.022  1.00  0.00    -0.014 A 
ATOM     59  C   UNL A   1      37.913  29.093  30.147  1.00  0.00     0.009 A 
ATOM     60  C   UNL A   1      38.198  29.678  27.820  1.00  0.00     0.009 A 
ATOM     61  C   UNL A   1      36.559  29.425  30.063  1.00  0.00     0.001 A 
ATOM     62  C   UNL A   1      36.851  30.040  27.747  1.00  0.00     0.001 A 
ATOM     63  C   UNL A   1      36.030  29.903  28.865  1.00  0.00     0.000 A 
ENDBRANCH  39  58
BRANCH  51  64
ATOM     64  C   UNL A   1      44.510  32.543  31.048  1.00  0.00    -0.014 A 
ATOM     65  C   UNL A   1      44.772  33.590  30.150  1.00  0.00     0.009 A 
ATOM     66  C   UNL A   1      44.433  32.828  32.420  1.00  0.00     0.009 A 
ATOM     67  C   UNL A   1      44.989  34.886  30.623  1.00  0.00     0.001 A 
ATOM     68  C   UNL A   1      44.616  34.130  32.887  1.00  0.00     0.001 A 
ATOM     69  C   UNL A   1      44.905  35.156  31.988  1.00  0.00     0.000 A 
ENDBRANCH  51  64
ENDBRANCH  25  26
ENDBRANCH  17  20
ENDBRANCH  15  16
ENDBRANCH   1  15
TORSDOF 11
ENDMDL
