MODEL 1
REMARK VINA RESULT:     -11.1      0.000      0.000
REMARK SMILES C[C@H]1CC[C@@](Cc2nc(C(C)(C)C)cs2)(C(=O)NCCCNC(=O)c2ccc(-c3c4nc(c(-c5ccccc5)c5ccc([nH]5)c(-c5ccccc5)c5nc(c(-c6ccccc6)c6ccc3[nH]6)C=C5)C=C4)cc2)C1
REMARK SMILES IDX 19 1 18 2 16 3 17 4 5 6 1 7 2 8 3 9 73 10 4 11 6 12 7 13
REMARK SMILES IDX 8 14 15 15 9 16 14 17 10 18 11 19 12 20 13 21 20 22 21 23
REMARK SMILES IDX 22 24 23 25 24 27 25 28 26 29 72 30 27 31 71 32 28 33 29 34
REMARK SMILES IDX 30 35 65 36 31 37 70 38 64 39 66 40 32 41 69 42 63 43 62 44
REMARK SMILES IDX 33 46 55 47 40 48 54 49 41 50 44 51 53 52 67 53 42 54 43 55
REMARK SMILES IDX 52 57 68 58 45 59 34 60 35 61 39 62 36 63 38 64 37 65 56 66
REMARK SMILES IDX 57 67 61 68 58 69 60 70 59 71 46 72 47 73 51 74 48 75 50 76
REMARK SMILES IDX 49 77
REMARK H PARENT 18 5 22 26 66 45 44 56
REMARK Flexibility Score: inf
ROOT
ATOM      1  C   UNL A   1      37.396  21.033  24.221  1.00  0.00     0.117 C 
ENDROOT
BRANCH   1   2
ATOM      2  N   UNL A   1      37.778  22.299  24.809  1.00  0.00    -0.356 N 
ATOM      3  C   UNL A   1      37.028  23.241  25.437  1.00  0.00     0.226 C 
ATOM      4  O   UNL A   1      37.648  24.026  26.162  1.00  0.00    -0.274 OA
ATOM      5  H   UNL A   1      38.738  22.512  24.742  1.00  0.00     0.163 HD
BRANCH   3   6
ATOM      6  C   UNL A   1      35.500  23.343  25.278  1.00  0.00     0.056 C 
ATOM      7  C   UNL A   1      33.641  26.693  24.877  1.00  0.00     0.007 C 
ATOM      8  C   UNL A   1      33.931  25.198  24.849  1.00  0.00    -0.013 C 
ATOM      9  C   UNL A   1      34.414  24.704  23.500  1.00  0.00     0.004 C 
ATOM     10  C   UNL A   1      35.090  24.784  25.751  1.00  0.00     0.020 C 
ATOM     11  C   UNL A   1      35.017  23.332  23.801  1.00  0.00     0.017 C 
BRANCH   6  12
ATOM     12  C   UNL A   1      34.773  22.339  26.219  1.00  0.00     0.084 C 
BRANCH  12  13
ATOM     13  C   UNL A   1      33.874  21.306  25.594  1.00  0.00     0.094 A 
ATOM     14  N   UNL A   1      34.190  20.037  25.436  1.00  0.00    -0.246 NA
ATOM     15  S   UNL A   1      32.275  21.708  25.106  1.00  0.00    -0.127 S 
ATOM     16  C   UNL A   1      33.171  19.338  24.789  1.00  0.00     0.057 A 
ATOM     17  C   UNL A   1      32.036  20.099  24.570  1.00  0.00     0.091 A 
BRANCH  16  18
ATOM     18  C   UNL A   1      33.429  17.919  24.281  1.00  0.00     0.005 C 
ATOM     19  C   UNL A   1      32.903  17.710  22.851  1.00  0.00     0.017 C 
ATOM     20  C   UNL A   1      34.955  17.669  24.250  1.00  0.00     0.017 C 
ATOM     21  C   UNL A   1      32.727  16.865  25.167  1.00  0.00     0.017 C 
ENDBRANCH  16  18
ENDBRANCH  12  13
ENDBRANCH   6  12
ENDBRANCH   3   6
ENDBRANCH   1   2
BRANCH   1  22
ATOM     22  C   UNL A   1      37.844  19.817  25.005  1.00  0.00     0.042 C 
BRANCH  22  23
ATOM     23  C   UNL A   1      38.975  20.102  25.986  1.00  0.00     0.118 C 
BRANCH  23  24
ATOM     24  N   UNL A   1      40.125  19.203  25.875  1.00  0.00    -0.352 N 
ATOM     25  C   UNL A   1      41.477  19.432  25.977  1.00  0.00     0.251 C 
ATOM     26  H   UNL A   1      39.888  18.265  25.694  1.00  0.00     0.163 HD
ATOM     27  O   UNL A   1      42.291  18.541  25.769  1.00  0.00    -0.269 OA
BRANCH  25  28
ATOM     28  C   UNL A   1      41.958  20.767  26.350  1.00  0.00     0.039 A 
ATOM     29  C   UNL A   1      42.192  21.746  25.375  1.00  0.00     0.014 A 
ATOM     30  C   UNL A   1      42.225  21.017  27.691  1.00  0.00     0.014 A 
ATOM     31  C   UNL A   1      42.654  23.003  25.766  1.00  0.00     0.010 A 
ATOM     32  C   UNL A   1      42.558  22.293  28.090  1.00  0.00     0.010 A 
ATOM     33  C   UNL A   1      42.826  23.279  27.130  1.00  0.00    -0.014 A 
BRANCH  33  34
ATOM     34  C   UNL A   1      43.419  24.528  27.644  1.00  0.00     0.031 A 
ATOM     35  C   UNL A   1      42.475  25.592  28.133  1.00  0.00     0.074 A 
ATOM     36  C   UNL A   1      44.732  24.766  27.495  1.00  0.00     0.049 A 
ATOM     37  N   UNL A   1      42.682  26.866  28.321  1.00  0.00    -0.248 NA
ATOM     38  C   UNL A   1      41.081  25.166  28.364  1.00  0.00     0.031 C 
ATOM     39  C   UNL A   1      45.724  23.808  27.007  1.00  0.00     0.029 A 
ATOM     40  N   UNL A   1      45.447  25.913  27.707  1.00  0.00    -0.354 N 
ATOM     41  C   UNL A   1      41.437  27.401  28.630  1.00  0.00     0.074 A 
ATOM     42  C   UNL A   1      40.474  26.328  28.540  1.00  0.00     0.031 C 
ATOM     43  C   UNL A   1      46.925  24.406  26.965  1.00  0.00     0.029 A 
ATOM     44  C   UNL A   1      46.773  25.799  27.372  1.00  0.00     0.049 A 
ATOM     45  H   UNL A   1      45.049  26.739  28.065  1.00  0.00     0.167 HD
ATOM     46  C   UNL A   1      41.130  28.672  28.975  1.00  0.00     0.031 A 
ATOM     47  C   UNL A   1      47.744  26.730  27.380  1.00  0.00     0.031 A 
ATOM     48  C   UNL A   1      42.115  29.711  29.090  1.00  0.00     0.049 A 
ATOM     49  C   UNL A   1      47.389  28.132  27.794  1.00  0.00     0.074 A 
ATOM     50  C   UNL A   1      41.950  31.022  29.494  1.00  0.00     0.029 A 
ATOM     51  N   UNL A   1      43.464  29.539  28.808  1.00  0.00    -0.354 N 
ATOM     52  N   UNL A   1      46.217  28.627  28.121  1.00  0.00    -0.248 NA
ATOM     53  C   UNL A   1      48.491  29.100  27.852  1.00  0.00     0.031 C 
ATOM     54  C   UNL A   1      43.197  31.654  29.422  1.00  0.00     0.029 A 
ATOM     55  C   UNL A   1      44.146  30.722  29.026  1.00  0.00     0.049 A 
ATOM     56  H   UNL A   1      43.873  28.699  28.498  1.00  0.00     0.167 HD
ATOM     57  C   UNL A   1      46.447  29.954  28.461  1.00  0.00     0.074 A 
ATOM     58  C   UNL A   1      47.871  30.179  28.307  1.00  0.00     0.031 C 
ATOM     59  C   UNL A   1      45.567  30.901  28.869  1.00  0.00     0.031 A 
BRANCH  46  60
ATOM     60  C   UNL A   1      39.682  28.984  29.246  1.00  0.00    -0.014 A 
ATOM     61  C   UNL A   1      39.123  28.812  30.525  1.00  0.00     0.009 A 
ATOM     62  C   UNL A   1      38.857  29.441  28.208  1.00  0.00     0.009 A 
ATOM     63  C   UNL A   1      37.761  29.032  30.742  1.00  0.00     0.001 A 
ATOM     64  C   UNL A   1      37.502  29.698  28.436  1.00  0.00     0.001 A 
ATOM     65  C   UNL A   1      36.953  29.478  29.699  1.00  0.00     0.000 A 
ENDBRANCH  46  60
BRANCH  47  66
ATOM     66  C   UNL A   1      49.139  26.353  27.037  1.00  0.00    -0.014 A 
ATOM     67  C   UNL A   1      50.021  25.943  28.049  1.00  0.00     0.009 A 
ATOM     68  C   UNL A   1      49.593  26.372  25.710  1.00  0.00     0.009 A 
ATOM     69  C   UNL A   1      51.335  25.583  27.743  1.00  0.00     0.001 A 
ATOM     70  C   UNL A   1      50.900  25.983  25.403  1.00  0.00     0.001 A 
ATOM     71  C   UNL A   1      51.772  25.597  26.420  1.00  0.00     0.000 A 
ENDBRANCH  47  66
BRANCH  59  72
ATOM     72  C   UNL A   1      46.133  32.245  29.229  1.00  0.00    -0.014 A 
ATOM     73  C   UNL A   1      46.172  33.295  28.300  1.00  0.00     0.009 A 
ATOM     74  C   UNL A   1      46.591  32.468  30.536  1.00  0.00     0.009 A 
ATOM     75  C   UNL A   1      46.696  34.536  28.667  1.00  0.00     0.001 A 
ATOM     76  C   UNL A   1      47.083  33.720  30.909  1.00  0.00     0.001 A 
ATOM     77  C   UNL A   1      47.145  34.748  29.971  1.00  0.00     0.000 A 
ENDBRANCH  59  72
ENDBRANCH  33  34
ENDBRANCH  25  28
ENDBRANCH  23  24
ENDBRANCH  22  23
ENDBRANCH   1  22
TORSDOF 13
ENDMDL
MODEL 2
REMARK VINA RESULT:     -11.1      2.935      7.454
REMARK SMILES C[C@H]1CC[C@@](Cc2nc(C(C)(C)C)cs2)(C(=O)NCCCNC(=O)c2ccc(-c3c4nc(c(-c5ccccc5)c5ccc([nH]5)c(-c5ccccc5)c5nc(c(-c6ccccc6)c6ccc3[nH]6)C=C5)C=C4)cc2)C1
REMARK SMILES IDX 19 1 18 2 16 3 17 4 5 6 1 7 2 8 3 9 73 10 4 11 6 12 7 13
REMARK SMILES IDX 8 14 15 15 9 16 14 17 10 18 11 19 12 20 13 21 20 22 21 23
REMARK SMILES IDX 22 24 23 25 24 27 25 28 26 29 72 30 27 31 71 32 28 33 29 34
REMARK SMILES IDX 30 35 65 36 31 37 70 38 64 39 66 40 32 41 69 42 63 43 62 44
REMARK SMILES IDX 33 46 55 47 40 48 54 49 41 50 44 51 53 52 67 53 42 54 43 55
REMARK SMILES IDX 52 57 68 58 45 59 34 60 35 61 39 62 36 63 38 64 37 65 56 66
REMARK SMILES IDX 57 67 61 68 58 69 60 70 59 71 46 72 47 73 51 74 48 75 50 76
REMARK SMILES IDX 49 77
REMARK H PARENT 18 5 22 26 66 45 44 56
REMARK Flexibility Score: inf
ROOT
ATOM      1  C   UNL A   1      32.196  27.206  26.515  1.00  0.00     0.117 C 
ENDROOT
BRANCH   1   2
ATOM      2  N   UNL A   1      31.208  27.445  25.485  1.00  0.00    -0.356 N 
ATOM      3  C   UNL A   1      30.922  26.741  24.358  1.00  0.00     0.226 C 
ATOM      4  O   UNL A   1      29.807  26.945  23.866  1.00  0.00    -0.274 OA
ATOM      5  H   UNL A   1      30.653  28.247  25.623  1.00  0.00     0.163 HD
BRANCH   3   6
ATOM      6  C   UNL A   1      31.904  25.744  23.718  1.00  0.00     0.056 C 
ATOM      7  C   UNL A   1      32.560  25.571  19.925  1.00  0.00     0.007 C 
ATOM      8  C   UNL A   1      32.741  25.378  21.425  1.00  0.00    -0.013 C 
ATOM      9  C   UNL A   1      33.634  26.425  22.063  1.00  0.00     0.004 C 
ATOM     10  C   UNL A   1      31.454  25.560  22.225  1.00  0.00     0.020 C 
ATOM     11  C   UNL A   1      33.349  26.295  23.559  1.00  0.00     0.017 C 
BRANCH   6  12
ATOM     12  C   UNL A   1      31.800  24.346  24.394  1.00  0.00     0.084 C 
BRANCH  12  13
ATOM     13  C   UNL A   1      33.024  23.795  25.073  1.00  0.00     0.094 A 
ATOM     14  N   UNL A   1      34.219  23.726  24.521  1.00  0.00    -0.246 NA
ATOM     15  S   UNL A   1      32.967  23.281  26.713  1.00  0.00    -0.127 S 
ATOM     16  C   UNL A   1      35.141  23.129  25.381  1.00  0.00     0.057 A 
ATOM     17  C   UNL A   1      34.625  22.859  26.636  1.00  0.00     0.091 A 
BRANCH  16  18
ATOM     18  C   UNL A   1      36.516  22.721  24.853  1.00  0.00     0.005 C 
ATOM     19  C   UNL A   1      36.648  22.948  23.338  1.00  0.00     0.017 C 
ATOM     20  C   UNL A   1      37.595  23.588  25.544  1.00  0.00     0.017 C 
ATOM     21  C   UNL A   1      36.792  21.220  25.099  1.00  0.00     0.017 C 
ENDBRANCH  16  18
ENDBRANCH  12  13
ENDBRANCH   6  12
ENDBRANCH   3   6
ENDBRANCH   1   2
BRANCH   1  22
ATOM     22  C   UNL A   1      32.397  28.365  27.470  1.00  0.00     0.042 C 
BRANCH  22  23
ATOM     23  C   UNL A   1      33.813  28.931  27.459  1.00  0.00     0.118 C 
BRANCH  23  24
ATOM     24  N   UNL A   1      33.940  30.277  28.019  1.00  0.00    -0.352 N 
ATOM     25  C   UNL A   1      34.975  30.900  28.675  1.00  0.00     0.251 C 
ATOM     26  H   UNL A   1      33.138  30.839  27.906  1.00  0.00     0.163 HD
ATOM     27  O   UNL A   1      34.848  32.026  29.142  1.00  0.00    -0.269 OA
BRANCH  25  28
ATOM     28  C   UNL A   1      36.263  30.211  28.814  1.00  0.00     0.039 A 
ATOM     29  C   UNL A   1      36.635  29.621  30.030  1.00  0.00     0.014 A 
ATOM     30  C   UNL A   1      37.124  30.203  27.723  1.00  0.00     0.014 A 
ATOM     31  C   UNL A   1      37.869  28.977  30.126  1.00  0.00     0.010 A 
ATOM     32  C   UNL A   1      38.283  29.461  27.779  1.00  0.00     0.010 A 
ATOM     33  C   UNL A   1      38.689  28.888  28.993  1.00  0.00    -0.014 A 
BRANCH  33  34
ATOM     34  C   UNL A   1      40.058  28.337  29.015  1.00  0.00     0.031 A 
ATOM     35  C   UNL A   1      41.190  29.308  29.212  1.00  0.00     0.074 A 
ATOM     36  C   UNL A   1      40.278  27.056  28.680  1.00  0.00     0.049 A 
ATOM     37  N   UNL A   1      42.461  29.167  28.953  1.00  0.00    -0.248 NA
ATOM     38  C   UNL A   1      40.817  30.652  29.693  1.00  0.00     0.031 C 
ATOM     39  C   UNL A   1      39.248  26.045  28.446  1.00  0.00     0.029 A 
ATOM     40  N   UNL A   1      41.455  26.401  28.440  1.00  0.00    -0.354 N 
ATOM     41  C   UNL A   1      43.024  30.417  29.181  1.00  0.00     0.074 A 
ATOM     42  C   UNL A   1      41.949  31.316  29.533  1.00  0.00     0.031 C 
ATOM     43  C   UNL A   1      39.840  24.889  28.103  1.00  0.00     0.029 A 
ATOM     44  C   UNL A   1      41.283  25.098  28.044  1.00  0.00     0.049 A 
ATOM     45  H   UNL A   1      42.339  26.822  28.543  1.00  0.00     0.167 HD
ATOM     46  C   UNL A   1      44.327  30.778  29.117  1.00  0.00     0.031 A 
ATOM     47  C   UNL A   1      42.198  24.189  27.660  1.00  0.00     0.031 A 
ATOM     48  C   UNL A   1      45.379  29.853  28.796  1.00  0.00     0.049 A 
ATOM     49  C   UNL A   1      43.644  24.600  27.622  1.00  0.00     0.074 A 
ATOM     50  C   UNL A   1      46.743  30.069  28.762  1.00  0.00     0.029 A 
ATOM     51  N   UNL A   1      45.170  28.520  28.467  1.00  0.00    -0.354 N 
ATOM     52  N   UNL A   1      44.178  25.773  27.872  1.00  0.00    -0.248 NA
ATOM     53  C   UNL A   1      44.614  23.559  27.262  1.00  0.00     0.031 C 
ATOM     54  C   UNL A   1      47.359  28.873  28.376  1.00  0.00     0.029 A 
ATOM     55  C   UNL A   1      46.381  27.900  28.224  1.00  0.00     0.049 A 
ATOM     56  H   UNL A   1      44.290  28.083  28.413  1.00  0.00     0.167 HD
ATOM     57  C   UNL A   1      45.550  25.602  27.738  1.00  0.00     0.074 A 
ATOM     58  C   UNL A   1      45.761  24.210  27.392  1.00  0.00     0.031 C 
ATOM     59  C   UNL A   1      46.548  26.508  27.891  1.00  0.00     0.031 A 
BRANCH  46  60
ATOM     60  C   UNL A   1      44.660  32.218  29.398  1.00  0.00    -0.014 A 
ATOM     61  C   UNL A   1      44.960  32.659  30.700  1.00  0.00     0.009 A 
ATOM     62  C   UNL A   1      44.660  33.155  28.355  1.00  0.00     0.009 A 
ATOM     63  C   UNL A   1      45.191  34.012  30.958  1.00  0.00     0.001 A 
ATOM     64  C   UNL A   1      44.930  34.503  28.609  1.00  0.00     0.001 A 
ATOM     65  C   UNL A   1      45.180  34.932  29.912  1.00  0.00     0.000 A 
ENDBRANCH  46  60
BRANCH  47  66
ATOM     66  C   UNL A   1      41.777  22.802  27.336  1.00  0.00    -0.014 A 
ATOM     67  C   UNL A   1      41.029  22.552  26.175  1.00  0.00     0.009 A 
ATOM     68  C   UNL A   1      42.137  21.721  28.155  1.00  0.00     0.009 A 
ATOM     69  C   UNL A   1      40.628  21.254  25.854  1.00  0.00     0.001 A 
ATOM     70  C   UNL A   1      41.759  20.419  27.816  1.00  0.00     0.001 A 
ATOM     71  C   UNL A   1      40.998  20.187  26.671  1.00  0.00     0.000 A 
ENDBRANCH  47  66
BRANCH  59  72
ATOM     72  C   UNL A   1      47.953  26.002  27.739  1.00  0.00    -0.014 A 
ATOM     73  C   UNL A   1      48.625  26.063  26.509  1.00  0.00     0.009 A 
ATOM     74  C   UNL A   1      48.626  25.498  28.863  1.00  0.00     0.009 A 
ATOM     75  C   UNL A   1      49.935  25.593  26.401  1.00  0.00     0.001 A 
ATOM     76  C   UNL A   1      49.947  25.060  28.759  1.00  0.00     0.001 A 
ATOM     77  C   UNL A   1      50.596  25.099  27.526  1.00  0.00     0.000 A 
ENDBRANCH  59  72
ENDBRANCH  33  34
ENDBRANCH  25  28
ENDBRANCH  23  24
ENDBRANCH  22  23
ENDBRANCH   1  22
TORSDOF 13
ENDMDL
MODEL 3
REMARK VINA RESULT:     -11.0      4.338      8.571
REMARK SMILES C[C@H]1CC[C@@](Cc2nc(C(C)(C)C)cs2)(C(=O)NCCCNC(=O)c2ccc(-c3c4nc(c(-c5ccccc5)c5ccc([nH]5)c(-c5ccccc5)c5nc(c(-c6ccccc6)c6ccc3[nH]6)C=C5)C=C4)cc2)C1
REMARK SMILES IDX 19 1 18 2 16 3 17 4 5 6 1 7 2 8 3 9 73 10 4 11 6 12 7 13
REMARK SMILES IDX 8 14 15 15 9 16 14 17 10 18 11 19 12 20 13 21 20 22 21 23
REMARK SMILES IDX 22 24 23 25 24 27 25 28 26 29 72 30 27 31 71 32 28 33 29 34
REMARK SMILES IDX 30 35 65 36 31 37 70 38 64 39 66 40 32 41 69 42 63 43 62 44
REMARK SMILES IDX 33 46 55 47 40 48 54 49 41 50 44 51 53 52 67 53 42 54 43 55
REMARK SMILES IDX 52 57 68 58 45 59 34 60 35 61 39 62 36 63 38 64 37 65 56 66
REMARK SMILES IDX 57 67 61 68 58 69 60 70 59 71 46 72 47 73 51 74 48 75 50 76
REMARK SMILES IDX 49 77
REMARK H PARENT 18 5 22 26 66 45 44 56
REMARK Flexibility Score: inf
ROOT
ATOM      1  C   UNL A   1      35.374  23.939  24.314  1.00  0.00     0.117 C 
ENDROOT
BRANCH   1   2
ATOM      2  N   UNL A   1      34.467  23.297  23.388  1.00  0.00    -0.356 N 
ATOM      3  C   UNL A   1      33.554  22.310  23.589  1.00  0.00     0.226 C 
ATOM      4  O   UNL A   1      32.667  22.216  22.734  1.00  0.00    -0.274 OA
ATOM      5  H   UNL A   1      34.520  23.627  22.461  1.00  0.00     0.163 HD
BRANCH   3   6
ATOM      6  C   UNL A   1      33.596  21.361  24.800  1.00  0.00     0.056 C 
ATOM      7  C   UNL A   1      32.157  17.788  24.727  1.00  0.00     0.007 C 
ATOM      8  C   UNL A   1      32.961  19.004  25.166  1.00  0.00    -0.013 C 
ATOM      9  C   UNL A   1      34.385  19.005  24.643  1.00  0.00     0.004 C 
ATOM     10  C   UNL A   1      32.436  20.321  24.600  1.00  0.00     0.020 C 
ATOM     11  C   UNL A   1      34.852  20.447  24.842  1.00  0.00     0.017 C 
BRANCH   6  12
ATOM     12  C   UNL A   1      33.290  22.126  26.120  1.00  0.00     0.084 C 
BRANCH  12  13
ATOM     13  C   UNL A   1      32.298  23.256  26.070  1.00  0.00     0.094 A 
ATOM     14  N   UNL A   1      32.583  24.484  25.687  1.00  0.00    -0.246 NA
ATOM     15  S   UNL A   1      30.639  22.991  26.436  1.00  0.00    -0.127 S 
ATOM     16  C   UNL A   1      31.469  25.318  25.788  1.00  0.00     0.057 A 
ATOM     17  C   UNL A   1      30.313  24.648  26.150  1.00  0.00     0.091 A 
BRANCH  16  18
ATOM     18  C   UNL A   1      31.637  26.830  25.638  1.00  0.00     0.005 C 
ATOM     19  C   UNL A   1      31.403  27.575  26.962  1.00  0.00     0.017 C 
ATOM     20  C   UNL A   1      33.088  27.130  25.192  1.00  0.00     0.017 C 
ATOM     21  C   UNL A   1      30.629  27.412  24.621  1.00  0.00     0.017 C 
ENDBRANCH  16  18
ENDBRANCH  12  13
ENDBRANCH   6  12
ENDBRANCH   3   6
ENDBRANCH   1   2
BRANCH   1  22
ATOM     22  C   UNL A   1      36.758  23.324  24.364  1.00  0.00     0.042 C 
BRANCH  22  23
ATOM     23  C   UNL A   1      37.480  23.542  25.688  1.00  0.00     0.118 C 
BRANCH  23  24
ATOM     24  N   UNL A   1      38.800  22.916  25.778  1.00  0.00    -0.352 N 
ATOM     25  C   UNL A   1      39.996  23.374  26.279  1.00  0.00     0.251 C 
ATOM     26  H   UNL A   1      38.840  22.003  25.413  1.00  0.00     0.163 HD
ATOM     27  O   UNL A   1      41.022  22.711  26.185  1.00  0.00    -0.269 OA
BRANCH  25  28
ATOM     28  C   UNL A   1      40.048  24.679  26.949  1.00  0.00     0.039 A 
ATOM     29  C   UNL A   1      40.693  25.769  26.350  1.00  0.00     0.014 A 
ATOM     30  C   UNL A   1      39.485  24.790  28.215  1.00  0.00     0.014 A 
ATOM     31  C   UNL A   1      40.726  26.994  27.018  1.00  0.00     0.010 A 
ATOM     32  C   UNL A   1      39.406  26.026  28.816  1.00  0.00     0.010 A 
ATOM     33  C   UNL A   1      40.070  27.124  28.249  1.00  0.00    -0.014 A 
BRANCH  33  34
ATOM     34  C   UNL A   1      40.143  28.333  29.092  1.00  0.00     0.031 A 
ATOM     35  C   UNL A   1      41.184  28.356  30.178  1.00  0.00     0.074 A 
ATOM     36  C   UNL A   1      39.194  29.277  29.006  1.00  0.00     0.049 A 
ATOM     37  N   UNL A   1      41.261  29.109  31.241  1.00  0.00    -0.248 NA
ATOM     38  C   UNL A   1      42.239  27.328  30.088  1.00  0.00     0.031 C 
ATOM     39  C   UNL A   1      38.129  29.330  28.004  1.00  0.00     0.029 A 
ATOM     40  N   UNL A   1      38.954  30.358  29.811  1.00  0.00    -0.354 N 
ATOM     41  C   UNL A   1      42.331  28.607  31.971  1.00  0.00     0.074 A 
ATOM     42  C   UNL A   1      42.829  27.449  31.266  1.00  0.00     0.031 C 
ATOM     43  C   UNL A   1      37.351  30.397  28.249  1.00  0.00     0.029 A 
ATOM     44  C   UNL A   1      37.834  31.067  29.453  1.00  0.00     0.049 A 
ATOM     45  H   UNL A   1      39.528  30.603  30.571  1.00  0.00     0.167 HD
ATOM     46  C   UNL A   1      42.861  29.082  33.122  1.00  0.00     0.031 A 
ATOM     47  C   UNL A   1      37.262  32.128  30.050  1.00  0.00     0.031 A 
ATOM     48  C   UNL A   1      42.366  30.257  33.784  1.00  0.00     0.049 A 
ATOM     49  C   UNL A   1      37.882  32.659  31.313  1.00  0.00     0.074 A 
ATOM     50  C   UNL A   1      42.850  30.884  34.916  1.00  0.00     0.029 A 
ATOM     51  N   UNL A   1      41.269  30.991  33.351  1.00  0.00    -0.354 N 
ATOM     52  N   UNL A   1      38.915  32.205  31.983  1.00  0.00    -0.248 NA
ATOM     53  C   UNL A   1      37.264  33.858  31.895  1.00  0.00     0.031 C 
ATOM     54  C   UNL A   1      42.022  31.980  35.188  1.00  0.00     0.029 A 
ATOM     55  C   UNL A   1      41.057  32.065  34.194  1.00  0.00     0.049 A 
ATOM     56  H   UNL A   1      40.723  30.777  32.560  1.00  0.00     0.167 HD
ATOM     57  C   UNL A   1      39.096  33.082  33.044  1.00  0.00     0.074 A 
ATOM     58  C   UNL A   1      38.070  34.099  32.919  1.00  0.00     0.031 C 
ATOM     59  C   UNL A   1      40.027  33.059  34.030  1.00  0.00     0.031 A 
BRANCH  46  60
ATOM     60  C   UNL A   1      44.021  28.326  33.714  1.00  0.00    -0.014 A 
ATOM     61  C   UNL A   1      45.344  28.589  33.318  1.00  0.00     0.009 A 
ATOM     62  C   UNL A   1      43.791  27.325  34.668  1.00  0.00     0.009 A 
ATOM     63  C   UNL A   1      46.402  27.827  33.818  1.00  0.00     0.001 A 
ATOM     64  C   UNL A   1      44.856  26.588  35.197  1.00  0.00     0.001 A 
ATOM     65  C   UNL A   1      46.157  26.830  34.759  1.00  0.00     0.000 A 
ENDBRANCH  46  60
BRANCH  47  66
ATOM     66  C   UNL A   1      36.078  32.779  29.434  1.00  0.00    -0.014 A 
ATOM     67  C   UNL A   1      36.252  33.859  28.555  1.00  0.00     0.009 A 
ATOM     68  C   UNL A   1      34.777  32.319  29.690  1.00  0.00     0.009 A 
ATOM     69  C   UNL A   1      35.150  34.481  27.965  1.00  0.00     0.001 A 
ATOM     70  C   UNL A   1      33.678  32.924  29.076  1.00  0.00     0.001 A 
ATOM     71  C   UNL A   1      33.864  34.010  28.221  1.00  0.00     0.000 A 
ENDBRANCH  47  66
BRANCH  59  72
ATOM     72  C   UNL A   1      40.007  34.195  35.011  1.00  0.00    -0.014 A 
ATOM     73  C   UNL A   1      39.277  34.117  36.206  1.00  0.00     0.009 A 
ATOM     74  C   UNL A   1      40.770  35.343  34.747  1.00  0.00     0.009 A 
ATOM     75  C   UNL A   1      39.285  35.186  37.103  1.00  0.00     0.001 A 
ATOM     76  C   UNL A   1      40.801  36.397  35.662  1.00  0.00     0.001 A 
ATOM     77  C   UNL A   1      40.051  36.321  36.833  1.00  0.00     0.000 A 
ENDBRANCH  59  72
ENDBRANCH  33  34
ENDBRANCH  25  28
ENDBRANCH  23  24
ENDBRANCH  22  23
ENDBRANCH   1  22
TORSDOF 13
ENDMDL
