MODEL 1
REMARK VINA RESULT:     -11.0      0.000      0.000
REMARK SMILES CC(C)[NH2+][C@@H](C(=O)NCCCNC(=O)c1ccc(-c2c3nc(c(-c4ccccc4)c4ccc([nH]4)c(-c4ccccc4)c4nc(c(-c5ccccc5)c5ccc2[nH]5)C=C4)C=C3)cc1)c1c[nH]c2ccc(Br)cc12
REMARK SMILES IDX 10 1 9 2 8 3 6 4 7 5 5 7 4 8 2 11 1 12 3 13 63 14 64 15
REMARK SMILES IDX 72 16 65 17 66 18 71 19 67 21 69 22 68 23 70 24 11 25 12 26
REMARK SMILES IDX 13 27 14 29 15 30 16 31 62 32 17 33 61 34 18 35 19 36 20 37
REMARK SMILES IDX 55 38 21 39 60 40 54 41 56 42 22 43 59 44 53 45 52 46 23 48
REMARK SMILES IDX 45 49 30 50 44 51 31 52 34 53 43 54 57 55 32 56 33 57 42 59
REMARK SMILES IDX 58 60 35 61 24 62 25 63 29 64 26 65 28 66 27 67 46 68 47 69
REMARK SMILES IDX 51 70 48 71 50 72 49 73 36 74 37 75 41 76 38 77 40 78 39 79
REMARK H PARENT 8 6 4 9 4 10 65 20 12 28 56 47 34 58
REMARK Flexibility Score: inf
ROOT
ATOM      1  C   UNL A   1      31.927  28.118  27.320  1.00  0.00     0.042 C 
ENDROOT
BRANCH   1   2
ATOM      2  C   UNL A   1      31.496  27.132  26.214  1.00  0.00     0.118 C 
BRANCH   2   3
ATOM      3  N   UNL A   1      31.001  25.842  26.668  1.00  0.00    -0.351 N 
ATOM      4  C   UNL A   1      31.507  24.567  26.611  1.00  0.00     0.283 C 
ATOM      5  O   UNL A   1      30.942  23.774  27.372  1.00  0.00    -0.268 OA
ATOM      6  H   UNL A   1      30.122  25.894  27.106  1.00  0.00     0.163 HD
BRANCH   4   7
ATOM      7  C   UNL A   1      32.735  24.181  25.748  1.00  0.00     0.306 C 
BRANCH   7   8
ATOM      8  N   UNL A   1      32.388  23.821  24.364  1.00  0.00    -0.330 N 
ATOM      9  H   UNL A   1      32.476  22.805  24.325  1.00  0.00     0.347 HD
ATOM     10  H   UNL A   1      31.494  24.303  24.280  1.00  0.00     0.347 HD
BRANCH   8  11
ATOM     11  C   UNL A   1      33.037  24.303  23.163  1.00  0.00     0.176 C 
ATOM     12  C   UNL A   1      33.636  23.128  22.381  1.00  0.00     0.075 C 
ATOM     13  C   UNL A   1      32.305  25.232  22.195  1.00  0.00     0.075 C 
ENDBRANCH   8  11
ENDBRANCH   7   8
BRANCH   7  14
ATOM     14  C   UNL A   1      33.634  23.047  26.209  1.00  0.00     0.044 A 
ATOM     15  C   UNL A   1      34.725  23.208  27.061  1.00  0.00     0.094 A 
ATOM     16  C   UNL A   1      33.778  21.685  25.792  1.00  0.00     0.010 A 
ATOM     17  N   UNL A   1      35.725  22.546  26.389  1.00  0.00    -0.361 N 
ATOM     18  C   UNL A   1      35.161  21.495  25.712  1.00  0.00     0.046 A 
ATOM     19  C   UNL A   1      32.946  20.624  25.388  1.00  0.00     0.026 A 
ATOM     20  H   UNL A   1      36.680  22.785  26.395  1.00  0.00     0.166 HD
ATOM     21  C   UNL A   1      35.759  20.417  25.058  1.00  0.00     0.028 A 
ATOM     22  C   UNL A   1      33.540  19.457  24.895  1.00  0.00     0.018 A 
ATOM     23  C   UNL A   1      34.914  19.376  24.674  1.00  0.00     0.018 A 
ATOM     24  Br  UNL A   1      32.460  17.940  24.546  1.00  0.00    -0.051 Br
ENDBRANCH   7  14
ENDBRANCH   4   7
ENDBRANCH   2   3
ENDBRANCH   1   2
BRANCH   1  25
ATOM     25  C   UNL A   1      33.381  28.597  27.314  1.00  0.00     0.118 C 
BRANCH  25  26
ATOM     26  N   UNL A   1      33.476  29.997  27.690  1.00  0.00    -0.352 N 
ATOM     27  C   UNL A   1      34.496  30.690  28.295  1.00  0.00     0.251 C 
ATOM     28  H   UNL A   1      32.681  30.536  27.477  1.00  0.00     0.163 HD
ATOM     29  O   UNL A   1      34.267  31.809  28.743  1.00  0.00    -0.269 OA
BRANCH  27  30
ATOM     30  C   UNL A   1      35.867  30.128  28.423  1.00  0.00     0.039 A 
ATOM     31  C   UNL A   1      36.246  29.597  29.662  1.00  0.00     0.014 A 
ATOM     32  C   UNL A   1      36.815  30.224  27.401  1.00  0.00     0.014 A 
ATOM     33  C   UNL A   1      37.557  29.152  29.873  1.00  0.00     0.010 A 
ATOM     34  C   UNL A   1      38.115  29.740  27.598  1.00  0.00     0.010 A 
ATOM     35  C   UNL A   1      38.504  29.216  28.841  1.00  0.00    -0.014 A 
BRANCH  35  36
ATOM     36  C   UNL A   1      39.906  28.770  29.068  1.00  0.00     0.031 A 
ATOM     37  C   UNL A   1      40.911  29.694  29.706  1.00  0.00     0.074 A 
ATOM     38  C   UNL A   1      40.294  27.537  28.686  1.00  0.00     0.049 A 
ATOM     39  N   UNL A   1      42.180  29.488  29.960  1.00  0.00    -0.248 NA
ATOM     40  C   UNL A   1      40.430  31.028  30.099  1.00  0.00     0.031 C 
ATOM     41  C   UNL A   1      39.436  26.538  28.050  1.00  0.00     0.029 A 
ATOM     42  N   UNL A   1      41.516  26.918  28.779  1.00  0.00    -0.354 N 
ATOM     43  C   UNL A   1      42.651  30.665  30.526  1.00  0.00     0.074 A 
ATOM     44  C   UNL A   1      41.541  31.593  30.550  1.00  0.00     0.031 C 
ATOM     45  C   UNL A   1      40.153  25.425  27.823  1.00  0.00     0.029 A 
ATOM     46  C   UNL A   1      41.526  25.642  28.269  1.00  0.00     0.049 A 
ATOM     47  H   UNL A   1      42.310  27.346  29.173  1.00  0.00     0.167 HD
ATOM     48  C   UNL A   1      43.891  30.950  30.997  1.00  0.00     0.031 A 
ATOM     49  C   UNL A   1      42.527  24.747  28.167  1.00  0.00     0.031 A 
ATOM     50  C   UNL A   1      45.000  30.034  30.991  1.00  0.00     0.049 A 
ATOM     51  C   UNL A   1      43.899  25.093  28.673  1.00  0.00     0.074 A 
ATOM     52  C   UNL A   1      46.278  30.225  31.492  1.00  0.00     0.029 A 
ATOM     53  N   UNL A   1      44.969  28.757  30.456  1.00  0.00    -0.354 N 
ATOM     54  N   UNL A   1      44.311  26.195  29.250  1.00  0.00    -0.248 NA
ATOM     55  C   UNL A   1      44.940  24.065  28.522  1.00  0.00     0.031 C 
ATOM     56  C   UNL A   1      47.031  29.076  31.225  1.00  0.00     0.029 A 
ATOM     57  C   UNL A   1      46.209  28.156  30.596  1.00  0.00     0.049 A 
ATOM     58  H   UNL A   1      44.181  28.338  30.039  1.00  0.00     0.167 HD
ATOM     59  C   UNL A   1      45.651  25.985  29.551  1.00  0.00     0.074 A 
ATOM     60  C   UNL A   1      45.979  24.647  29.103  1.00  0.00     0.031 C 
ATOM     61  C   UNL A   1      46.528  26.826  30.148  1.00  0.00     0.031 A 
BRANCH  48  62
ATOM     62  C   UNL A   1      44.118  32.326  31.553  1.00  0.00    -0.014 A 
ATOM     63  C   UNL A   1      44.560  33.376  30.734  1.00  0.00     0.009 A 
ATOM     64  C   UNL A   1      43.841  32.587  32.904  1.00  0.00     0.009 A 
ATOM     65  C   UNL A   1      44.752  34.654  31.266  1.00  0.00     0.001 A 
ATOM     66  C   UNL A   1      44.012  33.871  33.427  1.00  0.00     0.001 A 
ATOM     67  C   UNL A   1      44.475  34.900  32.610  1.00  0.00     0.000 A 
ENDBRANCH  48  62
BRANCH  49  68
ATOM     68  C   UNL A   1      42.269  23.416  27.559  1.00  0.00    -0.014 A 
ATOM     69  C   UNL A   1      42.534  23.193  26.200  1.00  0.00     0.009 A 
ATOM     70  C   UNL A   1      41.747  22.369  28.333  1.00  0.00     0.009 A 
ATOM     71  C   UNL A   1      42.262  21.951  25.621  1.00  0.00     0.001 A 
ATOM     72  C   UNL A   1      41.498  21.122  27.757  1.00  0.00     0.001 A 
ATOM     73  C   UNL A   1      41.749  20.916  26.401  1.00  0.00     0.000 A 
ENDBRANCH  49  68
BRANCH  61  74
ATOM     74  C   UNL A   1      47.922  26.317  30.379  1.00  0.00    -0.014 A 
ATOM     75  C   UNL A   1      48.301  25.775  31.616  1.00  0.00     0.009 A 
ATOM     76  C   UNL A   1      48.857  26.347  29.333  1.00  0.00     0.009 A 
ATOM     77  C   UNL A   1      49.600  25.299  31.810  1.00  0.00     0.001 A 
ATOM     78  C   UNL A   1      50.147  25.849  29.521  1.00  0.00     0.001 A 
ATOM     79  C   UNL A   1      50.520  25.333  30.762  1.00  0.00     0.000 A 
ENDBRANCH  61  74
ENDBRANCH  35  36
ENDBRANCH  27  30
ENDBRANCH  25  26
ENDBRANCH   1  25
TORSDOF 13
ENDMDL
MODEL 2
REMARK VINA RESULT:     -11.0      2.230      7.477
REMARK SMILES CC(C)[NH2+][C@@H](C(=O)NCCCNC(=O)c1ccc(-c2c3nc(c(-c4ccccc4)c4ccc([nH]4)c(-c4ccccc4)c4nc(c(-c5ccccc5)c5ccc2[nH]5)C=C4)C=C3)cc1)c1c[nH]c2ccc(Br)cc12
REMARK SMILES IDX 10 1 9 2 8 3 6 4 7 5 5 7 4 8 2 11 1 12 3 13 63 14 64 15
REMARK SMILES IDX 72 16 65 17 66 18 71 19 67 21 69 22 68 23 70 24 11 25 12 26
REMARK SMILES IDX 13 27 14 29 15 30 16 31 62 32 17 33 61 34 18 35 19 36 20 37
REMARK SMILES IDX 55 38 21 39 60 40 54 41 56 42 22 43 59 44 53 45 52 46 23 48
REMARK SMILES IDX 45 49 30 50 44 51 31 52 34 53 43 54 57 55 32 56 33 57 42 59
REMARK SMILES IDX 58 60 35 61 24 62 25 63 29 64 26 65 28 66 27 67 46 68 47 69
REMARK SMILES IDX 51 70 48 71 50 72 49 73 36 74 37 75 41 76 38 77 40 78 39 79
REMARK H PARENT 8 6 4 9 4 10 65 20 12 28 56 47 34 58
REMARK Flexibility Score: inf
ROOT
ATOM      1  C   UNL A   1      37.279  19.638  24.989  1.00  0.00     0.042 C 
ENDROOT
BRANCH   1   2
ATOM      2  C   UNL A   1      35.994  20.488  24.923  1.00  0.00     0.118 C 
BRANCH   2   3
ATOM      3  N   UNL A   1      35.596  21.138  26.161  1.00  0.00    -0.351 N 
ATOM      4  C   UNL A   1      34.483  21.849  26.536  1.00  0.00     0.283 C 
ATOM      5  O   UNL A   1      34.368  21.984  27.758  1.00  0.00    -0.268 OA
ATOM      6  H   UNL A   1      36.263  21.053  26.879  1.00  0.00     0.163 HD
BRANCH   4   7
ATOM      7  C   UNL A   1      33.419  22.349  25.526  1.00  0.00     0.306 C 
BRANCH   7   8
ATOM      8  N   UNL A   1      33.995  23.040  24.362  1.00  0.00    -0.330 N 
ATOM      9  H   UNL A   1      34.015  24.026  24.621  1.00  0.00     0.347 HD
ATOM     10  H   UNL A   1      34.840  22.483  24.233  1.00  0.00     0.347 HD
BRANCH   8  11
ATOM     11  C   UNL A   1      33.481  23.016  23.008  1.00  0.00     0.176 C 
ATOM     12  C   UNL A   1      32.492  21.856  22.842  1.00  0.00     0.075 C 
ATOM     13  C   UNL A   1      32.894  24.275  22.370  1.00  0.00     0.075 C 
ENDBRANCH   8  11
ENDBRANCH   7   8
BRANCH   7  14
ATOM     14  C   UNL A   1      32.328  23.289  26.009  1.00  0.00     0.044 A 
ATOM     15  C   UNL A   1      31.059  22.878  26.410  1.00  0.00     0.094 A 
ATOM     16  C   UNL A   1      32.188  24.714  25.984  1.00  0.00     0.010 A 
ATOM     17  N   UNL A   1      30.236  23.715  25.695  1.00  0.00    -0.361 N 
ATOM     18  C   UNL A   1      30.872  24.922  25.555  1.00  0.00     0.046 A 
ATOM     19  C   UNL A   1      33.001  25.846  26.175  1.00  0.00     0.026 A 
ATOM     20  H   UNL A   1      29.345  23.488  25.346  1.00  0.00     0.166 HD
ATOM     21  C   UNL A   1      30.392  26.149  25.098  1.00  0.00     0.028 A 
ATOM     22  C   UNL A   1      32.470  27.110  25.891  1.00  0.00     0.018 A 
ATOM     23  C   UNL A   1      31.214  27.257  25.305  1.00  0.00     0.018 A 
ATOM     24  Br  UNL A   1      33.464  28.658  26.339  1.00  0.00    -0.051 Br
ENDBRANCH   7  14
ENDBRANCH   4   7
ENDBRANCH   2   3
ENDBRANCH   1   2
BRANCH   1  25
ATOM     25  C   UNL A   1      38.577  20.346  25.386  1.00  0.00     0.118 C 
BRANCH  25  26
ATOM     26  N   UNL A   1      39.645  19.392  25.630  1.00  0.00    -0.352 N 
ATOM     27  C   UNL A   1      40.950  19.593  26.010  1.00  0.00     0.251 C 
ATOM     28  H   UNL A   1      39.393  18.449  25.502  1.00  0.00     0.163 HD
ATOM     29  O   UNL A   1      41.742  18.661  25.917  1.00  0.00    -0.269 OA
BRANCH  27  30
ATOM     30  C   UNL A   1      41.429  20.900  26.529  1.00  0.00     0.039 A 
ATOM     31  C   UNL A   1      41.226  21.183  27.887  1.00  0.00     0.014 A 
ATOM     32  C   UNL A   1      41.954  21.892  25.696  1.00  0.00     0.014 A 
ATOM     33  C   UNL A   1      41.558  22.439  28.408  1.00  0.00     0.010 A 
ATOM     34  C   UNL A   1      42.326  23.134  26.226  1.00  0.00     0.010 A 
ATOM     35  C   UNL A   1      42.115  23.427  27.584  1.00  0.00    -0.014 A 
BRANCH  35  36
ATOM     36  C   UNL A   1      42.445  24.773  28.127  1.00  0.00     0.031 A 
ATOM     37  C   UNL A   1      43.855  25.111  28.533  1.00  0.00     0.074 A 
ATOM     38  C   UNL A   1      41.476  25.698  28.275  1.00  0.00     0.049 A 
ATOM     39  N   UNL A   1      44.324  26.222  29.047  1.00  0.00    -0.248 NA
ATOM     40  C   UNL A   1      44.869  24.061  28.350  1.00  0.00     0.031 C 
ATOM     41  C   UNL A   1      40.066  25.511  27.933  1.00  0.00     0.029 A 
ATOM     42  N   UNL A   1      41.535  26.983  28.758  1.00  0.00    -0.354 N 
ATOM     43  C   UNL A   1      45.678  26.001  29.261  1.00  0.00     0.074 A 
ATOM     44  C   UNL A   1      45.951  24.640  28.852  1.00  0.00     0.031 C 
ATOM     45  C   UNL A   1      39.396  26.644  28.201  1.00  0.00     0.029 A 
ATOM     46  C   UNL A   1      40.321  27.625  28.761  1.00  0.00     0.049 A 
ATOM     47  H   UNL A   1      42.368  27.404  29.070  1.00  0.00     0.167 HD
ATOM     48  C   UNL A   1      46.617  26.853  29.743  1.00  0.00     0.031 A 
ATOM     49  C   UNL A   1      39.985  28.863  29.173  1.00  0.00     0.031 A 
ATOM     50  C   UNL A   1      46.364  28.211  30.142  1.00  0.00     0.049 A 
ATOM     51  C   UNL A   1      41.039  29.781  29.726  1.00  0.00     0.074 A 
ATOM     52  C   UNL A   1      47.267  29.159  30.596  1.00  0.00     0.029 A 
ATOM     53  N   UNL A   1      45.118  28.817  30.139  1.00  0.00    -0.354 N 
ATOM     54  N   UNL A   1      42.323  29.569  29.874  1.00  0.00    -0.248 NA
ATOM     55  C   UNL A   1      40.593  31.115  30.158  1.00  0.00     0.031 C 
ATOM     56  C   UNL A   1      46.561  30.327  30.904  1.00  0.00     0.029 A 
ATOM     57  C   UNL A   1      45.226  30.118  30.602  1.00  0.00     0.049 A 
ATOM     58  H   UNL A   1      44.281  28.387  29.850  1.00  0.00     0.167 HD
ATOM     59  C   UNL A   1      42.843  30.747  30.395  1.00  0.00     0.074 A 
ATOM     60  C   UNL A   1      41.738  31.675  30.525  1.00  0.00     0.031 C 
ATOM     61  C   UNL A   1      44.123  31.034  30.731  1.00  0.00     0.031 A 
BRANCH  48  62
ATOM     62  C   UNL A   1      48.019  26.329  29.877  1.00  0.00    -0.014 A 
ATOM     63  C   UNL A   1      48.923  26.395  28.805  1.00  0.00     0.009 A 
ATOM     64  C   UNL A   1      48.454  25.807  31.105  1.00  0.00     0.009 A 
ATOM     65  C   UNL A   1      50.227  25.916  28.953  1.00  0.00     0.001 A 
ATOM     66  C   UNL A   1      49.765  25.351  31.255  1.00  0.00     0.001 A 
ATOM     67  C   UNL A   1      50.648  25.398  30.177  1.00  0.00     0.000 A 
ENDBRANCH  48  62
BRANCH  49  68
ATOM     68  C   UNL A   1      38.575  29.318  29.071  1.00  0.00    -0.014 A 
ATOM     69  C   UNL A   1      37.720  29.230  30.179  1.00  0.00     0.009 A 
ATOM     70  C   UNL A   1      38.078  29.833  27.865  1.00  0.00     0.009 A 
ATOM     71  C   UNL A   1      36.385  29.630  30.075  1.00  0.00     0.001 A 
ATOM     72  C   UNL A   1      36.750  30.253  27.770  1.00  0.00     0.001 A 
ATOM     73  C   UNL A   1      35.903  30.144  28.873  1.00  0.00     0.000 A 
ENDBRANCH  49  68
BRANCH  61  74
ATOM     74  C   UNL A   1      44.406  32.416  31.246  1.00  0.00    -0.014 A 
ATOM     75  C   UNL A   1      44.380  32.698  32.619  1.00  0.00     0.009 A 
ATOM     76  C   UNL A   1      44.739  33.439  30.346  1.00  0.00     0.009 A 
ATOM     77  C   UNL A   1      44.654  33.988  33.080  1.00  0.00     0.001 A 
ATOM     78  C   UNL A   1      45.036  34.722  30.809  1.00  0.00     0.001 A 
ATOM     79  C   UNL A   1      44.985  34.997  32.175  1.00  0.00     0.000 A 
ENDBRANCH  61  74
ENDBRANCH  35  36
ENDBRANCH  27  30
ENDBRANCH  25  26
ENDBRANCH   1  25
TORSDOF 13
ENDMDL
MODEL 3
REMARK VINA RESULT:     -11.0      1.948      6.562
REMARK SMILES CC(C)[NH2+][C@@H](C(=O)NCCCNC(=O)c1ccc(-c2c3nc(c(-c4ccccc4)c4ccc([nH]4)c(-c4ccccc4)c4nc(c(-c5ccccc5)c5ccc2[nH]5)C=C4)C=C3)cc1)c1c[nH]c2ccc(Br)cc12
REMARK SMILES IDX 10 1 9 2 8 3 6 4 7 5 5 7 4 8 2 11 1 12 3 13 63 14 64 15
REMARK SMILES IDX 72 16 65 17 66 18 71 19 67 21 69 22 68 23 70 24 11 25 12 26
REMARK SMILES IDX 13 27 14 29 15 30 16 31 62 32 17 33 61 34 18 35 19 36 20 37
REMARK SMILES IDX 55 38 21 39 60 40 54 41 56 42 22 43 59 44 53 45 52 46 23 48
REMARK SMILES IDX 45 49 30 50 44 51 31 52 34 53 43 54 57 55 32 56 33 57 42 59
REMARK SMILES IDX 58 60 35 61 24 62 25 63 29 64 26 65 28 66 27 67 46 68 47 69
REMARK SMILES IDX 51 70 48 71 50 72 49 73 36 74 37 75 41 76 38 77 40 78 39 79
REMARK H PARENT 8 6 4 9 4 10 65 20 12 28 56 47 34 58
REMARK Flexibility Score: inf
ROOT
ATOM      1  C   UNL A   1      33.286  27.932  26.809  1.00  0.00     0.042 C 
ENDROOT
BRANCH   1   2
ATOM      2  C   UNL A   1      31.796  27.988  27.205  1.00  0.00     0.118 C 
BRANCH   2   3
ATOM      3  N   UNL A   1      30.968  26.893  26.725  1.00  0.00    -0.351 N 
ATOM      4  C   UNL A   1      30.732  26.367  25.479  1.00  0.00     0.283 C 
ATOM      5  O   UNL A   1      30.207  25.249  25.503  1.00  0.00    -0.268 OA
ATOM      6  H   UNL A   1      30.474  26.434  27.441  1.00  0.00     0.163 HD
BRANCH   4   7
ATOM      7  C   UNL A   1      31.174  27.066  24.168  1.00  0.00     0.306 C 
BRANCH   7   8
ATOM      8  N   UNL A   1      30.054  27.376  23.265  1.00  0.00    -0.330 N 
ATOM      9  H   UNL A   1      30.411  27.191  22.327  1.00  0.00     0.347 HD
ATOM     10  H   UNL A   1      29.322  26.816  23.700  1.00  0.00     0.347 HD
BRANCH   8  11
ATOM     11  C   UNL A   1      29.360  28.644  23.161  1.00  0.00     0.176 C 
ATOM     12  C   UNL A   1      30.007  29.509  22.073  1.00  0.00     0.075 C 
ATOM     13  C   UNL A   1      27.840  28.695  23.010  1.00  0.00     0.075 C 
ENDBRANCH   8  11
ENDBRANCH   7   8
BRANCH   7  14
ATOM     14  C   UNL A   1      32.190  26.379  23.272  1.00  0.00     0.044 A 
ATOM     15  C   UNL A   1      32.140  26.391  21.879  1.00  0.00     0.094 A 
ATOM     16  C   UNL A   1      33.236  25.437  23.527  1.00  0.00     0.010 A 
ATOM     17  N   UNL A   1      32.285  25.060  21.567  1.00  0.00    -0.361 N 
ATOM     18  C   UNL A   1      33.098  24.485  22.511  1.00  0.00     0.046 A 
ATOM     19  C   UNL A   1      34.215  25.205  24.512  1.00  0.00     0.026 A 
ATOM     20  H   UNL A   1      31.877  24.600  20.798  1.00  0.00     0.166 HD
ATOM     21  C   UNL A   1      33.707  23.231  22.535  1.00  0.00     0.028 A 
ATOM     22  C   UNL A   1      34.966  24.026  24.447  1.00  0.00     0.018 A 
ATOM     23  C   UNL A   1      34.677  23.029  23.517  1.00  0.00     0.018 A 
ATOM     24  Br  UNL A   1      36.427  23.788  25.628  1.00  0.00    -0.051 Br
ENDBRANCH   7  14
ENDBRANCH   4   7
ENDBRANCH   2   3
ENDBRANCH   1   2
BRANCH   1  25
ATOM     25  C   UNL A   1      33.834  29.077  25.952  1.00  0.00     0.118 C 
BRANCH  25  26
ATOM     26  N   UNL A   1      33.753  30.346  26.654  1.00  0.00    -0.352 N 
ATOM     27  C   UNL A   1      34.532  30.857  27.664  1.00  0.00     0.251 C 
ATOM     28  H   UNL A   1      33.022  30.935  26.359  1.00  0.00     0.163 HD
ATOM     29  O   UNL A   1      34.134  31.842  28.277  1.00  0.00    -0.269 OA
BRANCH  27  30
ATOM     30  C   UNL A   1      35.840  30.255  28.035  1.00  0.00     0.039 A 
ATOM     31  C   UNL A   1      35.973  29.711  29.319  1.00  0.00     0.014 A 
ATOM     32  C   UNL A   1      36.961  30.325  27.203  1.00  0.00     0.014 A 
ATOM     33  C   UNL A   1      37.210  29.229  29.761  1.00  0.00     0.010 A 
ATOM     34  C   UNL A   1      38.189  29.804  27.630  1.00  0.00     0.010 A 
ATOM     35  C   UNL A   1      38.331  29.266  28.920  1.00  0.00    -0.014 A 
BRANCH  35  36
ATOM     36  C   UNL A   1      39.655  28.780  29.394  1.00  0.00     0.031 A 
ATOM     37  C   UNL A   1      40.196  27.453  28.929  1.00  0.00     0.074 A 
ATOM     38  C   UNL A   1      40.376  29.519  30.261  1.00  0.00     0.049 A 
ATOM     39  N   UNL A   1      41.318  26.857  29.254  1.00  0.00    -0.248 NA
ATOM     40  C   UNL A   1      39.364  26.691  27.985  1.00  0.00     0.031 C 
ATOM     41  C   UNL A   1      39.977  30.817  30.804  1.00  0.00     0.029 A 
ATOM     42  N   UNL A   1      41.598  29.276  30.839  1.00  0.00    -0.354 N 
ATOM     43  C   UNL A   1      41.319  25.649  28.569  1.00  0.00     0.074 A 
ATOM     44  C   UNL A   1      40.073  25.581  27.835  1.00  0.00     0.031 C 
ATOM     45  C   UNL A   1      40.943  31.264  31.623  1.00  0.00     0.029 A 
ATOM     46  C   UNL A   1      42.013  30.273  31.687  1.00  0.00     0.049 A 
ATOM     47  H   UNL A   1      42.127  28.465  30.662  1.00  0.00     0.167 HD
ATOM     48  C   UNL A   1      42.272  24.685  28.540  1.00  0.00     0.031 A 
ATOM     49  C   UNL A   1      43.126  30.379  32.438  1.00  0.00     0.031 A 
ATOM     50  C   UNL A   1      43.520  24.744  29.254  1.00  0.00     0.049 A 
ATOM     51  C   UNL A   1      44.158  29.287  32.408  1.00  0.00     0.074 A 
ATOM     52  C   UNL A   1      44.563  23.833  29.241  1.00  0.00     0.029 A 
ATOM     53  N   UNL A   1      43.893  25.767  30.109  1.00  0.00    -0.354 N 
ATOM     54  N   UNL A   1      44.162  28.174  31.715  1.00  0.00    -0.248 NA
ATOM     55  C   UNL A   1      45.344  29.473  33.258  1.00  0.00     0.031 C 
ATOM     56  C   UNL A   1      45.553  24.286  30.121  1.00  0.00     0.029 A 
ATOM     57  C   UNL A   1      45.142  25.500  30.646  1.00  0.00     0.049 A 
ATOM     58  H   UNL A   1      43.352  26.566  30.305  1.00  0.00     0.167 HD
ATOM     59  C   UNL A   1      45.358  27.540  32.028  1.00  0.00     0.074 A 
ATOM     60  C   UNL A   1      46.059  28.396  32.963  1.00  0.00     0.031 C 
ATOM     61  C   UNL A   1      45.832  26.355  31.576  1.00  0.00     0.031 A 
BRANCH  48  62
ATOM     62  C   UNL A   1      41.994  23.466  27.708  1.00  0.00    -0.014 A 
ATOM     63  C   UNL A   1      42.460  23.366  26.388  1.00  0.00     0.009 A 
ATOM     64  C   UNL A   1      41.296  22.384  28.268  1.00  0.00     0.009 A 
ATOM     65  C   UNL A   1      42.204  22.218  25.635  1.00  0.00     0.001 A 
ATOM     66  C   UNL A   1      41.063  21.228  27.519  1.00  0.00     0.001 A 
ATOM     67  C   UNL A   1      41.509  21.150  26.201  1.00  0.00     0.000 A 
ENDBRANCH  48  62
BRANCH  49  68
ATOM     68  C   UNL A   1      43.333  31.580  33.287  1.00  0.00    -0.014 A 
ATOM     69  C   UNL A   1      42.811  31.627  34.589  1.00  0.00     0.009 A 
ATOM     70  C   UNL A   1      44.044  32.685  32.797  1.00  0.00     0.009 A 
ATOM     71  C   UNL A   1      42.980  32.767  35.377  1.00  0.00     0.001 A 
ATOM     72  C   UNL A   1      44.230  33.816  33.595  1.00  0.00     0.001 A 
ATOM     73  C   UNL A   1      43.692  33.858  34.881  1.00  0.00     0.000 A 
ENDBRANCH  49  68
BRANCH  61  74
ATOM     74  C   UNL A   1      47.186  25.924  32.063  1.00  0.00    -0.014 A 
ATOM     75  C   UNL A   1      47.331  25.193  33.251  1.00  0.00     0.009 A 
ATOM     76  C   UNL A   1      48.327  26.225  31.304  1.00  0.00     0.009 A 
ATOM     77  C   UNL A   1      48.598  24.794  33.683  1.00  0.00     0.001 A 
ATOM     78  C   UNL A   1      49.590  25.806  31.726  1.00  0.00     0.001 A 
ATOM     79  C   UNL A   1      49.725  25.098  32.919  1.00  0.00     0.000 A 
ENDBRANCH  61  74
ENDBRANCH  35  36
ENDBRANCH  27  30
ENDBRANCH  25  26
ENDBRANCH   1  25
TORSDOF 13
ENDMDL
