MODEL 1
REMARK VINA RESULT:     -10.3      0.000      0.000
REMARK SMILES CCc1ccsc1C(=O)N(CC(=O)NCCCNC(=O)c1ccc(-c2c3nc(c(-c4ccccc4)c4ccc([nH]4)c(-c4ccccc4)c4nc(c(-c5ccccc5)c5ccc2[nH]5)C=C4)C=C3)cc1)C(C)(C)C
REMARK SMILES IDX 15 1 14 2 12 3 13 4 11 6 10 7 8 8 9 9 7 10 3 11 4 12 5 13
REMARK SMILES IDX 6 14 2 15 1 16 69 17 70 18 71 19 72 20 16 21 17 22 18 23
REMARK SMILES IDX 19 24 20 26 21 27 22 28 68 29 23 30 67 31 24 32 25 33 26 34
REMARK SMILES IDX 61 35 27 36 66 37 60 38 62 39 28 40 65 41 59 42 58 43 29 45
REMARK SMILES IDX 51 46 36 47 50 48 37 49 40 50 49 51 63 52 38 53 39 54 48 56
REMARK SMILES IDX 64 57 41 58 30 59 31 60 35 61 32 62 34 63 33 64 52 65 53 66
REMARK SMILES IDX 57 67 54 68 56 69 55 70 42 71 43 72 47 73 44 74 46 75 45 76
REMARK H PARENT 14 5 18 25 62 44 40 55
REMARK Flexibility Score: inf
ROOT
ATOM      1  C   UNL A   1      36.450  20.954  24.773  1.00  0.00     0.117 C 
ENDROOT
BRANCH   1   2
ATOM      2  N   UNL A   1      35.627  20.975  25.964  1.00  0.00    -0.354 N 
ATOM      3  C   UNL A   1      34.804  21.955  26.427  1.00  0.00     0.239 C 
ATOM      4  O   UNL A   1      34.235  21.768  27.504  1.00  0.00    -0.273 OA
ATOM      5  H   UNL A   1      35.668  20.162  26.518  1.00  0.00     0.163 HD
BRANCH   3   6
ATOM      6  C   UNL A   1      34.485  23.168  25.550  1.00  0.00     0.220 C 
BRANCH   6   7
ATOM      7  N   UNL A   1      33.128  23.666  25.345  1.00  0.00    -0.324 N 
BRANCH   7   8
ATOM      8  C   UNL A   1      32.663  24.911  25.865  1.00  0.00     0.265 C 
ATOM      9  O   UNL A   1      31.874  24.839  26.817  1.00  0.00    -0.268 OA
BRANCH   8  10
ATOM     10  C   UNL A   1      33.079  26.278  25.403  1.00  0.00     0.095 A 
ATOM     11  C   UNL A   1      33.228  27.594  25.890  1.00  0.00    -0.025 A 
ATOM     12  C   UNL A   1      33.667  28.498  24.840  1.00  0.00     0.016 A 
ATOM     13  C   UNL A   1      33.912  27.893  23.641  1.00  0.00     0.066 A 
ATOM     14  S   UNL A   1      33.583  26.243  23.708  1.00  0.00    -0.138 S 
BRANCH  11  15
ATOM     15  C   UNL A   1      32.989  28.221  27.247  1.00  0.00     0.034 C 
ATOM     16  C   UNL A   1      31.551  28.239  27.722  1.00  0.00     0.009 C 
ENDBRANCH  11  15
ENDBRANCH   8  10
ENDBRANCH   7   8
BRANCH   7  17
ATOM     17  C   UNL A   1      32.153  22.781  24.573  1.00  0.00     0.035 C 
ATOM     18  C   UNL A   1      31.410  21.820  25.525  1.00  0.00     0.034 C 
ATOM     19  C   UNL A   1      31.120  23.620  23.776  1.00  0.00     0.034 C 
ATOM     20  C   UNL A   1      32.840  21.893  23.503  1.00  0.00     0.034 C 
ENDBRANCH   7  17
ENDBRANCH   6   7
ENDBRANCH   3   6
ENDBRANCH   1   2
BRANCH   1  21
ATOM     21  C   UNL A   1      37.564  19.928  24.889  1.00  0.00     0.042 C 
BRANCH  21  22
ATOM     22  C   UNL A   1      38.727  20.435  25.729  1.00  0.00     0.118 C 
BRANCH  22  23
ATOM     23  N   UNL A   1      39.806  19.458  25.803  1.00  0.00    -0.352 N 
ATOM     24  C   UNL A   1      41.134  19.667  26.073  1.00  0.00     0.251 C 
ATOM     25  H   UNL A   1      39.546  18.524  25.638  1.00  0.00     0.163 HD
ATOM     26  O   UNL A   1      41.955  18.784  25.871  1.00  0.00    -0.269 OA
BRANCH  24  27
ATOM     27  C   UNL A   1      41.554  20.977  26.602  1.00  0.00     0.039 A 
ATOM     28  C   UNL A   1      42.017  21.949  25.716  1.00  0.00     0.014 A 
ATOM     29  C   UNL A   1      41.471  21.241  27.973  1.00  0.00     0.014 A 
ATOM     30  C   UNL A   1      42.355  23.211  26.203  1.00  0.00     0.010 A 
ATOM     31  C   UNL A   1      41.722  22.522  28.442  1.00  0.00     0.010 A 
ATOM     32  C   UNL A   1      42.182  23.515  27.564  1.00  0.00    -0.014 A 
BRANCH  32  33
ATOM     33  C   UNL A   1      42.493  24.863  28.095  1.00  0.00     0.031 A 
ATOM     34  C   UNL A   1      43.894  25.190  28.532  1.00  0.00     0.074 A 
ATOM     35  C   UNL A   1      41.505  25.767  28.237  1.00  0.00     0.049 A 
ATOM     36  N   UNL A   1      44.354  26.291  29.070  1.00  0.00    -0.248 NA
ATOM     37  C   UNL A   1      44.906  24.132  28.373  1.00  0.00     0.031 C 
ATOM     38  C   UNL A   1      40.098  25.549  27.891  1.00  0.00     0.029 A 
ATOM     39  N   UNL A   1      41.534  27.051  28.717  1.00  0.00    -0.354 N 
ATOM     40  C   UNL A   1      45.698  26.050  29.329  1.00  0.00     0.074 A 
ATOM     41  C   UNL A   1      45.968  24.683  28.943  1.00  0.00     0.031 C 
ATOM     42  C   UNL A   1      39.406  26.672  28.141  1.00  0.00     0.029 A 
ATOM     43  C   UNL A   1      40.307  27.669  28.707  1.00  0.00     0.049 A 
ATOM     44  H   UNL A   1      42.355  27.487  29.039  1.00  0.00     0.167 HD
ATOM     45  C   UNL A   1      46.629  26.897  29.825  1.00  0.00     0.031 A 
ATOM     46  C   UNL A   1      39.950  28.901  29.116  1.00  0.00     0.031 A 
ATOM     47  C   UNL A   1      46.358  28.260  30.195  1.00  0.00     0.049 A 
ATOM     48  C   UNL A   1      41.002  29.820  29.672  1.00  0.00     0.074 A 
ATOM     49  C   UNL A   1      47.244  29.221  30.647  1.00  0.00     0.029 A 
ATOM     50  N   UNL A   1      45.105  28.853  30.158  1.00  0.00    -0.354 N 
ATOM     51  N   UNL A   1      42.284  29.604  29.836  1.00  0.00    -0.248 NA
ATOM     52  C   UNL A   1      40.557  31.158  30.086  1.00  0.00     0.031 C 
ATOM     53  C   UNL A   1      46.518  30.378  30.942  1.00  0.00     0.029 A 
ATOM     54  C   UNL A   1      45.190  30.159  30.608  1.00  0.00     0.049 A 
ATOM     55  H   UNL A   1      44.279  28.410  29.857  1.00  0.00     0.167 HD
ATOM     56  C   UNL A   1      42.806  30.787  30.343  1.00  0.00     0.074 A 
ATOM     57  C   UNL A   1      41.703  31.722  30.442  1.00  0.00     0.031 C 
ATOM     58  C   UNL A   1      44.083  31.075  30.696  1.00  0.00     0.031 A 
BRANCH  45  59
ATOM     59  C   UNL A   1      48.026  26.371  30.003  1.00  0.00    -0.014 A 
ATOM     60  C   UNL A   1      48.433  25.769  31.205  1.00  0.00     0.009 A 
ATOM     61  C   UNL A   1      48.937  26.440  28.937  1.00  0.00     0.009 A 
ATOM     62  C   UNL A   1      49.733  25.279  31.347  1.00  0.00     0.001 A 
ATOM     63  C   UNL A   1      50.226  25.920  29.072  1.00  0.00     0.001 A 
ATOM     64  C   UNL A   1      50.625  25.349  30.279  1.00  0.00     0.000 A 
ENDBRANCH  45  59
BRANCH  46  65
ATOM     65  C   UNL A   1      38.534  29.342  29.009  1.00  0.00    -0.014 A 
ATOM     66  C   UNL A   1      37.668  29.245  30.111  1.00  0.00     0.009 A 
ATOM     67  C   UNL A   1      38.034  29.852  27.799  1.00  0.00     0.009 A 
ATOM     68  C   UNL A   1      36.327  29.617  29.993  1.00  0.00     0.001 A 
ATOM     69  C   UNL A   1      36.700  30.253  27.696  1.00  0.00     0.001 A 
ATOM     70  C   UNL A   1      35.845  30.124  28.787  1.00  0.00     0.000 A 
ENDBRANCH  46  65
BRANCH  58  71
ATOM     71  C   UNL A   1      44.365  32.470  31.179  1.00  0.00    -0.014 A 
ATOM     72  C   UNL A   1      44.314  32.797  32.543  1.00  0.00     0.009 A 
ATOM     73  C   UNL A   1      44.734  33.460  30.255  1.00  0.00     0.009 A 
ATOM     74  C   UNL A   1      44.592  34.099  32.966  1.00  0.00     0.001 A 
ATOM     75  C   UNL A   1      45.044  34.750  30.684  1.00  0.00     0.001 A 
ATOM     76  C   UNL A   1      44.963  35.071  32.037  1.00  0.00     0.000 A 
ENDBRANCH  58  71
ENDBRANCH  32  33
ENDBRANCH  24  27
ENDBRANCH  22  23
ENDBRANCH  21  22
ENDBRANCH   1  21
TORSDOF 15
ENDMDL
MODEL 2
REMARK VINA RESULT:     -10.2      0.454      6.091
REMARK SMILES CCc1ccsc1C(=O)N(CC(=O)NCCCNC(=O)c1ccc(-c2c3nc(c(-c4ccccc4)c4ccc([nH]4)c(-c4ccccc4)c4nc(c(-c5ccccc5)c5ccc2[nH]5)C=C4)C=C3)cc1)C(C)(C)C
REMARK SMILES IDX 15 1 14 2 12 3 13 4 11 6 10 7 8 8 9 9 7 10 3 11 4 12 5 13
REMARK SMILES IDX 6 14 2 15 1 16 69 17 70 18 71 19 72 20 16 21 17 22 18 23
REMARK SMILES IDX 19 24 20 26 21 27 22 28 68 29 23 30 67 31 24 32 25 33 26 34
REMARK SMILES IDX 61 35 27 36 66 37 60 38 62 39 28 40 65 41 59 42 58 43 29 45
REMARK SMILES IDX 51 46 36 47 50 48 37 49 40 50 49 51 63 52 38 53 39 54 48 56
REMARK SMILES IDX 64 57 41 58 30 59 31 60 35 61 32 62 34 63 33 64 52 65 53 66
REMARK SMILES IDX 57 67 54 68 56 69 55 70 42 71 43 72 47 73 44 74 46 75 45 76
REMARK H PARENT 14 5 18 25 62 44 40 55
REMARK Flexibility Score: inf
ROOT
ATOM      1  C   UNL A   1      36.626  21.194  24.727  1.00  0.00     0.117 C 
ENDROOT
BRANCH   1   2
ATOM      2  N   UNL A   1      35.876  21.428  25.942  1.00  0.00    -0.354 N 
ATOM      3  C   UNL A   1      35.021  22.442  26.247  1.00  0.00     0.239 C 
ATOM      4  O   UNL A   1      34.531  22.462  27.377  1.00  0.00    -0.273 OA
ATOM      5  H   UNL A   1      36.002  20.756  26.651  1.00  0.00     0.163 HD
BRANCH   3   6
ATOM      6  C   UNL A   1      34.573  23.421  25.159  1.00  0.00     0.220 C 
BRANCH   6   7
ATOM      7  N   UNL A   1      33.187  23.848  24.996  1.00  0.00    -0.324 N 
BRANCH   7   8
ATOM      8  C   UNL A   1      32.660  25.042  25.573  1.00  0.00     0.265 C 
ATOM      9  O   UNL A   1      31.866  24.886  26.510  1.00  0.00    -0.268 OA
BRANCH   8  10
ATOM     10  C   UNL A   1      33.019  26.449  25.187  1.00  0.00     0.095 A 
ATOM     11  C   UNL A   1      33.167  27.731  25.757  1.00  0.00    -0.025 A 
ATOM     12  C   UNL A   1      33.526  28.717  24.752  1.00  0.00     0.016 A 
ATOM     13  C   UNL A   1      33.716  28.204  23.502  1.00  0.00     0.066 A 
ATOM     14  S   UNL A   1      33.427  26.545  23.469  1.00  0.00    -0.138 S 
BRANCH  11  15
ATOM     15  C   UNL A   1      32.992  28.255  27.167  1.00  0.00     0.034 C 
ATOM     16  C   UNL A   1      31.568  28.308  27.680  1.00  0.00     0.009 C 
ENDBRANCH  11  15
ENDBRANCH   8  10
ENDBRANCH   7   8
BRANCH   7  17
ATOM     17  C   UNL A   1      32.251  22.939  24.203  1.00  0.00     0.035 C 
ATOM     18  C   UNL A   1      32.948  22.400  22.936  1.00  0.00     0.034 C 
ATOM     19  C   UNL A   1      31.743  21.749  25.059  1.00  0.00     0.034 C 
ATOM     20  C   UNL A   1      30.959  23.650  23.723  1.00  0.00     0.034 C 
ENDBRANCH   7  17
ENDBRANCH   6   7
ENDBRANCH   3   6
ENDBRANCH   1   2
BRANCH   1  21
ATOM     21  C   UNL A   1      37.645  20.083  24.911  1.00  0.00     0.042 C 
BRANCH  21  22
ATOM     22  C   UNL A   1      38.830  20.524  25.758  1.00  0.00     0.118 C 
BRANCH  22  23
ATOM     23  N   UNL A   1      39.863  19.498  25.819  1.00  0.00    -0.352 N 
ATOM     24  C   UNL A   1      41.201  19.645  26.078  1.00  0.00     0.251 C 
ATOM     25  H   UNL A   1      39.559  18.577  25.652  1.00  0.00     0.163 HD
ATOM     26  O   UNL A   1      41.980  18.725  25.865  1.00  0.00    -0.269 OA
BRANCH  24  27
ATOM     27  C   UNL A   1      41.686  20.931  26.610  1.00  0.00     0.039 A 
ATOM     28  C   UNL A   1      42.153  21.899  25.721  1.00  0.00     0.014 A 
ATOM     29  C   UNL A   1      41.659  21.178  27.986  1.00  0.00     0.014 A 
ATOM     30  C   UNL A   1      42.553  23.141  26.212  1.00  0.00     0.010 A 
ATOM     31  C   UNL A   1      41.971  22.443  28.462  1.00  0.00     0.010 A 
ATOM     32  C   UNL A   1      42.436  23.431  27.582  1.00  0.00    -0.014 A 
BRANCH  32  33
ATOM     33  C   UNL A   1      42.814  24.760  28.119  1.00  0.00     0.031 A 
ATOM     34  C   UNL A   1      41.757  25.808  28.332  1.00  0.00     0.074 A 
ATOM     35  C   UNL A   1      44.109  25.038  28.356  1.00  0.00     0.049 A 
ATOM     36  N   UNL A   1      41.893  27.044  28.742  1.00  0.00    -0.248 NA
ATOM     37  C   UNL A   1      40.370  25.431  28.015  1.00  0.00     0.031 C 
ATOM     38  C   UNL A   1      45.230  24.117  28.144  1.00  0.00     0.029 A 
ATOM     39  N   UNL A   1      44.705  26.182  28.824  1.00  0.00    -0.354 N 
ATOM     40  C   UNL A   1      40.617  27.592  28.713  1.00  0.00     0.074 A 
ATOM     41  C   UNL A   1      39.728  26.576  28.193  1.00  0.00     0.031 C 
ATOM     42  C   UNL A   1      46.370  24.722  28.510  1.00  0.00     0.029 A 
ATOM     43  C   UNL A   1      46.070  26.084  28.937  1.00  0.00     0.049 A 
ATOM     44  H   UNL A   1      44.201  26.995  29.056  1.00  0.00     0.167 HD
ATOM     45  C   UNL A   1      40.216  28.824  29.103  1.00  0.00     0.031 A 
ATOM     46  C   UNL A   1      46.978  26.995  29.333  1.00  0.00     0.031 A 
ATOM     47  C   UNL A   1      41.102  29.827  29.631  1.00  0.00     0.049 A 
ATOM     48  C   UNL A   1      46.508  28.360  29.752  1.00  0.00     0.074 A 
ATOM     49  C   UNL A   1      40.787  31.084  30.115  1.00  0.00     0.029 A 
ATOM     50  N   UNL A   1      42.476  29.685  29.742  1.00  0.00    -0.354 N 
ATOM     51  N   UNL A   1      45.288  28.837  29.795  1.00  0.00    -0.248 NA
ATOM     52  C   UNL A   1      47.541  29.308  30.192  1.00  0.00     0.031 C 
ATOM     53  C   UNL A   1      41.979  31.727  30.462  1.00  0.00     0.029 A 
ATOM     54  C   UNL A   1      43.028  30.843  30.258  1.00  0.00     0.049 A 
ATOM     55  H   UNL A   1      42.984  28.880  29.489  1.00  0.00     0.167 HD
ATOM     56  C   UNL A   1      45.402  30.128  30.293  1.00  0.00     0.074 A 
ATOM     57  C   UNL A   1      46.809  30.351  30.556  1.00  0.00     0.031 C 
ATOM     58  C   UNL A   1      44.430  31.047  30.516  1.00  0.00     0.031 A 
BRANCH  45  59
ATOM     59  C   UNL A   1      38.757  29.159  28.964  1.00  0.00    -0.014 A 
ATOM     60  C   UNL A   1      37.872  29.036  30.047  1.00  0.00     0.009 A 
ATOM     61  C   UNL A   1      38.268  29.646  27.741  1.00  0.00     0.009 A 
ATOM     62  C   UNL A   1      36.522  29.360  29.899  1.00  0.00     0.001 A 
ATOM     63  C   UNL A   1      36.923  29.999  27.606  1.00  0.00     0.001 A 
ATOM     64  C   UNL A   1      36.051  29.847  28.682  1.00  0.00     0.000 A 
ENDBRANCH  45  59
BRANCH  46  65
ATOM     65  C   UNL A   1      48.424  26.647  29.361  1.00  0.00    -0.014 A 
ATOM     66  C   UNL A   1      49.241  26.896  28.246  1.00  0.00     0.009 A 
ATOM     67  C   UNL A   1      48.994  26.051  30.498  1.00  0.00     0.009 A 
ATOM     68  C   UNL A   1      50.588  26.524  28.258  1.00  0.00     0.001 A 
ATOM     69  C   UNL A   1      50.348  25.711  30.518  1.00  0.00     0.001 A 
ATOM     70  C   UNL A   1      51.141  25.936  29.395  1.00  0.00     0.000 A 
ENDBRANCH  46  65
BRANCH  58  71
ATOM     71  C   UNL A   1      44.850  32.362  31.110  1.00  0.00    -0.014 A 
ATOM     72  C   UNL A   1      45.174  33.461  30.301  1.00  0.00     0.009 A 
ATOM     73  C   UNL A   1      44.874  32.512  32.506  1.00  0.00     0.009 A 
ATOM     74  C   UNL A   1      45.550  34.676  30.881  1.00  0.00     0.001 A 
ATOM     75  C   UNL A   1      45.216  33.736  33.081  1.00  0.00     0.001 A 
ATOM     76  C   UNL A   1      45.564  34.813  32.268  1.00  0.00     0.000 A 
ENDBRANCH  58  71
ENDBRANCH  32  33
ENDBRANCH  24  27
ENDBRANCH  22  23
ENDBRANCH  21  22
ENDBRANCH   1  21
TORSDOF 15
ENDMDL
MODEL 3
REMARK VINA RESULT:     -10.1      3.817      8.755
REMARK SMILES CCc1ccsc1C(=O)N(CC(=O)NCCCNC(=O)c1ccc(-c2c3nc(c(-c4ccccc4)c4ccc([nH]4)c(-c4ccccc4)c4nc(c(-c5ccccc5)c5ccc2[nH]5)C=C4)C=C3)cc1)C(C)(C)C
REMARK SMILES IDX 15 1 14 2 12 3 13 4 11 6 10 7 8 8 9 9 7 10 3 11 4 12 5 13
REMARK SMILES IDX 6 14 2 15 1 16 69 17 70 18 71 19 72 20 16 21 17 22 18 23
REMARK SMILES IDX 19 24 20 26 21 27 22 28 68 29 23 30 67 31 24 32 25 33 26 34
REMARK SMILES IDX 61 35 27 36 66 37 60 38 62 39 28 40 65 41 59 42 58 43 29 45
REMARK SMILES IDX 51 46 36 47 50 48 37 49 40 50 49 51 63 52 38 53 39 54 48 56
REMARK SMILES IDX 64 57 41 58 30 59 31 60 35 61 32 62 34 63 33 64 52 65 53 66
REMARK SMILES IDX 57 67 54 68 56 69 55 70 42 71 43 72 47 73 44 74 46 75 45 76
REMARK H PARENT 14 5 18 25 62 44 40 55
REMARK Flexibility Score: inf
ROOT
ATOM      1  C   UNL A   1      31.853  30.377  25.914  1.00  0.00     0.117 C 
ENDROOT
BRANCH   1   2
ATOM      2  N   UNL A   1      31.893  29.273  26.850  1.00  0.00    -0.354 N 
ATOM      3  C   UNL A   1      31.464  27.991  26.692  1.00  0.00     0.239 C 
ATOM      4  O   UNL A   1      31.555  27.230  27.656  1.00  0.00    -0.273 OA
ATOM      5  H   UNL A   1      32.288  29.479  27.728  1.00  0.00     0.163 HD
BRANCH   3   6
ATOM      6  C   UNL A   1      31.037  27.490  25.310  1.00  0.00     0.220 C 
BRANCH   6   7
ATOM      7  N   UNL A   1      31.866  26.609  24.492  1.00  0.00    -0.324 N 
BRANCH   7   8
ATOM      8  C   UNL A   1      31.823  25.186  24.581  1.00  0.00     0.265 C 
ATOM      9  O   UNL A   1      31.073  24.616  23.777  1.00  0.00    -0.268 OA
BRANCH   8  10
ATOM     10  C   UNL A   1      32.634  24.328  25.510  1.00  0.00     0.095 A 
ATOM     11  C   UNL A   1      33.971  23.954  25.760  1.00  0.00    -0.025 A 
ATOM     12  C   UNL A   1      34.058  23.008  26.859  1.00  0.00     0.016 A 
ATOM     13  C   UNL A   1      32.864  22.734  27.463  1.00  0.00     0.066 A 
ATOM     14  S   UNL A   1      31.596  23.553  26.715  1.00  0.00    -0.138 S 
BRANCH  11  15
ATOM     15  C   UNL A   1      35.281  24.318  25.094  1.00  0.00     0.034 C 
ATOM     16  C   UNL A   1      36.531  23.771  25.753  1.00  0.00     0.009 C 
ENDBRANCH  11  15
ENDBRANCH   8  10
ENDBRANCH   7   8
BRANCH   7  17
ATOM     17  C   UNL A   1      32.860  27.257  23.531  1.00  0.00     0.035 C 
ATOM     18  C   UNL A   1      32.187  28.385  22.720  1.00  0.00     0.034 C 
ATOM     19  C   UNL A   1      34.097  27.824  24.276  1.00  0.00     0.034 C 
ATOM     20  C   UNL A   1      33.453  26.267  22.495  1.00  0.00     0.034 C 
ENDBRANCH   7  17
ENDBRANCH   6   7
ENDBRANCH   3   6
ENDBRANCH   1   2
BRANCH   1  21
ATOM     21  C   UNL A   1      31.515  31.682  26.613  1.00  0.00     0.042 C 
BRANCH  21  22
ATOM     22  C   UNL A   1      32.734  32.318  27.265  1.00  0.00     0.118 C 
BRANCH  22  23
ATOM     23  N   UNL A   1      32.506  33.720  27.585  1.00  0.00    -0.352 N 
ATOM     24  C   UNL A   1      33.156  34.506  28.502  1.00  0.00     0.251 C 
ATOM     25  H   UNL A   1      31.791  34.163  27.075  1.00  0.00     0.163 HD
ATOM     26  O   UNL A   1      32.699  35.595  28.822  1.00  0.00    -0.269 OA
BRANCH  24  27
ATOM     27  C   UNL A   1      34.408  34.012  29.103  1.00  0.00     0.039 A 
ATOM     28  C   UNL A   1      34.344  33.214  30.244  1.00  0.00     0.014 A 
ATOM     29  C   UNL A   1      35.639  34.328  28.520  1.00  0.00     0.014 A 
ATOM     30  C   UNL A   1      35.520  32.691  30.779  1.00  0.00     0.010 A 
ATOM     31  C   UNL A   1      36.798  33.734  29.000  1.00  0.00     0.010 A 
ATOM     32  C   UNL A   1      36.752  32.923  30.143  1.00  0.00    -0.014 A 
BRANCH  32  33
ATOM     33  C   UNL A   1      38.008  32.341  30.669  1.00  0.00     0.031 A 
ATOM     34  C   UNL A   1      38.552  31.072  30.072  1.00  0.00     0.074 A 
ATOM     35  C   UNL A   1      38.623  32.919  31.717  1.00  0.00     0.049 A 
ATOM     36  N   UNL A   1      39.605  30.380  30.426  1.00  0.00    -0.248 NA
ATOM     37  C   UNL A   1      37.799  30.487  28.950  1.00  0.00     0.031 C 
ATOM     38  C   UNL A   1      38.165  34.127  32.411  1.00  0.00     0.029 A 
ATOM     39  N   UNL A   1      39.765  32.565  32.389  1.00  0.00    -0.354 N 
ATOM     40  C   UNL A   1      39.628  29.273  29.585  1.00  0.00     0.074 A 
ATOM     41  C   UNL A   1      38.456  29.355  28.742  1.00  0.00     0.031 C 
ATOM     42  C   UNL A   1      39.034  34.429  33.387  1.00  0.00     0.029 A 
ATOM     43  C   UNL A   1      40.082  33.414  33.421  1.00  0.00     0.049 A 
ATOM     44  H   UNL A   1      40.305  31.777  32.154  1.00  0.00     0.167 HD
ATOM     45  C   UNL A   1      40.552  28.288  29.508  1.00  0.00     0.031 A 
ATOM     46  C   UNL A   1      41.100  33.375  34.300  1.00  0.00     0.031 A 
ATOM     47  C   UNL A   1      41.723  28.219  30.341  1.00  0.00     0.049 A 
ATOM     48  C   UNL A   1      42.109  32.264  34.199  1.00  0.00     0.074 A 
ATOM     49  C   UNL A   1      42.754  27.298  30.300  1.00  0.00     0.029 A 
ATOM     50  N   UNL A   1      42.015  29.106  31.366  1.00  0.00    -0.354 N 
ATOM     51  N   UNL A   1      42.160  31.269  33.347  1.00  0.00    -0.248 NA
ATOM     52  C   UNL A   1      43.208  32.280  35.173  1.00  0.00     0.031 C 
ATOM     53  C   UNL A   1      43.640  27.591  31.340  1.00  0.00     0.029 A 
ATOM     54  C   UNL A   1      43.196  28.736  31.984  1.00  0.00     0.049 A 
ATOM     55  H   UNL A   1      41.463  29.882  31.616  1.00  0.00     0.167 HD
ATOM     56  C   UNL A   1      43.310  30.558  33.662  1.00  0.00     0.074 A 
ATOM     57  C   UNL A   1      43.937  31.248  34.771  1.00  0.00     0.031 C 
ATOM     58  C   UNL A   1      43.806  29.436  33.085  1.00  0.00     0.031 A 
BRANCH  45  59
ATOM     59  C   UNL A   1      40.329  27.201  28.494  1.00  0.00    -0.014 A 
ATOM     60  C   UNL A   1      39.555  26.068  28.794  1.00  0.00     0.009 A 
ATOM     61  C   UNL A   1      40.867  27.331  27.204  1.00  0.00     0.009 A 
ATOM     62  C   UNL A   1      39.353  25.074  27.835  1.00  0.00     0.001 A 
ATOM     63  C   UNL A   1      40.636  26.350  26.237  1.00  0.00     0.001 A 
ATOM     64  C   UNL A   1      39.888  25.219  26.557  1.00  0.00     0.000 A 
ENDBRANCH  45  59
BRANCH  46  65
ATOM     65  C   UNL A   1      41.224  34.421  35.349  1.00  0.00    -0.014 A 
ATOM     66  C   UNL A   1      40.583  34.271  36.590  1.00  0.00     0.009 A 
ATOM     67  C   UNL A   1      41.974  35.584  35.112  1.00  0.00     0.009 A 
ATOM     68  C   UNL A   1      40.663  35.277  37.555  1.00  0.00     0.001 A 
ATOM     69  C   UNL A   1      42.078  36.573  36.093  1.00  0.00     0.001 A 
ATOM     70  C   UNL A   1      41.413  36.425  37.307  1.00  0.00     0.000 A 
ENDBRANCH  46  65
BRANCH  58  71
ATOM     71  C   UNL A   1      45.110  28.908  33.615  1.00  0.00    -0.014 A 
ATOM     72  C   UNL A   1      46.340  29.356  33.110  1.00  0.00     0.009 A 
ATOM     73  C   UNL A   1      45.102  27.982  34.669  1.00  0.00     0.009 A 
ATOM     74  C   UNL A   1      47.537  28.858  33.628  1.00  0.00     0.001 A 
ATOM     75  C   UNL A   1      46.300  27.511  35.207  1.00  0.00     0.001 A 
ATOM     76  C   UNL A   1      47.516  27.942  34.679  1.00  0.00     0.000 A 
ENDBRANCH  58  71
ENDBRANCH  32  33
ENDBRANCH  24  27
ENDBRANCH  22  23
ENDBRANCH  21  22
ENDBRANCH   1  21
TORSDOF 15
ENDMDL
