MODEL 1
REMARK VINA RESULT:     -10.7      0.000      0.000
REMARK SMILES O=C(NCCCNC(=O)c1ccc(C[NH2+]Cc2cc(F)ccc2F)nc1)c1ccc(-c2c3nc(c(-c4ccccc4)c4ccc([nH]4)c(-c4ccccc4)c4nc(c(-c5ccccc5)c5ccc2[nH]5)C=C4)C=C3)cc1
REMARK SMILES IDX 6 1 5 2 4 3 3 4 1 5 2 6 27 8 28 9 74 10 29 11 73 12 30 13
REMARK SMILES IDX 31 14 32 15 67 16 33 17 72 18 66 19 68 20 34 21 71 22 65 23
REMARK SMILES IDX 64 24 35 26 57 27 42 28 56 29 43 30 46 31 55 32 69 33 44 34
REMARK SMILES IDX 45 35 54 37 70 38 47 39 36 40 37 41 41 42 38 43 40 44 39 45
REMARK SMILES IDX 58 46 59 47 63 48 60 49 62 50 61 51 48 52 49 53 53 54 50 55
REMARK SMILES IDX 52 56 51 57 7 58 8 59 9 61 10 62 11 63 26 64 12 65 25 66
REMARK SMILES IDX 13 67 14 68 15 69 16 72 17 73 18 74 23 75 19 76 22 77 24 78
REMARK SMILES IDX 20 79 21 80
REMARK H PARENT 3 7 68 25 46 36 7 60 15 70 15 71
REMARK Flexibility Score: inf
ROOT
ATOM      1  C   UNL A   1      31.710  29.049  25.503  1.00  0.00     0.118 C 
ENDROOT
BRANCH   1   2
ATOM      2  C   UNL A   1      33.216  29.265  25.547  1.00  0.00     0.042 C 
BRANCH   2   3
ATOM      3  C   UNL A   1      33.795  29.163  26.948  1.00  0.00     0.118 C 
BRANCH   3   4
ATOM      4  N   UNL A   1      33.753  30.436  27.654  1.00  0.00    -0.352 N 
ATOM      5  O   UNL A   1      34.325  31.966  29.201  1.00  0.00    -0.269 OA
ATOM      6  C   UNL A   1      34.648  30.986  28.536  1.00  0.00     0.251 C 
ATOM      7  H   UNL A   1      32.959  30.988  27.469  1.00  0.00     0.163 HD
BRANCH   6   8
ATOM      8  C   UNL A   1      35.998  30.404  28.688  1.00  0.00     0.039 A 
ATOM      9  C   UNL A   1      36.937  30.500  27.659  1.00  0.00     0.014 A 
ATOM     10  C   UNL A   1      36.351  29.813  29.906  1.00  0.00     0.014 A 
ATOM     11  C   UNL A   1      38.184  29.906  27.798  1.00  0.00     0.010 A 
ATOM     12  C   UNL A   1      37.636  29.298  30.080  1.00  0.00     0.010 A 
ATOM     13  C   UNL A   1      38.559  29.334  29.023  1.00  0.00    -0.014 A 
BRANCH  13  14
ATOM     14  C   UNL A   1      39.965  28.907  29.218  1.00  0.00     0.031 A 
ATOM     15  C   UNL A   1      40.990  29.834  29.797  1.00  0.00     0.074 A 
ATOM     16  C   UNL A   1      40.300  27.655  28.849  1.00  0.00     0.049 A 
ATOM     17  N   UNL A   1      42.262  29.612  30.010  1.00  0.00    -0.248 NA
ATOM     18  C   UNL A   1      40.543  31.181  30.180  1.00  0.00     0.031 C 
ATOM     19  C   UNL A   1      39.382  26.674  28.259  1.00  0.00     0.029 A 
ATOM     20  N   UNL A   1      41.496  26.989  28.918  1.00  0.00    -0.354 N 
ATOM     21  C   UNL A   1      42.773  30.795  30.529  1.00  0.00     0.074 A 
ATOM     22  C   UNL A   1      41.676  31.737  30.590  1.00  0.00     0.031 C 
ATOM     23  C   UNL A   1      40.041  25.526  28.048  1.00  0.00     0.029 A 
ATOM     24  C   UNL A   1      41.437  25.709  28.422  1.00  0.00     0.049 A 
ATOM     25  H   UNL A   1      42.316  27.389  29.286  1.00  0.00     0.167 HD
ATOM     26  C   UNL A   1      44.043  31.062  30.914  1.00  0.00     0.031 A 
ATOM     27  C   UNL A   1      42.405  24.792  28.254  1.00  0.00     0.031 A 
ATOM     28  C   UNL A   1      45.123  30.112  30.861  1.00  0.00     0.049 A 
ATOM     29  C   UNL A   1      43.807  25.137  28.655  1.00  0.00     0.074 A 
ATOM     30  C   UNL A   1      46.426  30.268  31.303  1.00  0.00     0.029 A 
ATOM     31  N   UNL A   1      45.032  28.839  30.321  1.00  0.00    -0.354 N 
ATOM     32  N   UNL A   1      44.256  26.236  29.210  1.00  0.00    -0.248 NA
ATOM     33  C   UNL A   1      44.836  24.122  28.396  1.00  0.00     0.031 C 
ATOM     34  C   UNL A   1      47.138  29.110  30.976  1.00  0.00     0.029 A 
ATOM     35  C   UNL A   1      46.266  28.216  30.375  1.00  0.00     0.049 A 
ATOM     36  H   UNL A   1      44.211  28.438  29.955  1.00  0.00     0.167 HD
ATOM     37  C   UNL A   1      45.620  26.044  29.370  1.00  0.00     0.074 A 
ATOM     38  C   UNL A   1      45.919  24.713  28.881  1.00  0.00     0.031 C 
ATOM     39  C   UNL A   1      46.545  26.898  29.869  1.00  0.00     0.031 A 
BRANCH  26  40
ATOM     40  C   UNL A   1      44.355  32.446  31.405  1.00  0.00    -0.014 A 
ATOM     41  C   UNL A   1      44.718  33.472  30.518  1.00  0.00     0.009 A 
ATOM     42  C   UNL A   1      44.192  32.749  32.766  1.00  0.00     0.009 A 
ATOM     43  C   UNL A   1      44.923  34.772  30.990  1.00  0.00     0.001 A 
ATOM     44  C   UNL A   1      44.379  34.052  33.231  1.00  0.00     0.001 A 
ATOM     45  C   UNL A   1      44.748  35.061  32.344  1.00  0.00     0.000 A 
ENDBRANCH  26  40
BRANCH  27  46
ATOM     46  C   UNL A   1      42.085  23.485  27.623  1.00  0.00    -0.014 A 
ATOM     47  C   UNL A   1      42.316  23.272  26.256  1.00  0.00     0.009 A 
ATOM     48  C   UNL A   1      41.548  22.442  28.394  1.00  0.00     0.009 A 
ATOM     49  C   UNL A   1      41.993  22.046  25.670  1.00  0.00     0.001 A 
ATOM     50  C   UNL A   1      41.255  21.209  27.812  1.00  0.00     0.001 A 
ATOM     51  C   UNL A   1      41.467  21.015  26.449  1.00  0.00     0.000 A 
ENDBRANCH  27  46
BRANCH  39  52
ATOM     52  C   UNL A   1      47.964  26.414  29.905  1.00  0.00    -0.014 A 
ATOM     53  C   UNL A   1      48.464  25.742  31.029  1.00  0.00     0.009 A 
ATOM     54  C   UNL A   1      48.797  26.603  28.792  1.00  0.00     0.009 A 
ATOM     55  C   UNL A   1      49.785  25.289  31.049  1.00  0.00     0.001 A 
ATOM     56  C   UNL A   1      50.108  26.127  28.805  1.00  0.00     0.001 A 
ATOM     57  C   UNL A   1      50.603  25.478  29.935  1.00  0.00     0.000 A 
ENDBRANCH  39  52
ENDBRANCH  13  14
ENDBRANCH   6   8
ENDBRANCH   3   4
ENDBRANCH   2   3
ENDBRANCH   1   2
BRANCH   1  58
ATOM     58  N   UNL A   1      31.134  29.486  24.237  1.00  0.00    -0.352 N 
ATOM     59  C   UNL A   1      31.199  28.891  23.000  1.00  0.00     0.252 C 
ATOM     60  H   UNL A   1      30.626  30.328  24.274  1.00  0.00     0.163 HD
ATOM     61  O   UNL A   1      30.887  29.513  21.995  1.00  0.00    -0.269 OA
BRANCH  59  62
ATOM     62  C   UNL A   1      31.653  27.498  22.894  1.00  0.00     0.058 A 
ATOM     63  C   UNL A   1      32.963  27.195  22.547  1.00  0.00     0.017 A 
ATOM     64  C   UNL A   1      30.775  26.458  23.144  1.00  0.00     0.125 A 
ATOM     65  C   UNL A   1      33.316  25.868  22.356  1.00  0.00     0.030 A 
ATOM     66  N   UNL A   1      31.103  25.149  22.988  1.00  0.00    -0.255 NA
ATOM     67  C   UNL A   1      32.371  24.869  22.585  1.00  0.00     0.094 A 
BRANCH  67  68
ATOM     68  C   UNL A   1      32.778  23.412  22.422  1.00  0.00     0.318 C 
BRANCH  68  69
ATOM     69  N   UNL A   1      34.192  23.201  22.750  1.00  0.00    -0.337 N 
ATOM     70  H   UNL A   1      34.640  24.112  22.859  1.00  0.00     0.346 HD
ATOM     71  H   UNL A   1      34.605  22.662  21.989  1.00  0.00     0.346 HD
BRANCH  69  72
ATOM     72  C   UNL A   1      34.387  22.439  23.978  1.00  0.00     0.300 C 
BRANCH  72  73
ATOM     73  C   UNL A   1      35.720  22.575  24.685  1.00  0.00     0.045 A 
ATOM     74  C   UNL A   1      36.565  21.451  24.708  1.00  0.00     0.051 A 
ATOM     75  C   UNL A   1      36.180  23.729  25.332  1.00  0.00     0.132 A 
ATOM     76  C   UNL A   1      37.807  21.504  25.342  1.00  0.00     0.123 A 
ATOM     77  C   UNL A   1      37.431  23.788  25.950  1.00  0.00     0.043 A 
ATOM     78  F   UNL A   1      35.419  24.824  25.402  1.00  0.00    -0.206 F 
ATOM     79  F   UNL A   1      38.582  20.413  25.362  1.00  0.00    -0.207 F 
ATOM     80  C   UNL A   1      38.251  22.667  25.957  1.00  0.00     0.042 A 
ENDBRANCH  72  73
ENDBRANCH  69  72
ENDBRANCH  68  69
ENDBRANCH  67  68
ENDBRANCH  59  62
ENDBRANCH   1  58
TORSDOF 14
ENDMDL
MODEL 2
REMARK VINA RESULT:     -10.7      2.834      7.454
REMARK SMILES O=C(NCCCNC(=O)c1ccc(C[NH2+]Cc2cc(F)ccc2F)nc1)c1ccc(-c2c3nc(c(-c4ccccc4)c4ccc([nH]4)c(-c4ccccc4)c4nc(c(-c5ccccc5)c5ccc2[nH]5)C=C4)C=C3)cc1
REMARK SMILES IDX 6 1 5 2 4 3 3 4 1 5 2 6 27 8 28 9 74 10 29 11 73 12 30 13
REMARK SMILES IDX 31 14 32 15 67 16 33 17 72 18 66 19 68 20 34 21 71 22 65 23
REMARK SMILES IDX 64 24 35 26 57 27 42 28 56 29 43 30 46 31 55 32 69 33 44 34
REMARK SMILES IDX 45 35 54 37 70 38 47 39 36 40 37 41 41 42 38 43 40 44 39 45
REMARK SMILES IDX 58 46 59 47 63 48 60 49 62 50 61 51 48 52 49 53 53 54 50 55
REMARK SMILES IDX 52 56 51 57 7 58 8 59 9 61 10 62 11 63 26 64 12 65 25 66
REMARK SMILES IDX 13 67 14 68 15 69 16 72 17 73 18 74 23 75 19 76 22 77 24 78
REMARK SMILES IDX 20 79 21 80
REMARK H PARENT 3 7 68 25 46 36 7 60 15 70 15 71
REMARK Flexibility Score: inf
ROOT
ATOM      1  C   UNL A   1      35.947  20.211  25.080  1.00  0.00     0.118 C 
ENDROOT
BRANCH   1   2
ATOM      2  C   UNL A   1      37.363  19.983  24.571  1.00  0.00     0.042 C 
BRANCH   2   3
ATOM      3  C   UNL A   1      38.431  20.400  25.568  1.00  0.00     0.118 C 
BRANCH   3   4
ATOM      4  N   UNL A   1      39.483  19.401  25.696  1.00  0.00    -0.352 N 
ATOM      5  O   UNL A   1      41.586  18.615  25.840  1.00  0.00    -0.269 OA
ATOM      6  C   UNL A   1      40.810  19.552  26.007  1.00  0.00     0.251 C 
ATOM      7  H   UNL A   1      39.197  18.473  25.533  1.00  0.00     0.163 HD
BRANCH   6   8
ATOM      8  C   UNL A   1      41.309  20.836  26.542  1.00  0.00     0.039 A 
ATOM      9  C   UNL A   1      41.796  21.826  25.685  1.00  0.00     0.014 A 
ATOM     10  C   UNL A   1      41.225  21.079  27.917  1.00  0.00     0.014 A 
ATOM     11  C   UNL A   1      42.307  23.006  26.206  1.00  0.00     0.010 A 
ATOM     12  C   UNL A   1      41.652  22.304  28.432  1.00  0.00     0.010 A 
ATOM     13  C   UNL A   1      42.203  23.273  27.580  1.00  0.00    -0.014 A 
BRANCH  13  14
ATOM     14  C   UNL A   1      42.551  24.624  28.079  1.00  0.00     0.031 A 
ATOM     15  C   UNL A   1      41.500  25.671  28.299  1.00  0.00     0.074 A 
ATOM     16  C   UNL A   1      43.848  24.893  28.323  1.00  0.00     0.049 A 
ATOM     17  N   UNL A   1      41.650  26.903  28.712  1.00  0.00    -0.248 NA
ATOM     18  C   UNL A   1      40.106  25.297  28.015  1.00  0.00     0.031 C 
ATOM     19  C   UNL A   1      44.956  23.951  28.128  1.00  0.00     0.029 A 
ATOM     20  N   UNL A   1      44.458  26.026  28.792  1.00  0.00    -0.354 N 
ATOM     21  C   UNL A   1      40.378  27.460  28.716  1.00  0.00     0.074 A 
ATOM     22  C   UNL A   1      39.467  26.436  28.255  1.00  0.00     0.031 C 
ATOM     23  C   UNL A   1      46.103  24.536  28.500  1.00  0.00     0.029 A 
ATOM     24  C   UNL A   1      45.823  25.909  28.895  1.00  0.00     0.049 A 
ATOM     25  H   UNL A   1      43.966  26.845  29.030  1.00  0.00     0.167 HD
ATOM     26  C   UNL A   1      40.013  28.715  29.072  1.00  0.00     0.031 A 
ATOM     27  C   UNL A   1      46.754  26.816  29.237  1.00  0.00     0.031 A 
ATOM     28  C   UNL A   1      40.927  29.722  29.543  1.00  0.00     0.049 A 
ATOM     29  C   UNL A   1      46.317  28.206  29.587  1.00  0.00     0.074 A 
ATOM     30  C   UNL A   1      40.639  30.997  30.001  1.00  0.00     0.029 A 
ATOM     31  N   UNL A   1      42.304  29.576  29.601  1.00  0.00    -0.354 N 
ATOM     32  N   UNL A   1      45.103  28.694  29.654  1.00  0.00    -0.248 NA
ATOM     33  C   UNL A   1      47.379  29.174  29.897  1.00  0.00     0.031 C 
ATOM     34  C   UNL A   1      41.848  31.643  30.280  1.00  0.00     0.029 A 
ATOM     35  C   UNL A   1      42.883  30.753  30.041  1.00  0.00     0.049 A 
ATOM     36  H   UNL A   1      42.796  28.758  29.365  1.00  0.00     0.167 HD
ATOM     37  C   UNL A   1      45.252  30.024  30.016  1.00  0.00     0.074 A 
ATOM     38  C   UNL A   1      46.673  30.258  30.183  1.00  0.00     0.031 C 
ATOM     39  C   UNL A   1      44.298  30.970  30.186  1.00  0.00     0.031 A 
BRANCH  26  40
ATOM     40  C   UNL A   1      38.566  29.092  28.944  1.00  0.00    -0.014 A 
ATOM     41  C   UNL A   1      37.681  28.974  30.027  1.00  0.00     0.009 A 
ATOM     42  C   UNL A   1      38.104  29.662  27.747  1.00  0.00     0.009 A 
ATOM     43  C   UNL A   1      36.357  29.408  29.907  1.00  0.00     0.001 A 
ATOM     44  C   UNL A   1      36.787  30.112  27.636  1.00  0.00     0.001 A 
ATOM     45  C   UNL A   1      35.914  29.982  28.715  1.00  0.00     0.000 A 
ENDBRANCH  26  40
BRANCH  27  46
ATOM     46  C   UNL A   1      48.193  26.448  29.205  1.00  0.00    -0.014 A 
ATOM     47  C   UNL A   1      48.960  26.647  28.049  1.00  0.00     0.009 A 
ATOM     48  C   UNL A   1      48.806  25.896  30.342  1.00  0.00     0.009 A 
ATOM     49  C   UNL A   1      50.307  26.278  28.024  1.00  0.00     0.001 A 
ATOM     50  C   UNL A   1      50.159  25.557  30.324  1.00  0.00     0.001 A 
ATOM     51  C   UNL A   1      50.906  25.738  29.163  1.00  0.00     0.000 A 
ENDBRANCH  27  46
BRANCH  39  52
ATOM     52  C   UNL A   1      44.767  32.343  30.568  1.00  0.00    -0.014 A 
ATOM     53  C   UNL A   1      44.880  32.712  31.917  1.00  0.00     0.009 A 
ATOM     54  C   UNL A   1      45.129  33.262  29.573  1.00  0.00     0.009 A 
ATOM     55  C   UNL A   1      45.324  33.990  32.262  1.00  0.00     0.001 A 
ATOM     56  C   UNL A   1      45.596  34.530  29.921  1.00  0.00     0.001 A 
ATOM     57  C   UNL A   1      45.686  34.895  31.264  1.00  0.00     0.000 A 
ENDBRANCH  39  52
ENDBRANCH  13  14
ENDBRANCH   6   8
ENDBRANCH   3   4
ENDBRANCH   2   3
ENDBRANCH   1   2
BRANCH   1  58
ATOM     58  N   UNL A   1      35.122  19.016  24.947  1.00  0.00    -0.352 N 
ATOM     59  C   UNL A   1      33.758  18.912  24.812  1.00  0.00     0.252 C 
ATOM     60  H   UNL A   1      35.612  18.163  24.956  1.00  0.00     0.163 HD
ATOM     61  O   UNL A   1      33.200  17.836  24.973  1.00  0.00    -0.269 OA
BRANCH  59  62
ATOM     62  C   UNL A   1      32.974  20.107  24.475  1.00  0.00     0.058 A 
ATOM     63  C   UNL A   1      32.702  20.438  23.153  1.00  0.00     0.017 A 
ATOM     64  C   UNL A   1      32.485  20.926  25.478  1.00  0.00     0.125 A 
ATOM     65  C   UNL A   1      32.050  21.630  22.881  1.00  0.00     0.030 A 
ATOM     66  N   UNL A   1      31.822  22.086  25.238  1.00  0.00    -0.255 NA
ATOM     67  C   UNL A   1      31.620  22.432  23.939  1.00  0.00     0.094 A 
BRANCH  67  68
ATOM     68  C   UNL A   1      30.861  23.715  23.636  1.00  0.00     0.318 C 
BRANCH  68  69
ATOM     69  N   UNL A   1      31.511  24.887  24.233  1.00  0.00    -0.337 N 
ATOM     70  H   UNL A   1      31.747  24.669  25.202  1.00  0.00     0.346 HD
ATOM     71  H   UNL A   1      30.857  25.666  24.166  1.00  0.00     0.346 HD
BRANCH  69  72
ATOM     72  C   UNL A   1      32.730  25.281  23.536  1.00  0.00     0.300 C 
BRANCH  72  73
ATOM     73  C   UNL A   1      34.041  24.709  24.036  1.00  0.00     0.045 A 
ATOM     74  C   UNL A   1      34.808  23.949  23.135  1.00  0.00     0.051 A 
ATOM     75  C   UNL A   1      34.551  24.863  25.331  1.00  0.00     0.132 A 
ATOM     76  C   UNL A   1      36.024  23.390  23.528  1.00  0.00     0.123 A 
ATOM     77  C   UNL A   1      35.777  24.319  25.719  1.00  0.00     0.043 A 
ATOM     78  F   UNL A   1      33.862  25.525  26.264  1.00  0.00    -0.206 F 
ATOM     79  F   UNL A   1      36.724  22.657  22.652  1.00  0.00    -0.207 F 
ATOM     80  C   UNL A   1      36.520  23.576  24.810  1.00  0.00     0.042 A 
ENDBRANCH  72  73
ENDBRANCH  69  72
ENDBRANCH  68  69
ENDBRANCH  67  68
ENDBRANCH  59  62
ENDBRANCH   1  58
TORSDOF 14
ENDMDL
MODEL 3
REMARK VINA RESULT:     -10.6      3.119      7.866
REMARK SMILES O=C(NCCCNC(=O)c1ccc(C[NH2+]Cc2cc(F)ccc2F)nc1)c1ccc(-c2c3nc(c(-c4ccccc4)c4ccc([nH]4)c(-c4ccccc4)c4nc(c(-c5ccccc5)c5ccc2[nH]5)C=C4)C=C3)cc1
REMARK SMILES IDX 6 1 5 2 4 3 3 4 1 5 2 6 27 8 28 9 74 10 29 11 73 12 30 13
REMARK SMILES IDX 31 14 32 15 67 16 33 17 72 18 66 19 68 20 34 21 71 22 65 23
REMARK SMILES IDX 64 24 35 26 57 27 42 28 56 29 43 30 46 31 55 32 69 33 44 34
REMARK SMILES IDX 45 35 54 37 70 38 47 39 36 40 37 41 41 42 38 43 40 44 39 45
REMARK SMILES IDX 58 46 59 47 63 48 60 49 62 50 61 51 48 52 49 53 53 54 50 55
REMARK SMILES IDX 52 56 51 57 7 58 8 59 9 61 10 62 11 63 26 64 12 65 25 66
REMARK SMILES IDX 13 67 14 68 15 69 16 72 17 73 18 74 23 75 19 76 22 77 24 78
REMARK SMILES IDX 20 79 21 80
REMARK H PARENT 3 7 68 25 46 36 7 60 15 70 15 71
REMARK Flexibility Score: inf
ROOT
ATOM      1  C   UNL A   1      36.906  20.622  24.974  1.00  0.00     0.118 C 
ENDROOT
BRANCH   1   2
ATOM      2  C   UNL A   1      38.068  19.640  24.954  1.00  0.00     0.042 C 
BRANCH   2   3
ATOM      3  C   UNL A   1      39.127  19.945  26.001  1.00  0.00     0.118 C 
BRANCH   3   4
ATOM      4  N   UNL A   1      40.221  18.985  25.970  1.00  0.00    -0.352 N 
ATOM      5  O   UNL A   1      42.341  18.268  25.740  1.00  0.00    -0.269 OA
ATOM      6  C   UNL A   1      41.577  19.191  26.007  1.00  0.00     0.251 C 
ATOM      7  H   UNL A   1      39.946  18.041  25.915  1.00  0.00     0.163 HD
BRANCH   6   8
ATOM      8  C   UNL A   1      42.120  20.517  26.367  1.00  0.00     0.039 A 
ATOM      9  C   UNL A   1      42.425  21.456  25.379  1.00  0.00     0.014 A 
ATOM     10  C   UNL A   1      42.262  20.850  27.718  1.00  0.00     0.014 A 
ATOM     11  C   UNL A   1      42.980  22.679  25.730  1.00  0.00     0.010 A 
ATOM     12  C   UNL A   1      42.732  22.115  28.074  1.00  0.00     0.010 A 
ATOM     13  C   UNL A   1      43.102  23.035  27.082  1.00  0.00    -0.014 A 
BRANCH  13  14
ATOM     14  C   UNL A   1      43.487  24.424  27.428  1.00  0.00     0.031 A 
ATOM     15  C   UNL A   1      42.463  25.443  27.828  1.00  0.00     0.074 A 
ATOM     16  C   UNL A   1      44.793  24.751  27.365  1.00  0.00     0.049 A 
ATOM     17  N   UNL A   1      42.644  26.701  28.140  1.00  0.00    -0.248 NA
ATOM     18  C   UNL A   1      41.060  25.005  27.879  1.00  0.00     0.031 C 
ATOM     19  C   UNL A   1      45.873  23.839  26.971  1.00  0.00     0.029 A 
ATOM     20  N   UNL A   1      45.437  25.929  27.633  1.00  0.00    -0.354 N 
ATOM     21  C   UNL A   1      41.379  27.212  28.402  1.00  0.00     0.074 A 
ATOM     22  C   UNL A   1      40.437  26.132  28.202  1.00  0.00     0.031 C 
ATOM     23  C   UNL A   1      47.045  24.483  27.051  1.00  0.00     0.029 A 
ATOM     24  C   UNL A   1      46.795  25.866  27.435  1.00  0.00     0.049 A 
ATOM     25  H   UNL A   1      44.973  26.742  27.937  1.00  0.00     0.167 HD
ATOM     26  C   UNL A   1      41.043  28.471  28.772  1.00  0.00     0.031 A 
ATOM     27  C   UNL A   1      47.736  26.823  27.519  1.00  0.00     0.031 A 
ATOM     28  C   UNL A   1      41.991  29.534  28.980  1.00  0.00     0.049 A 
ATOM     29  C   UNL A   1      47.323  28.214  27.893  1.00  0.00     0.074 A 
ATOM     30  C   UNL A   1      41.752  30.821  29.432  1.00  0.00     0.029 A 
ATOM     31  N   UNL A   1      43.351  29.440  28.737  1.00  0.00    -0.354 N 
ATOM     32  N   UNL A   1      46.131  28.662  28.206  1.00  0.00    -0.248 NA
ATOM     33  C   UNL A   1      48.380  29.234  27.913  1.00  0.00     0.031 C 
ATOM     34  C   UNL A   1      42.960  31.524  29.405  1.00  0.00     0.029 A 
ATOM     35  C   UNL A   1      43.958  30.660  28.982  1.00  0.00     0.049 A 
ATOM     36  H   UNL A   1      43.817  28.628  28.435  1.00  0.00     0.167 HD
ATOM     37  C   UNL A   1      46.294  30.014  28.464  1.00  0.00     0.074 A 
ATOM     38  C   UNL A   1      47.704  30.307  28.299  1.00  0.00     0.031 C 
ATOM     39  C   UNL A   1      45.358  30.934  28.798  1.00  0.00     0.031 A 
BRANCH  26  40
ATOM     40  C   UNL A   1      39.587  28.789  28.952  1.00  0.00    -0.014 A 
ATOM     41  C   UNL A   1      38.961  28.665  30.202  1.00  0.00     0.009 A 
ATOM     42  C   UNL A   1      38.855  29.309  27.873  1.00  0.00     0.009 A 
ATOM     43  C   UNL A   1      37.625  29.045  30.363  1.00  0.00     0.001 A 
ATOM     44  C   UNL A   1      37.527  29.706  28.040  1.00  0.00     0.001 A 
ATOM     45  C   UNL A   1      36.913  29.570  29.284  1.00  0.00     0.000 A 
ENDBRANCH  26  40
BRANCH  27  46
ATOM     46  C   UNL A   1      49.148  26.505  27.184  1.00  0.00    -0.014 A 
ATOM     47  C   UNL A   1      50.050  26.108  28.180  1.00  0.00     0.009 A 
ATOM     48  C   UNL A   1      49.596  26.596  25.856  1.00  0.00     0.009 A 
ATOM     49  C   UNL A   1      51.381  25.830  27.857  1.00  0.00     0.001 A 
ATOM     50  C   UNL A   1      50.918  26.290  25.531  1.00  0.00     0.001 A 
ATOM     51  C   UNL A   1      51.811  25.917  26.532  1.00  0.00     0.000 A 
ENDBRANCH  27  46
BRANCH  39  52
ATOM     52  C   UNL A   1      45.835  32.341  29.003  1.00  0.00    -0.014 A 
ATOM     53  C   UNL A   1      45.823  33.264  27.947  1.00  0.00     0.009 A 
ATOM     54  C   UNL A   1      46.271  32.756  30.270  1.00  0.00     0.009 A 
ATOM     55  C   UNL A   1      46.263  34.573  28.150  1.00  0.00     0.001 A 
ATOM     56  C   UNL A   1      46.686  34.071  30.477  1.00  0.00     0.001 A 
ATOM     57  C   UNL A   1      46.689  34.976  29.416  1.00  0.00     0.000 A 
ENDBRANCH  39  52
ENDBRANCH  13  14
ENDBRANCH   6   8
ENDBRANCH   3   4
ENDBRANCH   2   3
ENDBRANCH   1   2
BRANCH   1  58
ATOM     58  N   UNL A   1      37.105  21.720  24.037  1.00  0.00    -0.352 N 
ATOM     59  C   UNL A   1      36.223  22.701  23.646  1.00  0.00     0.252 C 
ATOM     60  H   UNL A   1      37.997  21.767  23.625  1.00  0.00     0.163 HD
ATOM     61  O   UNL A   1      36.458  23.389  22.663  1.00  0.00    -0.269 OA
BRANCH  59  62
ATOM     62  C   UNL A   1      34.993  22.913  24.419  1.00  0.00     0.058 A 
ATOM     63  C   UNL A   1      35.021  23.549  25.654  1.00  0.00     0.017 A 
ATOM     64  C   UNL A   1      33.774  22.483  23.921  1.00  0.00     0.125 A 
ATOM     65  C   UNL A   1      33.852  23.631  26.392  1.00  0.00     0.030 A 
ATOM     66  N   UNL A   1      32.611  22.575  24.615  1.00  0.00    -0.255 NA
ATOM     67  C   UNL A   1      32.664  23.140  25.850  1.00  0.00     0.094 A 
BRANCH  67  68
ATOM     68  C   UNL A   1      31.373  23.278  26.644  1.00  0.00     0.318 C 
BRANCH  68  69
ATOM     69  N   UNL A   1      31.011  24.684  26.855  1.00  0.00    -0.337 N 
ATOM     70  H   UNL A   1      31.730  25.122  27.431  1.00  0.00     0.346 HD
ATOM     71  H   UNL A   1      30.097  24.699  27.308  1.00  0.00     0.346 HD
BRANCH  69  72
ATOM     72  C   UNL A   1      30.892  25.436  25.611  1.00  0.00     0.300 C 
BRANCH  72  73
ATOM     73  C   UNL A   1      31.499  26.824  25.569  1.00  0.00     0.045 A 
ATOM     74  C   UNL A   1      32.614  27.073  26.389  1.00  0.00     0.051 A 
ATOM     75  C   UNL A   1      31.034  27.888  24.787  1.00  0.00     0.132 A 
ATOM     76  C   UNL A   1      33.223  28.329  26.402  1.00  0.00     0.123 A 
ATOM     77  C   UNL A   1      31.655  29.139  24.787  1.00  0.00     0.043 A 
ATOM     78  F   UNL A   1      29.950  27.752  24.021  1.00  0.00    -0.206 F 
ATOM     79  F   UNL A   1      34.273  28.541  27.206  1.00  0.00    -0.207 F 
ATOM     80  C   UNL A   1      32.758  29.362  25.602  1.00  0.00     0.042 A 
ENDBRANCH  72  73
ENDBRANCH  69  72
ENDBRANCH  68  69
ENDBRANCH  67  68
ENDBRANCH  59  62
ENDBRANCH   1  58
TORSDOF 14
ENDMDL
