MODEL 1
REMARK VINA RESULT:     -11.1      0.000      0.000
REMARK SMILES C#Cc1ccc2c(c1)C=C(C(=O)NCCCNC(=O)c1ccc(-c3c4nc(c(-c5ccccc5)c5ccc([nH]5)c(-c5ccccc5)c5nc(c(-c6ccccc6)c6ccc3[nH]6)C=C5)C=C4)cc1)[C@@H](C(F)(F)F)O2
REMARK SMILES IDX 15 1 14 2 13 3 11 4 12 5 10 7 3 8 4 9 8 10 5 11 7 12 6 13
REMARK SMILES IDX 9 14 73 15 68 16 2 17 1 18 69 19 70 20 71 21 72 22 16 23
REMARK SMILES IDX 17 24 18 25 19 27 20 28 21 29 67 30 22 31 66 32 23 33 24 34
REMARK SMILES IDX 25 35 60 36 26 37 65 38 59 39 61 40 27 41 64 42 58 43 57 44
REMARK SMILES IDX 28 46 50 47 35 48 49 49 36 50 39 51 48 52 62 53 37 54 38 55
REMARK SMILES IDX 47 57 63 58 40 59 29 60 30 61 34 62 31 63 33 64 32 65 51 66
REMARK SMILES IDX 52 67 56 68 53 69 55 70 54 71 41 72 42 73 46 74 43 75 45 76
REMARK SMILES IDX 44 77
REMARK H PARENT 13 6 17 26 61 45 39 56
REMARK Flexibility Score: inf
ROOT
ATOM      1  C   UNL A   1      32.294  28.239  27.576  1.00  0.00     0.042 C 
ENDROOT
BRANCH   1   2
ATOM      2  C   UNL A   1      31.443  27.895  26.370  1.00  0.00     0.118 C 
BRANCH   2   3
ATOM      3  N   UNL A   1      30.752  26.625  26.537  1.00  0.00    -0.352 N 
ATOM      4  C   UNL A   1      30.946  25.336  26.174  1.00  0.00     0.251 C 
ATOM      5  O   UNL A   1      30.083  24.541  26.559  1.00  0.00    -0.270 OA
ATOM      6  H   UNL A   1      29.919  26.734  27.052  1.00  0.00     0.163 HD
BRANCH   4   7
ATOM      7  C   UNL A   1      32.098  24.848  25.363  1.00  0.00     0.067 C 
ATOM      8  C   UNL A   1      36.651  23.238  25.163  1.00  0.00     0.025 A 
ATOM      9  C   UNL A   1      36.490  22.960  23.803  1.00  0.00     0.021 A 
ATOM     10  C   UNL A   1      35.583  23.753  25.909  1.00  0.00     0.029 A 
ATOM     11  C   UNL A   1      35.264  23.191  23.188  1.00  0.00     0.048 A 
ATOM     12  C   UNL A   1      34.352  23.991  25.292  1.00  0.00     0.018 A 
ATOM     13  C   UNL A   1      34.209  23.710  23.931  1.00  0.00     0.128 A 
ATOM     14  C   UNL A   1      33.201  24.482  26.043  1.00  0.00     0.025 C 
ATOM     15  O   UNL A   1      33.035  23.874  23.260  1.00  0.00    -0.475 OA
ATOM     16  C   UNL A   1      32.075  24.774  23.864  1.00  0.00     0.314 C 
BRANCH   8  17
ATOM     17  C   UNL A   1      37.910  22.976  25.784  1.00  0.00    -0.070 C 
ATOM     18  C   UNL A   1      38.955  22.731  26.325  1.00  0.00     0.010 C 
ENDBRANCH   8  17
BRANCH  16  19
ATOM     19  C   UNL A   1      32.197  26.163  23.204  1.00  0.00     0.429 C 
ATOM     20  F   UNL A   1      32.549  26.032  21.900  1.00  0.00    -0.167 F 
ATOM     21  F   UNL A   1      31.032  26.854  23.215  1.00  0.00    -0.167 F 
ATOM     22  F   UNL A   1      33.120  26.949  23.799  1.00  0.00    -0.167 F 
ENDBRANCH  16  19
ENDBRANCH   4   7
ENDBRANCH   2   3
ENDBRANCH   1   2
BRANCH   1  23
ATOM     23  C   UNL A   1      33.596  28.902  27.164  1.00  0.00     0.118 C 
BRANCH  23  24
ATOM     24  N   UNL A   1      33.729  30.252  27.717  1.00  0.00    -0.352 N 
ATOM     25  C   UNL A   1      34.757  30.833  28.420  1.00  0.00     0.251 C 
ATOM     26  H   UNL A   1      32.955  30.840  27.558  1.00  0.00     0.163 HD
ATOM     27  O   UNL A   1      34.588  31.904  28.992  1.00  0.00    -0.269 OA
BRANCH  25  28
ATOM     28  C   UNL A   1      36.053  30.136  28.507  1.00  0.00     0.039 A 
ATOM     29  C   UNL A   1      36.391  29.461  29.676  1.00  0.00     0.014 A 
ATOM     30  C   UNL A   1      36.958  30.212  27.448  1.00  0.00     0.014 A 
ATOM     31  C   UNL A   1      37.711  29.115  29.897  1.00  0.00     0.010 A 
ATOM     32  C   UNL A   1      38.251  29.711  27.616  1.00  0.00     0.010 A 
ATOM     33  C   UNL A   1      38.659  29.227  28.869  1.00  0.00    -0.014 A 
BRANCH  33  34
ATOM     34  C   UNL A   1      40.063  28.831  29.145  1.00  0.00     0.031 A 
ATOM     35  C   UNL A   1      40.596  27.498  28.692  1.00  0.00     0.074 A 
ATOM     36  C   UNL A   1      40.881  29.720  29.744  1.00  0.00     0.049 A 
ATOM     37  N   UNL A   1      41.806  27.014  28.822  1.00  0.00    -0.248 NA
ATOM     38  C   UNL A   1      39.660  26.584  28.015  1.00  0.00     0.031 C 
ATOM     39  C   UNL A   1      40.481  31.055  30.199  1.00  0.00     0.029 A 
ATOM     40  N   UNL A   1      42.218  29.658  30.038  1.00  0.00    -0.354 N 
ATOM     41  C   UNL A   1      41.769  25.741  28.265  1.00  0.00     0.074 A 
ATOM     42  C   UNL A   1      40.410  25.507  27.833  1.00  0.00     0.031 C 
ATOM     43  C   UNL A   1      41.561  31.711  30.640  1.00  0.00     0.029 A 
ATOM     44  C   UNL A   1      42.709  30.813  30.599  1.00  0.00     0.049 A 
ATOM     45  H   UNL A   1      42.774  28.865  29.863  1.00  0.00     0.167 HD
ATOM     46  C   UNL A   1      42.784  24.858  28.117  1.00  0.00     0.031 A 
ATOM     47  C   UNL A   1      43.938  31.119  31.056  1.00  0.00     0.031 A 
ATOM     48  C   UNL A   1      44.137  25.111  28.540  1.00  0.00     0.049 A 
ATOM     49  C   UNL A   1      45.028  30.095  30.936  1.00  0.00     0.074 A 
ATOM     50  C   UNL A   1      45.240  24.285  28.409  1.00  0.00     0.029 A 
ATOM     51  N   UNL A   1      44.575  26.267  29.168  1.00  0.00    -0.354 N 
ATOM     52  N   UNL A   1      44.982  28.905  30.387  1.00  0.00    -0.248 NA
ATOM     53  C   UNL A   1      46.341  30.454  31.487  1.00  0.00     0.031 C 
ATOM     54  C   UNL A   1      46.321  24.899  29.042  1.00  0.00     0.029 A 
ATOM     55  C   UNL A   1      45.924  26.156  29.469  1.00  0.00     0.049 A 
ATOM     56  H   UNL A   1      44.013  27.048  29.371  1.00  0.00     0.167 HD
ATOM     57  C   UNL A   1      46.263  28.384  30.503  1.00  0.00     0.074 A 
ATOM     58  C   UNL A   1      47.069  29.398  31.150  1.00  0.00     0.031 C 
ATOM     59  C   UNL A   1      46.725  27.172  30.108  1.00  0.00     0.031 A 
BRANCH  46  60
ATOM     60  C   UNL A   1      42.491  23.523  27.482  1.00  0.00    -0.014 A 
ATOM     61  C   UNL A   1      42.131  22.432  28.292  1.00  0.00     0.009 A 
ATOM     62  C   UNL A   1      42.691  23.303  26.110  1.00  0.00     0.009 A 
ATOM     63  C   UNL A   1      42.012  21.150  27.752  1.00  0.00     0.001 A 
ATOM     64  C   UNL A   1      42.533  22.027  25.564  1.00  0.00     0.001 A 
ATOM     65  C   UNL A   1      42.211  20.949  26.388  1.00  0.00     0.000 A 
ENDBRANCH  46  60
BRANCH  47  66
ATOM     66  C   UNL A   1      44.177  32.461  31.655  1.00  0.00    -0.014 A 
ATOM     67  C   UNL A   1      43.944  32.684  33.024  1.00  0.00     0.009 A 
ATOM     68  C   UNL A   1      44.562  33.545  30.853  1.00  0.00     0.009 A 
ATOM     69  C   UNL A   1      44.044  33.967  33.566  1.00  0.00     0.001 A 
ATOM     70  C   UNL A   1      44.706  34.820  31.408  1.00  0.00     0.001 A 
ATOM     71  C   UNL A   1      44.431  35.033  32.758  1.00  0.00     0.000 A 
ENDBRANCH  47  66
BRANCH  59  72
ATOM     72  C   UNL A   1      48.181  26.858  30.333  1.00  0.00    -0.014 A 
ATOM     73  C   UNL A   1      49.118  27.159  29.330  1.00  0.00     0.009 A 
ATOM     74  C   UNL A   1      48.611  26.162  31.473  1.00  0.00     0.009 A 
ATOM     75  C   UNL A   1      50.445  26.745  29.448  1.00  0.00     0.001 A 
ATOM     76  C   UNL A   1      49.950  25.787  31.609  1.00  0.00     0.001 A 
ATOM     77  C   UNL A   1      50.861  26.065  30.590  1.00  0.00     0.000 A 
ENDBRANCH  59  72
ENDBRANCH  33  34
ENDBRANCH  25  28
ENDBRANCH  23  24
ENDBRANCH   1  23
TORSDOF 12
ENDMDL
MODEL 2
REMARK VINA RESULT:     -11.0      0.370      6.018
REMARK SMILES C#Cc1ccc2c(c1)C=C(C(=O)NCCCNC(=O)c1ccc(-c3c4nc(c(-c5ccccc5)c5ccc([nH]5)c(-c5ccccc5)c5nc(c(-c6ccccc6)c6ccc3[nH]6)C=C5)C=C4)cc1)[C@@H](C(F)(F)F)O2
REMARK SMILES IDX 15 1 14 2 13 3 11 4 12 5 10 7 3 8 4 9 8 10 5 11 7 12 6 13
REMARK SMILES IDX 9 14 73 15 68 16 2 17 1 18 69 19 70 20 71 21 72 22 16 23
REMARK SMILES IDX 17 24 18 25 19 27 20 28 21 29 67 30 22 31 66 32 23 33 24 34
REMARK SMILES IDX 25 35 60 36 26 37 65 38 59 39 61 40 27 41 64 42 58 43 57 44
REMARK SMILES IDX 28 46 50 47 35 48 49 49 36 50 39 51 48 52 62 53 37 54 38 55
REMARK SMILES IDX 47 57 63 58 40 59 29 60 30 61 34 62 31 63 33 64 32 65 51 66
REMARK SMILES IDX 52 67 56 68 53 69 55 70 54 71 41 72 42 73 46 74 43 75 45 76
REMARK SMILES IDX 44 77
REMARK H PARENT 13 6 17 26 61 45 39 56
REMARK Flexibility Score: inf
ROOT
ATOM      1  C   UNL A   1      32.177  28.398  27.562  1.00  0.00     0.042 C 
ENDROOT
BRANCH   1   2
ATOM      2  C   UNL A   1      31.501  27.924  26.291  1.00  0.00     0.118 C 
BRANCH   2   3
ATOM      3  N   UNL A   1      30.748  26.696  26.501  1.00  0.00    -0.352 N 
ATOM      4  C   UNL A   1      30.872  25.388  26.172  1.00  0.00     0.251 C 
ATOM      5  O   UNL A   1      29.975  24.650  26.588  1.00  0.00    -0.270 OA
ATOM      6  H   UNL A   1      29.929  26.861  27.021  1.00  0.00     0.163 HD
BRANCH   4   7
ATOM      7  C   UNL A   1      31.988  24.820  25.362  1.00  0.00     0.067 C 
ATOM      8  C   UNL A   1      36.517  23.150  25.128  1.00  0.00     0.025 A 
ATOM      9  C   UNL A   1      36.302  22.759  23.804  1.00  0.00     0.021 A 
ATOM     10  C   UNL A   1      35.484  23.739  25.867  1.00  0.00     0.029 A 
ATOM     11  C   UNL A   1      35.054  22.949  23.219  1.00  0.00     0.048 A 
ATOM     12  C   UNL A   1      34.231  23.937  25.279  1.00  0.00     0.018 A 
ATOM     13  C   UNL A   1      34.033  23.541  23.954  1.00  0.00     0.128 A 
ATOM     14  C   UNL A   1      33.114  24.502  26.029  1.00  0.00     0.025 C 
ATOM     15  O   UNL A   1      32.835  23.659  23.316  1.00  0.00    -0.475 OA
ATOM     16  C   UNL A   1      31.906  24.619  23.878  1.00  0.00     0.314 C 
BRANCH   8  17
ATOM     17  C   UNL A   1      37.798  22.929  25.720  1.00  0.00    -0.070 C 
ATOM     18  C   UNL A   1      38.888  22.770  26.202  1.00  0.00     0.010 C 
ENDBRANCH   8  17
BRANCH  16  19
ATOM     19  C   UNL A   1      32.012  25.944  23.096  1.00  0.00     0.429 C 
ATOM     20  F   UNL A   1      30.841  26.626  23.169  1.00  0.00    -0.167 F 
ATOM     21  F   UNL A   1      32.965  26.771  23.590  1.00  0.00    -0.167 F 
ATOM     22  F   UNL A   1      32.297  25.762  21.788  1.00  0.00    -0.167 F 
ENDBRANCH  16  19
ENDBRANCH   4   7
ENDBRANCH   2   3
ENDBRANCH   1   2
BRANCH   1  23
ATOM     23  C   UNL A   1      33.551  28.975  27.278  1.00  0.00     0.118 C 
BRANCH  23  24
ATOM     24  N   UNL A   1      33.700  30.334  27.804  1.00  0.00    -0.352 N 
ATOM     25  C   UNL A   1      34.748  30.927  28.467  1.00  0.00     0.251 C 
ATOM     26  H   UNL A   1      32.922  30.920  27.657  1.00  0.00     0.163 HD
ATOM     27  O   UNL A   1      34.596  32.008  29.025  1.00  0.00    -0.269 OA
BRANCH  25  28
ATOM     28  C   UNL A   1      36.046  30.230  28.527  1.00  0.00     0.039 A 
ATOM     29  C   UNL A   1      36.425  29.589  29.702  1.00  0.00     0.014 A 
ATOM     30  C   UNL A   1      36.913  30.276  27.435  1.00  0.00     0.014 A 
ATOM     31  C   UNL A   1      37.751  29.248  29.887  1.00  0.00     0.010 A 
ATOM     32  C   UNL A   1      38.211  29.778  27.572  1.00  0.00     0.010 A 
ATOM     33  C   UNL A   1      38.663  29.329  28.823  1.00  0.00    -0.014 A 
BRANCH  33  34
ATOM     34  C   UNL A   1      40.075  28.939  29.060  1.00  0.00     0.031 A 
ATOM     35  C   UNL A   1      41.009  29.838  29.827  1.00  0.00     0.074 A 
ATOM     36  C   UNL A   1      40.492  27.727  28.643  1.00  0.00     0.049 A 
ATOM     37  N   UNL A   1      42.260  29.631  30.153  1.00  0.00    -0.248 NA
ATOM     38  C   UNL A   1      40.483  31.136  30.284  1.00  0.00     0.031 C 
ATOM     39  C   UNL A   1      39.665  26.759  27.916  1.00  0.00     0.029 A 
ATOM     40  N   UNL A   1      41.692  27.083  28.799  1.00  0.00    -0.354 N 
ATOM     41  C   UNL A   1      42.673  30.773  30.828  1.00  0.00     0.074 A 
ATOM     42  C   UNL A   1      41.556  31.689  30.833  1.00  0.00     0.031 C 
ATOM     43  C   UNL A   1      40.354  25.622  27.760  1.00  0.00     0.029 A 
ATOM     44  C   UNL A   1      41.702  25.811  28.278  1.00  0.00     0.049 A 
ATOM     45  H   UNL A   1      42.471  27.491  29.243  1.00  0.00     0.167 HD
ATOM     46  C   UNL A   1      43.872  31.023  31.404  1.00  0.00     0.031 A 
ATOM     47  C   UNL A   1      42.689  24.899  28.201  1.00  0.00     0.031 A 
ATOM     48  C   UNL A   1      44.973  30.093  31.404  1.00  0.00     0.049 A 
ATOM     49  C   UNL A   1      44.028  25.229  28.791  1.00  0.00     0.074 A 
ATOM     50  C   UNL A   1      46.220  30.249  31.984  1.00  0.00     0.029 A 
ATOM     51  N   UNL A   1      44.964  28.844  30.803  1.00  0.00    -0.354 N 
ATOM     52  N   UNL A   1      44.394  26.305  29.447  1.00  0.00    -0.248 NA
ATOM     53  C   UNL A   1      45.087  24.223  28.644  1.00  0.00     0.031 C 
ATOM     54  C   UNL A   1      46.994  29.137  31.653  1.00  0.00     0.029 A 
ATOM     55  C   UNL A   1      46.199  28.236  30.964  1.00  0.00     0.049 A 
ATOM     56  H   UNL A   1      44.195  28.448  30.333  1.00  0.00     0.167 HD
ATOM     57  C   UNL A   1      45.717  26.094  29.812  1.00  0.00     0.074 A 
ATOM     58  C   UNL A   1      46.078  24.778  29.328  1.00  0.00     0.031 C 
ATOM     59  C   UNL A   1      46.552  26.921  30.486  1.00  0.00     0.031 A 
BRANCH  46  60
ATOM     60  C   UNL A   1      44.084  32.353  32.081  1.00  0.00    -0.014 A 
ATOM     61  C   UNL A   1      44.651  33.417  31.358  1.00  0.00     0.009 A 
ATOM     62  C   UNL A   1      43.848  32.524  33.453  1.00  0.00     0.009 A 
ATOM     63  C   UNL A   1      45.007  34.605  31.998  1.00  0.00     0.001 A 
ATOM     64  C   UNL A   1      44.168  33.728  34.085  1.00  0.00     0.001 A 
ATOM     65  C   UNL A   1      44.763  34.761  33.361  1.00  0.00     0.000 A 
ENDBRANCH  46  60
BRANCH  47  66
ATOM     66  C   UNL A   1      42.418  23.591  27.540  1.00  0.00    -0.014 A 
ATOM     67  C   UNL A   1      41.983  22.487  28.294  1.00  0.00     0.009 A 
ATOM     68  C   UNL A   1      42.665  23.415  26.171  1.00  0.00     0.009 A 
ATOM     69  C   UNL A   1      41.848  21.228  27.705  1.00  0.00     0.001 A 
ATOM     70  C   UNL A   1      42.485  22.164  25.574  1.00  0.00     0.001 A 
ATOM     71  C   UNL A   1      42.094  21.070  26.344  1.00  0.00     0.000 A 
ENDBRANCH  47  66
BRANCH  59  72
ATOM     72  C   UNL A   1      47.949  26.437  30.777  1.00  0.00    -0.014 A 
ATOM     73  C   UNL A   1      48.941  26.546  29.787  1.00  0.00     0.009 A 
ATOM     74  C   UNL A   1      48.258  25.769  31.972  1.00  0.00     0.009 A 
ATOM     75  C   UNL A   1      50.199  25.972  29.972  1.00  0.00     0.001 A 
ATOM     76  C   UNL A   1      49.532  25.234  32.173  1.00  0.00     0.001 A 
ATOM     77  C   UNL A   1      50.495  25.322  31.168  1.00  0.00     0.000 A 
ENDBRANCH  59  72
ENDBRANCH  33  34
ENDBRANCH  25  28
ENDBRANCH  23  24
ENDBRANCH   1  23
TORSDOF 12
ENDMDL
MODEL 3
REMARK VINA RESULT:     -10.9      1.911      2.432
REMARK SMILES C#Cc1ccc2c(c1)C=C(C(=O)NCCCNC(=O)c1ccc(-c3c4nc(c(-c5ccccc5)c5ccc([nH]5)c(-c5ccccc5)c5nc(c(-c6ccccc6)c6ccc3[nH]6)C=C5)C=C4)cc1)[C@@H](C(F)(F)F)O2
REMARK SMILES IDX 15 1 14 2 13 3 11 4 12 5 10 7 3 8 4 9 8 10 5 11 7 12 6 13
REMARK SMILES IDX 9 14 73 15 68 16 2 17 1 18 69 19 70 20 71 21 72 22 16 23
REMARK SMILES IDX 17 24 18 25 19 27 20 28 21 29 67 30 22 31 66 32 23 33 24 34
REMARK SMILES IDX 25 35 60 36 26 37 65 38 59 39 61 40 27 41 64 42 58 43 57 44
REMARK SMILES IDX 28 46 50 47 35 48 49 49 36 50 39 51 48 52 62 53 37 54 38 55
REMARK SMILES IDX 47 57 63 58 40 59 29 60 30 61 34 62 31 63 33 64 32 65 51 66
REMARK SMILES IDX 52 67 56 68 53 69 55 70 54 71 41 72 42 73 46 74 43 75 45 76
REMARK SMILES IDX 44 77
REMARK H PARENT 13 6 17 26 61 45 39 56
REMARK Flexibility Score: inf
ROOT
ATOM      1  C   UNL A   1      33.194  30.068  27.018  1.00  0.00     0.042 C 
ENDROOT
BRANCH   1   2
ATOM      2  C   UNL A   1      32.890  29.139  25.860  1.00  0.00     0.118 C 
BRANCH   2   3
ATOM      3  N   UNL A   1      31.918  28.118  26.221  1.00  0.00    -0.352 N 
ATOM      4  C   UNL A   1      31.753  26.790  26.018  1.00  0.00     0.251 C 
ATOM      5  O   UNL A   1      30.751  26.294  26.542  1.00  0.00    -0.270 OA
ATOM      6  H   UNL A   1      31.183  28.495  26.757  1.00  0.00     0.163 HD
BRANCH   4   7
ATOM      7  C   UNL A   1      32.678  25.933  25.221  1.00  0.00     0.067 C 
ATOM      8  C   UNL A   1      36.645  23.181  25.012  1.00  0.00     0.025 A 
ATOM      9  C   UNL A   1      36.314  22.808  23.707  1.00  0.00     0.021 A 
ATOM     10  C   UNL A   1      35.803  24.035  25.737  1.00  0.00     0.029 A 
ATOM     11  C   UNL A   1      35.143  23.282  23.126  1.00  0.00     0.048 A 
ATOM     12  C   UNL A   1      34.629  24.517  25.153  1.00  0.00     0.018 A 
ATOM     13  C   UNL A   1      34.314  24.135  23.847  1.00  0.00     0.128 A 
ATOM     14  C   UNL A   1      33.701  25.369  25.890  1.00  0.00     0.025 C 
ATOM     15  O   UNL A   1      33.171  24.525  23.215  1.00  0.00    -0.475 OA
ATOM     16  C   UNL A   1      32.521  25.705  23.747  1.00  0.00     0.314 C 
BRANCH   8  17
ATOM     17  C   UNL A   1      37.841  22.669  25.602  1.00  0.00    -0.070 C 
ATOM     18  C   UNL A   1      38.852  22.268  26.113  1.00  0.00     0.010 C 
ENDBRANCH   8  17
BRANCH  16  19
ATOM     19  C   UNL A   1      32.938  26.934  22.912  1.00  0.00     0.429 C 
ATOM     20  F   UNL A   1      33.189  26.565  21.630  1.00  0.00    -0.167 F 
ATOM     21  F   UNL A   1      31.973  27.882  22.853  1.00  0.00    -0.167 F 
ATOM     22  F   UNL A   1      34.048  27.539  23.387  1.00  0.00    -0.167 F 
ENDBRANCH  16  19
ENDBRANCH   4   7
ENDBRANCH   2   3
ENDBRANCH   1   2
BRANCH   1  23
ATOM     23  C   UNL A   1      34.537  29.748  27.648  1.00  0.00     0.118 C 
BRANCH  23  24
ATOM     24  N   UNL A   1      34.815  30.587  28.816  1.00  0.00    -0.352 N 
ATOM     25  C   UNL A   1      35.900  30.616  29.659  1.00  0.00     0.251 C 
ATOM     26  H   UNL A   1      34.108  31.239  29.032  1.00  0.00     0.163 HD
ATOM     27  O   UNL A   1      35.847  31.237  30.715  1.00  0.00    -0.269 OA
BRANCH  25  28
ATOM     28  C   UNL A   1      37.113  29.863  29.294  1.00  0.00     0.039 A 
ATOM     29  C   UNL A   1      37.791  29.141  30.272  1.00  0.00     0.014 A 
ATOM     30  C   UNL A   1      37.612  29.932  27.993  1.00  0.00     0.014 A 
ATOM     31  C   UNL A   1      39.090  28.734  30.031  1.00  0.00     0.010 A 
ATOM     32  C   UNL A   1      38.860  29.373  27.709  1.00  0.00     0.010 A 
ATOM     33  C   UNL A   1      39.641  28.836  28.744  1.00  0.00    -0.014 A 
BRANCH  33  34
ATOM     34  C   UNL A   1      41.035  28.374  28.526  1.00  0.00     0.031 A 
ATOM     35  C   UNL A   1      41.327  26.948  28.142  1.00  0.00     0.074 A 
ATOM     36  C   UNL A   1      42.035  29.274  28.602  1.00  0.00     0.049 A 
ATOM     37  N   UNL A   1      42.484  26.392  27.880  1.00  0.00    -0.248 NA
ATOM     38  C   UNL A   1      40.187  26.021  28.045  1.00  0.00     0.031 C 
ATOM     39  C   UNL A   1      41.866  30.691  28.936  1.00  0.00     0.029 A 
ATOM     40  N   UNL A   1      43.380  29.149  28.366  1.00  0.00    -0.354 N 
ATOM     41  C   UNL A   1      42.213  25.056  27.610  1.00  0.00     0.074 A 
ATOM     42  C   UNL A   1      40.790  24.870  27.779  1.00  0.00     0.031 C 
ATOM     43  C   UNL A   1      43.042  31.317  28.809  1.00  0.00     0.029 A 
ATOM     44  C   UNL A   1      44.069  30.333  28.488  1.00  0.00     0.049 A 
ATOM     45  H   UNL A   1      43.811  28.295  28.132  1.00  0.00     0.167 HD
ATOM     46  C   UNL A   1      43.075  24.081  27.240  1.00  0.00     0.031 A 
ATOM     47  C   UNL A   1      45.383  30.603  28.378  1.00  0.00     0.031 A 
ATOM     48  C   UNL A   1      44.490  24.284  27.060  1.00  0.00     0.049 A 
ATOM     49  C   UNL A   1      46.324  29.488  28.029  1.00  0.00     0.074 A 
ATOM     50  C   UNL A   1      45.441  23.360  26.663  1.00  0.00     0.029 A 
ATOM     51  N   UNL A   1      45.157  25.483  27.262  1.00  0.00    -0.354 N 
ATOM     52  N   UNL A   1      46.048  28.235  27.755  1.00  0.00    -0.248 NA
ATOM     53  C   UNL A   1      47.753  29.819  27.964  1.00  0.00     0.031 C 
ATOM     54  C   UNL A   1      46.692  23.974  26.716  1.00  0.00     0.029 A 
ATOM     55  C   UNL A   1      46.513  25.310  27.037  1.00  0.00     0.049 A 
ATOM     56  H   UNL A   1      44.730  26.330  27.526  1.00  0.00     0.167 HD
ATOM     57  C   UNL A   1      47.264  27.635  27.459  1.00  0.00     0.074 A 
ATOM     58  C   UNL A   1      48.274  28.667  27.563  1.00  0.00     0.031 C 
ATOM     59  C   UNL A   1      47.515  26.343  27.134  1.00  0.00     0.031 A 
BRANCH  46  60
ATOM     60  C   UNL A   1      42.536  22.692  27.007  1.00  0.00    -0.014 A 
ATOM     61  C   UNL A   1      42.053  21.943  28.094  1.00  0.00     0.009 A 
ATOM     62  C   UNL A   1      42.620  22.074  25.749  1.00  0.00     0.009 A 
ATOM     63  C   UNL A   1      41.700  20.602  27.937  1.00  0.00     0.001 A 
ATOM     64  C   UNL A   1      42.229  20.743  25.585  1.00  0.00     0.001 A 
ATOM     65  C   UNL A   1      41.785  20.003  26.681  1.00  0.00     0.000 A 
ENDBRANCH  46  60
BRANCH  47  66
ATOM     66  C   UNL A   1      45.858  31.998  28.597  1.00  0.00    -0.014 A 
ATOM     67  C   UNL A   1      46.054  32.865  27.507  1.00  0.00     0.009 A 
ATOM     68  C   UNL A   1      46.192  32.447  29.882  1.00  0.00     0.009 A 
ATOM     69  C   UNL A   1      46.618  34.129  27.692  1.00  0.00     0.001 A 
ATOM     70  C   UNL A   1      46.713  33.731  30.070  1.00  0.00     0.001 A 
ATOM     71  C   UNL A   1      46.941  34.563  28.976  1.00  0.00     0.000 A 
ENDBRANCH  47  66
BRANCH  59  72
ATOM     72  C   UNL A   1      48.939  25.950  26.836  1.00  0.00    -0.014 A 
ATOM     73  C   UNL A   1      49.748  25.442  27.866  1.00  0.00     0.009 A 
ATOM     74  C   UNL A   1      49.516  26.191  25.579  1.00  0.00     0.009 A 
ATOM     75  C   UNL A   1      51.109  25.212  27.656  1.00  0.00     0.001 A 
ATOM     76  C   UNL A   1      50.868  25.917  25.359  1.00  0.00     0.001 A 
ATOM     77  C   UNL A   1      51.665  25.444  26.400  1.00  0.00     0.000 A 
ENDBRANCH  59  72
ENDBRANCH  33  34
ENDBRANCH  25  28
ENDBRANCH  23  24
ENDBRANCH   1  23
TORSDOF 12
ENDMDL
