MODEL 1
REMARK VINA RESULT:     -12.1      0.000      0.000
REMARK SMILES Cc1c(Cc2nc(C(C)(C)C)cs2)cccc1C(=O)NCCCNC(=O)c1ccc(-c2c3nc(c(-c4ccccc4)c4ccc([nH]4)c(-c4ccccc4)c4nc(c(-c5ccccc5)c5ccc2[nH]5)C=C4)C=C3)cc1
REMARK SMILES IDX 21 1 20 2 18 3 19 4 17 6 1 7 2 8 3 9 14 10 16 11 15 12 4 13
REMARK SMILES IDX 5 14 6 15 13 16 7 17 12 18 8 19 9 20 10 21 11 22 22 23 23 24
REMARK SMILES IDX 24 25 25 26 26 28 27 29 28 30 74 31 29 32 73 33 30 34 31 35
REMARK SMILES IDX 32 36 67 37 33 38 72 39 66 40 68 41 34 42 71 43 65 44 64 45
REMARK SMILES IDX 35 47 57 48 42 49 56 50 43 51 46 52 55 53 69 54 44 55 45 56
REMARK SMILES IDX 54 58 70 59 47 60 36 61 37 62 41 63 38 64 40 65 39 66 58 67
REMARK SMILES IDX 59 68 63 69 60 70 62 71 61 72 48 73 49 74 53 75 50 76 52 77
REMARK SMILES IDX 51 78
REMARK H PARENT 20 5 24 27 68 46 46 57
REMARK Flexibility Score: inf
ROOT
ATOM      1  C   UNL A   1      31.768  30.008  26.428  1.00  0.00     0.118 C 
ENDROOT
BRANCH   1   2
ATOM      2  N   UNL A   1      32.051  29.947  25.003  1.00  0.00    -0.352 N 
ATOM      3  C   UNL A   1      31.994  28.923  24.087  1.00  0.00     0.251 C 
ATOM      4  O   UNL A   1      32.222  29.204  22.909  1.00  0.00    -0.269 OA
ATOM      5  H   UNL A   1      32.339  30.808  24.619  1.00  0.00     0.163 HD
BRANCH   3   6
ATOM      6  C   UNL A   1      31.583  27.522  24.412  1.00  0.00     0.043 A 
ATOM      7  C   UNL A   1      33.747  26.797  25.546  1.00  0.00     0.045 C 
ATOM      8  C   UNL A   1      32.311  26.586  25.179  1.00  0.00    -0.035 A 
ATOM      9  C   UNL A   1      31.716  25.345  25.513  1.00  0.00    -0.037 A 
ATOM     10  C   UNL A   1      30.550  24.946  24.838  1.00  0.00     0.004 A 
ATOM     11  C   UNL A   1      30.397  27.097  23.782  1.00  0.00     0.014 A 
ATOM     12  C   UNL A   1      29.911  25.804  23.955  1.00  0.00     0.001 A 
BRANCH   9  13
ATOM     13  C   UNL A   1      32.303  24.421  26.576  1.00  0.00     0.103 C 
BRANCH  13  14
ATOM     14  C   UNL A   1      33.178  23.359  25.967  1.00  0.00     0.097 A 
ATOM     15  N   UNL A   1      34.477  23.493  25.827  1.00  0.00    -0.245 NA
ATOM     16  S   UNL A   1      32.517  21.921  25.301  1.00  0.00    -0.127 S 
ATOM     17  C   UNL A   1      34.995  22.478  25.044  1.00  0.00     0.057 A 
ATOM     18  C   UNL A   1      34.071  21.504  24.705  1.00  0.00     0.091 A 
BRANCH  17  19
ATOM     19  C   UNL A   1      36.461  22.551  24.650  1.00  0.00     0.005 C 
ATOM     20  C   UNL A   1      36.587  22.877  23.154  1.00  0.00     0.017 C 
ATOM     21  C   UNL A   1      37.187  23.630  25.477  1.00  0.00     0.017 C 
ATOM     22  C   UNL A   1      37.167  21.203  24.919  1.00  0.00     0.017 C 
ENDBRANCH  17  19
ENDBRANCH  13  14
ENDBRANCH   9  13
ENDBRANCH   3   6
ENDBRANCH   1   2
BRANCH   1  23
ATOM     23  C   UNL A   1      32.701  30.979  27.158  1.00  0.00     0.042 C 
BRANCH  23  24
ATOM     24  C   UNL A   1      34.047  30.417  27.583  1.00  0.00     0.118 C 
BRANCH  24  25
ATOM     25  N   UNL A   1      34.672  31.246  28.632  1.00  0.00    -0.352 N 
ATOM     26  C   UNL A   1      35.906  31.108  29.246  1.00  0.00     0.251 C 
ATOM     27  H   UNL A   1      34.132  32.008  28.941  1.00  0.00     0.163 HD
ATOM     28  O   UNL A   1      36.366  31.939  29.966  1.00  0.00    -0.269 OA
BRANCH  26  29
ATOM     29  C   UNL A   1      36.690  29.904  28.857  1.00  0.00     0.039 A 
ATOM     30  C   UNL A   1      37.086  29.068  29.899  1.00  0.00     0.014 A 
ATOM     31  C   UNL A   1      37.338  29.915  27.626  1.00  0.00     0.014 A 
ATOM     32  C   UNL A   1      38.321  28.445  29.806  1.00  0.00     0.010 A 
ATOM     33  C   UNL A   1      38.597  29.350  27.565  1.00  0.00     0.010 A 
ATOM     34  C   UNL A   1      39.123  28.700  28.690  1.00  0.00    -0.014 A 
BRANCH  34  35
ATOM     35  C   UNL A   1      40.548  28.397  28.689  1.00  0.00     0.031 A 
ATOM     36  C   UNL A   1      40.996  27.092  28.182  1.00  0.00     0.074 A 
ATOM     37  C   UNL A   1      41.465  29.218  29.250  1.00  0.00     0.049 A 
ATOM     38  N   UNL A   1      41.919  26.381  28.740  1.00  0.00    -0.248 NA
ATOM     39  C   UNL A   1      40.381  26.464  27.023  1.00  0.00     0.031 C 
ATOM     40  C   UNL A   1      42.915  29.035  29.245  1.00  0.00     0.029 A 
ATOM     41  N   UNL A   1      41.260  30.251  30.164  1.00  0.00    -0.354 N 
ATOM     42  C   UNL A   1      42.232  25.382  27.854  1.00  0.00     0.074 A 
ATOM     43  C   UNL A   1      41.180  25.407  26.861  1.00  0.00     0.031 C 
ATOM     44  C   UNL A   1      43.424  29.648  30.324  1.00  0.00     0.029 A 
ATOM     45  C   UNL A   1      42.313  30.180  31.093  1.00  0.00     0.049 A 
ATOM     46  H   UNL A   1      40.523  30.903  30.160  1.00  0.00     0.167 HD
ATOM     47  C   UNL A   1      43.432  24.741  27.940  1.00  0.00     0.031 A 
ATOM     48  C   UNL A   1      42.132  30.061  32.438  1.00  0.00     0.031 A 
ATOM     49  C   UNL A   1      44.257  25.229  29.046  1.00  0.00     0.049 A 
ATOM     50  C   UNL A   1      42.780  28.828  33.036  1.00  0.00     0.074 A 
ATOM     51  C   UNL A   1      45.365  26.059  29.113  1.00  0.00     0.029 A 
ATOM     52  N   UNL A   1      43.809  25.085  30.351  1.00  0.00    -0.354 N 
ATOM     53  N   UNL A   1      43.436  27.930  32.356  1.00  0.00    -0.248 NA
ATOM     54  C   UNL A   1      42.618  28.447  34.437  1.00  0.00     0.031 C 
ATOM     55  C   UNL A   1      45.590  26.401  30.474  1.00  0.00     0.029 A 
ATOM     56  C   UNL A   1      44.620  25.775  31.235  1.00  0.00     0.049 A 
ATOM     57  H   UNL A   1      43.017  24.561  30.614  1.00  0.00     0.167 HD
ATOM     58  C   UNL A   1      43.721  26.851  33.160  1.00  0.00     0.074 A 
ATOM     59  C   UNL A   1      43.188  27.230  34.457  1.00  0.00     0.031 C 
ATOM     60  C   UNL A   1      44.325  25.728  32.664  1.00  0.00     0.031 A 
BRANCH  47  61
ATOM     61  C   UNL A   1      43.958  23.893  26.808  1.00  0.00    -0.014 A 
ATOM     62  C   UNL A   1      44.668  24.492  25.753  1.00  0.00     0.009 A 
ATOM     63  C   UNL A   1      43.738  22.509  26.697  1.00  0.00     0.009 A 
ATOM     64  C   UNL A   1      45.020  23.780  24.599  1.00  0.00     0.001 A 
ATOM     65  C   UNL A   1      44.038  21.802  25.526  1.00  0.00     0.001 A 
ATOM     66  C   UNL A   1      44.667  22.443  24.468  1.00  0.00     0.000 A 
ENDBRANCH  47  61
BRANCH  48  67
ATOM     67  C   UNL A   1      40.866  30.671  32.923  1.00  0.00    -0.014 A 
ATOM     68  C   UNL A   1      40.726  32.068  32.815  1.00  0.00     0.009 A 
ATOM     69  C   UNL A   1      39.716  29.887  33.088  1.00  0.00     0.009 A 
ATOM     70  C   UNL A   1      39.460  32.652  32.733  1.00  0.00     0.001 A 
ATOM     71  C   UNL A   1      38.450  30.480  33.016  1.00  0.00     0.001 A 
ATOM     72  C   UNL A   1      38.323  31.852  32.795  1.00  0.00     0.000 A 
ENDBRANCH  48  67
BRANCH  60  73
ATOM     73  C   UNL A   1      44.689  24.459  33.418  1.00  0.00    -0.014 A 
ATOM     74  C   UNL A   1      43.794  23.450  33.792  1.00  0.00     0.009 A 
ATOM     75  C   UNL A   1      46.028  24.274  33.844  1.00  0.00     0.009 A 
ATOM     76  C   UNL A   1      44.222  22.295  34.471  1.00  0.00     0.001 A 
ATOM     77  C   UNL A   1      46.460  23.136  34.530  1.00  0.00     0.001 A 
ATOM     78  C   UNL A   1      45.555  22.134  34.832  1.00  0.00     0.000 A 
ENDBRANCH  60  73
ENDBRANCH  34  35
ENDBRANCH  26  29
ENDBRANCH  24  25
ENDBRANCH  23  24
ENDBRANCH   1  23
TORSDOF 13
ENDMDL
MODEL 2
REMARK VINA RESULT:     -11.9      3.175      8.372
REMARK SMILES Cc1c(Cc2nc(C(C)(C)C)cs2)cccc1C(=O)NCCCNC(=O)c1ccc(-c2c3nc(c(-c4ccccc4)c4ccc([nH]4)c(-c4ccccc4)c4nc(c(-c5ccccc5)c5ccc2[nH]5)C=C4)C=C3)cc1
REMARK SMILES IDX 21 1 20 2 18 3 19 4 17 6 1 7 2 8 3 9 14 10 16 11 15 12 4 13
REMARK SMILES IDX 5 14 6 15 13 16 7 17 12 18 8 19 9 20 10 21 11 22 22 23 23 24
REMARK SMILES IDX 24 25 25 26 26 28 27 29 28 30 74 31 29 32 73 33 30 34 31 35
REMARK SMILES IDX 32 36 67 37 33 38 72 39 66 40 68 41 34 42 71 43 65 44 64 45
REMARK SMILES IDX 35 47 57 48 42 49 56 50 43 51 46 52 55 53 69 54 44 55 45 56
REMARK SMILES IDX 54 58 70 59 47 60 36 61 37 62 41 63 38 64 40 65 39 66 58 67
REMARK SMILES IDX 59 68 63 69 60 70 62 71 61 72 48 73 49 74 53 75 50 76 52 77
REMARK SMILES IDX 51 78
REMARK H PARENT 20 5 24 27 68 46 46 57
REMARK Flexibility Score: inf
ROOT
ATOM      1  C   UNL A   1      37.908  21.615  25.385  1.00  0.00     0.118 C 
ENDROOT
BRANCH   1   2
ATOM      2  N   UNL A   1      37.498  22.177  24.108  1.00  0.00    -0.352 N 
ATOM      3  C   UNL A   1      36.280  22.594  23.623  1.00  0.00     0.251 C 
ATOM      4  O   UNL A   1      36.263  23.111  22.504  1.00  0.00    -0.269 OA
ATOM      5  H   UNL A   1      38.237  22.280  23.465  1.00  0.00     0.163 HD
BRANCH   3   6
ATOM      6  C   UNL A   1      35.002  22.547  24.400  1.00  0.00     0.043 A 
ATOM      7  C   UNL A   1      35.370  24.662  25.773  1.00  0.00     0.045 C 
ATOM      8  C   UNL A   1      34.516  23.534  25.283  1.00  0.00    -0.035 A 
ATOM      9  C   UNL A   1      33.217  23.399  25.833  1.00  0.00    -0.037 A 
ATOM     10  C   UNL A   1      32.561  22.160  25.732  1.00  0.00     0.004 A 
ATOM     11  C   UNL A   1      34.297  21.333  24.294  1.00  0.00     0.014 A 
ATOM     12  C   UNL A   1      33.111  21.123  24.993  1.00  0.00     0.001 A 
BRANCH   9  13
ATOM     13  C   UNL A   1      32.508  24.551  26.540  1.00  0.00     0.103 C 
BRANCH  13  14
ATOM     14  C   UNL A   1      31.804  25.452  25.563  1.00  0.00     0.097 A 
ATOM     15  N   UNL A   1      32.238  26.652  25.252  1.00  0.00    -0.245 NA
ATOM     16  S   UNL A   1      30.302  25.013  24.855  1.00  0.00    -0.127 S 
ATOM     17  C   UNL A   1      31.292  27.340  24.513  1.00  0.00     0.057 A 
ATOM     18  C   UNL A   1      30.189  26.580  24.165  1.00  0.00     0.091 A 
BRANCH  17  19
ATOM     19  C   UNL A   1      31.559  28.801  24.190  1.00  0.00     0.005 C 
ATOM     20  C   UNL A   1      32.696  28.913  23.163  1.00  0.00     0.017 C 
ATOM     21  C   UNL A   1      30.289  29.469  23.628  1.00  0.00     0.017 C 
ATOM     22  C   UNL A   1      31.970  29.577  25.462  1.00  0.00     0.017 C 
ENDBRANCH  17  19
ENDBRANCH  13  14
ENDBRANCH   9  13
ENDBRANCH   3   6
ENDBRANCH   1   2
BRANCH   1  23
ATOM     23  C   UNL A   1      38.749  22.599  26.203  1.00  0.00     0.042 C 
BRANCH  23  24
ATOM     24  C   UNL A   1      39.934  22.007  26.946  1.00  0.00     0.118 C 
BRANCH  24  25
ATOM     25  N   UNL A   1      40.673  21.045  26.106  1.00  0.00    -0.352 N 
ATOM     26  C   UNL A   1      42.040  20.850  25.983  1.00  0.00     0.251 C 
ATOM     27  H   UNL A   1      40.113  20.457  25.550  1.00  0.00     0.163 HD
ATOM     28  O   UNL A   1      42.509  19.929  25.390  1.00  0.00    -0.269 OA
BRANCH  26  29
ATOM     29  C   UNL A   1      42.898  21.798  26.743  1.00  0.00     0.039 A 
ATOM     30  C   UNL A   1      42.898  21.649  28.128  1.00  0.00     0.014 A 
ATOM     31  C   UNL A   1      43.266  22.988  26.125  1.00  0.00     0.014 A 
ATOM     32  C   UNL A   1      42.988  22.790  28.911  1.00  0.00     0.010 A 
ATOM     33  C   UNL A   1      43.285  24.130  26.903  1.00  0.00     0.010 A 
ATOM     34  C   UNL A   1      43.050  24.036  28.281  1.00  0.00    -0.014 A 
BRANCH  34  35
ATOM     35  C   UNL A   1      42.773  25.270  29.003  1.00  0.00     0.031 A 
ATOM     36  C   UNL A   1      41.596  26.066  28.627  1.00  0.00     0.074 A 
ATOM     37  C   UNL A   1      43.624  25.778  29.924  1.00  0.00     0.049 A 
ATOM     38  N   UNL A   1      41.595  27.354  28.541  1.00  0.00    -0.248 NA
ATOM     39  C   UNL A   1      40.334  25.444  28.256  1.00  0.00     0.031 C 
ATOM     40  C   UNL A   1      43.409  26.970  30.744  1.00  0.00     0.029 A 
ATOM     41  N   UNL A   1      44.969  25.472  30.124  1.00  0.00    -0.354 N 
ATOM     42  C   UNL A   1      40.282  27.738  28.423  1.00  0.00     0.074 A 
ATOM     43  C   UNL A   1      39.553  26.521  28.138  1.00  0.00     0.031 C 
ATOM     44  C   UNL A   1      44.605  27.485  31.066  1.00  0.00     0.029 A 
ATOM     45  C   UNL A   1      45.621  26.687  30.404  1.00  0.00     0.049 A 
ATOM     46  H   UNL A   1      45.383  24.581  30.078  1.00  0.00     0.167 HD
ATOM     47  C   UNL A   1      39.908  29.008  28.744  1.00  0.00     0.031 A 
ATOM     48  C   UNL A   1      46.684  27.160  29.694  1.00  0.00     0.031 A 
ATOM     49  C   UNL A   1      41.033  29.838  29.178  1.00  0.00     0.049 A 
ATOM     50  C   UNL A   1      46.447  28.521  29.072  1.00  0.00     0.074 A 
ATOM     51  C   UNL A   1      41.465  30.285  30.416  1.00  0.00     0.029 A 
ATOM     52  N   UNL A   1      42.069  30.105  28.294  1.00  0.00    -0.354 N 
ATOM     53  N   UNL A   1      45.336  29.197  29.163  1.00  0.00    -0.248 NA
ATOM     54  C   UNL A   1      47.409  29.164  28.180  1.00  0.00     0.031 C 
ATOM     55  C   UNL A   1      42.766  30.838  30.268  1.00  0.00     0.029 A 
ATOM     56  C   UNL A   1      43.123  30.731  28.937  1.00  0.00     0.049 A 
ATOM     57  H   UNL A   1      42.056  29.877  27.336  1.00  0.00     0.167 HD
ATOM     58  C   UNL A   1      45.383  30.289  28.330  1.00  0.00     0.074 A 
ATOM     59  C   UNL A   1      46.708  30.223  27.739  1.00  0.00     0.031 C 
ATOM     60  C   UNL A   1      44.304  31.115  28.169  1.00  0.00     0.031 A 
BRANCH  47  61
ATOM     61  C   UNL A   1      38.460  29.375  28.958  1.00  0.00    -0.014 A 
ATOM     62  C   UNL A   1      37.674  29.790  27.870  1.00  0.00     0.009 A 
ATOM     63  C   UNL A   1      37.831  29.386  30.215  1.00  0.00     0.009 A 
ATOM     64  C   UNL A   1      36.383  30.308  28.043  1.00  0.00     0.001 A 
ATOM     65  C   UNL A   1      36.563  29.951  30.405  1.00  0.00     0.001 A 
ATOM     66  C   UNL A   1      35.844  30.427  29.318  1.00  0.00     0.000 A 
ENDBRANCH  47  61
BRANCH  48  67
ATOM     67  C   UNL A   1      47.519  26.088  29.092  1.00  0.00    -0.014 A 
ATOM     68  C   UNL A   1      47.250  25.716  27.759  1.00  0.00     0.009 A 
ATOM     69  C   UNL A   1      48.762  25.757  29.647  1.00  0.00     0.009 A 
ATOM     70  C   UNL A   1      48.248  25.151  26.964  1.00  0.00     0.001 A 
ATOM     71  C   UNL A   1      49.755  25.181  28.847  1.00  0.00     0.001 A 
ATOM     72  C   UNL A   1      49.512  24.920  27.498  1.00  0.00     0.000 A 
ENDBRANCH  48  67
BRANCH  60  73
ATOM     73  C   UNL A   1      44.198  32.343  27.280  1.00  0.00    -0.014 A 
ATOM     74  C   UNL A   1      44.344  32.355  25.888  1.00  0.00     0.009 A 
ATOM     75  C   UNL A   1      43.990  33.609  27.881  1.00  0.00     0.009 A 
ATOM     76  C   UNL A   1      44.209  33.537  25.138  1.00  0.00     0.001 A 
ATOM     77  C   UNL A   1      43.867  34.792  27.145  1.00  0.00     0.001 A 
ATOM     78  C   UNL A   1      43.961  34.752  25.765  1.00  0.00     0.000 A 
ENDBRANCH  60  73
ENDBRANCH  34  35
ENDBRANCH  26  29
ENDBRANCH  24  25
ENDBRANCH  23  24
ENDBRANCH   1  23
TORSDOF 13
ENDMDL
MODEL 3
REMARK VINA RESULT:     -11.8      1.698      2.283
REMARK SMILES Cc1c(Cc2nc(C(C)(C)C)cs2)cccc1C(=O)NCCCNC(=O)c1ccc(-c2c3nc(c(-c4ccccc4)c4ccc([nH]4)c(-c4ccccc4)c4nc(c(-c5ccccc5)c5ccc2[nH]5)C=C4)C=C3)cc1
REMARK SMILES IDX 21 1 20 2 18 3 19 4 17 6 1 7 2 8 3 9 14 10 16 11 15 12 4 13
REMARK SMILES IDX 5 14 6 15 13 16 7 17 12 18 8 19 9 20 10 21 11 22 22 23 23 24
REMARK SMILES IDX 24 25 25 26 26 28 27 29 28 30 74 31 29 32 73 33 30 34 31 35
REMARK SMILES IDX 32 36 67 37 33 38 72 39 66 40 68 41 34 42 71 43 65 44 64 45
REMARK SMILES IDX 35 47 57 48 42 49 56 50 43 51 46 52 55 53 69 54 44 55 45 56
REMARK SMILES IDX 54 58 70 59 47 60 36 61 37 62 41 63 38 64 40 65 39 66 58 67
REMARK SMILES IDX 59 68 63 69 60 70 62 71 61 72 48 73 49 74 53 75 50 76 52 77
REMARK SMILES IDX 51 78
REMARK H PARENT 20 5 24 27 68 46 46 57
REMARK Flexibility Score: inf
ROOT
ATOM      1  C   UNL A   1      33.656  30.338  27.028  1.00  0.00     0.118 C 
ENDROOT
BRANCH   1   2
ATOM      2  N   UNL A   1      32.643  29.487  27.630  1.00  0.00    -0.352 N 
ATOM      3  C   UNL A   1      31.884  28.450  27.136  1.00  0.00     0.251 C 
ATOM      4  O   UNL A   1      31.150  27.858  27.929  1.00  0.00    -0.269 OA
ATOM      5  H   UNL A   1      32.465  29.692  28.578  1.00  0.00     0.163 HD
BRANCH   3   6
ATOM      6  C   UNL A   1      31.965  27.942  25.732  1.00  0.00     0.043 A 
ATOM      7  C   UNL A   1      34.219  26.770  25.932  1.00  0.00     0.045 C 
ATOM      8  C   UNL A   1      32.948  27.078  25.203  1.00  0.00    -0.035 A 
ATOM      9  C   UNL A   1      32.801  26.578  23.886  1.00  0.00    -0.037 A 
ATOM     10  C   UNL A   1      31.856  27.173  23.033  1.00  0.00     0.004 A 
ATOM     11  C   UNL A   1      31.009  28.489  24.855  1.00  0.00     0.014 A 
ATOM     12  C   UNL A   1      30.985  28.144  23.506  1.00  0.00     0.001 A 
BRANCH   9  13
ATOM     13  C   UNL A   1      33.642  25.419  23.357  1.00  0.00     0.103 C 
BRANCH  13  14
ATOM     14  C   UNL A   1      33.121  24.092  23.837  1.00  0.00     0.097 A 
ATOM     15  N   UNL A   1      33.770  23.333  24.691  1.00  0.00    -0.245 NA
ATOM     16  S   UNL A   1      31.671  23.414  23.214  1.00  0.00    -0.127 S 
ATOM     17  C   UNL A   1      33.182  22.085  24.785  1.00  0.00     0.057 A 
ATOM     18  C   UNL A   1      31.996  21.969  24.079  1.00  0.00     0.091 A 
BRANCH  17  19
ATOM     19  C   UNL A   1      33.883  21.021  25.613  1.00  0.00     0.005 C 
ATOM     20  C   UNL A   1      35.301  20.785  25.071  1.00  0.00     0.017 C 
ATOM     21  C   UNL A   1      33.960  21.453  27.090  1.00  0.00     0.017 C 
ATOM     22  C   UNL A   1      33.108  19.685  25.557  1.00  0.00     0.017 C 
ENDBRANCH  17  19
ENDBRANCH  13  14
ENDBRANCH   9  13
ENDBRANCH   3   6
ENDBRANCH   1   2
BRANCH   1  23
ATOM     23  C   UNL A   1      34.031  31.515  27.935  1.00  0.00     0.042 C 
BRANCH  23  24
ATOM     24  C   UNL A   1      35.465  32.002  27.836  1.00  0.00     0.118 C 
BRANCH  24  25
ATOM     25  N   UNL A   1      36.055  32.222  29.171  1.00  0.00    -0.352 N 
ATOM     26  C   UNL A   1      36.950  31.438  29.880  1.00  0.00     0.251 C 
ATOM     27  H   UNL A   1      35.768  33.047  29.624  1.00  0.00     0.163 HD
ATOM     28  O   UNL A   1      37.477  31.806  30.884  1.00  0.00    -0.269 OA
BRANCH  26  29
ATOM     29  C   UNL A   1      37.315  30.141  29.248  1.00  0.00     0.039 A 
ATOM     30  C   UNL A   1      37.524  29.073  30.117  1.00  0.00     0.014 A 
ATOM     31  C   UNL A   1      37.843  30.166  27.962  1.00  0.00     0.014 A 
ATOM     32  C   UNL A   1      38.512  28.153  29.799  1.00  0.00     0.010 A 
ATOM     33  C   UNL A   1      38.873  29.290  27.679  1.00  0.00     0.010 A 
ATOM     34  C   UNL A   1      39.267  28.349  28.639  1.00  0.00    -0.014 A 
BRANCH  34  35
ATOM     35  C   UNL A   1      40.536  27.664  28.431  1.00  0.00     0.031 A 
ATOM     36  C   UNL A   1      40.538  26.203  28.271  1.00  0.00     0.074 A 
ATOM     37  C   UNL A   1      41.726  28.304  28.503  1.00  0.00     0.049 A 
ATOM     38  N   UNL A   1      41.409  25.420  28.814  1.00  0.00    -0.248 NA
ATOM     39  C   UNL A   1      39.500  25.510  27.522  1.00  0.00     0.031 C 
ATOM     40  C   UNL A   1      43.043  27.722  28.249  1.00  0.00     0.029 A 
ATOM     41  N   UNL A   1      42.011  29.543  29.073  1.00  0.00    -0.354 N 
ATOM     42  C   UNL A   1      41.241  24.186  28.236  1.00  0.00     0.074 A 
ATOM     43  C   UNL A   1      39.980  24.264  27.531  1.00  0.00     0.031 C 
ATOM     44  C   UNL A   1      43.955  28.412  28.951  1.00  0.00     0.029 A 
ATOM     45  C   UNL A   1      43.246  29.408  29.734  1.00  0.00     0.049 A 
ATOM     46  H   UNL A   1      41.458  30.356  29.023  1.00  0.00     0.167 HD
ATOM     47  C   UNL A   1      42.253  23.274  28.261  1.00  0.00     0.031 A 
ATOM     48  C   UNL A   1      43.433  29.679  31.056  1.00  0.00     0.031 A 
ATOM     49  C   UNL A   1      43.441  23.765  28.960  1.00  0.00     0.049 A 
ATOM     50  C   UNL A   1      43.949  28.499  31.855  1.00  0.00     0.074 A 
ATOM     51  C   UNL A   1      44.671  24.237  28.531  1.00  0.00     0.029 A 
ATOM     52  N   UNL A   1      43.362  24.079  30.310  1.00  0.00    -0.354 N 
ATOM     53  N   UNL A   1      44.181  27.314  31.365  1.00  0.00    -0.248 NA
ATOM     54  C   UNL A   1      44.115  28.536  33.306  1.00  0.00     0.031 C 
ATOM     55  C   UNL A   1      45.340  24.825  29.639  1.00  0.00     0.029 A 
ATOM     56  C   UNL A   1      44.517  24.706  30.743  1.00  0.00     0.049 A 
ATOM     57  H   UNL A   1      42.586  23.882  30.883  1.00  0.00     0.167 HD
ATOM     58  C   UNL A   1      44.449  26.431  32.384  1.00  0.00     0.074 A 
ATOM     59  C   UNL A   1      44.398  27.251  33.581  1.00  0.00     0.031 C 
ATOM     60  C   UNL A   1      44.637  25.097  32.145  1.00  0.00     0.031 A 
BRANCH  47  61
ATOM     61  C   UNL A   1      42.245  22.061  27.364  1.00  0.00    -0.014 A 
ATOM     62  C   UNL A   1      41.302  21.040  27.571  1.00  0.00     0.009 A 
ATOM     63  C   UNL A   1      43.177  21.841  26.334  1.00  0.00     0.009 A 
ATOM     64  C   UNL A   1      41.367  19.821  26.884  1.00  0.00     0.001 A 
ATOM     65  C   UNL A   1      43.282  20.607  25.679  1.00  0.00     0.001 A 
ATOM     66  C   UNL A   1      42.384  19.589  25.966  1.00  0.00     0.000 A 
ENDBRANCH  47  61
BRANCH  48  67
ATOM     67  C   UNL A   1      42.514  30.722  31.584  1.00  0.00    -0.014 A 
ATOM     68  C   UNL A   1      41.224  30.319  31.984  1.00  0.00     0.009 A 
ATOM     69  C   UNL A   1      43.017  31.942  32.055  1.00  0.00     0.009 A 
ATOM     70  C   UNL A   1      40.515  31.052  32.937  1.00  0.00     0.001 A 
ATOM     71  C   UNL A   1      42.296  32.677  33.002  1.00  0.00     0.001 A 
ATOM     72  C   UNL A   1      41.068  32.209  33.474  1.00  0.00     0.000 A 
ENDBRANCH  48  67
BRANCH  60  73
ATOM     73  C   UNL A   1      44.925  24.003  33.161  1.00  0.00    -0.014 A 
ATOM     74  C   UNL A   1      44.022  23.014  33.568  1.00  0.00     0.009 A 
ATOM     75  C   UNL A   1      46.184  23.984  33.810  1.00  0.00     0.009 A 
ATOM     76  C   UNL A   1      44.380  22.023  34.500  1.00  0.00     0.001 A 
ATOM     77  C   UNL A   1      46.544  23.011  34.747  1.00  0.00     0.001 A 
ATOM     78  C   UNL A   1      45.642  22.016  35.082  1.00  0.00     0.000 A 
ENDBRANCH  60  73
ENDBRANCH  34  35
ENDBRANCH  26  29
ENDBRANCH  24  25
ENDBRANCH  23  24
ENDBRANCH   1  23
TORSDOF 13
ENDMDL
