MODEL 1
REMARK VINA RESULT:     -11.1      0.000      0.000
REMARK SMILES CC[C@H](C)[C@@H](NC(=O)c1csc(NC(C)=O)n1)C(=O)NCCCNC(=O)c1ccc(-c2c3nc(c(-c4ccccc4)c4ccc([nH]4)c(-c4ccccc4)c4nc(c(-c5ccccc5)c5ccc2[nH]5)C=C4)C=C3)cc1
REMARK SMILES IDX 21 1 20 2 18 3 19 4 5 6 3 7 4 8 2 9 1 10 6 11 7 12 8 14 9 15
REMARK SMILES IDX 10 16 17 17 11 18 12 19 13 20 14 21 15 23 16 24 22 25 23 26
REMARK SMILES IDX 24 27 25 28 26 30 27 31 28 32 74 33 29 34 73 35 30 36 31 37
REMARK SMILES IDX 32 38 67 39 33 40 72 41 66 42 68 43 34 44 71 45 65 46 64 47
REMARK SMILES IDX 35 49 57 50 42 51 56 52 43 53 46 54 55 55 69 56 44 57 45 58
REMARK SMILES IDX 54 60 70 61 47 62 36 63 37 64 41 65 38 66 40 67 39 68 58 69
REMARK SMILES IDX 59 70 63 71 60 72 62 73 61 74 48 75 49 76 53 77 50 78 52 79
REMARK SMILES IDX 51 80
REMARK H PARENT 20 5 6 13 13 22 24 29 68 48 46 59
REMARK Flexibility Score: inf
ROOT
ATOM      1  C   UNL A   1      32.122  29.525  25.947  1.00  0.00     0.117 C 
ENDROOT
BRANCH   1   2
ATOM      2  N   UNL A   1      32.983  29.658  24.787  1.00  0.00    -0.354 N 
ATOM      3  C   UNL A   1      32.896  29.082  23.558  1.00  0.00     0.242 C 
ATOM      4  O   UNL A   1      33.811  29.312  22.757  1.00  0.00    -0.273 OA
ATOM      5  H   UNL A   1      33.751  30.263  24.909  1.00  0.00     0.163 HD
BRANCH   3   6
ATOM      6  C   UNL A   1      31.784  28.060  23.234  1.00  0.00     0.174 C 
BRANCH   6   7
ATOM      7  C   UNL A   1      30.418  28.848  23.215  1.00  0.00     0.018 C 
ATOM      8  C   UNL A   1      30.257  29.752  21.984  1.00  0.00     0.010 C 
BRANCH   7   9
ATOM      9  C   UNL A   1      29.170  27.933  23.329  1.00  0.00     0.002 C 
ATOM     10  C   UNL A   1      27.885  28.692  23.007  1.00  0.00     0.004 C 
ENDBRANCH   7   9
ENDBRANCH   6   7
BRANCH   6  11
ATOM     11  N   UNL A   1      31.972  27.326  21.957  1.00  0.00    -0.339 N 
ATOM     12  C   UNL A   1      31.901  25.992  21.615  1.00  0.00     0.271 C 
ATOM     13  H   UNL A   1      32.191  27.912  21.198  1.00  0.00     0.164 HD
ATOM     14  O   UNL A   1      31.920  25.720  20.414  1.00  0.00    -0.267 OA
BRANCH  12  15
ATOM     15  C   UNL A   1      31.998  24.946  22.632  1.00  0.00     0.141 A 
ATOM     16  C   UNL A   1      33.216  24.425  23.040  1.00  0.00     0.102 A 
ATOM     17  N   UNL A   1      30.906  24.425  23.315  1.00  0.00    -0.215 NA
ATOM     18  S   UNL A   1      32.997  23.425  24.413  1.00  0.00    -0.104 S 
ATOM     19  C   UNL A   1      31.321  23.704  24.333  1.00  0.00     0.190 A 
BRANCH  19  20
ATOM     20  N   UNL A   1      30.436  23.227  25.265  1.00  0.00    -0.302 N 
ATOM     21  C   UNL A   1      30.450  23.473  26.617  1.00  0.00     0.223 C 
ATOM     22  H   UNL A   1      29.714  22.647  24.929  1.00  0.00     0.172 HD
ATOM     23  C   UNL A   1      29.376  22.719  27.362  1.00  0.00     0.114 C 
ATOM     24  O   UNL A   1      31.209  24.219  27.226  1.00  0.00    -0.275 OA
ENDBRANCH  19  20
ENDBRANCH  12  15
ENDBRANCH   6  11
ENDBRANCH   3   6
ENDBRANCH   1   2
BRANCH   1  25
ATOM     25  C   UNL A   1      31.686  30.883  26.458  1.00  0.00     0.042 C 
BRANCH  25  26
ATOM     26  C   UNL A   1      32.817  31.648  27.125  1.00  0.00     0.118 C 
BRANCH  26  27
ATOM     27  N   UNL A   1      32.459  33.026  27.435  1.00  0.00    -0.352 N 
ATOM     28  C   UNL A   1      33.102  33.903  28.272  1.00  0.00     0.251 C 
ATOM     29  H   UNL A   1      31.653  33.371  26.986  1.00  0.00     0.163 HD
ATOM     30  O   UNL A   1      32.581  34.966  28.589  1.00  0.00    -0.269 OA
BRANCH  28  31
ATOM     31  C   UNL A   1      34.423  33.526  28.805  1.00  0.00     0.039 A 
ATOM     32  C   UNL A   1      34.495  32.802  29.995  1.00  0.00     0.014 A 
ATOM     33  C   UNL A   1      35.581  33.844  28.090  1.00  0.00     0.014 A 
ATOM     34  C   UNL A   1      35.735  32.344  30.438  1.00  0.00     0.010 A 
ATOM     35  C   UNL A   1      36.796  33.300  28.478  1.00  0.00     0.010 A 
ATOM     36  C   UNL A   1      36.888  32.561  29.665  1.00  0.00    -0.014 A 
BRANCH  36  37
ATOM     37  C   UNL A   1      38.211  32.055  30.099  1.00  0.00     0.031 A 
ATOM     38  C   UNL A   1      38.718  30.745  29.561  1.00  0.00     0.074 A 
ATOM     39  C   UNL A   1      38.923  32.738  31.014  1.00  0.00     0.049 A 
ATOM     40  N   UNL A   1      39.826  30.109  29.846  1.00  0.00    -0.248 NA
ATOM     41  C   UNL A   1      37.851  30.037  28.604  1.00  0.00     0.031 C 
ATOM     42  C   UNL A   1      38.513  33.993  31.648  1.00  0.00     0.029 A 
ATOM     43  N   UNL A   1      40.148  32.470  31.569  1.00  0.00    -0.354 N 
ATOM     44  C   UNL A   1      39.772  28.922  29.127  1.00  0.00     0.074 A 
ATOM     45  C   UNL A   1      38.501  28.896  28.439  1.00  0.00     0.031 C 
ATOM     46  C   UNL A   1      39.489  34.407  32.473  1.00  0.00     0.029 A 
ATOM     47  C   UNL A   1      40.573  33.430  32.455  1.00  0.00     0.049 A 
ATOM     48  H   UNL A   1      40.673  31.665  31.354  1.00  0.00     0.167 HD
ATOM     49  C   UNL A   1      40.709  27.951  29.024  1.00  0.00     0.031 A 
ATOM     50  C   UNL A   1      41.712  33.514  33.166  1.00  0.00     0.031 A 
ATOM     51  C   UNL A   1      41.984  27.993  29.683  1.00  0.00     0.049 A 
ATOM     52  C   UNL A   1      42.743  32.431  33.023  1.00  0.00     0.074 A 
ATOM     53  C   UNL A   1      43.034  27.097  29.589  1.00  0.00     0.029 A 
ATOM     54  N   UNL A   1      42.383  28.992  30.558  1.00  0.00    -0.354 N 
ATOM     55  N   UNL A   1      42.712  31.352  32.278  1.00  0.00    -0.248 NA
ATOM     56  C   UNL A   1      43.975  32.586  33.809  1.00  0.00     0.031 C 
ATOM     57  C   UNL A   1      44.053  27.531  30.444  1.00  0.00     0.029 A 
ATOM     58  C   UNL A   1      43.656  28.723  31.029  1.00  0.00     0.049 A 
ATOM     59  H   UNL A   1      41.841  29.775  30.808  1.00  0.00     0.167 HD
ATOM     60  C   UNL A   1      43.929  30.715  32.483  1.00  0.00     0.074 A 
ATOM     61  C   UNL A   1      44.681  31.537  33.409  1.00  0.00     0.031 C 
ATOM     62  C   UNL A   1      44.386  29.556  31.949  1.00  0.00     0.031 A 
BRANCH  49  63
ATOM     63  C   UNL A   1      40.378  26.761  28.166  1.00  0.00    -0.014 A 
ATOM     64  C   UNL A   1      39.604  25.698  28.661  1.00  0.00     0.009 A 
ATOM     65  C   UNL A   1      40.833  26.709  26.841  1.00  0.00     0.009 A 
ATOM     66  C   UNL A   1      39.330  24.589  27.859  1.00  0.00     0.001 A 
ATOM     67  C   UNL A   1      40.531  25.613  26.031  1.00  0.00     0.001 A 
ATOM     68  C   UNL A   1      39.790  24.549  26.543  1.00  0.00     0.000 A 
ENDBRANCH  49  63
BRANCH  50  69
ATOM     69  C   UNL A   1      41.957  34.684  34.047  1.00  0.00    -0.014 A 
ATOM     70  C   UNL A   1      42.555  35.846  33.534  1.00  0.00     0.009 A 
ATOM     71  C   UNL A   1      41.603  34.646  35.405  1.00  0.00     0.009 A 
ATOM     72  C   UNL A   1      42.818  36.935  34.368  1.00  0.00     0.001 A 
ATOM     73  C   UNL A   1      41.843  35.748  36.230  1.00  0.00     0.001 A 
ATOM     74  C   UNL A   1      42.459  36.886  35.713  1.00  0.00     0.000 A 
ENDBRANCH  50  69
BRANCH  62  75
ATOM     75  C   UNL A   1      45.775  29.130  32.328  1.00  0.00    -0.014 A 
ATOM     76  C   UNL A   1      46.894  29.547  31.591  1.00  0.00     0.009 A 
ATOM     77  C   UNL A   1      45.967  28.328  33.465  1.00  0.00     0.009 A 
ATOM     78  C   UNL A   1      48.175  29.139  31.965  1.00  0.00     0.001 A 
ATOM     79  C   UNL A   1      47.250  27.946  33.853  1.00  0.00     0.001 A 
ATOM     80  C   UNL A   1      48.353  28.344  33.097  1.00  0.00     0.000 A 
ENDBRANCH  62  75
ENDBRANCH  36  37
ENDBRANCH  28  31
ENDBRANCH  26  27
ENDBRANCH  25  26
ENDBRANCH   1  25
TORSDOF 15
ENDMDL
MODEL 2
REMARK VINA RESULT:     -11.0      2.511      6.929
REMARK SMILES CC[C@H](C)[C@@H](NC(=O)c1csc(NC(C)=O)n1)C(=O)NCCCNC(=O)c1ccc(-c2c3nc(c(-c4ccccc4)c4ccc([nH]4)c(-c4ccccc4)c4nc(c(-c5ccccc5)c5ccc2[nH]5)C=C4)C=C3)cc1
REMARK SMILES IDX 21 1 20 2 18 3 19 4 5 6 3 7 4 8 2 9 1 10 6 11 7 12 8 14 9 15
REMARK SMILES IDX 10 16 17 17 11 18 12 19 13 20 14 21 15 23 16 24 22 25 23 26
REMARK SMILES IDX 24 27 25 28 26 30 27 31 28 32 74 33 29 34 73 35 30 36 31 37
REMARK SMILES IDX 32 38 67 39 33 40 72 41 66 42 68 43 34 44 71 45 65 46 64 47
REMARK SMILES IDX 35 49 57 50 42 51 56 52 43 53 46 54 55 55 69 56 44 57 45 58
REMARK SMILES IDX 54 60 70 61 47 62 36 63 37 64 41 65 38 66 40 67 39 68 58 69
REMARK SMILES IDX 59 70 63 71 60 72 62 73 61 74 48 75 49 76 53 77 50 78 52 79
REMARK SMILES IDX 51 80
REMARK H PARENT 20 5 6 13 13 22 24 29 68 48 46 59
REMARK Flexibility Score: inf
ROOT
ATOM      1  C   UNL A   1      31.761  27.800  25.870  1.00  0.00     0.117 C 
ENDROOT
BRANCH   1   2
ATOM      2  N   UNL A   1      32.485  28.551  24.862  1.00  0.00    -0.354 N 
ATOM      3  C   UNL A   1      32.456  28.455  23.505  1.00  0.00     0.242 C 
ATOM      4  O   UNL A   1      33.233  29.176  22.868  1.00  0.00    -0.273 OA
ATOM      5  H   UNL A   1      33.093  29.240  25.216  1.00  0.00     0.163 HD
BRANCH   3   6
ATOM      6  C   UNL A   1      31.601  27.378  22.801  1.00  0.00     0.174 C 
BRANCH   6   7
ATOM      7  C   UNL A   1      30.218  28.044  22.440  1.00  0.00     0.018 C 
ATOM      8  C   UNL A   1      29.082  27.635  23.389  1.00  0.00     0.010 C 
BRANCH   7   9
ATOM      9  C   UNL A   1      30.273  29.593  22.365  1.00  0.00     0.002 C 
ATOM     10  C   UNL A   1      29.340  30.238  23.388  1.00  0.00     0.004 C 
ENDBRANCH   7   9
ENDBRANCH   6   7
BRANCH   6  11
ATOM     11  N   UNL A   1      32.222  26.792  21.587  1.00  0.00    -0.339 N 
ATOM     12  C   UNL A   1      32.772  25.558  21.309  1.00  0.00     0.271 C 
ATOM     13  H   UNL A   1      32.245  27.410  20.822  1.00  0.00     0.164 HD
ATOM     14  O   UNL A   1      33.034  25.315  20.130  1.00  0.00    -0.267 OA
BRANCH  12  15
ATOM     15  C   UNL A   1      33.204  24.665  22.383  1.00  0.00     0.141 A 
ATOM     16  C   UNL A   1      32.703  23.379  22.519  1.00  0.00     0.102 A 
ATOM     17  N   UNL A   1      34.180  24.991  23.316  1.00  0.00    -0.215 NA
ATOM     18  S   UNL A   1      33.600  22.522  23.699  1.00  0.00    -0.104 S 
ATOM     19  C   UNL A   1      34.536  23.914  23.981  1.00  0.00     0.190 A 
BRANCH  19  20
ATOM     20  N   UNL A   1      35.607  23.937  24.837  1.00  0.00    -0.302 N 
ATOM     21  C   UNL A   1      36.778  23.229  24.710  1.00  0.00     0.223 C 
ATOM     22  H   UNL A   1      35.528  24.524  25.624  1.00  0.00     0.172 HD
ATOM     23  C   UNL A   1      37.713  23.427  25.879  1.00  0.00     0.114 C 
ATOM     24  O   UNL A   1      37.109  22.505  23.778  1.00  0.00    -0.275 OA
ENDBRANCH  19  20
ENDBRANCH  12  15
ENDBRANCH   6  11
ENDBRANCH   3   6
ENDBRANCH   1   2
BRANCH   1  25
ATOM     25  C   UNL A   1      32.209  28.191  27.263  1.00  0.00     0.042 C 
BRANCH  25  26
ATOM     26  C   UNL A   1      33.592  28.819  27.278  1.00  0.00     0.118 C 
BRANCH  26  27
ATOM     27  N   UNL A   1      33.575  30.210  27.714  1.00  0.00    -0.352 N 
ATOM     28  C   UNL A   1      34.556  30.906  28.374  1.00  0.00     0.251 C 
ATOM     29  H   UNL A   1      32.754  30.713  27.508  1.00  0.00     0.163 HD
ATOM     30  O   UNL A   1      34.329  32.012  28.851  1.00  0.00    -0.269 OA
BRANCH  28  31
ATOM     31  C   UNL A   1      35.882  30.282  28.523  1.00  0.00     0.039 A 
ATOM     32  C   UNL A   1      36.793  30.357  27.469  1.00  0.00     0.014 A 
ATOM     33  C   UNL A   1      36.235  29.674  29.732  1.00  0.00     0.014 A 
ATOM     34  C   UNL A   1      38.087  29.871  27.653  1.00  0.00     0.010 A 
ATOM     35  C   UNL A   1      37.550  29.287  29.945  1.00  0.00     0.010 A 
ATOM     36  C   UNL A   1      38.482  29.363  28.902  1.00  0.00    -0.014 A 
BRANCH  36  37
ATOM     37  C   UNL A   1      39.861  28.872  29.131  1.00  0.00     0.031 A 
ATOM     38  C   UNL A   1      40.875  29.777  29.775  1.00  0.00     0.074 A 
ATOM     39  C   UNL A   1      40.214  27.644  28.707  1.00  0.00     0.049 A 
ATOM     40  N   UNL A   1      42.140  29.553  30.024  1.00  0.00    -0.248 NA
ATOM     41  C   UNL A   1      40.418  31.123  30.160  1.00  0.00     0.031 C 
ATOM     42  C   UNL A   1      39.334  26.695  28.021  1.00  0.00     0.029 A 
ATOM     43  N   UNL A   1      41.412  26.984  28.794  1.00  0.00    -0.354 N 
ATOM     44  C   UNL A   1      42.630  30.735  30.565  1.00  0.00     0.074 A 
ATOM     45  C   UNL A   1      41.546  31.691  30.556  1.00  0.00     0.031 C 
ATOM     46  C   UNL A   1      40.012  25.558  27.789  1.00  0.00     0.029 A 
ATOM     47  C   UNL A   1      41.379  25.713  28.273  1.00  0.00     0.049 A 
ATOM     48  H   UNL A   1      42.220  27.381  29.192  1.00  0.00     0.167 HD
ATOM     49  C   UNL A   1      43.865  30.995  31.053  1.00  0.00     0.031 A 
ATOM     50  C   UNL A   1      42.344  24.776  28.202  1.00  0.00     0.031 A 
ATOM     51  C   UNL A   1      44.932  30.034  31.090  1.00  0.00     0.049 A 
ATOM     52  C   UNL A   1      43.702  25.084  28.765  1.00  0.00     0.074 A 
ATOM     53  C   UNL A   1      46.198  30.172  31.629  1.00  0.00     0.029 A 
ATOM     54  N   UNL A   1      44.853  28.752  30.568  1.00  0.00    -0.354 N 
ATOM     55  N   UNL A   1      44.129  26.180  29.345  1.00  0.00    -0.248 NA
ATOM     56  C   UNL A   1      44.709  24.018  28.675  1.00  0.00     0.031 C 
ATOM     57  C   UNL A   1      46.903  28.986  31.392  1.00  0.00     0.029 A 
ATOM     58  C   UNL A   1      46.056  28.094  30.753  1.00  0.00     0.049 A 
ATOM     59  H   UNL A   1      44.059  28.368  30.131  1.00  0.00     0.167 HD
ATOM     60  C   UNL A   1      45.442  25.926  29.716  1.00  0.00     0.074 A 
ATOM     61  C   UNL A   1      45.736  24.567  29.309  1.00  0.00     0.031 C 
ATOM     62  C   UNL A   1      46.326  26.742  30.341  1.00  0.00     0.031 A 
BRANCH  49  63
ATOM     63  C   UNL A   1      44.120  32.379  31.583  1.00  0.00    -0.014 A 
ATOM     64  C   UNL A   1      43.885  32.699  32.930  1.00  0.00     0.009 A 
ATOM     65  C   UNL A   1      44.618  33.372  30.727  1.00  0.00     0.009 A 
ATOM     66  C   UNL A   1      44.102  33.996  33.398  1.00  0.00     0.001 A 
ATOM     67  C   UNL A   1      44.863  34.660  31.204  1.00  0.00     0.001 A 
ATOM     68  C   UNL A   1      44.594  34.975  32.536  1.00  0.00     0.000 A 
ENDBRANCH  49  63
BRANCH  50  69
ATOM     69  C   UNL A   1      42.050  23.446  27.609  1.00  0.00    -0.014 A 
ATOM     70  C   UNL A   1      42.370  23.182  26.268  1.00  0.00     0.009 A 
ATOM     71  C   UNL A   1      41.445  22.437  28.374  1.00  0.00     0.009 A 
ATOM     72  C   UNL A   1      42.064  21.944  25.697  1.00  0.00     0.001 A 
ATOM     73  C   UNL A   1      41.166  21.191  27.808  1.00  0.00     0.001 A 
ATOM     74  C   UNL A   1      41.466  20.950  26.469  1.00  0.00     0.000 A 
ENDBRANCH  50  69
BRANCH  62  75
ATOM     75  C   UNL A   1      47.680  26.172  30.653  1.00  0.00    -0.014 A 
ATOM     76  C   UNL A   1      48.683  26.095  29.675  1.00  0.00     0.009 A 
ATOM     77  C   UNL A   1      47.965  25.739  31.958  1.00  0.00     0.009 A 
ATOM     78  C   UNL A   1      49.934  25.563  29.990  1.00  0.00     0.001 A 
ATOM     79  C   UNL A   1      49.225  25.236  32.277  1.00  0.00     0.001 A 
ATOM     80  C   UNL A   1      50.205  25.139  31.291  1.00  0.00     0.000 A 
ENDBRANCH  62  75
ENDBRANCH  36  37
ENDBRANCH  28  31
ENDBRANCH  26  27
ENDBRANCH  25  26
ENDBRANCH   1  25
TORSDOF 15
ENDMDL
MODEL 3
REMARK VINA RESULT:     -10.9      3.517      8.697
REMARK SMILES CC[C@H](C)[C@@H](NC(=O)c1csc(NC(C)=O)n1)C(=O)NCCCNC(=O)c1ccc(-c2c3nc(c(-c4ccccc4)c4ccc([nH]4)c(-c4ccccc4)c4nc(c(-c5ccccc5)c5ccc2[nH]5)C=C4)C=C3)cc1
REMARK SMILES IDX 21 1 20 2 18 3 19 4 5 6 3 7 4 8 2 9 1 10 6 11 7 12 8 14 9 15
REMARK SMILES IDX 10 16 17 17 11 18 12 19 13 20 14 21 15 23 16 24 22 25 23 26
REMARK SMILES IDX 24 27 25 28 26 30 27 31 28 32 74 33 29 34 73 35 30 36 31 37
REMARK SMILES IDX 32 38 67 39 33 40 72 41 66 42 68 43 34 44 71 45 65 46 64 47
REMARK SMILES IDX 35 49 57 50 42 51 56 52 43 53 46 54 55 55 69 56 44 57 45 58
REMARK SMILES IDX 54 60 70 61 47 62 36 63 37 64 41 65 38 66 40 67 39 68 58 69
REMARK SMILES IDX 59 70 63 71 60 72 62 73 61 74 48 75 49 76 53 77 50 78 52 79
REMARK SMILES IDX 51 80
REMARK H PARENT 20 5 6 13 13 22 24 29 68 48 46 59
REMARK Flexibility Score: inf
ROOT
ATOM      1  C   UNL A   1      36.273  21.675  24.810  1.00  0.00     0.117 C 
ENDROOT
BRANCH   1   2
ATOM      2  N   UNL A   1      35.720  21.578  26.147  1.00  0.00    -0.354 N 
ATOM      3  C   UNL A   1      34.432  21.419  26.557  1.00  0.00     0.242 C 
ATOM      4  O   UNL A   1      34.218  21.435  27.775  1.00  0.00    -0.273 OA
ATOM      5  H   UNL A   1      36.383  21.635  26.874  1.00  0.00     0.163 HD
BRANCH   3   6
ATOM      6  C   UNL A   1      33.272  21.379  25.538  1.00  0.00     0.174 C 
BRANCH   6   7
ATOM      7  C   UNL A   1      33.349  19.988  24.799  1.00  0.00     0.018 C 
ATOM      8  C   UNL A   1      32.901  18.810  25.677  1.00  0.00     0.010 C 
BRANCH   7   9
ATOM      9  C   UNL A   1      32.555  19.946  23.466  1.00  0.00     0.002 C 
ATOM     10  C   UNL A   1      32.354  18.514  22.976  1.00  0.00     0.004 C 
ENDBRANCH   7   9
ENDBRANCH   6   7
BRANCH   6  11
ATOM     11  N   UNL A   1      31.924  21.574  26.129  1.00  0.00    -0.339 N 
ATOM     12  C   UNL A   1      30.957  22.545  25.975  1.00  0.00     0.271 C 
ATOM     13  H   UNL A   1      31.666  20.863  26.758  1.00  0.00     0.164 HD
ATOM     14  O   UNL A   1      29.851  22.316  26.467  1.00  0.00    -0.267 OA
BRANCH  12  15
ATOM     15  C   UNL A   1      31.288  23.860  25.429  1.00  0.00     0.141 A 
ATOM     16  C   UNL A   1      30.743  24.325  24.242  1.00  0.00     0.102 A 
ATOM     17  N   UNL A   1      32.119  24.776  26.063  1.00  0.00    -0.215 NA
ATOM     18  S   UNL A   1      31.125  25.980  24.028  1.00  0.00    -0.104 S 
ATOM     19  C   UNL A   1      32.021  25.947  25.474  1.00  0.00     0.190 A 
BRANCH  19  20
ATOM     20  N   UNL A   1      32.608  27.060  26.018  1.00  0.00    -0.302 N 
ATOM     21  C   UNL A   1      32.105  27.847  27.026  1.00  0.00     0.223 C 
ATOM     22  H   UNL A   1      33.483  27.322  25.649  1.00  0.00     0.172 HD
ATOM     23  C   UNL A   1      32.973  29.045  27.325  1.00  0.00     0.114 C 
ATOM     24  O   UNL A   1      31.078  27.660  27.670  1.00  0.00    -0.275 OA
ENDBRANCH  19  20
ENDBRANCH  12  15
ENDBRANCH   6  11
ENDBRANCH   3   6
ENDBRANCH   1   2
BRANCH   1  25
ATOM     25  C   UNL A   1      37.424  20.707  24.627  1.00  0.00     0.042 C 
BRANCH  25  26
ATOM     26  C   UNL A   1      38.546  20.939  25.624  1.00  0.00     0.118 C 
BRANCH  26  27
ATOM     27  N   UNL A   1      39.457  19.804  25.723  1.00  0.00    -0.352 N 
ATOM     28  C   UNL A   1      40.780  19.805  26.084  1.00  0.00     0.251 C 
ATOM     29  H   UNL A   1      39.071  18.926  25.501  1.00  0.00     0.163 HD
ATOM     30  O   UNL A   1      41.474  18.806  25.934  1.00  0.00    -0.269 OA
BRANCH  28  31
ATOM     31  C   UNL A   1      41.359  21.046  26.629  1.00  0.00     0.039 A 
ATOM     32  C   UNL A   1      41.926  21.975  25.757  1.00  0.00     0.014 A 
ATOM     33  C   UNL A   1      41.284  21.306  28.001  1.00  0.00     0.014 A 
ATOM     34  C   UNL A   1      42.367  23.198  26.258  1.00  0.00     0.010 A 
ATOM     35  C   UNL A   1      41.627  22.562  28.479  1.00  0.00     0.010 A 
ATOM     36  C   UNL A   1      42.189  23.513  27.617  1.00  0.00    -0.014 A 
BRANCH  36  37
ATOM     37  C   UNL A   1      42.619  24.820  28.166  1.00  0.00     0.031 A 
ATOM     38  C   UNL A   1      41.597  25.896  28.407  1.00  0.00     0.074 A 
ATOM     39  C   UNL A   1      43.925  25.057  28.388  1.00  0.00     0.049 A 
ATOM     40  N   UNL A   1      41.773  27.118  28.841  1.00  0.00    -0.248 NA
ATOM     41  C   UNL A   1      40.197  25.570  28.088  1.00  0.00     0.031 C 
ATOM     42  C   UNL A   1      45.016  24.110  28.142  1.00  0.00     0.029 A 
ATOM     43  N   UNL A   1      44.557  26.172  28.874  1.00  0.00    -0.354 N 
ATOM     44  C   UNL A   1      40.516  27.708  28.818  1.00  0.00     0.074 A 
ATOM     45  C   UNL A   1      39.596  26.734  28.275  1.00  0.00     0.031 C 
ATOM     46  C   UNL A   1      46.177  24.672  28.519  1.00  0.00     0.029 A 
ATOM     47  C   UNL A   1      45.917  26.026  28.996  1.00  0.00     0.049 A 
ATOM     48  H   UNL A   1      44.081  27.001  29.113  1.00  0.00     0.167 HD
ATOM     49  C   UNL A   1      40.151  28.942  29.238  1.00  0.00     0.031 A 
ATOM     50  C   UNL A   1      46.848  26.886  29.449  1.00  0.00     0.031 A 
ATOM     51  C   UNL A   1      41.061  29.897  29.807  1.00  0.00     0.049 A 
ATOM     52  C   UNL A   1      46.415  28.245  29.924  1.00  0.00     0.074 A 
ATOM     53  C   UNL A   1      40.783  31.147  30.330  1.00  0.00     0.029 A 
ATOM     54  N   UNL A   1      42.428  29.704  29.929  1.00  0.00    -0.354 N 
ATOM     55  N   UNL A   1      45.211  28.761  29.969  1.00  0.00    -0.248 NA
ATOM     56  C   UNL A   1      47.473  29.134  30.424  1.00  0.00     0.031 C 
ATOM     57  C   UNL A   1      41.991  31.730  30.729  1.00  0.00     0.029 A 
ATOM     58  C   UNL A   1      43.012  30.821  30.500  1.00  0.00     0.049 A 
ATOM     59  H   UNL A   1      42.911  28.892  29.650  1.00  0.00     0.167 HD
ATOM     60  C   UNL A   1      45.360  30.023  30.529  1.00  0.00     0.074 A 
ATOM     61  C   UNL A   1      46.770  30.187  30.821  1.00  0.00     0.031 C 
ATOM     62  C   UNL A   1      44.416  30.961  30.783  1.00  0.00     0.031 A 
BRANCH  49  63
ATOM     63  C   UNL A   1      38.703  29.321  29.091  1.00  0.00    -0.014 A 
ATOM     64  C   UNL A   1      38.209  29.861  27.892  1.00  0.00     0.009 A 
ATOM     65  C   UNL A   1      37.819  29.123  30.161  1.00  0.00     0.009 A 
ATOM     66  C   UNL A   1      36.868  30.232  27.783  1.00  0.00     0.001 A 
ATOM     67  C   UNL A   1      36.471  29.466  30.039  1.00  0.00     0.001 A 
ATOM     68  C   UNL A   1      35.999  30.031  28.855  1.00  0.00     0.000 A 
ENDBRANCH  49  63
BRANCH  50  69
ATOM     69  C   UNL A   1      48.274  26.478  29.512  1.00  0.00    -0.014 A 
ATOM     70  C   UNL A   1      49.138  26.751  28.440  1.00  0.00     0.009 A 
ATOM     71  C   UNL A   1      48.780  25.808  30.637  1.00  0.00     0.009 A 
ATOM     72  C   UNL A   1      50.472  26.338  28.481  1.00  0.00     0.001 A 
ATOM     73  C   UNL A   1      50.121  25.421  30.687  1.00  0.00     0.001 A 
ATOM     74  C   UNL A   1      50.962  25.677  29.605  1.00  0.00     0.000 A 
ENDBRANCH  50  69
BRANCH  62  75
ATOM     75  C   UNL A   1      44.874  32.231  31.440  1.00  0.00    -0.014 A 
ATOM     76  C   UNL A   1      45.268  33.345  30.682  1.00  0.00     0.009 A 
ATOM     77  C   UNL A   1      44.875  32.325  32.841  1.00  0.00     0.009 A 
ATOM     78  C   UNL A   1      45.688  34.515  31.316  1.00  0.00     0.001 A 
ATOM     79  C   UNL A   1      45.267  33.505  33.471  1.00  0.00     0.001 A 
ATOM     80  C   UNL A   1      45.683  34.596  32.708  1.00  0.00     0.000 A 
ENDBRANCH  62  75
ENDBRANCH  36  37
ENDBRANCH  28  31
ENDBRANCH  26  27
ENDBRANCH  25  26
ENDBRANCH   1  25
TORSDOF 15
ENDMDL
