MODEL 1
REMARK VINA RESULT:     -12.7      0.000      0.000
REMARK SMILES Cc1ccccc1NC(=O)CSc1nc(C(=O)NCCCNC(=O)c2ccc(-c3c4nc(c(-c5ccccc5)c5ccc([nH]5)c(-c5ccccc5)c5nc(c(-c6ccccc6)c6ccc3[nH]6)C=C5)C=C4)cc2)c2ccccc2n1
REMARK SMILES IDX 19 1 18 2 16 3 17 4 15 6 13 7 14 8 79 9 78 10 73 11 77 12
REMARK SMILES IDX 74 13 76 14 75 15 12 16 11 17 9 18 8 19 10 21 7 22 1 23 2 24
REMARK SMILES IDX 3 25 4 26 6 27 5 28 20 29 21 30 22 31 23 32 24 34 25 35
REMARK SMILES IDX 26 36 72 37 27 38 71 39 28 40 29 41 30 42 65 43 31 44 70 45
REMARK SMILES IDX 64 46 66 47 32 48 69 49 63 50 62 51 33 53 55 54 40 55 54 56
REMARK SMILES IDX 41 57 44 58 53 59 67 60 42 61 43 62 52 64 68 65 45 66 34 67
REMARK SMILES IDX 35 68 39 69 36 70 38 71 37 72 56 73 57 74 61 75 58 76 60 77
REMARK SMILES IDX 59 78 46 79 47 80 51 81 48 82 50 83 49 84
REMARK H PARENT 18 5 8 20 22 33 66 52 44 63
REMARK Flexibility Score: inf
ROOT
ATOM      1  C   UNL A   1      37.133  23.710  25.679  1.00  0.00     0.118 C 
ENDROOT
BRANCH   1   2
ATOM      2  N   UNL A   1      37.397  23.219  24.338  1.00  0.00    -0.351 N 
ATOM      3  C   UNL A   1      36.525  23.071  23.268  1.00  0.00     0.270 C 
ATOM      4  O   UNL A   1      36.995  22.732  22.183  1.00  0.00    -0.267 OA
ATOM      5  H   UNL A   1      38.330  22.953  24.161  1.00  0.00     0.163 HD
BRANCH   3   6
ATOM      6  C   UNL A   1      35.036  23.207  23.440  1.00  0.00     0.140 A 
ATOM      7  C   UNL A   1      33.234  24.403  22.753  1.00  0.00     0.189 A 
ATOM      8  N   UNL A   1      34.555  24.333  22.869  1.00  0.00    -0.217 NA
ATOM      9  N   UNL A   1      32.386  23.402  23.021  1.00  0.00    -0.222 NA
ATOM     10  C   UNL A   1      32.885  22.307  23.598  1.00  0.00     0.076 A 
ATOM     11  C   UNL A   1      34.226  22.189  23.961  1.00  0.00     0.032 A 
ATOM     12  C   UNL A   1      32.048  21.218  23.806  1.00  0.00     0.029 A 
ATOM     13  C   UNL A   1      34.647  21.060  24.716  1.00  0.00     0.013 A 
ATOM     14  C   UNL A   1      32.498  20.044  24.417  1.00  0.00     0.002 A 
ATOM     15  C   UNL A   1      33.794  19.979  24.908  1.00  0.00     0.001 A 
BRANCH   7  16
ATOM     16  S   UNL A   1      32.533  25.900  22.137  1.00  0.00    -0.076 SA
BRANCH  16  17
ATOM     17  C   UNL A   1      30.830  25.698  22.743  1.00  0.00     0.178 C 
BRANCH  17  18
ATOM     18  C   UNL A   1      30.486  26.588  23.918  1.00  0.00     0.234 C 
ATOM     19  N   UNL A   1      30.676  26.274  25.229  1.00  0.00    -0.325 N 
ATOM     20  H   UNL A   1      30.333  26.976  25.829  1.00  0.00     0.169 HD
ATOM     21  O   UNL A   1      29.971  27.698  23.709  1.00  0.00    -0.274 OA
BRANCH  19  22
ATOM     22  C   UNL A   1      31.238  25.198  25.944  1.00  0.00     0.044 A 
ATOM     23  C   UNL A   1      33.571  26.340  25.889  1.00  0.00     0.046 C 
ATOM     24  C   UNL A   1      32.630  25.201  26.200  1.00  0.00    -0.027 A 
ATOM     25  C   UNL A   1      33.233  24.059  26.769  1.00  0.00     0.005 A 
ATOM     26  C   UNL A   1      32.478  22.949  27.129  1.00  0.00     0.000 A 
ATOM     27  C   UNL A   1      30.492  24.105  26.394  1.00  0.00     0.026 A 
ATOM     28  C   UNL A   1      31.103  22.984  26.966  1.00  0.00     0.002 A 
ENDBRANCH  19  22
ENDBRANCH  17  18
ENDBRANCH  16  17
ENDBRANCH   7  16
ENDBRANCH   3   6
ENDBRANCH   1   2
BRANCH   1  29
ATOM     29  C   UNL A   1      38.344  24.144  26.468  1.00  0.00     0.042 C 
BRANCH  29  30
ATOM     30  C   UNL A   1      39.211  22.990  26.933  1.00  0.00     0.118 C 
BRANCH  30  31
ATOM     31  N   UNL A   1      40.361  22.697  26.066  1.00  0.00    -0.352 N 
ATOM     32  C   UNL A   1      41.706  22.947  26.319  1.00  0.00     0.251 C 
ATOM     33  H   UNL A   1      40.154  22.272  25.202  1.00  0.00     0.163 HD
ATOM     34  O   UNL A   1      42.589  22.486  25.618  1.00  0.00    -0.269 OA
BRANCH  32  35
ATOM     35  C   UNL A   1      42.026  23.719  27.539  1.00  0.00     0.039 A 
ATOM     36  C   UNL A   1      42.092  25.107  27.402  1.00  0.00     0.014 A 
ATOM     37  C   UNL A   1      42.694  23.054  28.563  1.00  0.00     0.014 A 
ATOM     38  C   UNL A   1      43.084  25.789  28.092  1.00  0.00     0.010 A 
ATOM     39  C   UNL A   1      43.747  23.717  29.166  1.00  0.00     0.010 A 
ATOM     40  C   UNL A   1      44.002  25.058  28.845  1.00  0.00    -0.014 A 
BRANCH  40  41
ATOM     41  C   UNL A   1      45.338  25.574  29.143  1.00  0.00     0.031 A 
ATOM     42  C   UNL A   1      46.486  25.184  28.304  1.00  0.00     0.074 A 
ATOM     43  C   UNL A   1      45.543  26.399  30.198  1.00  0.00     0.049 A 
ATOM     44  N   UNL A   1      47.708  25.169  28.722  1.00  0.00    -0.248 NA
ATOM     45  C   UNL A   1      46.337  24.670  26.946  1.00  0.00     0.031 C 
ATOM     46  C   UNL A   1      46.746  27.173  30.504  1.00  0.00     0.029 A 
ATOM     47  N   UNL A   1      44.763  26.511  31.350  1.00  0.00    -0.354 N 
ATOM     48  C   UNL A   1      48.509  24.957  27.627  1.00  0.00     0.074 A 
ATOM     49  C   UNL A   1      47.614  24.503  26.595  1.00  0.00     0.031 C 
ATOM     50  C   UNL A   1      46.757  27.461  31.815  1.00  0.00     0.029 A 
ATOM     51  C   UNL A   1      45.631  26.777  32.425  1.00  0.00     0.049 A 
ATOM     52  H   UNL A   1      43.783  26.421  31.402  1.00  0.00     0.167 HD
ATOM     53  C   UNL A   1      49.813  25.346  27.675  1.00  0.00     0.031 A 
ATOM     54  C   UNL A   1      45.711  25.942  33.500  1.00  0.00     0.031 A 
ATOM     55  C   UNL A   1      50.238  25.668  29.039  1.00  0.00     0.049 A 
ATOM     56  C   UNL A   1      47.080  25.327  33.700  1.00  0.00     0.074 A 
ATOM     57  C   UNL A   1      50.544  26.851  29.692  1.00  0.00     0.029 A 
ATOM     58  N   UNL A   1      50.148  24.688  30.025  1.00  0.00    -0.354 N 
ATOM     59  N   UNL A   1      48.033  25.359  32.812  1.00  0.00    -0.248 NA
ATOM     60  C   UNL A   1      47.456  24.570  34.892  1.00  0.00     0.031 C 
ATOM     61  C   UNL A   1      50.555  26.588  31.090  1.00  0.00     0.029 A 
ATOM     62  C   UNL A   1      50.295  25.243  31.282  1.00  0.00     0.049 A 
ATOM     63  H   UNL A   1      49.999  23.731  29.851  1.00  0.00     0.167 HD
ATOM     64  C   UNL A   1      49.096  24.614  33.252  1.00  0.00     0.074 A 
ATOM     65  C   UNL A   1      48.700  24.168  34.575  1.00  0.00     0.031 C 
ATOM     66  C   UNL A   1      50.198  24.403  32.472  1.00  0.00     0.031 A 
BRANCH  53  67
ATOM     67  C   UNL A   1      50.632  25.678  26.441  1.00  0.00    -0.014 A 
ATOM     68  C   UNL A   1      51.978  25.275  26.374  1.00  0.00     0.009 A 
ATOM     69  C   UNL A   1      50.190  26.480  25.371  1.00  0.00     0.009 A 
ATOM     70  C   UNL A   1      52.829  25.682  25.333  1.00  0.00     0.001 A 
ATOM     71  C   UNL A   1      51.025  26.876  24.319  1.00  0.00     0.001 A 
ATOM     72  C   UNL A   1      52.353  26.487  24.306  1.00  0.00     0.000 A 
ENDBRANCH  53  67
BRANCH  54  73
ATOM     73  C   UNL A   1      44.427  25.270  33.838  1.00  0.00    -0.014 A 
ATOM     74  C   UNL A   1      44.288  23.901  33.537  1.00  0.00     0.009 A 
ATOM     75  C   UNL A   1      43.519  25.855  34.732  1.00  0.00     0.009 A 
ATOM     76  C   UNL A   1      43.341  23.114  34.198  1.00  0.00     0.001 A 
ATOM     77  C   UNL A   1      42.565  25.064  35.385  1.00  0.00     0.001 A 
ATOM     78  C   UNL A   1      42.499  23.691  35.144  1.00  0.00     0.000 A 
ENDBRANCH  54  73
BRANCH  66  79
ATOM     79  C   UNL A   1      51.317  23.428  32.761  1.00  0.00    -0.014 A 
ATOM     80  C   UNL A   1      51.144  22.051  32.960  1.00  0.00     0.009 A 
ATOM     81  C   UNL A   1      52.651  23.892  32.713  1.00  0.00     0.009 A 
ATOM     82  C   UNL A   1      52.239  21.195  33.154  1.00  0.00     0.001 A 
ATOM     83  C   UNL A   1      53.747  23.036  32.858  1.00  0.00     0.001 A 
ATOM     84  C   UNL A   1      53.540  21.687  33.094  1.00  0.00     0.000 A 
ENDBRANCH  66  79
ENDBRANCH  40  41
ENDBRANCH  32  35
ENDBRANCH  30  31
ENDBRANCH  29  30
ENDBRANCH   1  29
TORSDOF 14
ENDMDL
MODEL 2
REMARK VINA RESULT:     -12.4      8.362     12.390
REMARK SMILES Cc1ccccc1NC(=O)CSc1nc(C(=O)NCCCNC(=O)c2ccc(-c3c4nc(c(-c5ccccc5)c5ccc([nH]5)c(-c5ccccc5)c5nc(c(-c6ccccc6)c6ccc3[nH]6)C=C5)C=C4)cc2)c2ccccc2n1
REMARK SMILES IDX 19 1 18 2 16 3 17 4 15 6 13 7 14 8 79 9 78 10 73 11 77 12
REMARK SMILES IDX 74 13 76 14 75 15 12 16 11 17 9 18 8 19 10 21 7 22 1 23 2 24
REMARK SMILES IDX 3 25 4 26 6 27 5 28 20 29 21 30 22 31 23 32 24 34 25 35
REMARK SMILES IDX 26 36 72 37 27 38 71 39 28 40 29 41 30 42 65 43 31 44 70 45
REMARK SMILES IDX 64 46 66 47 32 48 69 49 63 50 62 51 33 53 55 54 40 55 54 56
REMARK SMILES IDX 41 57 44 58 53 59 67 60 42 61 43 62 52 64 68 65 45 66 34 67
REMARK SMILES IDX 35 68 39 69 36 70 38 71 37 72 56 73 57 74 61 75 58 76 60 77
REMARK SMILES IDX 59 78 46 79 47 80 51 81 48 82 50 83 49 84
REMARK H PARENT 18 5 8 20 22 33 66 52 44 63
REMARK Flexibility Score: inf
ROOT
ATOM      1  C   UNL A   1      34.200  28.735  26.888  1.00  0.00     0.118 C 
ENDROOT
BRANCH   1   2
ATOM      2  N   UNL A   1      32.971  28.873  27.650  1.00  0.00    -0.351 N 
ATOM      3  C   UNL A   1      31.800  28.133  27.571  1.00  0.00     0.270 C 
ATOM      4  O   UNL A   1      30.916  28.361  28.395  1.00  0.00    -0.267 OA
ATOM      5  H   UNL A   1      32.968  29.596  28.319  1.00  0.00     0.163 HD
BRANCH   3   6
ATOM      6  C   UNL A   1      31.559  27.156  26.451  1.00  0.00     0.140 A 
ATOM      7  C   UNL A   1      31.221  24.957  26.004  1.00  0.00     0.189 A 
ATOM      8  N   UNL A   1      31.664  25.872  26.858  1.00  0.00    -0.217 NA
ATOM      9  N   UNL A   1      30.563  25.222  24.869  1.00  0.00    -0.222 NA
ATOM     10  C   UNL A   1      30.486  26.497  24.482  1.00  0.00     0.076 A 
ATOM     11  C   UNL A   1      31.090  27.538  25.186  1.00  0.00     0.032 A 
ATOM     12  C   UNL A   1      29.734  26.812  23.357  1.00  0.00     0.029 A 
ATOM     13  C   UNL A   1      31.100  28.845  24.626  1.00  0.00     0.013 A 
ATOM     14  C   UNL A   1      29.619  28.123  22.886  1.00  0.00     0.002 A 
ATOM     15  C   UNL A   1      30.337  29.138  23.501  1.00  0.00     0.001 A 
BRANCH   7  16
ATOM     16  S   UNL A   1      31.449  23.257  26.418  1.00  0.00    -0.076 SA
BRANCH  16  17
ATOM     17  C   UNL A   1      31.293  22.528  24.759  1.00  0.00     0.178 C 
BRANCH  17  18
ATOM     18  C   UNL A   1      32.607  22.068  24.164  1.00  0.00     0.234 C 
ATOM     19  N   UNL A   1      33.451  22.838  23.423  1.00  0.00    -0.325 N 
ATOM     20  H   UNL A   1      34.222  22.323  23.092  1.00  0.00     0.169 HD
ATOM     21  O   UNL A   1      32.970  20.893  24.329  1.00  0.00    -0.274 OA
BRANCH  19  22
ATOM     22  C   UNL A   1      33.499  24.184  23.012  1.00  0.00     0.044 A 
ATOM     23  C   UNL A   1      34.822  24.825  25.154  1.00  0.00     0.046 C 
ATOM     24  C   UNL A   1      34.096  25.140  23.869  1.00  0.00    -0.027 A 
ATOM     25  C   UNL A   1      34.007  26.511  23.547  1.00  0.00     0.005 A 
ATOM     26  C   UNL A   1      33.389  26.939  22.377  1.00  0.00     0.000 A 
ATOM     27  C   UNL A   1      32.960  24.635  21.803  1.00  0.00     0.026 A 
ATOM     28  C   UNL A   1      32.889  25.997  21.493  1.00  0.00     0.002 A 
ENDBRANCH  19  22
ENDBRANCH  17  18
ENDBRANCH  16  17
ENDBRANCH   7  16
ENDBRANCH   3   6
ENDBRANCH   1   2
BRANCH   1  29
ATOM     29  C   UNL A   1      35.436  29.320  27.526  1.00  0.00     0.042 C 
BRANCH  29  30
ATOM     30  C   UNL A   1      35.388  30.829  27.674  1.00  0.00     0.118 C 
BRANCH  30  31
ATOM     31  N   UNL A   1      34.908  31.304  28.979  1.00  0.00    -0.352 N 
ATOM     32  C   UNL A   1      35.628  31.985  29.956  1.00  0.00     0.251 C 
ATOM     33  H   UNL A   1      33.964  31.117  29.188  1.00  0.00     0.163 HD
ATOM     34  O   UNL A   1      35.082  32.502  30.914  1.00  0.00    -0.269 OA
BRANCH  32  35
ATOM     35  C   UNL A   1      37.081  32.142  29.731  1.00  0.00     0.039 A 
ATOM     36  C   UNL A   1      37.906  31.145  30.254  1.00  0.00     0.014 A 
ATOM     37  C   UNL A   1      37.557  33.425  29.476  1.00  0.00     0.014 A 
ATOM     38  C   UNL A   1      39.114  31.524  30.824  1.00  0.00     0.010 A 
ATOM     39  C   UNL A   1      38.707  33.816  30.136  1.00  0.00     0.010 A 
ATOM     40  C   UNL A   1      39.425  32.882  30.897  1.00  0.00    -0.014 A 
BRANCH  40  41
ATOM     41  C   UNL A   1      40.344  33.408  31.907  1.00  0.00     0.031 A 
ATOM     42  C   UNL A   1      39.816  34.091  33.103  1.00  0.00     0.074 A 
ATOM     43  C   UNL A   1      41.684  33.291  31.753  1.00  0.00     0.049 A 
ATOM     44  N   UNL A   1      40.477  34.976  33.773  1.00  0.00    -0.248 NA
ATOM     45  C   UNL A   1      38.448  33.913  33.579  1.00  0.00     0.031 C 
ATOM     46  C   UNL A   1      42.722  33.553  32.748  1.00  0.00     0.029 A 
ATOM     47  N   UNL A   1      42.389  33.136  30.558  1.00  0.00    -0.354 N 
ATOM     48  C   UNL A   1      39.762  35.235  34.916  1.00  0.00     0.074 A 
ATOM     49  C   UNL A   1      38.457  34.678  34.673  1.00  0.00     0.031 C 
ATOM     50  C   UNL A   1      43.882  33.797  32.116  1.00  0.00     0.029 A 
ATOM     51  C   UNL A   1      43.607  33.828  30.691  1.00  0.00     0.049 A 
ATOM     52  H   UNL A   1      42.090  32.633  29.765  1.00  0.00     0.167 HD
ATOM     53  C   UNL A   1      40.407  35.749  35.999  1.00  0.00     0.031 A 
ATOM     54  C   UNL A   1      43.943  34.848  29.850  1.00  0.00     0.031 A 
ATOM     55  C   UNL A   1      41.747  36.234  35.658  1.00  0.00     0.049 A 
ATOM     56  C   UNL A   1      44.127  36.181  30.545  1.00  0.00     0.074 A 
ATOM     57  C   UNL A   1      43.027  35.782  35.931  1.00  0.00     0.029 A 
ATOM     58  N   UNL A   1      41.881  37.227  34.690  1.00  0.00    -0.354 N 
ATOM     59  N   UNL A   1      43.756  36.425  31.770  1.00  0.00    -0.248 NA
ATOM     60  C   UNL A   1      44.683  37.361  29.887  1.00  0.00     0.031 C 
ATOM     61  C   UNL A   1      43.925  36.455  35.057  1.00  0.00     0.029 A 
ATOM     62  C   UNL A   1      43.196  37.341  34.284  1.00  0.00     0.049 A 
ATOM     63  H   UNL A   1      41.140  37.773  34.343  1.00  0.00     0.167 HD
ATOM     64  C   UNL A   1      43.955  37.751  32.054  1.00  0.00     0.074 A 
ATOM     65  C   UNL A   1      44.568  38.288  30.854  1.00  0.00     0.031 C 
ATOM     66  C   UNL A   1      43.564  38.297  33.244  1.00  0.00     0.031 A 
BRANCH  53  67
ATOM     67  C   UNL A   1      39.916  35.578  37.425  1.00  0.00    -0.014 A 
ATOM     68  C   UNL A   1      39.483  34.312  37.861  1.00  0.00     0.009 A 
ATOM     69  C   UNL A   1      39.737  36.626  38.348  1.00  0.00     0.009 A 
ATOM     70  C   UNL A   1      38.876  34.121  39.113  1.00  0.00     0.001 A 
ATOM     71  C   UNL A   1      39.149  36.443  39.606  1.00  0.00     0.001 A 
ATOM     72  C   UNL A   1      38.706  35.188  39.986  1.00  0.00     0.000 A 
ENDBRANCH  53  67
BRANCH  54  73
ATOM     73  C   UNL A   1      43.425  34.683  28.465  1.00  0.00    -0.014 A 
ATOM     74  C   UNL A   1      42.464  35.600  27.996  1.00  0.00     0.009 A 
ATOM     75  C   UNL A   1      44.099  33.883  27.533  1.00  0.00     0.009 A 
ATOM     76  C   UNL A   1      42.267  35.793  26.626  1.00  0.00     0.001 A 
ATOM     77  C   UNL A   1      43.891  34.073  26.161  1.00  0.00     0.001 A 
ATOM     78  C   UNL A   1      43.002  35.049  25.708  1.00  0.00     0.000 A 
ENDBRANCH  54  73
BRANCH  66  79
ATOM     79  C   UNL A   1      43.530  39.773  33.576  1.00  0.00    -0.014 A 
ATOM     80  C   UNL A   1      42.751  40.724  32.901  1.00  0.00     0.009 A 
ATOM     81  C   UNL A   1      44.228  40.229  34.715  1.00  0.00     0.009 A 
ATOM     82  C   UNL A   1      42.715  42.065  33.310  1.00  0.00     0.001 A 
ATOM     83  C   UNL A   1      44.159  41.554  35.155  1.00  0.00     0.001 A 
ATOM     84  C   UNL A   1      43.412  42.478  34.442  1.00  0.00     0.000 A 
ENDBRANCH  66  79
ENDBRANCH  40  41
ENDBRANCH  32  35
ENDBRANCH  30  31
ENDBRANCH  29  30
ENDBRANCH   1  29
TORSDOF 14
ENDMDL
MODEL 3
REMARK VINA RESULT:     -12.2      3.965      7.190
REMARK SMILES Cc1ccccc1NC(=O)CSc1nc(C(=O)NCCCNC(=O)c2ccc(-c3c4nc(c(-c5ccccc5)c5ccc([nH]5)c(-c5ccccc5)c5nc(c(-c6ccccc6)c6ccc3[nH]6)C=C5)C=C4)cc2)c2ccccc2n1
REMARK SMILES IDX 19 1 18 2 16 3 17 4 15 6 13 7 14 8 79 9 78 10 73 11 77 12
REMARK SMILES IDX 74 13 76 14 75 15 12 16 11 17 9 18 8 19 10 21 7 22 1 23 2 24
REMARK SMILES IDX 3 25 4 26 6 27 5 28 20 29 21 30 22 31 23 32 24 34 25 35
REMARK SMILES IDX 26 36 72 37 27 38 71 39 28 40 29 41 30 42 65 43 31 44 70 45
REMARK SMILES IDX 64 46 66 47 32 48 69 49 63 50 62 51 33 53 55 54 40 55 54 56
REMARK SMILES IDX 41 57 44 58 53 59 67 60 42 61 43 62 52 64 68 65 45 66 34 67
REMARK SMILES IDX 35 68 39 69 36 70 38 71 37 72 56 73 57 74 61 75 58 76 60 77
REMARK SMILES IDX 59 78 46 79 47 80 51 81 48 82 50 83 49 84
REMARK H PARENT 18 5 8 20 22 33 66 52 44 63
REMARK Flexibility Score: inf
ROOT
ATOM      1  C   UNL A   1      31.981  30.420  25.917  1.00  0.00     0.118 C 
ENDROOT
BRANCH   1   2
ATOM      2  N   UNL A   1      32.961  29.951  24.953  1.00  0.00    -0.351 N 
ATOM      3  C   UNL A   1      32.800  29.069  23.893  1.00  0.00     0.270 C 
ATOM      4  O   UNL A   1      33.754  28.896  23.136  1.00  0.00    -0.267 OA
ATOM      5  H   UNL A   1      33.872  30.310  25.067  1.00  0.00     0.163 HD
BRANCH   3   6
ATOM      6  C   UNL A   1      31.543  28.257  23.727  1.00  0.00     0.140 A 
ATOM      7  C   UNL A   1      30.381  26.516  24.603  1.00  0.00     0.189 A 
ATOM      8  N   UNL A   1      31.545  27.147  24.497  1.00  0.00    -0.217 NA
ATOM      9  N   UNL A   1      29.214  26.974  24.134  1.00  0.00    -0.222 NA
ATOM     10  C   UNL A   1      29.243  28.064  23.364  1.00  0.00     0.076 A 
ATOM     11  C   UNL A   1      30.428  28.706  23.006  1.00  0.00     0.032 A 
ATOM     12  C   UNL A   1      28.041  28.615  22.937  1.00  0.00     0.029 A 
ATOM     13  C   UNL A   1      30.390  29.761  22.054  1.00  0.00     0.013 A 
ATOM     14  C   UNL A   1      27.995  29.746  22.118  1.00  0.00     0.002 A 
ATOM     15  C   UNL A   1      29.175  30.299  21.643  1.00  0.00     0.001 A 
BRANCH   7  16
ATOM     16  S   UNL A   1      30.342  24.989  25.486  1.00  0.00    -0.076 SA
BRANCH  16  17
ATOM     17  C   UNL A   1      32.077  24.920  26.029  1.00  0.00     0.178 C 
BRANCH  17  18
ATOM     18  C   UNL A   1      32.469  23.607  26.671  1.00  0.00     0.234 C 
ATOM     19  N   UNL A   1      33.599  22.898  26.396  1.00  0.00    -0.325 N 
ATOM     20  H   UNL A   1      33.628  22.047  26.889  1.00  0.00     0.169 HD
ATOM     21  O   UNL A   1      31.714  23.093  27.512  1.00  0.00    -0.274 OA
BRANCH  19  22
ATOM     22  C   UNL A   1      34.734  23.077  25.582  1.00  0.00     0.044 A 
ATOM     23  C   UNL A   1      33.381  22.362  23.483  1.00  0.00     0.046 C 
ATOM     24  C   UNL A   1      34.646  22.758  24.205  1.00  0.00    -0.027 A 
ATOM     25  C   UNL A   1      35.813  22.776  23.413  1.00  0.00     0.005 A 
ATOM     26  C   UNL A   1      37.041  23.150  23.946  1.00  0.00     0.000 A 
ATOM     27  C   UNL A   1      35.963  23.531  26.071  1.00  0.00     0.026 A 
ATOM     28  C   UNL A   1      37.109  23.553  25.269  1.00  0.00     0.002 A 
ENDBRANCH  19  22
ENDBRANCH  17  18
ENDBRANCH  16  17
ENDBRANCH   7  16
ENDBRANCH   3   6
ENDBRANCH   1   2
BRANCH   1  29
ATOM     29  C   UNL A   1      32.521  31.273  27.038  1.00  0.00     0.042 C 
BRANCH  29  30
ATOM     30  C   UNL A   1      33.644  30.615  27.816  1.00  0.00     0.118 C 
BRANCH  30  31
ATOM     31  N   UNL A   1      34.505  31.546  28.558  1.00  0.00    -0.352 N 
ATOM     32  C   UNL A   1      35.799  31.327  29.021  1.00  0.00     0.251 C 
ATOM     33  H   UNL A   1      34.120  32.431  28.751  1.00  0.00     0.163 HD
ATOM     34  O   UNL A   1      36.491  32.232  29.451  1.00  0.00    -0.269 OA
BRANCH  32  35
ATOM     35  C   UNL A   1      36.340  29.958  28.876  1.00  0.00     0.039 A 
ATOM     36  C   UNL A   1      36.681  29.292  30.055  1.00  0.00     0.014 A 
ATOM     37  C   UNL A   1      36.915  29.620  27.654  1.00  0.00     0.014 A 
ATOM     38  C   UNL A   1      37.829  28.513  30.061  1.00  0.00     0.010 A 
ATOM     39  C   UNL A   1      38.114  28.933  27.688  1.00  0.00     0.010 A 
ATOM     40  C   UNL A   1      38.619  28.474  28.912  1.00  0.00    -0.014 A 
BRANCH  40  41
ATOM     41  C   UNL A   1      40.048  28.162  28.971  1.00  0.00     0.031 A 
ATOM     42  C   UNL A   1      40.539  26.852  28.505  1.00  0.00     0.074 A 
ATOM     43  C   UNL A   1      40.934  29.060  29.465  1.00  0.00     0.049 A 
ATOM     44  N   UNL A   1      41.626  26.300  28.932  1.00  0.00    -0.248 NA
ATOM     45  C   UNL A   1      39.781  25.999  27.595  1.00  0.00     0.031 C 
ATOM     46  C   UNL A   1      42.393  29.005  29.392  1.00  0.00     0.029 A 
ATOM     47  N   UNL A   1      40.676  30.101  30.359  1.00  0.00    -0.354 N 
ATOM     48  C   UNL A   1      41.863  25.205  28.140  1.00  0.00     0.074 A 
ATOM     49  C   UNL A   1      40.625  24.976  27.441  1.00  0.00     0.031 C 
ATOM     50  C   UNL A   1      42.908  29.766  30.371  1.00  0.00     0.029 A 
ATOM     51  C   UNL A   1      41.804  30.236  31.188  1.00  0.00     0.049 A 
ATOM     52  H   UNL A   1      39.854  30.643  30.402  1.00  0.00     0.167 HD
ATOM     53  C   UNL A   1      43.130  24.716  28.046  1.00  0.00     0.031 A 
ATOM     54  C   UNL A   1      41.715  30.092  32.542  1.00  0.00     0.031 A 
ATOM     55  C   UNL A   1      44.010  25.278  29.074  1.00  0.00     0.049 A 
ATOM     56  C   UNL A   1      42.544  28.953  33.094  1.00  0.00     0.074 A 
ATOM     57  C   UNL A   1      45.058  26.183  29.046  1.00  0.00     0.029 A 
ATOM     58  N   UNL A   1      43.684  25.098  30.416  1.00  0.00    -0.354 N 
ATOM     59  N   UNL A   1      43.089  28.022  32.362  1.00  0.00    -0.248 NA
ATOM     60  C   UNL A   1      42.766  28.737  34.522  1.00  0.00     0.031 C 
ATOM     61  C   UNL A   1      45.305  26.609  30.380  1.00  0.00     0.029 A 
ATOM     62  C   UNL A   1      44.435  25.935  31.219  1.00  0.00     0.049 A 
ATOM     63  H   UNL A   1      43.011  24.462  30.748  1.00  0.00     0.167 HD
ATOM     64  C   UNL A   1      43.667  27.080  33.173  1.00  0.00     0.074 A 
ATOM     65  C   UNL A   1      43.468  27.590  34.516  1.00  0.00     0.031 C 
ATOM     66  C   UNL A   1      44.231  25.944  32.664  1.00  0.00     0.031 A 
BRANCH  53  67
ATOM     67  C   UNL A   1      43.633  23.917  26.858  1.00  0.00    -0.014 A 
ATOM     68  C   UNL A   1      44.296  24.579  25.808  1.00  0.00     0.009 A 
ATOM     69  C   UNL A   1      43.387  22.547  26.644  1.00  0.00     0.009 A 
ATOM     70  C   UNL A   1      44.648  23.925  24.616  1.00  0.00     0.001 A 
ATOM     71  C   UNL A   1      43.750  21.881  25.466  1.00  0.00     0.001 A 
ATOM     72  C   UNL A   1      44.371  22.575  24.443  1.00  0.00     0.000 A 
ENDBRANCH  53  67
BRANCH  54  73
ATOM     73  C   UNL A   1      40.417  30.545  33.112  1.00  0.00    -0.014 A 
ATOM     74  C   UNL A   1      40.123  31.922  33.096  1.00  0.00     0.009 A 
ATOM     75  C   UNL A   1      39.372  29.639  33.336  1.00  0.00     0.009 A 
ATOM     76  C   UNL A   1      38.804  32.374  33.186  1.00  0.00     0.001 A 
ATOM     77  C   UNL A   1      38.052  30.096  33.435  1.00  0.00     0.001 A 
ATOM     78  C   UNL A   1      37.765  31.458  33.327  1.00  0.00     0.000 A 
ENDBRANCH  54  73
BRANCH  66  79
ATOM     79  C   UNL A   1      44.693  24.747  33.465  1.00  0.00    -0.014 A 
ATOM     80  C   UNL A   1      46.023  24.498  33.833  1.00  0.00     0.009 A 
ATOM     81  C   UNL A   1      43.721  23.868  33.993  1.00  0.00     0.009 A 
ATOM     82  C   UNL A   1      46.368  23.402  34.639  1.00  0.00     0.001 A 
ATOM     83  C   UNL A   1      44.055  22.802  34.834  1.00  0.00     0.001 A 
ATOM     84  C   UNL A   1      45.383  22.560  35.146  1.00  0.00     0.000 A 
ENDBRANCH  66  79
ENDBRANCH  40  41
ENDBRANCH  32  35
ENDBRANCH  30  31
ENDBRANCH  29  30
ENDBRANCH   1  29
TORSDOF 14
ENDMDL
