MODEL 1
REMARK VINA RESULT:     -12.7      0.000      0.000
REMARK SMILES Cc1ccc(N[C@](C)(C(=O)NCCCNC(=O)c2ccc(-c3c4nc(c(-c5ccccc5)c5ccc([nH]5)c(-c5ccccc5)c5nc(c(-c6ccccc6)c6ccc3[nH]6)C=C5)C=C4)cc2)c2cc(F)cc(F)c2)cc1
REMARK SMILES IDX 13 1 12 2 11 3 9 4 10 5 7 7 8 8 6 9 5 11 1 12 2 13 3 14
REMARK SMILES IDX 75 15 4 16 74 17 66 18 67 19 73 20 68 21 71 22 69 23 70 24
REMARK SMILES IDX 72 25 14 26 15 27 16 28 17 30 18 31 19 32 65 33 20 34 64 35
REMARK SMILES IDX 21 36 22 37 23 38 58 39 24 40 63 41 57 42 59 43 25 44 62 45
REMARK SMILES IDX 56 46 55 47 26 49 48 50 33 51 47 52 34 53 37 54 46 55 60 56
REMARK SMILES IDX 35 57 36 58 45 60 61 61 38 62 27 63 28 64 32 65 29 66 31 67
REMARK SMILES IDX 30 68 49 69 50 70 54 71 51 72 53 73 52 74 39 75 40 76 44 77
REMARK SMILES IDX 41 78 43 79 42 80
REMARK H PARENT 11 6 6 10 15 29 59 48 37 59
REMARK Flexibility Score: inf
ROOT
ATOM      1  C   UNL A   1      38.685  21.669  25.908  1.00  0.00     0.042 C 
ENDROOT
BRANCH   1   2
ATOM      2  C   UNL A   1      37.962  23.005  25.767  1.00  0.00     0.117 C 
BRANCH   2   3
ATOM      3  N   UNL A   1      37.444  23.186  24.421  1.00  0.00    -0.354 N 
ATOM      4  C   UNL A   1      36.182  23.181  23.901  1.00  0.00     0.250 C 
ATOM      5  O   UNL A   1      36.147  23.041  22.667  1.00  0.00    -0.272 OA
ATOM      6  H   UNL A   1      38.145  23.343  23.749  1.00  0.00     0.163 HD
BRANCH   4   7
ATOM      7  C   UNL A   1      34.831  23.285  24.744  1.00  0.00     0.139 C 
ATOM      8  C   UNL A   1      34.963  23.348  26.284  1.00  0.00     0.051 C 
BRANCH   7   9
ATOM      9  N   UNL A   1      34.164  24.569  24.361  1.00  0.00    -0.368 N 
ATOM     10  H   UNL A   1      34.205  24.805  23.405  1.00  0.00     0.161 HD
BRANCH   9  11
ATOM     11  C   UNL A   1      33.494  25.471  25.178  1.00  0.00     0.035 A 
ATOM     12  C   UNL A   1      31.572  28.514  27.614  1.00  0.00     0.044 C 
ATOM     13  C   UNL A   1      32.246  27.474  26.770  1.00  0.00    -0.051 A 
ATOM     14  C   UNL A   1      31.582  26.286  26.462  1.00  0.00     0.005 A 
ATOM     15  C   UNL A   1      33.534  27.666  26.273  1.00  0.00     0.005 A 
ATOM     16  C   UNL A   1      32.200  25.302  25.675  1.00  0.00     0.026 A 
ATOM     17  C   UNL A   1      34.140  26.680  25.485  1.00  0.00     0.026 A 
ENDBRANCH   9  11
ENDBRANCH   7   9
BRANCH   7  18
ATOM     18  C   UNL A   1      33.926  22.078  24.324  1.00  0.00    -0.008 A 
ATOM     19  C   UNL A   1      34.128  20.794  24.874  1.00  0.00     0.046 A 
ATOM     20  C   UNL A   1      32.950  22.159  23.310  1.00  0.00     0.046 A 
ATOM     21  C   UNL A   1      33.440  19.671  24.408  1.00  0.00     0.126 A 
ATOM     22  C   UNL A   1      32.234  21.031  22.891  1.00  0.00     0.126 A 
ATOM     23  F   UNL A   1      33.743  18.468  24.913  1.00  0.00    -0.207 F 
ATOM     24  C   UNL A   1      32.484  19.778  23.419  1.00  0.00     0.078 A 
ATOM     25  F   UNL A   1      31.303  21.165  21.938  1.00  0.00    -0.207 F 
ENDBRANCH   7  18
ENDBRANCH   4   7
ENDBRANCH   2   3
ENDBRANCH   1   2
BRANCH   1  26
ATOM     26  C   UNL A   1      40.129  21.788  26.371  1.00  0.00     0.118 C 
BRANCH  26  27
ATOM     27  N   UNL A   1      41.026  20.816  25.750  1.00  0.00    -0.352 N 
ATOM     28  C   UNL A   1      42.406  20.745  25.857  1.00  0.00     0.251 C 
ATOM     29  H   UNL A   1      40.598  20.128  25.188  1.00  0.00     0.163 HD
ATOM     30  O   UNL A   1      43.039  19.836  25.350  1.00  0.00    -0.269 OA
BRANCH  28  31
ATOM     31  C   UNL A   1      43.072  21.750  26.715  1.00  0.00     0.039 A 
ATOM     32  C   UNL A   1      42.898  21.629  28.094  1.00  0.00     0.014 A 
ATOM     33  C   UNL A   1      43.551  22.928  26.145  1.00  0.00     0.014 A 
ATOM     34  C   UNL A   1      42.956  22.777  28.875  1.00  0.00     0.010 A 
ATOM     35  C   UNL A   1      43.524  24.081  26.905  1.00  0.00     0.010 A 
ATOM     36  C   UNL A   1      43.151  24.014  28.251  1.00  0.00    -0.014 A 
BRANCH  36  37
ATOM     37  C   UNL A   1      42.828  25.268  28.919  1.00  0.00     0.031 A 
ATOM     38  C   UNL A   1      41.627  26.030  28.537  1.00  0.00     0.074 A 
ATOM     39  C   UNL A   1      43.670  25.796  29.835  1.00  0.00     0.049 A 
ATOM     40  N   UNL A   1      41.582  27.320  28.493  1.00  0.00    -0.248 NA
ATOM     41  C   UNL A   1      40.387  25.385  28.123  1.00  0.00     0.031 C 
ATOM     42  C   UNL A   1      43.442  26.964  30.681  1.00  0.00     0.029 A 
ATOM     43  N   UNL A   1      45.015  25.500  30.015  1.00  0.00    -0.354 N 
ATOM     44  C   UNL A   1      40.265  27.672  28.327  1.00  0.00     0.074 A 
ATOM     45  C   UNL A   1      39.574  26.440  28.014  1.00  0.00     0.031 C 
ATOM     46  C   UNL A   1      44.628  27.437  31.096  1.00  0.00     0.029 A 
ATOM     47  C   UNL A   1      45.669  26.664  30.439  1.00  0.00     0.049 A 
ATOM     48  H   UNL A   1      45.437  24.622  29.868  1.00  0.00     0.167 HD
ATOM     49  C   UNL A   1      39.852  28.936  28.619  1.00  0.00     0.031 A 
ATOM     50  C   UNL A   1      46.713  27.188  29.734  1.00  0.00     0.031 A 
ATOM     51  C   UNL A   1      40.941  29.782  29.097  1.00  0.00     0.049 A 
ATOM     52  C   UNL A   1      46.447  28.576  29.192  1.00  0.00     0.074 A 
ATOM     53  C   UNL A   1      41.338  30.163  30.369  1.00  0.00     0.029 A 
ATOM     54  N   UNL A   1      41.980  30.124  28.241  1.00  0.00    -0.354 N 
ATOM     55  N   UNL A   1      45.267  29.126  29.139  1.00  0.00    -0.248 NA
ATOM     56  C   UNL A   1      47.481  29.428  28.611  1.00  0.00     0.031 C 
ATOM     57  C   UNL A   1      42.646  30.699  30.281  1.00  0.00     0.029 A 
ATOM     58  C   UNL A   1      43.033  30.663  28.953  1.00  0.00     0.049 A 
ATOM     59  H   UNL A   1      41.966  29.999  27.265  1.00  0.00     0.167 HD
ATOM     60  C   UNL A   1      45.352  30.342  28.512  1.00  0.00     0.074 A 
ATOM     61  C   UNL A   1      46.766  30.498  28.222  1.00  0.00     0.031 C 
ATOM     62  C   UNL A   1      44.243  31.100  28.268  1.00  0.00     0.031 A 
BRANCH  49  63
ATOM     63  C   UNL A   1      38.395  29.282  28.771  1.00  0.00    -0.014 A 
ATOM     64  C   UNL A   1      37.655  29.713  27.655  1.00  0.00     0.009 A 
ATOM     65  C   UNL A   1      37.711  29.252  29.998  1.00  0.00     0.009 A 
ATOM     66  C   UNL A   1      36.348  30.196  27.776  1.00  0.00     0.001 A 
ATOM     67  C   UNL A   1      36.419  29.776  30.134  1.00  0.00     0.001 A 
ATOM     68  C   UNL A   1      35.742  30.262  29.023  1.00  0.00     0.000 A 
ENDBRANCH  49  63
BRANCH  50  69
ATOM     69  C   UNL A   1      47.552  26.166  29.053  1.00  0.00    -0.014 A 
ATOM     70  C   UNL A   1      47.316  25.908  27.688  1.00  0.00     0.009 A 
ATOM     71  C   UNL A   1      48.754  25.723  29.620  1.00  0.00     0.009 A 
ATOM     72  C   UNL A   1      48.300  25.320  26.889  1.00  0.00     0.001 A 
ATOM     73  C   UNL A   1      49.734  25.126  28.818  1.00  0.00     0.001 A 
ATOM     74  C   UNL A   1      49.522  24.956  27.449  1.00  0.00     0.000 A 
ENDBRANCH  50  69
BRANCH  62  75
ATOM     75  C   UNL A   1      44.167  32.354  27.425  1.00  0.00    -0.014 A 
ATOM     76  C   UNL A   1      44.293  32.389  26.032  1.00  0.00     0.009 A 
ATOM     77  C   UNL A   1      43.830  33.574  28.058  1.00  0.00     0.009 A 
ATOM     78  C   UNL A   1      44.129  33.584  25.313  1.00  0.00     0.001 A 
ATOM     79  C   UNL A   1      43.620  34.757  27.343  1.00  0.00     0.001 A 
ATOM     80  C   UNL A   1      43.783  34.763  25.966  1.00  0.00     0.000 A 
ENDBRANCH  62  75
ENDBRANCH  36  37
ENDBRANCH  28  31
ENDBRANCH  26  27
ENDBRANCH   1  26
TORSDOF 13
ENDMDL
MODEL 2
REMARK VINA RESULT:     -12.7      3.609      8.412
REMARK SMILES Cc1ccc(N[C@](C)(C(=O)NCCCNC(=O)c2ccc(-c3c4nc(c(-c5ccccc5)c5ccc([nH]5)c(-c5ccccc5)c5nc(c(-c6ccccc6)c6ccc3[nH]6)C=C5)C=C4)cc2)c2cc(F)cc(F)c2)cc1
REMARK SMILES IDX 13 1 12 2 11 3 9 4 10 5 7 7 8 8 6 9 5 11 1 12 2 13 3 14
REMARK SMILES IDX 75 15 4 16 74 17 66 18 67 19 73 20 68 21 71 22 69 23 70 24
REMARK SMILES IDX 72 25 14 26 15 27 16 28 17 30 18 31 19 32 65 33 20 34 64 35
REMARK SMILES IDX 21 36 22 37 23 38 58 39 24 40 63 41 57 42 59 43 25 44 62 45
REMARK SMILES IDX 56 46 55 47 26 49 48 50 33 51 47 52 34 53 37 54 46 55 60 56
REMARK SMILES IDX 35 57 36 58 45 60 61 61 38 62 27 63 28 64 32 65 29 66 31 67
REMARK SMILES IDX 30 68 49 69 50 70 54 71 51 72 53 73 52 74 39 75 40 76 44 77
REMARK SMILES IDX 41 78 43 79 42 80
REMARK H PARENT 11 6 6 10 15 29 59 48 37 59
REMARK Flexibility Score: inf
ROOT
ATOM      1  C   UNL A   1      33.472  31.523  27.254  1.00  0.00     0.042 C 
ENDROOT
BRANCH   1   2
ATOM      2  C   UNL A   1      32.327  30.716  26.648  1.00  0.00     0.117 C 
BRANCH   2   3
ATOM      3  N   UNL A   1      32.096  29.488  27.390  1.00  0.00    -0.354 N 
ATOM      4  C   UNL A   1      32.046  28.174  27.024  1.00  0.00     0.250 C 
ATOM      5  O   UNL A   1      31.503  27.438  27.863  1.00  0.00    -0.272 OA
ATOM      6  H   UNL A   1      31.944  29.634  28.351  1.00  0.00     0.163 HD
BRANCH   4   7
ATOM      7  C   UNL A   1      32.566  27.577  25.639  1.00  0.00     0.139 C 
ATOM      8  C   UNL A   1      33.867  28.177  25.055  1.00  0.00     0.051 C 
BRANCH   7   9
ATOM      9  N   UNL A   1      32.876  26.130  25.865  1.00  0.00    -0.368 N 
ATOM     10  H   UNL A   1      32.393  25.699  26.607  1.00  0.00     0.161 HD
BRANCH   9  11
ATOM     11  C   UNL A   1      33.758  25.316  25.164  1.00  0.00     0.035 A 
ATOM     12  C   UNL A   1      36.609  22.658  23.244  1.00  0.00     0.044 C 
ATOM     13  C   UNL A   1      35.632  23.573  23.919  1.00  0.00    -0.051 A 
ATOM     14  C   UNL A   1      34.507  24.027  23.230  1.00  0.00     0.005 A 
ATOM     15  C   UNL A   1      35.816  23.982  25.238  1.00  0.00     0.005 A 
ATOM     16  C   UNL A   1      33.585  24.884  23.848  1.00  0.00     0.026 A 
ATOM     17  C   UNL A   1      34.887  24.835  25.848  1.00  0.00     0.026 A 
ENDBRANCH   9  11
ENDBRANCH   7   9
BRANCH   7  18
ATOM     18  C   UNL A   1      31.396  27.707  24.606  1.00  0.00    -0.008 A 
ATOM     19  C   UNL A   1      31.384  28.746  23.652  1.00  0.00     0.046 A 
ATOM     20  C   UNL A   1      30.248  26.889  24.631  1.00  0.00     0.046 A 
ATOM     21  C   UNL A   1      30.284  28.977  22.821  1.00  0.00     0.126 A 
ATOM     22  C   UNL A   1      29.176  27.106  23.756  1.00  0.00     0.126 A 
ATOM     23  F   UNL A   1      30.301  30.035  22.000  1.00  0.00    -0.207 F 
ATOM     24  C   UNL A   1      29.174  28.159  22.860  1.00  0.00     0.078 A 
ATOM     25  F   UNL A   1      28.116  26.288  23.806  1.00  0.00    -0.207 F 
ENDBRANCH   7  18
ENDBRANCH   4   7
ENDBRANCH   2   3
ENDBRANCH   1   2
BRANCH   1  26
ATOM     26  C   UNL A   1      34.415  30.707  28.124  1.00  0.00     0.118 C 
BRANCH  26  27
ATOM     27  N   UNL A   1      35.268  31.521  28.987  1.00  0.00    -0.352 N 
ATOM     28  C   UNL A   1      36.527  31.208  29.476  1.00  0.00     0.251 C 
ATOM     29  H   UNL A   1      34.905  32.398  29.254  1.00  0.00     0.163 HD
ATOM     30  O   UNL A   1      37.174  32.008  30.128  1.00  0.00    -0.269 OA
BRANCH  28  31
ATOM     31  C   UNL A   1      37.108  29.910  29.071  1.00  0.00     0.039 A 
ATOM     32  C   UNL A   1      37.397  28.995  30.085  1.00  0.00     0.014 A 
ATOM     33  C   UNL A   1      37.640  29.766  27.791  1.00  0.00     0.014 A 
ATOM     34  C   UNL A   1      38.428  28.084  29.885  1.00  0.00     0.010 A 
ATOM     35  C   UNL A   1      38.720  28.921  27.622  1.00  0.00     0.010 A 
ATOM     36  C   UNL A   1      39.160  28.139  28.694  1.00  0.00    -0.014 A 
BRANCH  36  37
ATOM     37  C   UNL A   1      40.473  27.517  28.574  1.00  0.00     0.031 A 
ATOM     38  C   UNL A   1      40.595  26.075  28.304  1.00  0.00     0.074 A 
ATOM     39  C   UNL A   1      41.596  28.236  28.795  1.00  0.00     0.049 A 
ATOM     40  N   UNL A   1      41.509  25.325  28.823  1.00  0.00    -0.248 NA
ATOM     41  C   UNL A   1      39.653  25.353  27.457  1.00  0.00     0.031 C 
ATOM     42  C   UNL A   1      42.978  27.808  28.595  1.00  0.00     0.029 A 
ATOM     43  N   UNL A   1      41.708  29.442  29.476  1.00  0.00    -0.354 N 
ATOM     44  C   UNL A   1      41.453  24.115  28.175  1.00  0.00     0.074 A 
ATOM     45  C   UNL A   1      40.231  24.150  27.401  1.00  0.00     0.031 C 
ATOM     46  C   UNL A   1      43.785  28.585  29.334  1.00  0.00     0.029 A 
ATOM     47  C   UNL A   1      42.946  29.466  30.130  1.00  0.00     0.049 A 
ATOM     48  H   UNL A   1      41.031  30.157  29.496  1.00  0.00     0.167 HD
ATOM     49  C   UNL A   1      42.511  23.260  28.229  1.00  0.00     0.031 A 
ATOM     50  C   UNL A   1      43.032  29.625  31.482  1.00  0.00     0.031 A 
ATOM     51  C   UNL A   1      43.620  23.792  29.015  1.00  0.00     0.049 A 
ATOM     52  C   UNL A   1      43.655  28.446  32.197  1.00  0.00     0.074 A 
ATOM     53  C   UNL A   1      44.800  24.426  28.657  1.00  0.00     0.029 A 
ATOM     54  N   UNL A   1      43.470  23.982  30.383  1.00  0.00    -0.354 N 
ATOM     55  N   UNL A   1      43.841  27.276  31.653  1.00  0.00    -0.248 NA
ATOM     56  C   UNL A   1      44.062  28.475  33.600  1.00  0.00     0.031 C 
ATOM     57  C   UNL A   1      45.341  25.037  29.815  1.00  0.00     0.029 A 
ATOM     58  C   UNL A   1      44.501  24.757  30.877  1.00  0.00     0.049 A 
ATOM     59  H   UNL A   1      42.734  23.614  30.922  1.00  0.00     0.167 HD
ATOM     60  C   UNL A   1      44.337  26.405  32.589  1.00  0.00     0.074 A 
ATOM     61  C   UNL A   1      44.482  27.211  33.788  1.00  0.00     0.031 C 
ATOM     62  C   UNL A   1      44.560  25.091  32.294  1.00  0.00     0.031 A 
BRANCH  49  63
ATOM     63  C   UNL A   1      42.638  22.091  27.289  1.00  0.00    -0.014 A 
ATOM     64  C   UNL A   1      41.902  20.917  27.525  1.00  0.00     0.009 A 
ATOM     65  C   UNL A   1      43.506  22.071  26.183  1.00  0.00     0.009 A 
ATOM     66  C   UNL A   1      42.105  19.753  26.775  1.00  0.00     0.001 A 
ATOM     67  C   UNL A   1      43.747  20.897  25.458  1.00  0.00     0.001 A 
ATOM     68  C   UNL A   1      43.055  19.733  25.764  1.00  0.00     0.000 A 
ENDBRANCH  49  63
BRANCH  50  69
ATOM     69  C   UNL A   1      41.962  30.485  32.055  1.00  0.00    -0.014 A 
ATOM     70  C   UNL A   1      42.015  31.873  31.810  1.00  0.00     0.009 A 
ATOM     71  C   UNL A   1      40.761  29.933  32.517  1.00  0.00     0.009 A 
ATOM     72  C   UNL A   1      40.869  32.665  31.921  1.00  0.00     0.001 A 
ATOM     73  C   UNL A   1      39.616  30.732  32.636  1.00  0.00     0.001 A 
ATOM     74  C   UNL A   1      39.662  32.087  32.305  1.00  0.00     0.000 A 
ENDBRANCH  50  69
BRANCH  62  75
ATOM     75  C   UNL A   1      44.917  23.991  33.269  1.00  0.00    -0.014 A 
ATOM     76  C   UNL A   1      46.208  23.729  33.740  1.00  0.00     0.009 A 
ATOM     77  C   UNL A   1      43.870  23.235  33.849  1.00  0.00     0.009 A 
ATOM     78  C   UNL A   1      46.447  22.740  34.708  1.00  0.00     0.001 A 
ATOM     79  C   UNL A   1      44.097  22.282  34.846  1.00  0.00     0.001 A 
ATOM     80  C   UNL A   1      45.392  22.026  35.268  1.00  0.00     0.000 A 
ENDBRANCH  62  75
ENDBRANCH  36  37
ENDBRANCH  28  31
ENDBRANCH  26  27
ENDBRANCH   1  26
TORSDOF 13
ENDMDL
MODEL 3
REMARK VINA RESULT:     -12.6      3.824      8.648
REMARK SMILES Cc1ccc(N[C@](C)(C(=O)NCCCNC(=O)c2ccc(-c3c4nc(c(-c5ccccc5)c5ccc([nH]5)c(-c5ccccc5)c5nc(c(-c6ccccc6)c6ccc3[nH]6)C=C5)C=C4)cc2)c2cc(F)cc(F)c2)cc1
REMARK SMILES IDX 13 1 12 2 11 3 9 4 10 5 7 7 8 8 6 9 5 11 1 12 2 13 3 14
REMARK SMILES IDX 75 15 4 16 74 17 66 18 67 19 73 20 68 21 71 22 69 23 70 24
REMARK SMILES IDX 72 25 14 26 15 27 16 28 17 30 18 31 19 32 65 33 20 34 64 35
REMARK SMILES IDX 21 36 22 37 23 38 58 39 24 40 63 41 57 42 59 43 25 44 62 45
REMARK SMILES IDX 56 46 55 47 26 49 48 50 33 51 47 52 34 53 37 54 46 55 60 56
REMARK SMILES IDX 35 57 36 58 45 60 61 61 38 62 27 63 28 64 32 65 29 66 31 67
REMARK SMILES IDX 30 68 49 69 50 70 54 71 51 72 53 73 52 74 39 75 40 76 44 77
REMARK SMILES IDX 41 78 43 79 42 80
REMARK H PARENT 11 6 6 10 15 29 59 48 37 59
REMARK Flexibility Score: inf
ROOT
ATOM      1  C   UNL A   1      32.615  30.732  26.906  1.00  0.00     0.042 C 
ENDROOT
BRANCH   1   2
ATOM      2  C   UNL A   1      32.006  29.706  25.955  1.00  0.00     0.117 C 
BRANCH   2   3
ATOM      3  N   UNL A   1      32.677  29.718  24.665  1.00  0.00    -0.354 N 
ATOM      4  C   UNL A   1      32.603  28.908  23.570  1.00  0.00     0.250 C 
ATOM      5  O   UNL A   1      33.558  29.033  22.786  1.00  0.00    -0.272 OA
ATOM      6  H   UNL A   1      33.313  30.461  24.562  1.00  0.00     0.163 HD
BRANCH   4   7
ATOM      7  C   UNL A   1      31.456  27.835  23.285  1.00  0.00     0.139 C 
ATOM      8  C   UNL A   1      31.738  26.773  22.196  1.00  0.00     0.051 C 
BRANCH   7   9
ATOM      9  N   UNL A   1      31.255  27.052  24.544  1.00  0.00    -0.368 N 
ATOM     10  H   UNL A   1      30.539  27.372  25.139  1.00  0.00     0.161 HD
BRANCH   9  11
ATOM     11  C   UNL A   1      31.948  25.930  24.984  1.00  0.00     0.035 A 
ATOM     12  C   UNL A   1      34.289  22.610  26.527  1.00  0.00     0.044 C 
ATOM     13  C   UNL A   1      33.492  23.764  25.999  1.00  0.00    -0.051 A 
ATOM     14  C   UNL A   1      32.190  23.563  25.539  1.00  0.00     0.005 A 
ATOM     15  C   UNL A   1      34.020  25.053  25.961  1.00  0.00     0.005 A 
ATOM     16  C   UNL A   1      31.432  24.634  25.042  1.00  0.00     0.026 A 
ATOM     17  C   UNL A   1      33.254  26.115  25.467  1.00  0.00     0.026 A 
ENDBRANCH   9  11
ENDBRANCH   7   9
BRANCH   7  18
ATOM     18  C   UNL A   1      30.149  28.629  22.947  1.00  0.00    -0.008 A 
ATOM     19  C   UNL A   1      28.897  28.207  23.441  1.00  0.00     0.046 A 
ATOM     20  C   UNL A   1      30.116  29.721  22.056  1.00  0.00     0.046 A 
ATOM     21  C   UNL A   1      27.700  28.804  23.034  1.00  0.00     0.126 A 
ATOM     22  C   UNL A   1      28.911  30.338  21.699  1.00  0.00     0.126 A 
ATOM     23  F   UNL A   1      26.541  28.298  23.474  1.00  0.00    -0.207 F 
ATOM     24  C   UNL A   1      27.695  29.875  22.166  1.00  0.00     0.078 A 
ATOM     25  F   UNL A   1      28.935  31.384  20.863  1.00  0.00    -0.207 F 
ENDBRANCH   7  18
ENDBRANCH   4   7
ENDBRANCH   2   3
ENDBRANCH   1   2
BRANCH   1  26
ATOM     26  C   UNL A   1      33.974  30.334  27.462  1.00  0.00     0.118 C 
BRANCH  26  27
ATOM     27  N   UNL A   1      34.482  31.252  28.480  1.00  0.00    -0.352 N 
ATOM     28  C   UNL A   1      35.677  31.169  29.177  1.00  0.00     0.251 C 
ATOM     29  H   UNL A   1      33.906  32.022  28.696  1.00  0.00     0.163 HD
ATOM     30  O   UNL A   1      36.025  32.044  29.950  1.00  0.00    -0.269 OA
BRANCH  28  31
ATOM     31  C   UNL A   1      36.573  30.037  28.855  1.00  0.00     0.039 A 
ATOM     32  C   UNL A   1      36.910  29.172  29.896  1.00  0.00     0.014 A 
ATOM     33  C   UNL A   1      37.293  30.051  27.662  1.00  0.00     0.014 A 
ATOM     34  C   UNL A   1      38.130  28.507  29.841  1.00  0.00     0.010 A 
ATOM     35  C   UNL A   1      38.542  29.461  27.644  1.00  0.00     0.010 A 
ATOM     36  C   UNL A   1      38.989  28.755  28.766  1.00  0.00    -0.014 A 
BRANCH  36  37
ATOM     37  C   UNL A   1      40.409  28.431  28.829  1.00  0.00     0.031 A 
ATOM     38  C   UNL A   1      40.912  27.165  28.269  1.00  0.00     0.074 A 
ATOM     39  C   UNL A   1      41.271  29.243  29.479  1.00  0.00     0.049 A 
ATOM     40  N   UNL A   1      41.858  26.471  28.807  1.00  0.00    -0.248 NA
ATOM     41  C   UNL A   1      40.342  26.555  27.074  1.00  0.00     0.031 C 
ATOM     42  C   UNL A   1      42.726  29.136  29.530  1.00  0.00     0.029 A 
ATOM     43  N   UNL A   1      40.967  30.212  30.428  1.00  0.00    -0.354 N 
ATOM     44  C   UNL A   1      42.210  25.499  27.903  1.00  0.00     0.074 A 
ATOM     45  C   UNL A   1      41.184  25.535  26.883  1.00  0.00     0.031 C 
ATOM     46  C   UNL A   1      43.174  29.804  30.604  1.00  0.00     0.029 A 
ATOM     47  C   UNL A   1      42.018  30.269  31.352  1.00  0.00     0.049 A 
ATOM     48  H   UNL A   1      40.151  30.764  30.448  1.00  0.00     0.167 HD
ATOM     49  C   UNL A   1      43.407  24.861  28.014  1.00  0.00     0.031 A 
ATOM     50  C   UNL A   1      41.805  30.057  32.683  1.00  0.00     0.031 A 
ATOM     51  C   UNL A   1      44.191  25.338  29.149  1.00  0.00     0.049 A 
ATOM     52  C   UNL A   1      42.537  28.853  33.234  1.00  0.00     0.074 A 
ATOM     53  C   UNL A   1      45.237  26.242  29.248  1.00  0.00     0.029 A 
ATOM     54  N   UNL A   1      43.744  25.110  30.444  1.00  0.00    -0.354 N 
ATOM     55  N   UNL A   1      43.090  27.932  32.496  1.00  0.00    -0.248 NA
ATOM     56  C   UNL A   1      42.651  28.560  34.661  1.00  0.00     0.031 C 
ATOM     57  C   UNL A   1      45.391  26.591  30.612  1.00  0.00     0.029 A 
ATOM     58  C   UNL A   1      44.452  25.884  31.342  1.00  0.00     0.049 A 
ATOM     59  H   UNL A   1      43.023  24.484  30.686  1.00  0.00     0.167 HD
ATOM     60  C   UNL A   1      43.586  26.935  33.296  1.00  0.00     0.074 A 
ATOM     61  C   UNL A   1      43.308  27.388  34.647  1.00  0.00     0.031 C 
ATOM     62  C   UNL A   1      44.161  25.815  32.768  1.00  0.00     0.031 A 
BRANCH  49  63
ATOM     63  C   UNL A   1      43.979  24.042  26.888  1.00  0.00    -0.014 A 
ATOM     64  C   UNL A   1      44.755  24.662  25.892  1.00  0.00     0.009 A 
ATOM     65  C   UNL A   1      43.745  22.665  26.728  1.00  0.00     0.009 A 
ATOM     66  C   UNL A   1      45.173  23.976  24.746  1.00  0.00     0.001 A 
ATOM     67  C   UNL A   1      44.121  21.984  25.564  1.00  0.00     0.001 A 
ATOM     68  C   UNL A   1      44.824  22.645  24.565  1.00  0.00     0.000 A 
ENDBRANCH  49  63
BRANCH  50  69
ATOM     69  C   UNL A   1      40.475  30.524  33.160  1.00  0.00    -0.014 A 
ATOM     70  C   UNL A   1      40.214  31.909  33.166  1.00  0.00     0.009 A 
ATOM     71  C   UNL A   1      39.395  29.639  33.269  1.00  0.00     0.009 A 
ATOM     72  C   UNL A   1      38.902  32.391  33.171  1.00  0.00     0.001 A 
ATOM     73  C   UNL A   1      38.082  30.126  33.283  1.00  0.00     0.001 A 
ATOM     74  C   UNL A   1      37.835  31.497  33.199  1.00  0.00     0.000 A 
ENDBRANCH  50  69
BRANCH  62  75
ATOM     75  C   UNL A   1      44.571  24.567  33.517  1.00  0.00    -0.014 A 
ATOM     76  C   UNL A   1      43.718  23.500  33.819  1.00  0.00     0.009 A 
ATOM     77  C   UNL A   1      45.938  24.391  33.841  1.00  0.00     0.009 A 
ATOM     78  C   UNL A   1      44.195  22.338  34.447  1.00  0.00     0.001 A 
ATOM     79  C   UNL A   1      46.425  23.218  34.424  1.00  0.00     0.001 A 
ATOM     80  C   UNL A   1      45.548  22.193  34.738  1.00  0.00     0.000 A 
ENDBRANCH  62  75
ENDBRANCH  36  37
ENDBRANCH  28  31
ENDBRANCH  26  27
ENDBRANCH   1  26
TORSDOF 13
ENDMDL
