MODEL 1
REMARK VINA RESULT:     -10.3      0.000      0.000
REMARK SMILES Cc1nc(C[NH2+][C@@H](C(=O)NCCCNC(=O)c2ccc(-c3c4nc(c(-c5ccccc5)c5ccc([nH]5)c(-c5ccccc5)c5nc(c(-c6ccccc6)c6ccc3[nH]6)C=C5)C=C4)cc2)c2ccccc2)sc1C
REMARK SMILES IDX 11 1 10 2 8 3 9 4 7 6 6 7 5 10 4 11 1 12 2 13 3 14 72 15
REMARK SMILES IDX 71 16 73 17 65 18 66 19 70 20 67 21 69 22 68 23 12 24 13 25
REMARK SMILES IDX 14 26 15 27 16 29 17 30 18 31 64 32 19 33 63 34 20 35 21 36
REMARK SMILES IDX 22 37 57 38 23 39 62 40 56 41 58 42 24 43 61 44 55 45 54 46
REMARK SMILES IDX 25 48 47 49 32 50 46 51 33 52 36 53 45 54 59 55 34 56 35 57
REMARK SMILES IDX 44 59 60 60 37 61 26 62 27 63 31 64 28 65 30 66 29 67 48 68
REMARK SMILES IDX 49 69 53 70 50 71 52 72 51 73 38 74 39 75 43 76 40 77 42 78
REMARK SMILES IDX 41 79
REMARK H PARENT 10 5 6 8 6 9 14 28 58 47 36 58
REMARK Flexibility Score: inf
ROOT
ATOM      1  C   UNL A   1      33.644  27.265  25.024  1.00  0.00     0.118 C 
ENDROOT
BRANCH   1   2
ATOM      2  N   UNL A   1      33.609  26.091  25.889  1.00  0.00    -0.351 N 
ATOM      3  C   UNL A   1      33.918  24.772  25.699  1.00  0.00     0.283 C 
ATOM      4  O   UNL A   1      33.533  24.014  26.596  1.00  0.00    -0.268 OA
ATOM      5  H   UNL A   1      33.296  26.291  26.801  1.00  0.00     0.163 HD
BRANCH   3   6
ATOM      6  C   UNL A   1      34.660  24.254  24.416  1.00  0.00     0.304 C 
BRANCH   6   7
ATOM      7  N   UNL A   1      33.762  23.423  23.563  1.00  0.00    -0.326 N 
ATOM      8  H   UNL A   1      34.262  22.583  23.271  1.00  0.00     0.347 HD
ATOM      9  H   UNL A   1      32.934  23.175  24.107  1.00  0.00     0.347 HD
BRANCH   7  10
ATOM     10  C   UNL A   1      33.336  24.159  22.380  1.00  0.00     0.330 C 
BRANCH  10  11
ATOM     11  C   UNL A   1      32.117  25.026  22.523  1.00  0.00     0.148 A 
ATOM     12  C   UNL A   1      30.606  28.282  22.339  1.00  0.00     0.068 C 
ATOM     13  C   UNL A   1      30.873  26.857  22.662  1.00  0.00     0.052 A 
ATOM     14  N   UNL A   1      32.012  26.275  22.122  1.00  0.00    -0.240 NA
ATOM     15  C   UNL A   1      30.134  26.031  23.493  1.00  0.00     0.025 A 
ATOM     16  S   UNL A   1      30.808  24.459  23.491  1.00  0.00    -0.118 S 
ATOM     17  C   UNL A   1      28.931  26.331  24.315  1.00  0.00     0.058 C 
ENDBRANCH  10  11
ENDBRANCH   7  10
ENDBRANCH   6   7
BRANCH   6  18
ATOM     18  C   UNL A   1      35.895  23.427  24.789  1.00  0.00     0.019 A 
ATOM     19  C   UNL A   1      36.881  23.937  25.656  1.00  0.00     0.010 A 
ATOM     20  C   UNL A   1      36.069  22.128  24.286  1.00  0.00     0.010 A 
ATOM     21  C   UNL A   1      38.005  23.183  25.999  1.00  0.00     0.001 A 
ATOM     22  C   UNL A   1      37.195  21.372  24.632  1.00  0.00     0.001 A 
ATOM     23  C   UNL A   1      38.162  21.900  25.485  1.00  0.00     0.000 A 
ENDBRANCH   6  18
ENDBRANCH   3   6
ENDBRANCH   1   2
BRANCH   1  24
ATOM     24  C   UNL A   1      34.137  28.527  25.754  1.00  0.00     0.042 C 
BRANCH  24  25
ATOM     25  C   UNL A   1      33.699  28.651  27.214  1.00  0.00     0.118 C 
BRANCH  25  26
ATOM     26  N   UNL A   1      33.630  30.034  27.645  1.00  0.00    -0.352 N 
ATOM     27  C   UNL A   1      34.535  30.790  28.353  1.00  0.00     0.251 C 
ATOM     28  H   UNL A   1      32.805  30.508  27.390  1.00  0.00     0.163 HD
ATOM     29  O   UNL A   1      34.175  31.875  28.803  1.00  0.00    -0.269 OA
BRANCH  27  30
ATOM     30  C   UNL A   1      35.924  30.326  28.601  1.00  0.00     0.039 A 
ATOM     31  C   UNL A   1      36.858  30.451  27.565  1.00  0.00     0.014 A 
ATOM     32  C   UNL A   1      36.304  29.695  29.789  1.00  0.00     0.014 A 
ATOM     33  C   UNL A   1      38.166  29.983  27.731  1.00  0.00     0.010 A 
ATOM     34  C   UNL A   1      37.629  29.289  29.980  1.00  0.00     0.010 A 
ATOM     35  C   UNL A   1      38.573  29.414  28.948  1.00  0.00    -0.014 A 
BRANCH  35  36
ATOM     36  C   UNL A   1      39.968  28.931  29.138  1.00  0.00     0.031 A 
ATOM     37  C   UNL A   1      41.013  29.826  29.753  1.00  0.00     0.074 A 
ATOM     38  C   UNL A   1      40.313  27.693  28.734  1.00  0.00     0.049 A 
ATOM     39  N   UNL A   1      42.281  29.581  29.979  1.00  0.00    -0.248 NA
ATOM     40  C   UNL A   1      40.585  31.177  30.147  1.00  0.00     0.031 C 
ATOM     41  C   UNL A   1      39.416  26.728  28.094  1.00  0.00     0.029 A 
ATOM     42  N   UNL A   1      41.517  27.033  28.801  1.00  0.00    -0.354 N 
ATOM     43  C   UNL A   1      42.803  30.750  30.520  1.00  0.00     0.074 A 
ATOM     44  C   UNL A   1      41.726  31.716  30.552  1.00  0.00     0.031 C 
ATOM     45  C   UNL A   1      40.092  25.593  27.856  1.00  0.00     0.029 A 
ATOM     46  C   UNL A   1      41.474  25.757  28.293  1.00  0.00     0.049 A 
ATOM     47  H   UNL A   1      42.332  27.436  29.177  1.00  0.00     0.167 HD
ATOM     48  C   UNL A   1      44.058  30.998  30.967  1.00  0.00     0.031 A 
ATOM     49  C   UNL A   1      42.438  24.821  28.190  1.00  0.00     0.031 A 
ATOM     50  C   UNL A   1      45.131  30.040  30.961  1.00  0.00     0.049 A 
ATOM     51  C   UNL A   1      43.821  25.117  28.696  1.00  0.00     0.074 A 
ATOM     52  C   UNL A   1      46.419  30.185  31.451  1.00  0.00     0.029 A 
ATOM     53  N   UNL A   1      45.043  28.759  30.443  1.00  0.00    -0.354 N 
ATOM     54  N   UNL A   1      44.278  26.209  29.260  1.00  0.00    -0.248 NA
ATOM     55  C   UNL A   1      44.818  24.045  28.560  1.00  0.00     0.031 C 
ATOM     56  C   UNL A   1      47.121  29.003  31.191  1.00  0.00     0.029 A 
ATOM     57  C   UNL A   1      46.257  28.108  30.581  1.00  0.00     0.049 A 
ATOM     58  H   UNL A   1      44.235  28.368  30.036  1.00  0.00     0.167 HD
ATOM     59  C   UNL A   1      45.607  25.947  29.566  1.00  0.00     0.074 A 
ATOM     60  C   UNL A   1      45.879  24.590  29.139  1.00  0.00     0.031 C 
ATOM     61  C   UNL A   1      46.518  26.760  30.152  1.00  0.00     0.031 A 
BRANCH  48  62
ATOM     62  C   UNL A   1      44.342  32.375  31.500  1.00  0.00    -0.014 A 
ATOM     63  C   UNL A   1      44.194  32.670  32.865  1.00  0.00     0.009 A 
ATOM     64  C   UNL A   1      44.803  33.378  30.634  1.00  0.00     0.009 A 
ATOM     65  C   UNL A   1      44.467  33.952  33.344  1.00  0.00     0.001 A 
ATOM     66  C   UNL A   1      45.099  34.653  31.120  1.00  0.00     0.001 A 
ATOM     67  C   UNL A   1      44.922  34.941  32.473  1.00  0.00     0.000 A 
ENDBRANCH  48  62
BRANCH  49  68
ATOM     68  C   UNL A   1      42.122  23.497  27.597  1.00  0.00    -0.014 A 
ATOM     69  C   UNL A   1      42.378  23.248  26.240  1.00  0.00     0.009 A 
ATOM     70  C   UNL A   1      41.562  22.478  28.383  1.00  0.00     0.009 A 
ATOM     71  C   UNL A   1      42.059  22.010  25.676  1.00  0.00     0.001 A 
ATOM     72  C   UNL A   1      41.267  21.234  27.822  1.00  0.00     0.001 A 
ATOM     73  C   UNL A   1      41.508  21.003  26.469  1.00  0.00     0.000 A 
ENDBRANCH  49  68
BRANCH  61  74
ATOM     74  C   UNL A   1      47.889  26.197  30.392  1.00  0.00    -0.014 A 
ATOM     75  C   UNL A   1      48.254  25.682  31.645  1.00  0.00     0.009 A 
ATOM     76  C   UNL A   1      48.815  26.146  29.338  1.00  0.00     0.009 A 
ATOM     77  C   UNL A   1      49.531  25.152  31.846  1.00  0.00     0.001 A 
ATOM     78  C   UNL A   1      50.082  25.594  29.535  1.00  0.00     0.001 A 
ATOM     79  C   UNL A   1      50.441  25.106  30.789  1.00  0.00     0.000 A 
ENDBRANCH  61  74
ENDBRANCH  35  36
ENDBRANCH  27  30
ENDBRANCH  25  26
ENDBRANCH  24  25
ENDBRANCH   1  24
TORSDOF 14
ENDMDL
MODEL 2
REMARK VINA RESULT:     -10.3      1.537      3.972
REMARK SMILES Cc1nc(C[NH2+][C@@H](C(=O)NCCCNC(=O)c2ccc(-c3c4nc(c(-c5ccccc5)c5ccc([nH]5)c(-c5ccccc5)c5nc(c(-c6ccccc6)c6ccc3[nH]6)C=C5)C=C4)cc2)c2ccccc2)sc1C
REMARK SMILES IDX 11 1 10 2 8 3 9 4 7 6 6 7 5 10 4 11 1 12 2 13 3 14 72 15
REMARK SMILES IDX 71 16 73 17 65 18 66 19 70 20 67 21 69 22 68 23 12 24 13 25
REMARK SMILES IDX 14 26 15 27 16 29 17 30 18 31 64 32 19 33 63 34 20 35 21 36
REMARK SMILES IDX 22 37 57 38 23 39 62 40 56 41 58 42 24 43 61 44 55 45 54 46
REMARK SMILES IDX 25 48 47 49 32 50 46 51 33 52 36 53 45 54 59 55 34 56 35 57
REMARK SMILES IDX 44 59 60 60 37 61 26 62 27 63 31 64 28 65 30 66 29 67 48 68
REMARK SMILES IDX 49 69 53 70 50 71 52 72 51 73 38 74 39 75 43 76 40 77 42 78
REMARK SMILES IDX 41 79
REMARK H PARENT 10 5 6 8 6 9 14 28 58 47 36 58
REMARK Flexibility Score: inf
ROOT
ATOM      1  C   UNL A   1      33.612  26.748  25.268  1.00  0.00     0.118 C 
ENDROOT
BRANCH   1   2
ATOM      2  N   UNL A   1      33.101  26.691  23.904  1.00  0.00    -0.351 N 
ATOM      3  C   UNL A   1      31.847  26.767  23.364  1.00  0.00     0.283 C 
ATOM      4  O   UNL A   1      31.770  26.434  22.176  1.00  0.00    -0.268 OA
ATOM      5  H   UNL A   1      33.809  26.570  23.229  1.00  0.00     0.163 HD
BRANCH   3   6
ATOM      6  C   UNL A   1      30.591  27.195  24.203  1.00  0.00     0.304 C 
BRANCH   6   7
ATOM      7  N   UNL A   1      29.748  26.020  24.567  1.00  0.00    -0.326 N 
ATOM      8  H   UNL A   1      28.764  26.280  24.496  1.00  0.00     0.347 HD
ATOM      9  H   UNL A   1      29.963  25.255  23.926  1.00  0.00     0.347 HD
BRANCH   7  10
ATOM     10  C   UNL A   1      30.028  25.576  25.927  1.00  0.00     0.330 C 
BRANCH  10  11
ATOM     11  C   UNL A   1      30.828  24.313  26.077  1.00  0.00     0.148 A 
ATOM     12  C   UNL A   1      33.163  22.347  27.973  1.00  0.00     0.068 C 
ATOM     13  C   UNL A   1      32.330  22.885  26.868  1.00  0.00     0.052 A 
ATOM     14  N   UNL A   1      31.472  23.937  27.161  1.00  0.00    -0.240 NA
ATOM     15  C   UNL A   1      32.337  22.492  25.540  1.00  0.00     0.025 A 
ATOM     16  S   UNL A   1      31.150  23.367  24.673  1.00  0.00    -0.118 S 
ATOM     17  C   UNL A   1      33.186  21.486  24.846  1.00  0.00     0.058 C 
ENDBRANCH  10  11
ENDBRANCH   7  10
ENDBRANCH   6   7
BRANCH   6  18
ATOM     18  C   UNL A   1      29.730  28.203  23.433  1.00  0.00     0.019 A 
ATOM     19  C   UNL A   1      30.311  29.291  22.753  1.00  0.00     0.010 A 
ATOM     20  C   UNL A   1      28.335  28.058  23.372  1.00  0.00     0.010 A 
ATOM     21  C   UNL A   1      29.529  30.208  22.049  1.00  0.00     0.001 A 
ATOM     22  C   UNL A   1      27.551  28.977  22.664  1.00  0.00     0.001 A 
ATOM     23  C   UNL A   1      28.147  30.051  22.005  1.00  0.00     0.000 A 
ENDBRANCH   6  18
ENDBRANCH   3   6
ENDBRANCH   1   2
BRANCH   1  24
ATOM     24  C   UNL A   1      33.834  28.190  25.759  1.00  0.00     0.042 C 
BRANCH  24  25
ATOM     25  C   UNL A   1      33.434  28.456  27.211  1.00  0.00     0.118 C 
BRANCH  25  26
ATOM     26  N   UNL A   1      33.429  29.872  27.524  1.00  0.00    -0.352 N 
ATOM     27  C   UNL A   1      34.396  30.656  28.109  1.00  0.00     0.251 C 
ATOM     28  H   UNL A   1      32.604  30.349  27.278  1.00  0.00     0.163 HD
ATOM     29  O   UNL A   1      34.095  31.786  28.483  1.00  0.00    -0.269 OA
BRANCH  27  30
ATOM     30  C   UNL A   1      35.785  30.170  28.313  1.00  0.00     0.039 A 
ATOM     31  C   UNL A   1      36.139  29.692  29.581  1.00  0.00     0.014 A 
ATOM     32  C   UNL A   1      36.764  30.254  27.319  1.00  0.00     0.014 A 
ATOM     33  C   UNL A   1      37.447  29.270  29.839  1.00  0.00     0.010 A 
ATOM     34  C   UNL A   1      38.055  29.769  27.556  1.00  0.00     0.010 A 
ATOM     35  C   UNL A   1      38.416  29.285  28.823  1.00  0.00    -0.014 A 
BRANCH  35  36
ATOM     36  C   UNL A   1      39.806  28.819  29.084  1.00  0.00     0.031 A 
ATOM     37  C   UNL A   1      40.804  29.723  29.762  1.00  0.00     0.074 A 
ATOM     38  C   UNL A   1      40.190  27.590  28.689  1.00  0.00     0.049 A 
ATOM     39  N   UNL A   1      42.061  29.493  30.055  1.00  0.00    -0.248 NA
ATOM     40  C   UNL A   1      40.336  31.064  30.144  1.00  0.00     0.031 C 
ATOM     41  C   UNL A   1      39.342  26.618  27.994  1.00  0.00     0.029 A 
ATOM     42  N   UNL A   1      41.397  26.945  28.815  1.00  0.00    -0.354 N 
ATOM     43  C   UNL A   1      42.536  30.664  30.633  1.00  0.00     0.074 A 
ATOM     44  C   UNL A   1      41.446  31.615  30.615  1.00  0.00     0.031 C 
ATOM     45  C   UNL A   1      40.046  25.495  27.783  1.00  0.00     0.029 A 
ATOM     46  C   UNL A   1      41.400  25.674  28.296  1.00  0.00     0.049 A 
ATOM     47  H   UNL A   1      42.185  27.356  29.239  1.00  0.00     0.167 HD
ATOM     48  C   UNL A   1      43.762  30.925  31.149  1.00  0.00     0.031 A 
ATOM     49  C   UNL A   1      42.381  24.752  28.237  1.00  0.00     0.031 A 
ATOM     50  C   UNL A   1      44.847  29.981  31.194  1.00  0.00     0.049 A 
ATOM     51  C   UNL A   1      43.730  25.062  28.820  1.00  0.00     0.074 A 
ATOM     52  C   UNL A   1      46.104  30.139  31.753  1.00  0.00     0.029 A 
ATOM     53  N   UNL A   1      44.805  28.704  30.661  1.00  0.00    -0.354 N 
ATOM     54  N   UNL A   1      44.141  26.155  29.416  1.00  0.00    -0.248 NA
ATOM     55  C   UNL A   1      44.749  24.005  28.730  1.00  0.00     0.031 C 
ATOM     56  C   UNL A   1      46.836  28.970  31.523  1.00  0.00     0.029 A 
ATOM     57  C   UNL A   1      46.019  28.069  30.859  1.00  0.00     0.049 A 
ATOM     58  H   UNL A   1      44.025  28.306  30.208  1.00  0.00     0.167 HD
ATOM     59  C   UNL A   1      45.455  25.909  29.793  1.00  0.00     0.074 A 
ATOM     60  C   UNL A   1      45.769  24.560  29.369  1.00  0.00     0.031 C 
ATOM     61  C   UNL A   1      46.322  26.729  30.434  1.00  0.00     0.031 A 
BRANCH  48  62
ATOM     62  C   UNL A   1      43.997  32.300  31.708  1.00  0.00    -0.014 A 
ATOM     63  C   UNL A   1      44.493  33.337  30.903  1.00  0.00     0.009 A 
ATOM     64  C   UNL A   1      43.682  32.573  33.049  1.00  0.00     0.009 A 
ATOM     65  C   UNL A   1      44.702  34.610  31.437  1.00  0.00     0.001 A 
ATOM     66  C   UNL A   1      43.868  33.853  33.574  1.00  0.00     0.001 A 
ATOM     67  C   UNL A   1      44.386  34.867  32.771  1.00  0.00     0.000 A 
ENDBRANCH  48  62
BRANCH  49  68
ATOM     68  C   UNL A   1      42.116  23.429  27.617  1.00  0.00    -0.014 A 
ATOM     69  C   UNL A   1      41.465  22.422  28.346  1.00  0.00     0.009 A 
ATOM     70  C   UNL A   1      42.514  23.166  26.298  1.00  0.00     0.009 A 
ATOM     71  C   UNL A   1      41.236  21.169  27.771  1.00  0.00     0.001 A 
ATOM     72  C   UNL A   1      42.262  21.921  25.718  1.00  0.00     0.001 A 
ATOM     73  C   UNL A   1      41.631  20.922  26.457  1.00  0.00     0.000 A 
ENDBRANCH  49  68
BRANCH  61  74
ATOM     74  C   UNL A   1      47.686  26.182  30.742  1.00  0.00    -0.014 A 
ATOM     75  C   UNL A   1      48.703  26.177  29.774  1.00  0.00     0.009 A 
ATOM     76  C   UNL A   1      47.969  25.702  32.030  1.00  0.00     0.009 A 
ATOM     77  C   UNL A   1      49.968  25.675  30.083  1.00  0.00     0.001 A 
ATOM     78  C   UNL A   1      49.242  25.223  32.344  1.00  0.00     0.001 A 
ATOM     79  C   UNL A   1      50.237  25.202  31.369  1.00  0.00     0.000 A 
ENDBRANCH  61  74
ENDBRANCH  35  36
ENDBRANCH  27  30
ENDBRANCH  25  26
ENDBRANCH  24  25
ENDBRANCH   1  24
TORSDOF 14
ENDMDL
MODEL 3
REMARK VINA RESULT:     -10.2      2.406      7.768
REMARK SMILES Cc1nc(C[NH2+][C@@H](C(=O)NCCCNC(=O)c2ccc(-c3c4nc(c(-c5ccccc5)c5ccc([nH]5)c(-c5ccccc5)c5nc(c(-c6ccccc6)c6ccc3[nH]6)C=C5)C=C4)cc2)c2ccccc2)sc1C
REMARK SMILES IDX 11 1 10 2 8 3 9 4 7 6 6 7 5 10 4 11 1 12 2 13 3 14 72 15
REMARK SMILES IDX 71 16 73 17 65 18 66 19 70 20 67 21 69 22 68 23 12 24 13 25
REMARK SMILES IDX 14 26 15 27 16 29 17 30 18 31 64 32 19 33 63 34 20 35 21 36
REMARK SMILES IDX 22 37 57 38 23 39 62 40 56 41 58 42 24 43 61 44 55 45 54 46
REMARK SMILES IDX 25 48 47 49 32 50 46 51 33 52 36 53 45 54 59 55 34 56 35 57
REMARK SMILES IDX 44 59 60 60 37 61 26 62 27 63 31 64 28 65 30 66 29 67 48 68
REMARK SMILES IDX 49 69 53 70 50 71 52 72 51 73 38 74 39 75 43 76 40 77 42 78
REMARK SMILES IDX 41 79
REMARK H PARENT 10 5 6 8 6 9 14 28 58 47 36 58
REMARK Flexibility Score: inf
ROOT
ATOM      1  C   UNL A   1      34.746  24.490  25.757  1.00  0.00     0.118 C 
ENDROOT
BRANCH   1   2
ATOM      2  N   UNL A   1      34.484  25.467  24.707  1.00  0.00    -0.351 N 
ATOM      3  C   UNL A   1      33.510  26.409  24.520  1.00  0.00     0.283 C 
ATOM      4  O   UNL A   1      33.470  26.897  23.385  1.00  0.00    -0.268 OA
ATOM      5  H   UNL A   1      35.146  25.441  23.979  1.00  0.00     0.163 HD
BRANCH   3   6
ATOM      6  C   UNL A   1      32.489  26.803  25.645  1.00  0.00     0.304 C 
BRANCH   6   7
ATOM      7  N   UNL A   1      31.083  26.763  25.147  1.00  0.00    -0.326 N 
ATOM      8  H   UNL A   1      30.679  27.697  25.212  1.00  0.00     0.347 HD
ATOM      9  H   UNL A   1      31.091  26.443  24.178  1.00  0.00     0.347 HD
BRANCH   7  10
ATOM     10  C   UNL A   1      30.277  25.838  25.934  1.00  0.00     0.330 C 
BRANCH  10  11
ATOM     11  C   UNL A   1      30.824  24.452  26.123  1.00  0.00     0.148 A 
ATOM     12  C   UNL A   1      32.797  22.148  28.050  1.00  0.00     0.068 C 
ATOM     13  C   UNL A   1      32.048  22.793  26.942  1.00  0.00     0.052 A 
ATOM     14  N   UNL A   1      31.417  24.001  27.207  1.00  0.00    -0.240 NA
ATOM     15  C   UNL A   1      31.938  22.354  25.633  1.00  0.00     0.025 A 
ATOM     16  S   UNL A   1      30.915  23.406  24.755  1.00  0.00    -0.118 S 
ATOM     17  C   UNL A   1      32.556  21.176  24.966  1.00  0.00     0.058 C 
ENDBRANCH  10  11
ENDBRANCH   7  10
ENDBRANCH   6   7
BRANCH   6  18
ATOM     18  C   UNL A   1      32.782  28.206  26.189  1.00  0.00     0.019 A 
ATOM     19  C   UNL A   1      31.808  29.223  26.149  1.00  0.00     0.010 A 
ATOM     20  C   UNL A   1      34.028  28.510  26.758  1.00  0.00     0.010 A 
ATOM     21  C   UNL A   1      32.073  30.500  26.648  1.00  0.00     0.001 A 
ATOM     22  C   UNL A   1      34.292  29.790  27.260  1.00  0.00     0.001 A 
ATOM     23  C   UNL A   1      33.316  30.784  27.203  1.00  0.00     0.000 A 
ENDBRANCH   6  18
ENDBRANCH   3   6
ENDBRANCH   1   2
BRANCH   1  24
ATOM     24  C   UNL A   1      35.629  23.324  25.277  1.00  0.00     0.042 C 
BRANCH  24  25
ATOM     25  C   UNL A   1      37.049  23.707  24.858  1.00  0.00     0.118 C 
BRANCH  25  26
ATOM     26  N   UNL A   1      38.027  22.727  25.288  1.00  0.00    -0.352 N 
ATOM     27  C   UNL A   1      39.167  22.881  26.043  1.00  0.00     0.251 C 
ATOM     28  H   UNL A   1      37.847  21.804  24.995  1.00  0.00     0.163 HD
ATOM     29  O   UNL A   1      39.968  21.952  26.099  1.00  0.00    -0.269 OA
BRANCH  27  30
ATOM     30  C   UNL A   1      39.461  24.139  26.776  1.00  0.00     0.039 A 
ATOM     31  C   UNL A   1      40.257  25.102  26.144  1.00  0.00     0.014 A 
ATOM     32  C   UNL A   1      39.047  24.354  28.094  1.00  0.00     0.014 A 
ATOM     33  C   UNL A   1      40.604  26.282  26.811  1.00  0.00     0.010 A 
ATOM     34  C   UNL A   1      39.336  25.563  28.736  1.00  0.00     0.010 A 
ATOM     35  C   UNL A   1      40.131  26.535  28.109  1.00  0.00    -0.014 A 
BRANCH  35  36
ATOM     36  C   UNL A   1      40.481  27.797  28.818  1.00  0.00     0.031 A 
ATOM     37  C   UNL A   1      41.841  27.975  29.442  1.00  0.00     0.074 A 
ATOM     38  C   UNL A   1      39.567  28.781  28.929  1.00  0.00     0.049 A 
ATOM     39  N   UNL A   1      42.314  28.997  30.113  1.00  0.00    -0.248 NA
ATOM     40  C   UNL A   1      42.785  26.855  29.313  1.00  0.00     0.031 C 
ATOM     41  C   UNL A   1      38.202  28.736  28.403  1.00  0.00     0.029 A 
ATOM     42  N   UNL A   1      39.652  30.016  29.526  1.00  0.00    -0.354 N 
ATOM     43  C   UNL A   1      43.598  28.634  30.503  1.00  0.00     0.074 A 
ATOM     44  C   UNL A   1      43.815  27.285  30.028  1.00  0.00     0.031 C 
ATOM     45  C   UNL A   1      37.589  29.900  28.673  1.00  0.00     0.029 A 
ATOM     46  C   UNL A   1      38.502  30.760  29.419  1.00  0.00     0.049 A 
ATOM     47  H   UNL A   1      40.461  30.338  29.986  1.00  0.00     0.167 HD
ATOM     48  C   UNL A   1      44.522  29.359  31.179  1.00  0.00     0.031 A 
ATOM     49  C   UNL A   1      38.212  31.996  29.869  1.00  0.00     0.031 A 
ATOM     50  C   UNL A   1      44.326  30.709  31.636  1.00  0.00     0.049 A 
ATOM     51  C   UNL A   1      39.253  32.782  30.612  1.00  0.00     0.074 A 
ATOM     52  C   UNL A   1      45.229  31.542  32.276  1.00  0.00     0.029 A 
ATOM     53  N   UNL A   1      43.148  31.425  31.502  1.00  0.00    -0.354 N 
ATOM     54  N   UNL A   1      40.482  32.443  30.918  1.00  0.00    -0.248 NA
ATOM     55  C   UNL A   1      38.869  34.129  31.064  1.00  0.00     0.031 C 
ATOM     56  C   UNL A   1      44.583  32.749  32.564  1.00  0.00     0.029 A 
ATOM     57  C   UNL A   1      43.293  32.682  32.064  1.00  0.00     0.049 A 
ATOM     58  H   UNL A   1      42.329  31.089  31.070  1.00  0.00     0.167 HD
ATOM     59  C   UNL A   1      41.024  33.540  31.575  1.00  0.00     0.074 A 
ATOM     60  C   UNL A   1      39.996  34.560  31.613  1.00  0.00     0.031 C 
ATOM     61  C   UNL A   1      42.265  33.687  32.098  1.00  0.00     0.031 A 
BRANCH  48  62
ATOM     62  C   UNL A   1      45.840  28.698  31.471  1.00  0.00    -0.014 A 
ATOM     63  C   UNL A   1      46.034  27.952  32.645  1.00  0.00     0.009 A 
ATOM     64  C   UNL A   1      46.888  28.788  30.542  1.00  0.00     0.009 A 
ATOM     65  C   UNL A   1      47.263  27.341  32.898  1.00  0.00     0.001 A 
ATOM     66  C   UNL A   1      48.108  28.155  30.786  1.00  0.00     0.001 A 
ATOM     67  C   UNL A   1      48.297  27.440  31.968  1.00  0.00     0.000 A 
ENDBRANCH  48  62
BRANCH  49  68
ATOM     68  C   UNL A   1      36.871  32.582  29.608  1.00  0.00    -0.014 A 
ATOM     69  C   UNL A   1      35.854  32.477  30.568  1.00  0.00     0.009 A 
ATOM     70  C   UNL A   1      36.604  33.243  28.401  1.00  0.00     0.009 A 
ATOM     71  C   UNL A   1      34.586  33.007  30.314  1.00  0.00     0.001 A 
ATOM     72  C   UNL A   1      35.343  33.793  28.160  1.00  0.00     0.001 A 
ATOM     73  C   UNL A   1      34.334  33.668  29.113  1.00  0.00     0.000 A 
ENDBRANCH  49  68
BRANCH  61  74
ATOM     74  C   UNL A   1      42.591  35.008  32.733  1.00  0.00    -0.014 A 
ATOM     75  C   UNL A   1      43.337  35.980  32.048  1.00  0.00     0.009 A 
ATOM     76  C   UNL A   1      42.113  35.300  34.020  1.00  0.00     0.009 A 
ATOM     77  C   UNL A   1      43.622  37.206  32.651  1.00  0.00     0.001 A 
ATOM     78  C   UNL A   1      42.377  36.536  34.611  1.00  0.00     0.001 A 
ATOM     79  C   UNL A   1      43.138  37.484  33.930  1.00  0.00     0.000 A 
ENDBRANCH  61  74
ENDBRANCH  35  36
ENDBRANCH  27  30
ENDBRANCH  25  26
ENDBRANCH  24  25
ENDBRANCH   1  24
TORSDOF 14
ENDMDL
