MODEL 1
REMARK VINA RESULT:     -10.0      0.000      0.000
REMARK SMILES O=C(NCCCNC(=O)[C@H](CO)NC(=O)[C@H]1CC(=O)N(CC(F)(F)F)C1)c1ccc(-c2c3nc(c(-c4ccccc4)c4ccc([nH]4)c(-c4ccccc4)c4nc(c(-c5ccccc5)c5ccc2[nH]5)C=C4)C=C3)cc1
REMARK SMILES IDX 6 1 5 2 4 3 3 4 1 5 2 6 27 8 28 9 74 10 29 11 73 12 30 13
REMARK SMILES IDX 31 14 32 15 67 16 33 17 72 18 66 19 68 20 34 21 71 22 65 23
REMARK SMILES IDX 64 24 35 26 57 27 42 28 56 29 43 30 46 31 55 32 69 33 44 34
REMARK SMILES IDX 45 35 54 37 70 38 47 39 36 40 37 41 41 42 38 43 40 44 39 45
REMARK SMILES IDX 58 46 59 47 63 48 60 49 62 50 61 51 48 52 49 53 53 54 50 55
REMARK SMILES IDX 52 56 51 57 7 58 8 59 9 61 10 62 13 63 14 64 15 66 16 67
REMARK SMILES IDX 17 68 26 69 18 70 20 71 19 72 21 73 22 74 23 75 24 76 25 77
REMARK SMILES IDX 11 78 12 79
REMARK H PARENT 3 7 68 25 46 36 7 60 13 65 12 80
REMARK Flexibility Score: inf
ROOT
ATOM      1  C   UNL A   1      32.144  26.693  26.450  1.00  0.00     0.117 C 
ENDROOT
BRANCH   1   2
ATOM      2  C   UNL A   1      32.305  27.863  27.412  1.00  0.00     0.042 C 
BRANCH   2   3
ATOM      3  C   UNL A   1      33.651  28.552  27.290  1.00  0.00     0.118 C 
BRANCH   3   4
ATOM      4  N   UNL A   1      33.573  29.976  27.567  1.00  0.00    -0.352 N 
ATOM      5  O   UNL A   1      34.201  31.933  28.497  1.00  0.00    -0.269 OA
ATOM      6  C   UNL A   1      34.505  30.792  28.164  1.00  0.00     0.251 C 
ATOM      7  H   UNL A   1      32.737  30.418  27.289  1.00  0.00     0.163 HD
BRANCH   6   8
ATOM      8  C   UNL A   1      35.871  30.284  28.423  1.00  0.00     0.039 A 
ATOM      9  C   UNL A   1      36.858  30.368  27.440  1.00  0.00     0.014 A 
ATOM     10  C   UNL A   1      36.174  29.721  29.666  1.00  0.00     0.014 A 
ATOM     11  C   UNL A   1      38.080  29.741  27.630  1.00  0.00     0.010 A 
ATOM     12  C   UNL A   1      37.453  29.205  29.904  1.00  0.00     0.010 A 
ATOM     13  C   UNL A   1      38.411  29.190  28.880  1.00  0.00    -0.014 A 
BRANCH  13  14
ATOM     14  C   UNL A   1      39.800  28.710  29.098  1.00  0.00     0.031 A 
ATOM     15  C   UNL A   1      40.237  27.331  28.691  1.00  0.00     0.074 A 
ATOM     16  C   UNL A   1      40.689  29.568  29.639  1.00  0.00     0.049 A 
ATOM     17  N   UNL A   1      41.426  26.789  28.780  1.00  0.00    -0.248 NA
ATOM     18  C   UNL A   1      39.215  26.441  28.118  1.00  0.00     0.031 C 
ATOM     19  C   UNL A   1      40.380  30.931  30.089  1.00  0.00     0.029 A 
ATOM     20  N   UNL A   1      42.034  29.444  29.873  1.00  0.00    -0.354 N 
ATOM     21  C   UNL A   1      41.297  25.497  28.286  1.00  0.00     0.074 A 
ATOM     22  C   UNL A   1      39.904  25.323  27.931  1.00  0.00     0.031 C 
ATOM     23  C   UNL A   1      41.510  31.534  30.479  1.00  0.00     0.029 A 
ATOM     24  C   UNL A   1      42.607  30.580  30.389  1.00  0.00     0.049 A 
ATOM     25  H   UNL A   1      42.540  28.620  29.689  1.00  0.00     0.167 HD
ATOM     26  C   UNL A   1      42.253  24.548  28.136  1.00  0.00     0.031 A 
ATOM     27  C   UNL A   1      43.871  30.830  30.773  1.00  0.00     0.031 A 
ATOM     28  C   UNL A   1      43.635  24.722  28.505  1.00  0.00     0.049 A 
ATOM     29  C   UNL A   1      44.895  29.745  30.633  1.00  0.00     0.074 A 
ATOM     30  C   UNL A   1      44.679  23.819  28.388  1.00  0.00     0.029 A 
ATOM     31  N   UNL A   1      44.166  25.874  29.064  1.00  0.00    -0.354 N 
ATOM     32  N   UNL A   1      44.756  28.538  30.141  1.00  0.00    -0.248 NA
ATOM     33  C   UNL A   1      46.251  30.058  31.099  1.00  0.00     0.031 C 
ATOM     34  C   UNL A   1      45.830  24.407  28.924  1.00  0.00     0.029 A 
ATOM     35  C   UNL A   1      45.518  25.699  29.315  1.00  0.00     0.049 A 
ATOM     36  H   UNL A   1      43.659  26.696  29.254  1.00  0.00     0.167 HD
ATOM     37  C   UNL A   1      46.011  27.952  30.223  1.00  0.00     0.074 A 
ATOM     38  C   UNL A   1      46.902  28.950  30.780  1.00  0.00     0.031 C 
ATOM     39  C   UNL A   1      46.390  26.698  29.876  1.00  0.00     0.031 A 
BRANCH  26  40
ATOM     40  C   UNL A   1      41.834  23.222  27.557  1.00  0.00    -0.014 A 
ATOM     41  C   UNL A   1      41.252  22.230  28.360  1.00  0.00     0.009 A 
ATOM     42  C   UNL A   1      41.970  22.984  26.180  1.00  0.00     0.009 A 
ATOM     43  C   UNL A   1      40.840  21.017  27.802  1.00  0.00     0.001 A 
ATOM     44  C   UNL A   1      41.532  21.783  25.620  1.00  0.00     0.001 A 
ATOM     45  C   UNL A   1      40.975  20.797  26.432  1.00  0.00     0.000 A 
ENDBRANCH  26  40
BRANCH  27  46
ATOM     46  C   UNL A   1      44.224  32.149  31.361  1.00  0.00    -0.014 A 
ATOM     47  C   UNL A   1      44.096  32.383  32.738  1.00  0.00     0.009 A 
ATOM     48  C   UNL A   1      44.688  33.188  30.537  1.00  0.00     0.009 A 
ATOM     49  C   UNL A   1      44.392  33.640  33.271  1.00  0.00     0.001 A 
ATOM     50  C   UNL A   1      45.020  34.430  31.077  1.00  0.00     0.001 A 
ATOM     51  C   UNL A   1      44.857  34.660  32.442  1.00  0.00     0.000 A 
ENDBRANCH  27  46
BRANCH  39  52
ATOM     52  C   UNL A   1      47.842  26.357  30.061  1.00  0.00    -0.014 A 
ATOM     53  C   UNL A   1      48.768  26.511  29.016  1.00  0.00     0.009 A 
ATOM     54  C   UNL A   1      48.290  25.875  31.300  1.00  0.00     0.009 A 
ATOM     55  C   UNL A   1      50.104  26.146  29.197  1.00  0.00     0.001 A 
ATOM     56  C   UNL A   1      49.631  25.543  31.489  1.00  0.00     0.001 A 
ATOM     57  C   UNL A   1      50.534  25.665  30.433  1.00  0.00     0.000 A 
ENDBRANCH  39  52
ENDBRANCH  13  14
ENDBRANCH   6   8
ENDBRANCH   3   4
ENDBRANCH   2   3
ENDBRANCH   1   2
BRANCH   1  58
ATOM     58  N   UNL A   1      31.074  26.941  25.489  1.00  0.00    -0.354 N 
ATOM     59  C   UNL A   1      31.154  27.501  24.242  1.00  0.00     0.244 C 
ATOM     60  H   UNL A   1      30.172  26.668  25.775  1.00  0.00     0.163 HD
ATOM     61  O   UNL A   1      30.120  27.867  23.682  1.00  0.00    -0.273 OA
BRANCH  59  62
ATOM     62  C   UNL A   1      32.531  27.639  23.582  1.00  0.00     0.197 C 
BRANCH  62  63
ATOM     63  N   UNL A   1      32.661  26.647  22.514  1.00  0.00    -0.342 N 
ATOM     64  C   UNL A   1      33.250  25.429  22.498  1.00  0.00     0.226 C 
ATOM     65  H   UNL A   1      32.248  26.911  21.661  1.00  0.00     0.164 HD
ATOM     66  O   UNL A   1      33.666  25.029  21.406  1.00  0.00    -0.275 OA
BRANCH  64  67
ATOM     67  C   UNL A   1      33.233  24.468  23.672  1.00  0.00     0.107 C 
ATOM     68  C   UNL A   1      33.046  22.962  23.516  1.00  0.00     0.115 C 
ATOM     69  C   UNL A   1      34.543  24.658  24.425  1.00  0.00     0.133 C 
ATOM     70  C   UNL A   1      34.138  22.348  24.363  1.00  0.00     0.223 C 
ATOM     71  N   UNL A   1      34.883  23.358  24.929  1.00  0.00    -0.333 N 
ATOM     72  O   UNL A   1      34.303  21.153  24.531  1.00  0.00    -0.275 OA
BRANCH  71  73
ATOM     73  C   UNL A   1      35.941  23.162  25.929  1.00  0.00     0.234 C 
BRANCH  73  74
ATOM     74  C   UNL A   1      37.358  22.983  25.384  1.00  0.00     0.406 C 
ATOM     75  F   UNL A   1      38.024  22.017  26.060  1.00  0.00    -0.169 F 
ATOM     76  F   UNL A   1      37.328  22.614  24.084  1.00  0.00    -0.169 F 
ATOM     77  F   UNL A   1      38.078  24.122  25.474  1.00  0.00    -0.169 F 
ENDBRANCH  73  74
ENDBRANCH  71  73
ENDBRANCH  64  67
ENDBRANCH  62  63
BRANCH  62  78
ATOM     78  C   UNL A   1      32.806  29.032  22.983  1.00  0.00     0.191 C 
BRANCH  78  79
ATOM     79  O   UNL A   1      31.814  29.526  22.102  1.00  0.00    -0.394 OA
ATOM     80  H   UNL A   1      30.988  29.668  22.591  1.00  0.00     0.210 HD
ENDBRANCH  78  79
ENDBRANCH  62  78
ENDBRANCH  59  62
ENDBRANCH   1  58
TORSDOF 16
ENDMDL
MODEL 2
REMARK VINA RESULT:     -10.0      2.278      7.681
REMARK SMILES O=C(NCCCNC(=O)[C@H](CO)NC(=O)[C@H]1CC(=O)N(CC(F)(F)F)C1)c1ccc(-c2c3nc(c(-c4ccccc4)c4ccc([nH]4)c(-c4ccccc4)c4nc(c(-c5ccccc5)c5ccc2[nH]5)C=C4)C=C3)cc1
REMARK SMILES IDX 6 1 5 2 4 3 3 4 1 5 2 6 27 8 28 9 74 10 29 11 73 12 30 13
REMARK SMILES IDX 31 14 32 15 67 16 33 17 72 18 66 19 68 20 34 21 71 22 65 23
REMARK SMILES IDX 64 24 35 26 57 27 42 28 56 29 43 30 46 31 55 32 69 33 44 34
REMARK SMILES IDX 45 35 54 37 70 38 47 39 36 40 37 41 41 42 38 43 40 44 39 45
REMARK SMILES IDX 58 46 59 47 63 48 60 49 62 50 61 51 48 52 49 53 53 54 50 55
REMARK SMILES IDX 52 56 51 57 7 58 8 59 9 61 10 62 13 63 14 64 15 66 16 67
REMARK SMILES IDX 17 68 26 69 18 70 20 71 19 72 21 73 22 74 23 75 24 76 25 77
REMARK SMILES IDX 11 78 12 79
REMARK H PARENT 3 7 68 25 46 36 7 60 13 65 12 80
REMARK Flexibility Score: inf
ROOT
ATOM      1  C   UNL A   1      36.168  20.463  25.031  1.00  0.00     0.117 C 
ENDROOT
BRANCH   1   2
ATOM      2  C   UNL A   1      37.442  19.654  24.833  1.00  0.00     0.042 C 
BRANCH   2   3
ATOM      3  C   UNL A   1      38.641  20.246  25.551  1.00  0.00     0.118 C 
BRANCH   3   4
ATOM      4  N   UNL A   1      39.743  19.306  25.661  1.00  0.00    -0.352 N 
ATOM      5  O   UNL A   1      41.897  18.670  25.875  1.00  0.00    -0.269 OA
ATOM      6  C   UNL A   1      41.048  19.545  26.021  1.00  0.00     0.251 C 
ATOM      7  H   UNL A   1      39.525  18.369  25.448  1.00  0.00     0.163 HD
BRANCH   6   8
ATOM      8  C   UNL A   1      41.432  20.866  26.567  1.00  0.00     0.039 A 
ATOM      9  C   UNL A   1      41.230  21.164  27.915  1.00  0.00     0.014 A 
ATOM     10  C   UNL A   1      42.008  21.820  25.723  1.00  0.00     0.014 A 
ATOM     11  C   UNL A   1      41.436  22.455  28.378  1.00  0.00     0.010 A 
ATOM     12  C   UNL A   1      42.340  23.084  26.224  1.00  0.00     0.010 A 
ATOM     13  C   UNL A   1      42.035  23.420  27.552  1.00  0.00    -0.014 A 
BRANCH  13  14
ATOM     14  C   UNL A   1      42.420  24.725  28.149  1.00  0.00     0.031 A 
ATOM     15  C   UNL A   1      43.842  25.042  28.518  1.00  0.00     0.074 A 
ATOM     16  C   UNL A   1      41.457  25.655  28.314  1.00  0.00     0.049 A 
ATOM     17  N   UNL A   1      44.334  26.153  29.007  1.00  0.00    -0.248 NA
ATOM     18  C   UNL A   1      44.843  23.980  28.323  1.00  0.00     0.031 C 
ATOM     19  C   UNL A   1      40.035  25.459  28.007  1.00  0.00     0.029 A 
ATOM     20  N   UNL A   1      41.522  26.953  28.748  1.00  0.00    -0.354 N 
ATOM     21  C   UNL A   1      45.692  25.925  29.188  1.00  0.00     0.074 A 
ATOM     22  C   UNL A   1      45.943  24.556  28.788  1.00  0.00     0.031 C 
ATOM     23  C   UNL A   1      39.380  26.611  28.195  1.00  0.00     0.029 A 
ATOM     24  C   UNL A   1      40.312  27.602  28.718  1.00  0.00     0.049 A 
ATOM     25  H   UNL A   1      42.356  27.380  29.050  1.00  0.00     0.167 HD
ATOM     26  C   UNL A   1      46.642  26.781  29.638  1.00  0.00     0.031 A 
ATOM     27  C   UNL A   1      39.974  28.849  29.089  1.00  0.00     0.031 A 
ATOM     28  C   UNL A   1      46.384  28.138  30.048  1.00  0.00     0.049 A 
ATOM     29  C   UNL A   1      41.041  29.756  29.622  1.00  0.00     0.074 A 
ATOM     30  C   UNL A   1      47.282  29.084  30.516  1.00  0.00     0.029 A 
ATOM     31  N   UNL A   1      45.137  28.743  30.042  1.00  0.00    -0.354 N 
ATOM     32  N   UNL A   1      42.324  29.528  29.762  1.00  0.00    -0.248 NA
ATOM     33  C   UNL A   1      40.613  31.095  30.046  1.00  0.00     0.031 C 
ATOM     34  C   UNL A   1      46.569  30.243  30.840  1.00  0.00     0.029 A 
ATOM     35  C   UNL A   1      45.238  30.042  30.515  1.00  0.00     0.049 A 
ATOM     36  H   UNL A   1      44.301  28.314  29.746  1.00  0.00     0.167 HD
ATOM     37  C   UNL A   1      42.860  30.701  30.275  1.00  0.00     0.074 A 
ATOM     38  C   UNL A   1      41.768  31.645  30.388  1.00  0.00     0.031 C 
ATOM     39  C   UNL A   1      44.141  30.968  30.628  1.00  0.00     0.031 A 
BRANCH  26  40
ATOM     40  C   UNL A   1      48.056  26.270  29.725  1.00  0.00    -0.014 A 
ATOM     41  C   UNL A   1      48.944  26.400  28.646  1.00  0.00     0.009 A 
ATOM     42  C   UNL A   1      48.524  25.704  30.922  1.00  0.00     0.009 A 
ATOM     43  C   UNL A   1      50.262  25.949  28.755  1.00  0.00     0.001 A 
ATOM     44  C   UNL A   1      49.848  25.279  31.037  1.00  0.00     0.001 A 
ATOM     45  C   UNL A   1      50.715  25.394  29.951  1.00  0.00     0.000 A 
ENDBRANCH  26  40
BRANCH  27  46
ATOM     46  C   UNL A   1      38.558  29.293  29.005  1.00  0.00    -0.014 A 
ATOM     47  C   UNL A   1      37.699  29.179  30.108  1.00  0.00     0.009 A 
ATOM     48  C   UNL A   1      38.056  29.831  27.808  1.00  0.00     0.009 A 
ATOM     49  C   UNL A   1      36.360  29.563  30.003  1.00  0.00     0.001 A 
ATOM     50  C   UNL A   1      36.729  30.249  27.718  1.00  0.00     0.001 A 
ATOM     51  C   UNL A   1      35.877  30.100  28.811  1.00  0.00     0.000 A 
ENDBRANCH  27  46
BRANCH  39  52
ATOM     52  C   UNL A   1      44.425  32.353  31.138  1.00  0.00    -0.014 A 
ATOM     53  C   UNL A   1      44.348  32.659  32.507  1.00  0.00     0.009 A 
ATOM     54  C   UNL A   1      44.777  33.367  30.234  1.00  0.00     0.009 A 
ATOM     55  C   UNL A   1      44.573  33.963  32.952  1.00  0.00     0.001 A 
ATOM     56  C   UNL A   1      45.035  34.661  30.686  1.00  0.00     0.001 A 
ATOM     57  C   UNL A   1      44.919  34.961  32.042  1.00  0.00     0.000 A 
ENDBRANCH  39  52
ENDBRANCH  13  14
ENDBRANCH   6   8
ENDBRANCH   3   4
ENDBRANCH   2   3
ENDBRANCH   1   2
BRANCH   1  58
ATOM     58  N   UNL A   1      34.982  19.624  24.898  1.00  0.00    -0.354 N 
ATOM     59  C   UNL A   1      33.727  19.827  25.406  1.00  0.00     0.244 C 
ATOM     60  H   UNL A   1      35.099  18.800  24.371  1.00  0.00     0.163 HD
ATOM     61  O   UNL A   1      32.925  18.892  25.412  1.00  0.00    -0.273 OA
BRANCH  59  62
ATOM     62  C   UNL A   1      33.362  21.217  25.938  1.00  0.00     0.197 C 
BRANCH  62  63
ATOM     63  N   UNL A   1      31.914  21.409  25.848  1.00  0.00    -0.342 N 
ATOM     64  C   UNL A   1      31.159  22.529  25.922  1.00  0.00     0.226 C 
ATOM     65  H   UNL A   1      31.401  20.581  25.707  1.00  0.00     0.164 HD
ATOM     66  O   UNL A   1      29.999  22.391  26.321  1.00  0.00    -0.275 OA
BRANCH  64  67
ATOM     67  C   UNL A   1      31.582  23.871  25.352  1.00  0.00     0.107 C 
ATOM     68  C   UNL A   1      30.747  24.651  24.342  1.00  0.00     0.115 C 
ATOM     69  C   UNL A   1      31.805  24.807  26.532  1.00  0.00     0.133 C 
ATOM     70  C   UNL A   1      30.703  26.061  24.884  1.00  0.00     0.223 C 
ATOM     71  N   UNL A   1      31.404  26.105  26.068  1.00  0.00    -0.333 N 
ATOM     72  O   UNL A   1      30.157  27.003  24.337  1.00  0.00    -0.275 OA
BRANCH  71  73
ATOM     73  C   UNL A   1      31.708  27.330  26.820  1.00  0.00     0.234 C 
BRANCH  73  74
ATOM     74  C   UNL A   1      33.079  27.955  26.563  1.00  0.00     0.406 C 
ATOM     75  F   UNL A   1      33.955  27.035  26.093  1.00  0.00    -0.169 F 
ATOM     76  F   UNL A   1      32.994  28.935  25.636  1.00  0.00    -0.169 F 
ATOM     77  F   UNL A   1      33.606  28.490  27.685  1.00  0.00    -0.169 F 
ENDBRANCH  73  74
ENDBRANCH  71  73
ENDBRANCH  64  67
ENDBRANCH  62  63
BRANCH  62  78
ATOM     78  C   UNL A   1      33.791  21.466  27.397  1.00  0.00     0.191 C 
BRANCH  78  79
ATOM     79  O   UNL A   1      34.709  22.526  27.593  1.00  0.00    -0.394 OA
ATOM     80  H   UNL A   1      35.355  22.533  26.868  1.00  0.00     0.210 HD
ENDBRANCH  78  79
ENDBRANCH  62  78
ENDBRANCH  59  62
ENDBRANCH   1  58
TORSDOF 16
ENDMDL
MODEL 3
REMARK VINA RESULT:     -10.0      4.226      9.133
REMARK SMILES O=C(NCCCNC(=O)[C@H](CO)NC(=O)[C@H]1CC(=O)N(CC(F)(F)F)C1)c1ccc(-c2c3nc(c(-c4ccccc4)c4ccc([nH]4)c(-c4ccccc4)c4nc(c(-c5ccccc5)c5ccc2[nH]5)C=C4)C=C3)cc1
REMARK SMILES IDX 6 1 5 2 4 3 3 4 1 5 2 6 27 8 28 9 74 10 29 11 73 12 30 13
REMARK SMILES IDX 31 14 32 15 67 16 33 17 72 18 66 19 68 20 34 21 71 22 65 23
REMARK SMILES IDX 64 24 35 26 57 27 42 28 56 29 43 30 46 31 55 32 69 33 44 34
REMARK SMILES IDX 45 35 54 37 70 38 47 39 36 40 37 41 41 42 38 43 40 44 39 45
REMARK SMILES IDX 58 46 59 47 63 48 60 49 62 50 61 51 48 52 49 53 53 54 50 55
REMARK SMILES IDX 52 56 51 57 7 58 8 59 9 61 10 62 13 63 14 64 15 66 16 67
REMARK SMILES IDX 17 68 26 69 18 70 20 71 19 72 21 73 22 74 23 75 24 76 25 77
REMARK SMILES IDX 11 78 12 79
REMARK H PARENT 3 7 68 25 46 36 7 60 13 65 12 80
REMARK Flexibility Score: inf
ROOT
ATOM      1  C   UNL A   1      33.362  34.681  29.303  1.00  0.00     0.117 C 
ENDROOT
BRANCH   1   2
ATOM      2  C   UNL A   1      34.441  34.405  28.265  1.00  0.00     0.042 C 
BRANCH   2   3
ATOM      3  C   UNL A   1      35.148  33.080  28.481  1.00  0.00     0.118 C 
BRANCH   3   4
ATOM      4  N   UNL A   1      34.298  31.941  28.180  1.00  0.00    -0.352 N 
ATOM      5  O   UNL A   1      33.831  29.829  27.539  1.00  0.00    -0.269 OA
ATOM      6  C   UNL A   1      34.653  30.628  27.977  1.00  0.00     0.251 C 
ATOM      7  H   UNL A   1      33.335  32.137  28.111  1.00  0.00     0.163 HD
BRANCH   6   8
ATOM      8  C   UNL A   1      36.035  30.186  28.268  1.00  0.00     0.039 A 
ATOM      9  C   UNL A   1      37.040  30.318  27.308  1.00  0.00     0.014 A 
ATOM     10  C   UNL A   1      36.336  29.637  29.518  1.00  0.00     0.014 A 
ATOM     11  C   UNL A   1      38.286  29.750  27.528  1.00  0.00     0.010 A 
ATOM     12  C   UNL A   1      37.632  29.183  29.786  1.00  0.00     0.010 A 
ATOM     13  C   UNL A   1      38.614  29.215  28.784  1.00  0.00    -0.014 A 
BRANCH  13  14
ATOM     14  C   UNL A   1      40.018  28.801  29.035  1.00  0.00     0.031 A 
ATOM     15  C   UNL A   1      40.995  29.695  29.748  1.00  0.00     0.074 A 
ATOM     16  C   UNL A   1      40.395  27.567  28.644  1.00  0.00     0.049 A 
ATOM     17  N   UNL A   1      42.240  29.452  30.076  1.00  0.00    -0.248 NA
ATOM     18  C   UNL A   1      40.523  31.033  30.139  1.00  0.00     0.031 C 
ATOM     19  C   UNL A   1      39.541  26.612  27.928  1.00  0.00     0.029 A 
ATOM     20  N   UNL A   1      41.573  26.887  28.815  1.00  0.00    -0.354 N 
ATOM     21  C   UNL A   1      42.703  30.603  30.699  1.00  0.00     0.074 A 
ATOM     22  C   UNL A   1      41.617  31.560  30.674  1.00  0.00     0.031 C 
ATOM     23  C   UNL A   1      40.196  25.454  27.784  1.00  0.00     0.029 A 
ATOM     24  C   UNL A   1      41.544  25.607  28.317  1.00  0.00     0.049 A 
ATOM     25  H   UNL A   1      42.363  27.278  29.253  1.00  0.00     0.167 HD
ATOM     26  C   UNL A   1      43.921  30.837  31.249  1.00  0.00     0.031 A 
ATOM     27  C   UNL A   1      42.498  24.662  28.268  1.00  0.00     0.031 A 
ATOM     28  C   UNL A   1      45.003  29.886  31.258  1.00  0.00     0.049 A 
ATOM     29  C   UNL A   1      43.846  24.968  28.847  1.00  0.00     0.074 A 
ATOM     30  C   UNL A   1      46.273  30.029  31.794  1.00  0.00     0.029 A 
ATOM     31  N   UNL A   1      44.947  28.616  30.706  1.00  0.00    -0.354 N 
ATOM     32  N   UNL A   1      44.256  26.054  29.454  1.00  0.00    -0.248 NA
ATOM     33  C   UNL A   1      44.862  23.914  28.737  1.00  0.00     0.031 C 
ATOM     34  C   UNL A   1      47.000  28.866  31.519  1.00  0.00     0.029 A 
ATOM     35  C   UNL A   1      46.163  27.972  30.870  1.00  0.00     0.049 A 
ATOM     36  H   UNL A   1      44.158  28.227  30.261  1.00  0.00     0.167 HD
ATOM     37  C   UNL A   1      45.574  25.809  29.812  1.00  0.00     0.074 A 
ATOM     38  C   UNL A   1      45.880  24.459  29.385  1.00  0.00     0.031 C 
ATOM     39  C   UNL A   1      46.454  26.632  30.433  1.00  0.00     0.031 A 
BRANCH  26  40
ATOM     40  C   UNL A   1      44.155  32.185  31.877  1.00  0.00    -0.014 A 
ATOM     41  C   UNL A   1      43.896  32.408  33.238  1.00  0.00     0.009 A 
ATOM     42  C   UNL A   1      44.696  33.230  31.112  1.00  0.00     0.009 A 
ATOM     43  C   UNL A   1      44.148  33.657  33.813  1.00  0.00     0.001 A 
ATOM     44  C   UNL A   1      44.974  34.468  31.694  1.00  0.00     0.001 A 
ATOM     45  C   UNL A   1      44.692  34.684  33.042  1.00  0.00     0.000 A 
ENDBRANCH  26  40
BRANCH  27  46
ATOM     46  C   UNL A   1      42.220  23.356  27.613  1.00  0.00    -0.014 A 
ATOM     47  C   UNL A   1      42.571  23.131  26.274  1.00  0.00     0.009 A 
ATOM     48  C   UNL A   1      41.592  22.326  28.332  1.00  0.00     0.009 A 
ATOM     49  C   UNL A   1      42.267  21.915  25.659  1.00  0.00     0.001 A 
ATOM     50  C   UNL A   1      41.325  21.098  27.727  1.00  0.00     0.001 A 
ATOM     51  C   UNL A   1      41.648  20.898  26.387  1.00  0.00     0.000 A 
ENDBRANCH  27  46
BRANCH  39  52
ATOM     52  C   UNL A   1      47.820  26.070  30.713  1.00  0.00    -0.014 A 
ATOM     53  C   UNL A   1      48.168  25.595  31.988  1.00  0.00     0.009 A 
ATOM     54  C   UNL A   1      48.772  26.014  29.684  1.00  0.00     0.009 A 
ATOM     55  C   UNL A   1      49.457  25.118  32.237  1.00  0.00     0.001 A 
ATOM     56  C   UNL A   1      50.049  25.506  29.926  1.00  0.00     0.001 A 
ATOM     57  C   UNL A   1      50.394  25.071  31.205  1.00  0.00     0.000 A 
ENDBRANCH  39  52
ENDBRANCH  13  14
ENDBRANCH   6   8
ENDBRANCH   3   4
ENDBRANCH   2   3
ENDBRANCH   1   2
BRANCH   1  58
ATOM     58  N   UNL A   1      33.471  36.038  29.831  1.00  0.00    -0.354 N 
ATOM     59  C   UNL A   1      33.027  36.529  31.029  1.00  0.00     0.244 C 
ATOM     60  H   UNL A   1      33.926  36.687  29.247  1.00  0.00     0.163 HD
ATOM     61  O   UNL A   1      32.976  37.749  31.194  1.00  0.00    -0.273 OA
BRANCH  59  62
ATOM     62  C   UNL A   1      32.622  35.541  32.128  1.00  0.00     0.197 C 
BRANCH  62  63
ATOM     63  N   UNL A   1      33.624  35.561  33.195  1.00  0.00    -0.342 N 
ATOM     64  C   UNL A   1      34.583  34.668  33.531  1.00  0.00     0.226 C 
ATOM     65  H   UNL A   1      33.595  36.362  33.766  1.00  0.00     0.164 HD
ATOM     66  O   UNL A   1      34.939  34.655  34.714  1.00  0.00    -0.275 OA
BRANCH  64  67
ATOM     67  C   UNL A   1      35.375  33.859  32.520  1.00  0.00     0.107 C 
ATOM     68  C   UNL A   1      36.518  34.440  31.695  1.00  0.00     0.115 C 
ATOM     69  C   UNL A   1      35.951  32.660  33.260  1.00  0.00     0.133 C 
ATOM     70  C   UNL A   1      37.640  33.436  31.829  1.00  0.00     0.223 C 
ATOM     71  N   UNL A   1      37.221  32.406  32.641  1.00  0.00    -0.333 N 
ATOM     72  O   UNL A   1      38.723  33.521  31.279  1.00  0.00    -0.275 OA
BRANCH  71  73
ATOM     73  C   UNL A   1      37.978  31.172  32.891  1.00  0.00     0.234 C 
BRANCH  73  74
ATOM     74  C   UNL A   1      39.005  31.230  34.022  1.00  0.00     0.406 C 
ATOM     75  F   UNL A   1      39.023  32.453  34.602  1.00  0.00    -0.169 F 
ATOM     76  F   UNL A   1      38.706  30.333  34.987  1.00  0.00    -0.169 F 
ATOM     77  F   UNL A   1      40.253  30.964  33.580  1.00  0.00    -0.169 F 
ENDBRANCH  73  74
ENDBRANCH  71  73
ENDBRANCH  64  67
ENDBRANCH  62  63
BRANCH  62  78
ATOM     78  C   UNL A   1      31.243  35.826  32.756  1.00  0.00     0.191 C 
BRANCH  78  79
ATOM     79  O   UNL A   1      31.187  36.936  33.631  1.00  0.00    -0.394 OA
ATOM     80  H   UNL A   1      31.760  37.643  33.296  1.00  0.00     0.210 HD
ENDBRANCH  78  79
ENDBRANCH  62  78
ENDBRANCH  59  62
ENDBRANCH   1  58
TORSDOF 16
ENDMDL
