MODEL 1
REMARK VINA RESULT:     -12.5      0.000      0.000
REMARK SMILES Cc1c(CC(=O)NCCCNC(=O)c2ccc(-c3c4nc(c(-c5ccccc5)c5ccc([nH]5)c(-c5ccccc5)c5nc(c(-c6ccccc6)c6ccc3[nH]6)C=C5)C=C4)cc2)c2cc(O)ccc2n1C(=O)c1ccc(Cl)cc1
REMARK SMILES IDX 8 1 7 2 5 3 6 4 4 6 3 7 1 8 2 9 69 10 62 11 68 12 63 13
REMARK SMILES IDX 67 14 64 15 66 16 70 17 71 18 72 19 73 20 78 21 74 22 77 23
REMARK SMILES IDX 75 24 76 25 65 26 9 28 10 29 11 30 12 31 13 33 14 34 15 35
REMARK SMILES IDX 61 36 16 37 60 38 17 39 18 40 19 41 54 42 20 43 59 44 53 45
REMARK SMILES IDX 55 46 21 47 58 48 52 49 51 50 22 52 44 53 29 54 43 55 30 56
REMARK SMILES IDX 33 57 42 58 56 59 31 60 32 61 41 63 57 64 34 65 23 66 24 67
REMARK SMILES IDX 28 68 25 69 27 70 26 71 45 72 46 73 50 74 47 75 49 76 48 77
REMARK SMILES IDX 35 78 36 79 40 80 37 81 39 82 38 83
REMARK H PARENT 7 5 65 27 11 32 55 51 33 62
REMARK Flexibility Score: inf
ROOT
ATOM      1  C   UNL A   1      33.691  28.517  27.153  1.00  0.00     0.117 C 
ENDROOT
BRANCH   1   2
ATOM      2  N   UNL A   1      33.689  28.257  25.725  1.00  0.00    -0.356 N 
ATOM      3  C   UNL A   1      33.433  27.098  25.053  1.00  0.00     0.224 C 
ATOM      4  O   UNL A   1      33.498  27.119  23.821  1.00  0.00    -0.275 OA
ATOM      5  H   UNL A   1      33.903  29.032  25.157  1.00  0.00     0.163 HD
BRANCH   3   6
ATOM      6  C   UNL A   1      33.020  25.845  25.804  1.00  0.00     0.138 C 
BRANCH   6   7
ATOM      7  C   UNL A   1      33.346  24.574  25.074  1.00  0.00    -0.009 A 
ATOM      8  C   UNL A   1      31.024  24.011  24.056  1.00  0.00     0.065 C 
ATOM      9  C   UNL A   1      32.477  23.781  24.338  1.00  0.00     0.028 A 
ATOM     10  N   UNL A   1      33.164  22.640  23.902  1.00  0.00    -0.280 N 
ATOM     11  C   UNL A   1      34.640  23.987  24.972  1.00  0.00     0.008 A 
ATOM     12  C   UNL A   1      34.529  22.841  24.175  1.00  0.00     0.057 A 
ATOM     13  C   UNL A   1      35.907  24.358  25.479  1.00  0.00     0.056 A 
ATOM     14  C   UNL A   1      35.690  22.121  23.817  1.00  0.00     0.031 A 
ATOM     15  C   UNL A   1      37.026  23.591  25.176  1.00  0.00     0.116 A 
ATOM     16  C   UNL A   1      36.930  22.493  24.346  1.00  0.00     0.048 A 
BRANCH  10  17
ATOM     17  C   UNL A   1      32.567  21.490  23.308  1.00  0.00     0.262 C 
ATOM     18  O   UNL A   1      32.015  21.603  22.210  1.00  0.00    -0.268 OA
BRANCH  17  19
ATOM     19  C   UNL A   1      32.548  20.144  23.896  1.00  0.00     0.040 A 
ATOM     20  C   UNL A   1      32.692  19.962  25.276  1.00  0.00     0.015 A 
ATOM     21  C   UNL A   1      32.434  19.048  23.033  1.00  0.00     0.015 A 
ATOM     22  C   UNL A   1      32.822  18.666  25.781  1.00  0.00     0.021 A 
ATOM     23  C   UNL A   1      32.554  17.757  23.547  1.00  0.00     0.021 A 
ATOM     24  C   UNL A   1      32.771  17.572  24.913  1.00  0.00     0.041 A 
ATOM     25  Cl  UNL A   1      33.009  15.984  25.528  1.00  0.00    -0.084 Cl
ENDBRANCH  17  19
ENDBRANCH  10  17
BRANCH  15  26
ATOM     26  O   UNL A   1      38.221  23.972  25.713  1.00  0.00    -0.508 OA
ATOM     27  H   UNL A   1      38.903  24.292  25.157  1.00  0.00     0.293 HD
ENDBRANCH  15  26
ENDBRANCH   6   7
ENDBRANCH   3   6
ENDBRANCH   1   2
BRANCH   1  28
ATOM     28  C   UNL A   1      34.856  29.416  27.578  1.00  0.00     0.042 C 
BRANCH  28  29
ATOM     29  C   UNL A   1      34.547  30.908  27.450  1.00  0.00     0.118 C 
BRANCH  29  30
ATOM     30  N   UNL A   1      34.420  31.591  28.723  1.00  0.00    -0.352 N 
ATOM     31  C   UNL A   1      35.216  31.780  29.816  1.00  0.00     0.251 C 
ATOM     32  H   UNL A   1      33.543  32.027  28.824  1.00  0.00     0.163 HD
ATOM     33  O   UNL A   1      34.765  32.531  30.684  1.00  0.00    -0.269 OA
BRANCH  31  34
ATOM     34  C   UNL A   1      36.513  31.099  30.070  1.00  0.00     0.039 A 
ATOM     35  C   UNL A   1      37.770  31.564  29.687  1.00  0.00     0.014 A 
ATOM     36  C   UNL A   1      36.418  29.830  30.674  1.00  0.00     0.014 A 
ATOM     37  C   UNL A   1      38.879  30.725  29.770  1.00  0.00     0.010 A 
ATOM     38  C   UNL A   1      37.522  28.996  30.777  1.00  0.00     0.010 A 
ATOM     39  C   UNL A   1      38.736  29.422  30.254  1.00  0.00    -0.014 A 
BRANCH  39  40
ATOM     40  C   UNL A   1      39.903  28.546  30.241  1.00  0.00     0.031 A 
ATOM     41  C   UNL A   1      40.604  28.410  31.549  1.00  0.00     0.074 A 
ATOM     42  C   UNL A   1      40.273  27.844  29.151  1.00  0.00     0.049 A 
ATOM     43  N   UNL A   1      41.831  28.699  31.835  1.00  0.00    -0.248 NA
ATOM     44  C   UNL A   1      39.802  27.995  32.711  1.00  0.00     0.031 C 
ATOM     45  C   UNL A   1      39.542  27.662  27.892  1.00  0.00     0.029 A 
ATOM     46  N   UNL A   1      41.367  27.050  28.978  1.00  0.00    -0.354 N 
ATOM     47  C   UNL A   1      42.006  28.376  33.181  1.00  0.00     0.074 A 
ATOM     48  C   UNL A   1      40.700  28.050  33.694  1.00  0.00     0.031 C 
ATOM     49  C   UNL A   1      40.088  26.635  27.197  1.00  0.00     0.029 A 
ATOM     50  C   UNL A   1      41.297  26.206  27.876  1.00  0.00     0.049 A 
ATOM     51  H   UNL A   1      42.142  27.072  29.585  1.00  0.00     0.167 HD
ATOM     52  C   UNL A   1      43.238  28.248  33.745  1.00  0.00     0.031 A 
ATOM     53  C   UNL A   1      42.151  25.199  27.573  1.00  0.00     0.031 A 
ATOM     54  C   UNL A   1      44.258  28.869  32.947  1.00  0.00     0.049 A 
ATOM     55  C   UNL A   1      43.407  25.441  28.316  1.00  0.00     0.074 A 
ATOM     56  C   UNL A   1      44.573  30.169  32.613  1.00  0.00     0.029 A 
ATOM     57  N   UNL A   1      44.934  28.070  32.059  1.00  0.00    -0.354 N 
ATOM     58  N   UNL A   1      44.203  26.442  28.078  1.00  0.00    -0.248 NA
ATOM     59  C   UNL A   1      43.561  24.809  29.614  1.00  0.00     0.031 C 
ATOM     60  C   UNL A   1      45.034  30.099  31.267  1.00  0.00     0.029 A 
ATOM     61  C   UNL A   1      45.043  28.757  30.878  1.00  0.00     0.049 A 
ATOM     62  H   UNL A   1      45.280  27.165  32.238  1.00  0.00     0.167 HD
ATOM     63  C   UNL A   1      44.648  26.841  29.329  1.00  0.00     0.074 A 
ATOM     64  C   UNL A   1      44.303  25.738  30.222  1.00  0.00     0.031 C 
ATOM     65  C   UNL A   1      45.005  28.137  29.569  1.00  0.00     0.031 A 
BRANCH  52  66
ATOM     66  C   UNL A   1      43.564  27.287  34.859  1.00  0.00    -0.014 A 
ATOM     67  C   UNL A   1      43.675  27.679  36.207  1.00  0.00     0.009 A 
ATOM     68  C   UNL A   1      43.506  25.903  34.610  1.00  0.00     0.009 A 
ATOM     69  C   UNL A   1      43.712  26.750  37.250  1.00  0.00     0.001 A 
ATOM     70  C   UNL A   1      43.505  24.969  35.656  1.00  0.00     0.001 A 
ATOM     71  C   UNL A   1      43.603  25.394  36.976  1.00  0.00     0.000 A 
ENDBRANCH  52  66
BRANCH  53  72
ATOM     72  C   UNL A   1      41.831  23.865  27.018  1.00  0.00    -0.014 A 
ATOM     73  C   UNL A   1      40.940  23.024  27.708  1.00  0.00     0.009 A 
ATOM     74  C   UNL A   1      42.623  23.294  26.009  1.00  0.00     0.009 A 
ATOM     75  C   UNL A   1      40.872  21.654  27.433  1.00  0.00     0.001 A 
ATOM     76  C   UNL A   1      42.551  21.922  25.729  1.00  0.00     0.001 A 
ATOM     77  C   UNL A   1      41.688  21.099  26.452  1.00  0.00     0.000 A 
ENDBRANCH  53  72
BRANCH  65  78
ATOM     78  C   UNL A   1      45.119  29.080  28.389  1.00  0.00    -0.014 A 
ATOM     79  C   UNL A   1      46.403  29.427  27.943  1.00  0.00     0.009 A 
ATOM     80  C   UNL A   1      44.020  29.772  27.847  1.00  0.00     0.009 A 
ATOM     81  C   UNL A   1      46.591  30.449  27.010  1.00  0.00     0.001 A 
ATOM     82  C   UNL A   1      44.206  30.778  26.891  1.00  0.00     0.001 A 
ATOM     83  C   UNL A   1      45.493  31.125  26.485  1.00  0.00     0.000 A 
ENDBRANCH  65  78
ENDBRANCH  39  40
ENDBRANCH  31  34
ENDBRANCH  29  30
ENDBRANCH  28  29
ENDBRANCH   1  28
TORSDOF 14
ENDMDL
MODEL 2
REMARK VINA RESULT:     -12.4      3.777      9.250
REMARK SMILES Cc1c(CC(=O)NCCCNC(=O)c2ccc(-c3c4nc(c(-c5ccccc5)c5ccc([nH]5)c(-c5ccccc5)c5nc(c(-c6ccccc6)c6ccc3[nH]6)C=C5)C=C4)cc2)c2cc(O)ccc2n1C(=O)c1ccc(Cl)cc1
REMARK SMILES IDX 8 1 7 2 5 3 6 4 4 6 3 7 1 8 2 9 69 10 62 11 68 12 63 13
REMARK SMILES IDX 67 14 64 15 66 16 70 17 71 18 72 19 73 20 78 21 74 22 77 23
REMARK SMILES IDX 75 24 76 25 65 26 9 28 10 29 11 30 12 31 13 33 14 34 15 35
REMARK SMILES IDX 61 36 16 37 60 38 17 39 18 40 19 41 54 42 20 43 59 44 53 45
REMARK SMILES IDX 55 46 21 47 58 48 52 49 51 50 22 52 44 53 29 54 43 55 30 56
REMARK SMILES IDX 33 57 42 58 56 59 31 60 32 61 41 63 57 64 34 65 23 66 24 67
REMARK SMILES IDX 28 68 25 69 27 70 26 71 45 72 46 73 50 74 47 75 49 76 48 77
REMARK SMILES IDX 35 78 36 79 40 80 37 81 39 82 38 83
REMARK H PARENT 7 5 65 27 11 32 55 51 33 62
REMARK Flexibility Score: inf
ROOT
ATOM      1  C   UNL A   1      46.365  25.126  26.255  1.00  0.00     0.117 C 
ENDROOT
BRANCH   1   2
ATOM      2  N   UNL A   1      46.508  23.682  26.220  1.00  0.00    -0.356 N 
ATOM      3  C   UNL A   1      45.787  22.753  25.527  1.00  0.00     0.224 C 
ATOM      4  O   UNL A   1      46.095  21.566  25.663  1.00  0.00    -0.275 OA
ATOM      5  H   UNL A   1      47.233  23.318  26.777  1.00  0.00     0.163 HD
BRANCH   3   6
ATOM      6  C   UNL A   1      44.686  23.184  24.575  1.00  0.00     0.138 C 
BRANCH   6   7
ATOM      7  C   UNL A   1      43.364  23.409  25.250  1.00  0.00    -0.009 A 
ATOM      8  C   UNL A   1      42.864  21.010  26.109  1.00  0.00     0.065 C 
ATOM      9  C   UNL A   1      42.578  22.464  25.894  1.00  0.00     0.028 A 
ATOM     10  N   UNL A   1      41.383  23.072  26.303  1.00  0.00    -0.280 N 
ATOM     11  C   UNL A   1      42.709  24.667  25.389  1.00  0.00     0.008 A 
ATOM     12  C   UNL A   1      41.531  24.458  26.115  1.00  0.00     0.057 A 
ATOM     13  C   UNL A   1      43.044  25.976  24.972  1.00  0.00     0.056 A 
ATOM     14  C   UNL A   1      40.736  25.562  26.495  1.00  0.00     0.031 A 
ATOM     15  C   UNL A   1      42.208  27.039  25.292  1.00  0.00     0.116 A 
ATOM     16  C   UNL A   1      41.073  26.846  26.054  1.00  0.00     0.048 A 
BRANCH  10  17
ATOM     17  C   UNL A   1      40.234  22.389  26.800  1.00  0.00     0.262 C 
ATOM     18  O   UNL A   1      40.302  21.825  27.895  1.00  0.00    -0.268 OA
BRANCH  17  19
ATOM     19  C   UNL A   1      38.940  22.294  26.111  1.00  0.00     0.040 A 
ATOM     20  C   UNL A   1      38.048  23.373  26.106  1.00  0.00     0.015 A 
ATOM     21  C   UNL A   1      38.604  21.079  25.504  1.00  0.00     0.015 A 
ATOM     22  C   UNL A   1      36.769  23.195  25.573  1.00  0.00     0.021 A 
ATOM     23  C   UNL A   1      37.329  20.913  24.965  1.00  0.00     0.021 A 
ATOM     24  C   UNL A   1      36.410  21.962  25.022  1.00  0.00     0.041 A 
ATOM     25  Cl  UNL A   1      34.810  21.724  24.439  1.00  0.00    -0.084 Cl
ENDBRANCH  17  19
ENDBRANCH  10  17
BRANCH  15  26
ATOM     26  O   UNL A   1      42.557  28.279  24.842  1.00  0.00    -0.508 OA
ATOM     27  H   UNL A   1      43.382  28.651  25.086  1.00  0.00     0.293 HD
ENDBRANCH  15  26
ENDBRANCH   6   7
ENDBRANCH   3   6
ENDBRANCH   1   2
BRANCH   1  28
ATOM     28  C   UNL A   1      45.597  25.604  27.491  1.00  0.00     0.042 C 
BRANCH  28  29
ATOM     29  C   UNL A   1      46.502  25.905  28.687  1.00  0.00     0.118 C 
BRANCH  29  30
ATOM     30  N   UNL A   1      46.078  25.265  29.917  1.00  0.00    -0.352 N 
ATOM     31  C   UNL A   1      44.968  25.306  30.710  1.00  0.00     0.251 C 
ATOM     32  H   UNL A   1      46.760  24.647  30.268  1.00  0.00     0.163 HD
ATOM     33  O   UNL A   1      44.951  24.511  31.652  1.00  0.00    -0.269 OA
BRANCH  31  34
ATOM     34  C   UNL A   1      43.845  26.271  30.576  1.00  0.00     0.039 A 
ATOM     35  C   UNL A   1      42.927  26.320  29.527  1.00  0.00     0.014 A 
ATOM     36  C   UNL A   1      43.788  27.269  31.569  1.00  0.00     0.014 A 
ATOM     37  C   UNL A   1      42.074  27.413  29.396  1.00  0.00     0.010 A 
ATOM     38  C   UNL A   1      42.927  28.351  31.455  1.00  0.00     0.010 A 
ATOM     39  C   UNL A   1      42.126  28.456  30.326  1.00  0.00    -0.014 A 
BRANCH  39  40
ATOM     40  C   UNL A   1      41.281  29.624  30.103  1.00  0.00     0.031 A 
ATOM     41  C   UNL A   1      42.014  30.883  29.791  1.00  0.00     0.074 A 
ATOM     42  C   UNL A   1      39.933  29.557  30.095  1.00  0.00     0.049 A 
ATOM     43  N   UNL A   1      41.999  32.002  30.438  1.00  0.00    -0.248 NA
ATOM     44  C   UNL A   1      42.967  30.854  28.670  1.00  0.00     0.031 C 
ATOM     45  C   UNL A   1      39.080  28.363  30.114  1.00  0.00     0.029 A 
ATOM     46  N   UNL A   1      39.030  30.568  29.969  1.00  0.00    -0.354 N 
ATOM     47  C   UNL A   1      42.833  32.872  29.736  1.00  0.00     0.074 A 
ATOM     48  C   UNL A   1      43.483  32.082  28.722  1.00  0.00     0.031 C 
ATOM     49  C   UNL A   1      37.818  28.706  29.763  1.00  0.00     0.029 A 
ATOM     50  C   UNL A   1      37.740  30.152  29.663  1.00  0.00     0.049 A 
ATOM     51  H   UNL A   1      39.271  31.516  30.084  1.00  0.00     0.167 HD
ATOM     52  C   UNL A   1      42.816  34.218  29.938  1.00  0.00     0.031 A 
ATOM     53  C   UNL A   1      36.697  30.942  29.310  1.00  0.00     0.031 A 
ATOM     54  C   UNL A   1      42.188  34.564  31.182  1.00  0.00     0.049 A 
ATOM     55  C   UNL A   1      37.008  32.317  29.757  1.00  0.00     0.074 A 
ATOM     56  C   UNL A   1      42.510  34.395  32.512  1.00  0.00     0.029 A 
ATOM     57  N   UNL A   1      40.852  34.875  31.146  1.00  0.00    -0.354 N 
ATOM     58  N   UNL A   1      37.093  32.665  31.008  1.00  0.00    -0.248 NA
ATOM     59  C   UNL A   1      37.648  33.211  28.809  1.00  0.00     0.031 C 
ATOM     60  C   UNL A   1      41.266  34.147  33.159  1.00  0.00     0.029 A 
ATOM     61  C   UNL A   1      40.250  34.249  32.206  1.00  0.00     0.049 A 
ATOM     62  H   UNL A   1      40.406  35.446  30.479  1.00  0.00     0.167 HD
ATOM     63  C   UNL A   1      38.146  33.566  31.050  1.00  0.00     0.074 A 
ATOM     64  C   UNL A   1      38.379  33.940  29.657  1.00  0.00     0.031 C 
ATOM     65  C   UNL A   1      38.904  33.711  32.176  1.00  0.00     0.031 A 
BRANCH  52  66
ATOM     66  C   UNL A   1      43.083  35.239  28.861  1.00  0.00    -0.014 A 
ATOM     67  C   UNL A   1      42.123  35.613  27.901  1.00  0.00     0.009 A 
ATOM     68  C   UNL A   1      44.229  36.050  28.953  1.00  0.00     0.009 A 
ATOM     69  C   UNL A   1      42.287  36.737  27.086  1.00  0.00     0.001 A 
ATOM     70  C   UNL A   1      44.379  37.199  28.165  1.00  0.00     0.001 A 
ATOM     71  C   UNL A   1      43.405  37.545  27.235  1.00  0.00     0.000 A 
ENDBRANCH  52  66
BRANCH  53  72
ATOM     72  C   UNL A   1      35.660  30.682  28.286  1.00  0.00    -0.014 A 
ATOM     73  C   UNL A   1      34.565  31.558  28.173  1.00  0.00     0.009 A 
ATOM     74  C   UNL A   1      35.569  29.433  27.651  1.00  0.00     0.009 A 
ATOM     75  C   UNL A   1      33.403  31.184  27.488  1.00  0.00     0.001 A 
ATOM     76  C   UNL A   1      34.406  29.061  26.961  1.00  0.00     0.001 A 
ATOM     77  C   UNL A   1      33.318  29.929  26.893  1.00  0.00     0.000 A 
ENDBRANCH  53  72
BRANCH  65  78
ATOM     78  C   UNL A   1      38.435  33.035  33.448  1.00  0.00    -0.014 A 
ATOM     79  C   UNL A   1      37.820  33.828  34.428  1.00  0.00     0.009 A 
ATOM     80  C   UNL A   1      38.756  31.705  33.777  1.00  0.00     0.009 A 
ATOM     81  C   UNL A   1      37.559  33.324  35.705  1.00  0.00     0.001 A 
ATOM     82  C   UNL A   1      38.471  31.191  35.048  1.00  0.00     0.001 A 
ATOM     83  C   UNL A   1      37.885  32.006  36.014  1.00  0.00     0.000 A 
ENDBRANCH  65  78
ENDBRANCH  39  40
ENDBRANCH  31  34
ENDBRANCH  29  30
ENDBRANCH  28  29
ENDBRANCH   1  28
TORSDOF 14
ENDMDL
MODEL 3
REMARK VINA RESULT:     -12.3      3.431      8.412
REMARK SMILES Cc1c(CC(=O)NCCCNC(=O)c2ccc(-c3c4nc(c(-c5ccccc5)c5ccc([nH]5)c(-c5ccccc5)c5nc(c(-c6ccccc6)c6ccc3[nH]6)C=C5)C=C4)cc2)c2cc(O)ccc2n1C(=O)c1ccc(Cl)cc1
REMARK SMILES IDX 8 1 7 2 5 3 6 4 4 6 3 7 1 8 2 9 69 10 62 11 68 12 63 13
REMARK SMILES IDX 67 14 64 15 66 16 70 17 71 18 72 19 73 20 78 21 74 22 77 23
REMARK SMILES IDX 75 24 76 25 65 26 9 28 10 29 11 30 12 31 13 33 14 34 15 35
REMARK SMILES IDX 61 36 16 37 60 38 17 39 18 40 19 41 54 42 20 43 59 44 53 45
REMARK SMILES IDX 55 46 21 47 58 48 52 49 51 50 22 52 44 53 29 54 43 55 30 56
REMARK SMILES IDX 33 57 42 58 56 59 31 60 32 61 41 63 57 64 34 65 23 66 24 67
REMARK SMILES IDX 28 68 25 69 27 70 26 71 45 72 46 73 50 74 47 75 49 76 48 77
REMARK SMILES IDX 35 78 36 79 40 80 37 81 39 82 38 83
REMARK H PARENT 7 5 65 27 11 32 55 51 33 62
REMARK Flexibility Score: inf
ROOT
ATOM      1  C   UNL A   1      36.849  23.085  25.095  1.00  0.00     0.117 C 
ENDROOT
BRANCH   1   2
ATOM      2  N   UNL A   1      35.637  23.088  25.894  1.00  0.00    -0.356 N 
ATOM      3  C   UNL A   1      34.552  23.912  25.824  1.00  0.00     0.224 C 
ATOM      4  O   UNL A   1      33.632  23.723  26.624  1.00  0.00    -0.275 OA
ATOM      5  H   UNL A   1      35.590  22.392  26.588  1.00  0.00     0.163 HD
BRANCH   3   6
ATOM      6  C   UNL A   1      34.464  24.983  24.752  1.00  0.00     0.138 C 
BRANCH   6   7
ATOM      7  C   UNL A   1      33.224  25.825  24.846  1.00  0.00    -0.009 A 
ATOM      8  C   UNL A   1      31.607  24.442  23.356  1.00  0.00     0.065 C 
ATOM      9  C   UNL A   1      32.003  25.594  24.228  1.00  0.00     0.028 A 
ATOM     10  N   UNL A   1      31.146  26.668  24.503  1.00  0.00    -0.280 N 
ATOM     11  C   UNL A   1      33.077  26.996  25.643  1.00  0.00     0.008 A 
ATOM     12  C   UNL A   1      31.764  27.457  25.489  1.00  0.00     0.057 A 
ATOM     13  C   UNL A   1      33.958  27.687  26.506  1.00  0.00     0.056 A 
ATOM     14  C   UNL A   1      31.310  28.552  26.259  1.00  0.00     0.031 A 
ATOM     15  C   UNL A   1      33.512  28.809  27.197  1.00  0.00     0.116 A 
ATOM     16  C   UNL A   1      32.203  29.234  27.090  1.00  0.00     0.048 A 
BRANCH  10  17
ATOM     17  C   UNL A   1      29.888  26.906  23.875  1.00  0.00     0.262 C 
ATOM     18  O   UNL A   1      29.004  26.051  23.964  1.00  0.00    -0.268 OA
BRANCH  17  19
ATOM     19  C   UNL A   1      29.537  28.111  23.111  1.00  0.00     0.040 A 
ATOM     20  C   UNL A   1      30.518  28.843  22.433  1.00  0.00     0.015 A 
ATOM     21  C   UNL A   1      28.202  28.533  23.122  1.00  0.00     0.015 A 
ATOM     22  C   UNL A   1      30.172  30.062  21.846  1.00  0.00     0.021 A 
ATOM     23  C   UNL A   1      27.863  29.746  22.524  1.00  0.00     0.021 A 
ATOM     24  C   UNL A   1      28.852  30.516  21.910  1.00  0.00     0.041 A 
ATOM     25  Cl  UNL A   1      28.448  32.054  21.254  1.00  0.00    -0.084 Cl
ENDBRANCH  17  19
ENDBRANCH  10  17
BRANCH  15  26
ATOM     26  O   UNL A   1      34.407  29.460  27.995  1.00  0.00    -0.508 OA
ATOM     27  H   UNL A   1      35.302  29.535  27.730  1.00  0.00     0.293 HD
ENDBRANCH  15  26
ENDBRANCH   6   7
ENDBRANCH   3   6
ENDBRANCH   1   2
BRANCH   1  28
ATOM     28  C   UNL A   1      38.037  23.703  25.839  1.00  0.00     0.042 C 
BRANCH  28  29
ATOM     29  C   UNL A   1      38.881  22.675  26.593  1.00  0.00     0.118 C 
BRANCH  29  30
ATOM     30  N   UNL A   1      40.221  22.515  26.063  1.00  0.00    -0.352 N 
ATOM     31  C   UNL A   1      41.389  23.219  26.127  1.00  0.00     0.251 C 
ATOM     32  H   UNL A   1      40.312  21.697  25.522  1.00  0.00     0.163 HD
ATOM     33  O   UNL A   1      42.368  22.683  25.604  1.00  0.00    -0.269 OA
BRANCH  31  34
ATOM     34  C   UNL A   1      41.545  24.586  26.690  1.00  0.00     0.039 A 
ATOM     35  C   UNL A   1      41.933  24.895  27.994  1.00  0.00     0.014 A 
ATOM     36  C   UNL A   1      41.172  25.638  25.830  1.00  0.00     0.014 A 
ATOM     37  C   UNL A   1      41.811  26.199  28.467  1.00  0.00     0.010 A 
ATOM     38  C   UNL A   1      41.067  26.942  26.290  1.00  0.00     0.010 A 
ATOM     39  C   UNL A   1      41.316  27.204  27.631  1.00  0.00    -0.014 A 
BRANCH  39  40
ATOM     40  C   UNL A   1      41.119  28.536  28.191  1.00  0.00     0.031 A 
ATOM     41  C   UNL A   1      42.231  29.496  27.943  1.00  0.00     0.074 A 
ATOM     42  C   UNL A   1      39.980  28.903  28.814  1.00  0.00     0.049 A 
ATOM     43  N   UNL A   1      42.959  30.122  28.809  1.00  0.00    -0.248 NA
ATOM     44  C   UNL A   1      42.652  29.704  26.548  1.00  0.00     0.031 C 
ATOM     45  C   UNL A   1      38.710  28.172  28.896  1.00  0.00     0.029 A 
ATOM     46  N   UNL A   1      39.689  30.078  29.438  1.00  0.00    -0.354 N 
ATOM     47  C   UNL A   1      43.846  30.912  28.078  1.00  0.00     0.074 A 
ATOM     48  C   UNL A   1      43.684  30.534  26.697  1.00  0.00     0.031 C 
ATOM     49  C   UNL A   1      37.733  29.011  29.314  1.00  0.00     0.029 A 
ATOM     50  C   UNL A   1      38.336  30.277  29.686  1.00  0.00     0.049 A 
ATOM     51  H   UNL A   1      40.380  30.733  29.691  1.00  0.00     0.167 HD
ATOM     52  C   UNL A   1      44.544  31.936  28.641  1.00  0.00     0.031 A 
ATOM     53  C   UNL A   1      37.753  31.420  30.125  1.00  0.00     0.031 A 
ATOM     54  C   UNL A   1      44.581  31.833  30.073  1.00  0.00     0.049 A 
ATOM     55  C   UNL A   1      38.810  32.250  30.743  1.00  0.00     0.074 A 
ATOM     56  C   UNL A   1      45.174  30.969  30.969  1.00  0.00     0.029 A 
ATOM     57  N   UNL A   1      43.625  32.521  30.777  1.00  0.00    -0.354 N 
ATOM     58  N   UNL A   1      39.435  31.924  31.837  1.00  0.00    -0.248 NA
ATOM     59  C   UNL A   1      39.474  33.236  29.909  1.00  0.00     0.031 C 
ATOM     60  C   UNL A   1      44.234  30.845  32.033  1.00  0.00     0.029 A 
ATOM     61  C   UNL A   1      43.156  31.692  31.764  1.00  0.00     0.049 A 
ATOM     62  H   UNL A   1      43.329  33.444  30.606  1.00  0.00     0.167 HD
ATOM     63  C   UNL A   1      40.746  32.323  31.624  1.00  0.00     0.074 A 
ATOM     64  C   UNL A   1      40.687  33.214  30.468  1.00  0.00     0.031 C 
ATOM     65  C   UNL A   1      41.785  31.679  32.232  1.00  0.00     0.031 A 
BRANCH  52  66
ATOM     66  C   UNL A   1      44.923  33.203  27.917  1.00  0.00    -0.014 A 
ATOM     67  C   UNL A   1      46.159  33.378  27.268  1.00  0.00     0.009 A 
ATOM     68  C   UNL A   1      43.928  34.160  27.644  1.00  0.00     0.009 A 
ATOM     69  C   UNL A   1      46.391  34.437  26.386  1.00  0.00     0.001 A 
ATOM     70  C   UNL A   1      44.144  35.202  26.731  1.00  0.00     0.001 A 
ATOM     71  C   UNL A   1      45.375  35.337  26.099  1.00  0.00     0.000 A 
ENDBRANCH  52  66
BRANCH  53  72
ATOM     72  C   UNL A   1      36.462  32.007  29.704  1.00  0.00    -0.014 A 
ATOM     73  C   UNL A   1      36.286  32.406  28.367  1.00  0.00     0.009 A 
ATOM     74  C   UNL A   1      35.535  32.468  30.653  1.00  0.00     0.009 A 
ATOM     75  C   UNL A   1      35.249  33.269  27.996  1.00  0.00     0.001 A 
ATOM     76  C   UNL A   1      34.493  33.328  30.280  1.00  0.00     0.001 A 
ATOM     77  C   UNL A   1      34.360  33.742  28.955  1.00  0.00     0.000 A 
ENDBRANCH  53  72
BRANCH  65  78
ATOM     78  C   UNL A   1      41.467  30.669  33.315  1.00  0.00    -0.014 A 
ATOM     79  C   UNL A   1      41.557  31.084  34.652  1.00  0.00     0.009 A 
ATOM     80  C   UNL A   1      41.279  29.298  33.058  1.00  0.00     0.009 A 
ATOM     81  C   UNL A   1      41.492  30.163  35.700  1.00  0.00     0.001 A 
ATOM     82  C   UNL A   1      41.187  28.377  34.109  1.00  0.00     0.001 A 
ATOM     83  C   UNL A   1      41.307  28.809  35.428  1.00  0.00     0.000 A 
ENDBRANCH  65  78
ENDBRANCH  39  40
ENDBRANCH  31  34
ENDBRANCH  29  30
ENDBRANCH  28  29
ENDBRANCH   1  28
TORSDOF 14
ENDMDL
