MODEL 1
REMARK VINA RESULT:     -11.8      0.000      0.000
REMARK SMILES O=C(NCCCNC(=O)[C@H](c1ccccc1)C(c1ccccc1)c1ccccc1)c1ccc(-c2c3nc(c(-c4ccccc4)c4ccc([nH]4)c(-c4ccccc4)c4nc(c(-c5ccccc5)c5ccc2[nH]5)C=C4)C=C3)cc1
REMARK SMILES IDX 5 1 4 2 3 3 1 4 2 5 30 7 31 8 77 9 32 10 76 11 33 12 34 13
REMARK SMILES IDX 35 14 70 15 36 16 75 17 69 18 71 19 37 20 74 21 68 22 67 23
REMARK SMILES IDX 38 25 60 26 45 27 59 28 46 29 49 30 58 31 72 32 47 33 48 34
REMARK SMILES IDX 57 36 73 37 50 38 39 39 40 40 44 41 41 42 43 43 42 44 61 45
REMARK SMILES IDX 62 46 66 47 63 48 65 49 64 50 51 51 52 52 56 53 53 54 55 55
REMARK SMILES IDX 54 56 6 57 7 58 8 59 9 61 10 62 17 63 18 64 19 65 23 66
REMARK SMILES IDX 20 67 22 68 21 69 24 70 25 71 29 72 26 73 28 74 27 75 11 76
REMARK SMILES IDX 12 77 16 78 13 79 15 80 14 81
REMARK H PARENT 3 6 71 24 49 35 7 60
REMARK Flexibility Score: inf
ROOT
ATOM      1  C   UNL A   1      31.760  28.029  27.510  1.00  0.00     0.042 C 
ENDROOT
BRANCH   1   2
ATOM      2  C   UNL A   1      33.196  28.516  27.441  1.00  0.00     0.118 C 
BRANCH   2   3
ATOM      3  N   UNL A   1      33.287  29.964  27.576  1.00  0.00    -0.352 N 
ATOM      4  O   UNL A   1      34.044  31.942  28.329  1.00  0.00    -0.269 OA
ATOM      5  C   UNL A   1      34.285  30.767  28.084  1.00  0.00     0.251 C 
ATOM      6  H   UNL A   1      32.499  30.454  27.247  1.00  0.00     0.163 HD
BRANCH   5   7
ATOM      7  C   UNL A   1      35.636  30.223  28.364  1.00  0.00     0.039 A 
ATOM      8  C   UNL A   1      35.943  29.658  29.597  1.00  0.00     0.014 A 
ATOM      9  C   UNL A   1      36.606  30.229  27.354  1.00  0.00     0.014 A 
ATOM     10  C   UNL A   1      37.252  29.298  29.893  1.00  0.00     0.010 A 
ATOM     11  C   UNL A   1      37.892  29.733  27.609  1.00  0.00     0.010 A 
ATOM     12  C   UNL A   1      38.240  29.303  28.898  1.00  0.00    -0.014 A 
BRANCH  12  13
ATOM     13  C   UNL A   1      39.598  28.799  29.238  1.00  0.00     0.031 A 
ATOM     14  C   UNL A   1      40.084  27.460  28.752  1.00  0.00     0.074 A 
ATOM     15  C   UNL A   1      40.428  29.599  29.939  1.00  0.00     0.049 A 
ATOM     16  N   UNL A   1      41.268  26.915  28.896  1.00  0.00    -0.248 NA
ATOM     17  C   UNL A   1      39.124  26.618  28.023  1.00  0.00     0.031 C 
ATOM     18  C   UNL A   1      40.075  30.917  30.476  1.00  0.00     0.029 A 
ATOM     19  N   UNL A   1      41.749  29.450  30.279  1.00  0.00    -0.354 N 
ATOM     20  C   UNL A   1      41.183  25.658  28.310  1.00  0.00     0.074 A 
ATOM     21  C   UNL A   1      39.828  25.512  27.823  1.00  0.00     0.031 C 
ATOM     22  C   UNL A   1      41.170  31.493  30.990  1.00  0.00     0.029 A 
ATOM     23  C   UNL A   1      42.283  30.557  30.897  1.00  0.00     0.049 A 
ATOM     24  H   UNL A   1      42.264  28.630  30.098  1.00  0.00     0.167 HD
ATOM     25  C   UNL A   1      42.146  24.711  28.187  1.00  0.00     0.031 A 
ATOM     26  C   UNL A   1      43.528  30.796  31.348  1.00  0.00     0.031 A 
ATOM     27  C   UNL A   1      43.499  24.864  28.653  1.00  0.00     0.049 A 
ATOM     28  C   UNL A   1      44.570  29.729  31.200  1.00  0.00     0.074 A 
ATOM     29  C   UNL A   1      44.556  23.976  28.541  1.00  0.00     0.029 A 
ATOM     30  N   UNL A   1      43.985  25.978  29.320  1.00  0.00    -0.354 N 
ATOM     31  N   UNL A   1      44.475  28.557  30.621  1.00  0.00    -0.248 NA
ATOM     32  C   UNL A   1      45.891  30.018  31.774  1.00  0.00     0.031 C 
ATOM     33  C   UNL A   1      45.667  24.533  29.182  1.00  0.00     0.029 A 
ATOM     34  C   UNL A   1      45.318  25.792  29.645  1.00  0.00     0.049 A 
ATOM     35  H   UNL A   1      43.459  26.784  29.531  1.00  0.00     0.167 HD
ATOM     36  C   UNL A   1      45.726  27.973  30.749  1.00  0.00     0.074 A 
ATOM     37  C   UNL A   1      46.570  28.931  31.437  1.00  0.00     0.031 C 
ATOM     38  C   UNL A   1      46.140  26.751  30.335  1.00  0.00     0.031 A 
BRANCH  25  39
ATOM     39  C   UNL A   1      41.758  23.403  27.550  1.00  0.00    -0.014 A 
ATOM     40  C   UNL A   1      41.939  23.171  26.178  1.00  0.00     0.009 A 
ATOM     41  C   UNL A   1      41.239  22.372  28.350  1.00  0.00     0.009 A 
ATOM     42  C   UNL A   1      41.575  21.944  25.616  1.00  0.00     0.001 A 
ATOM     43  C   UNL A   1      40.902  21.139  27.791  1.00  0.00     0.001 A 
ATOM     44  C   UNL A   1      41.061  20.929  26.422  1.00  0.00     0.000 A 
ENDBRANCH  25  39
BRANCH  26  45
ATOM     45  C   UNL A   1      43.848  32.098  31.985  1.00  0.00    -0.014 A 
ATOM     46  C   UNL A   1      44.319  33.173  31.215  1.00  0.00     0.009 A 
ATOM     47  C   UNL A   1      43.671  32.278  33.367  1.00  0.00     0.009 A 
ATOM     48  C   UNL A   1      44.623  34.395  31.821  1.00  0.00     0.001 A 
ATOM     49  C   UNL A   1      43.945  33.510  33.963  1.00  0.00     0.001 A 
ATOM     50  C   UNL A   1      44.428  34.565  33.191  1.00  0.00     0.000 A 
ENDBRANCH  26  45
BRANCH  38  51
ATOM     51  C   UNL A   1      47.577  26.401  30.592  1.00  0.00    -0.014 A 
ATOM     52  C   UNL A   1      48.568  26.635  29.624  1.00  0.00     0.009 A 
ATOM     53  C   UNL A   1      47.945  25.839  31.824  1.00  0.00     0.009 A 
ATOM     54  C   UNL A   1      49.894  26.275  29.873  1.00  0.00     0.001 A 
ATOM     55  C   UNL A   1      49.276  25.506  32.079  1.00  0.00     0.001 A 
ATOM     56  C   UNL A   1      50.247  25.714  31.101  1.00  0.00     0.000 A 
ENDBRANCH  38  51
ENDBRANCH  12  13
ENDBRANCH   5   7
ENDBRANCH   2   3
ENDBRANCH   1   2
BRANCH   1  57
ATOM     57  C   UNL A   1      31.435  26.990  26.451  1.00  0.00     0.117 C 
BRANCH  57  58
ATOM     58  N   UNL A   1      31.261  25.647  26.976  1.00  0.00    -0.355 N 
ATOM     59  C   UNL A   1      31.775  24.451  26.567  1.00  0.00     0.228 C 
ATOM     60  H   UNL A   1      30.672  25.591  27.762  1.00  0.00     0.163 HD
ATOM     61  O   UNL A   1      31.657  23.510  27.362  1.00  0.00    -0.274 OA
BRANCH  59  62
ATOM     62  C   UNL A   1      32.454  24.230  25.199  1.00  0.00     0.120 C 
BRANCH  62  63
ATOM     63  C   UNL A   1      33.802  25.032  25.043  1.00  0.00     0.066 C 
BRANCH  63  64
ATOM     64  C   UNL A   1      35.091  24.178  24.845  1.00  0.00    -0.039 A 
ATOM     65  C   UNL A   1      35.506  23.654  23.608  1.00  0.00     0.004 A 
ATOM     66  C   UNL A   1      35.888  23.862  25.964  1.00  0.00     0.004 A 
ATOM     67  C   UNL A   1      36.609  22.802  23.502  1.00  0.00     0.000 A 
ATOM     68  C   UNL A   1      37.034  23.067  25.847  1.00  0.00     0.000 A 
ATOM     69  C   UNL A   1      37.379  22.516  24.619  1.00  0.00     0.000 A 
ENDBRANCH  63  64
BRANCH  63  70
ATOM     70  C   UNL A   1      33.713  26.169  23.992  1.00  0.00    -0.039 A 
ATOM     71  C   UNL A   1      33.314  25.943  22.664  1.00  0.00     0.004 A 
ATOM     72  C   UNL A   1      34.123  27.470  24.333  1.00  0.00     0.004 A 
ATOM     73  C   UNL A   1      33.406  26.959  21.704  1.00  0.00     0.000 A 
ATOM     74  C   UNL A   1      34.182  28.493  23.384  1.00  0.00     0.000 A 
ATOM     75  C   UNL A   1      33.846  28.231  22.063  1.00  0.00     0.000 A 
ENDBRANCH  63  70
ENDBRANCH  62  63
BRANCH  62  76
ATOM     76  C   UNL A   1      32.445  22.734  24.824  1.00  0.00    -0.035 A 
ATOM     77  C   UNL A   1      32.828  21.712  25.713  1.00  0.00     0.004 A 
ATOM     78  C   UNL A   1      32.093  22.366  23.513  1.00  0.00     0.004 A 
ATOM     79  C   UNL A   1      32.833  20.373  25.320  1.00  0.00     0.000 A 
ATOM     80  C   UNL A   1      32.132  21.028  23.112  1.00  0.00     0.000 A 
ATOM     81  C   UNL A   1      32.494  20.032  24.016  1.00  0.00     0.000 A 
ENDBRANCH  62  76
ENDBRANCH  59  62
ENDBRANCH  57  58
ENDBRANCH   1  57
TORSDOF 14
ENDMDL
MODEL 2
REMARK VINA RESULT:     -11.6      1.818      3.178
REMARK SMILES O=C(NCCCNC(=O)[C@H](c1ccccc1)C(c1ccccc1)c1ccccc1)c1ccc(-c2c3nc(c(-c4ccccc4)c4ccc([nH]4)c(-c4ccccc4)c4nc(c(-c5ccccc5)c5ccc2[nH]5)C=C4)C=C3)cc1
REMARK SMILES IDX 5 1 4 2 3 3 1 4 2 5 30 7 31 8 77 9 32 10 76 11 33 12 34 13
REMARK SMILES IDX 35 14 70 15 36 16 75 17 69 18 71 19 37 20 74 21 68 22 67 23
REMARK SMILES IDX 38 25 60 26 45 27 59 28 46 29 49 30 58 31 72 32 47 33 48 34
REMARK SMILES IDX 57 36 73 37 50 38 39 39 40 40 44 41 41 42 43 43 42 44 61 45
REMARK SMILES IDX 62 46 66 47 63 48 65 49 64 50 51 51 52 52 56 53 53 54 55 55
REMARK SMILES IDX 54 56 6 57 7 58 8 59 9 61 10 62 17 63 18 64 19 65 23 66
REMARK SMILES IDX 20 67 22 68 21 69 24 70 25 71 29 72 26 73 28 74 27 75 11 76
REMARK SMILES IDX 12 77 16 78 13 79 15 80 14 81
REMARK H PARENT 3 6 71 24 49 35 7 60
REMARK Flexibility Score: inf
ROOT
ATOM      1  C   UNL A   1      34.014  28.792  25.743  1.00  0.00     0.042 C 
ENDROOT
BRANCH   1   2
ATOM      2  C   UNL A   1      33.968  28.663  27.255  1.00  0.00     0.118 C 
BRANCH   2   3
ATOM      3  N   UNL A   1      33.959  29.963  27.913  1.00  0.00    -0.352 N 
ATOM      4  O   UNL A   1      34.603  31.585  29.329  1.00  0.00    -0.269 OA
ATOM      5  C   UNL A   1      34.918  30.606  28.664  1.00  0.00     0.251 C 
ATOM      6  H   UNL A   1      33.123  30.470  27.800  1.00  0.00     0.163 HD
BRANCH   5   7
ATOM      7  C   UNL A   1      36.317  30.115  28.703  1.00  0.00     0.039 A 
ATOM      8  C   UNL A   1      37.176  30.304  27.625  1.00  0.00     0.014 A 
ATOM      9  C   UNL A   1      36.800  29.497  29.863  1.00  0.00     0.014 A 
ATOM     10  C   UNL A   1      38.428  29.703  27.617  1.00  0.00     0.010 A 
ATOM     11  C   UNL A   1      38.115  29.013  29.907  1.00  0.00     0.010 A 
ATOM     12  C   UNL A   1      38.929  29.073  28.767  1.00  0.00    -0.014 A 
BRANCH  12  13
ATOM     13  C   UNL A   1      40.320  28.546  28.743  1.00  0.00     0.031 A 
ATOM     14  C   UNL A   1      40.617  27.129  28.331  1.00  0.00     0.074 A 
ATOM     15  C   UNL A   1      41.335  29.388  29.029  1.00  0.00     0.049 A 
ATOM     16  N   UNL A   1      41.781  26.545  28.181  1.00  0.00    -0.248 NA
ATOM     17  C   UNL A   1      39.469  26.249  28.065  1.00  0.00     0.031 C 
ATOM     18  C   UNL A   1      41.180  30.784  29.450  1.00  0.00     0.029 A 
ATOM     19  N   UNL A   1      42.694  29.214  28.964  1.00  0.00    -0.354 N 
ATOM     20  C   UNL A   1      41.506  25.226  27.840  1.00  0.00     0.074 A 
ATOM     21  C   UNL A   1      40.065  25.090  27.821  1.00  0.00     0.031 C 
ATOM     22  C   UNL A   1      42.386  31.364  29.512  1.00  0.00     0.029 A 
ATOM     23  C   UNL A   1      43.405  30.364  29.218  1.00  0.00     0.049 A 
ATOM     24  H   UNL A   1      43.119  28.351  28.755  1.00  0.00     0.167 HD
ATOM     25  C   UNL A   1      42.373  24.221  27.566  1.00  0.00     0.031 A 
ATOM     26  C   UNL A   1      44.731  30.593  29.224  1.00  0.00     0.031 A 
ATOM     27  C   UNL A   1      43.805  24.361  27.566  1.00  0.00     0.049 A 
ATOM     28  C   UNL A   1      45.665  29.461  28.920  1.00  0.00     0.074 A 
ATOM     29  C   UNL A   1      44.766  23.410  27.265  1.00  0.00     0.029 A 
ATOM     30  N   UNL A   1      44.486  25.528  27.880  1.00  0.00    -0.354 N 
ATOM     31  N   UNL A   1      45.383  28.229  28.576  1.00  0.00    -0.248 NA
ATOM     32  C   UNL A   1      47.101  29.753  29.011  1.00  0.00     0.031 C 
ATOM     33  C   UNL A   1      46.027  23.988  27.444  1.00  0.00     0.029 A 
ATOM     34  C   UNL A   1      45.853  25.314  27.803  1.00  0.00     0.049 A 
ATOM     35  H   UNL A   1      44.060  26.382  28.123  1.00  0.00     0.167 HD
ATOM     36  C   UNL A   1      46.605  27.600  28.397  1.00  0.00     0.074 A 
ATOM     37  C   UNL A   1      47.630  28.595  28.644  1.00  0.00     0.031 C 
ATOM     38  C   UNL A   1      46.858  26.312  28.059  1.00  0.00     0.031 A 
BRANCH  25  39
ATOM     39  C   UNL A   1      41.793  22.862  27.279  1.00  0.00    -0.014 A 
ATOM     40  C   UNL A   1      41.371  22.500  25.990  1.00  0.00     0.009 A 
ATOM     41  C   UNL A   1      41.707  21.914  28.311  1.00  0.00     0.009 A 
ATOM     42  C   UNL A   1      40.842  21.229  25.751  1.00  0.00     0.001 A 
ATOM     43  C   UNL A   1      41.204  20.636  28.064  1.00  0.00     0.001 A 
ATOM     44  C   UNL A   1      40.763  20.297  26.785  1.00  0.00     0.000 A 
ENDBRANCH  25  39
BRANCH  26  45
ATOM     45  C   UNL A   1      45.247  31.951  29.534  1.00  0.00    -0.014 A 
ATOM     46  C   UNL A   1      45.480  32.878  28.507  1.00  0.00     0.009 A 
ATOM     47  C   UNL A   1      45.495  32.333  30.863  1.00  0.00     0.009 A 
ATOM     48  C   UNL A   1      45.969  34.153  28.805  1.00  0.00     0.001 A 
ATOM     49  C   UNL A   1      45.953  33.617  31.159  1.00  0.00     0.001 A 
ATOM     50  C   UNL A   1      46.198  34.523  30.129  1.00  0.00     0.000 A 
ENDBRANCH  26  45
BRANCH  38  51
ATOM     51  C   UNL A   1      48.300  25.923  27.908  1.00  0.00    -0.014 A 
ATOM     52  C   UNL A   1      49.068  25.531  29.016  1.00  0.00     0.009 A 
ATOM     53  C   UNL A   1      48.893  25.938  26.637  1.00  0.00     0.009 A 
ATOM     54  C   UNL A   1      50.416  25.202  28.858  1.00  0.00     0.001 A 
ATOM     55  C   UNL A   1      50.232  25.581  26.478  1.00  0.00     0.001 A 
ATOM     56  C   UNL A   1      50.995  25.224  27.588  1.00  0.00     0.000 A 
ENDBRANCH  38  51
ENDBRANCH  12  13
ENDBRANCH   5   7
ENDBRANCH   2   3
ENDBRANCH   1   2
BRANCH   1  57
ATOM     57  C   UNL A   1      33.155  27.760  25.034  1.00  0.00     0.117 C 
BRANCH  57  58
ATOM     58  N   UNL A   1      33.737  27.254  23.803  1.00  0.00    -0.355 N 
ATOM     59  C   UNL A   1      33.930  25.977  23.361  1.00  0.00     0.228 C 
ATOM     60  H   UNL A   1      34.044  27.951  23.181  1.00  0.00     0.163 HD
ATOM     61  O   UNL A   1      34.215  25.855  22.163  1.00  0.00    -0.274 OA
BRANCH  59  62
ATOM     62  C   UNL A   1      33.830  24.730  24.265  1.00  0.00     0.120 C 
BRANCH  62  63
ATOM     63  C   UNL A   1      32.569  23.839  23.950  1.00  0.00     0.066 C 
BRANCH  63  64
ATOM     64  C   UNL A   1      32.634  22.359  24.434  1.00  0.00    -0.039 A 
ATOM     65  C   UNL A   1      32.917  21.976  25.757  1.00  0.00     0.004 A 
ATOM     66  C   UNL A   1      32.440  21.319  23.503  1.00  0.00     0.004 A 
ATOM     67  C   UNL A   1      33.073  20.634  26.118  1.00  0.00     0.000 A 
ATOM     68  C   UNL A   1      32.525  19.973  23.878  1.00  0.00     0.000 A 
ATOM     69  C   UNL A   1      32.868  19.632  25.181  1.00  0.00     0.000 A 
ENDBRANCH  63  64
BRANCH  63  70
ATOM     70  C   UNL A   1      31.234  24.510  24.365  1.00  0.00    -0.039 A 
ATOM     71  C   UNL A   1      30.387  25.145  23.441  1.00  0.00     0.004 A 
ATOM     72  C   UNL A   1      30.874  24.571  25.723  1.00  0.00     0.004 A 
ATOM     73  C   UNL A   1      29.277  25.882  23.875  1.00  0.00     0.000 A 
ATOM     74  C   UNL A   1      29.748  25.276  26.153  1.00  0.00     0.000 A 
ATOM     75  C   UNL A   1      28.962  25.952  25.230  1.00  0.00     0.000 A 
ENDBRANCH  63  70
ENDBRANCH  62  63
BRANCH  62  76
ATOM     76  C   UNL A   1      35.202  24.038  24.388  1.00  0.00    -0.035 A 
ATOM     77  C   UNL A   1      35.736  23.195  23.394  1.00  0.00     0.004 A 
ATOM     78  C   UNL A   1      35.942  24.203  25.573  1.00  0.00     0.004 A 
ATOM     79  C   UNL A   1      36.970  22.566  23.562  1.00  0.00     0.000 A 
ATOM     80  C   UNL A   1      37.161  23.544  25.753  1.00  0.00     0.000 A 
ATOM     81  C   UNL A   1      37.677  22.733  24.746  1.00  0.00     0.000 A 
ENDBRANCH  62  76
ENDBRANCH  59  62
ENDBRANCH  57  58
ENDBRANCH   1  57
TORSDOF 14
ENDMDL
MODEL 3
REMARK VINA RESULT:     -11.6      2.367      7.569
REMARK SMILES O=C(NCCCNC(=O)[C@H](c1ccccc1)C(c1ccccc1)c1ccccc1)c1ccc(-c2c3nc(c(-c4ccccc4)c4ccc([nH]4)c(-c4ccccc4)c4nc(c(-c5ccccc5)c5ccc2[nH]5)C=C4)C=C3)cc1
REMARK SMILES IDX 5 1 4 2 3 3 1 4 2 5 30 7 31 8 77 9 32 10 76 11 33 12 34 13
REMARK SMILES IDX 35 14 70 15 36 16 75 17 69 18 71 19 37 20 74 21 68 22 67 23
REMARK SMILES IDX 38 25 60 26 45 27 59 28 46 29 49 30 58 31 72 32 47 33 48 34
REMARK SMILES IDX 57 36 73 37 50 38 39 39 40 40 44 41 41 42 43 43 42 44 61 45
REMARK SMILES IDX 62 46 66 47 63 48 65 49 64 50 51 51 52 52 56 53 53 54 55 55
REMARK SMILES IDX 54 56 6 57 7 58 8 59 9 61 10 62 17 63 18 64 19 65 23 66
REMARK SMILES IDX 20 67 22 68 21 69 24 70 25 71 29 72 26 73 28 74 27 75 11 76
REMARK SMILES IDX 12 77 16 78 13 79 15 80 14 81
REMARK H PARENT 3 6 71 24 49 35 7 60
REMARK Flexibility Score: inf
ROOT
ATOM      1  C   UNL A   1      35.957  23.950  25.826  1.00  0.00     0.042 C 
ENDROOT
BRANCH   1   2
ATOM      2  C   UNL A   1      37.027  23.539  24.830  1.00  0.00     0.118 C 
BRANCH   2   3
ATOM      3  N   UNL A   1      37.964  22.580  25.400  1.00  0.00    -0.352 N 
ATOM      4  O   UNL A   1      39.875  21.821  26.308  1.00  0.00    -0.269 OA
ATOM      5  C   UNL A   1      39.106  22.761  26.148  1.00  0.00     0.251 C 
ATOM      6  H   UNL A   1      37.740  21.638  25.221  1.00  0.00     0.163 HD
BRANCH   5   7
ATOM      7  C   UNL A   1      39.434  24.082  26.737  1.00  0.00     0.039 A 
ATOM      8  C   UNL A   1      40.077  25.064  25.990  1.00  0.00     0.014 A 
ATOM      9  C   UNL A   1      39.042  24.368  28.051  1.00  0.00     0.014 A 
ATOM     10  C   UNL A   1      40.513  26.232  26.602  1.00  0.00     0.010 A 
ATOM     11  C   UNL A   1      39.359  25.607  28.626  1.00  0.00     0.010 A 
ATOM     12  C   UNL A   1      40.138  26.535  27.920  1.00  0.00    -0.014 A 
BRANCH  12  13
ATOM     13  C   UNL A   1      40.535  27.852  28.489  1.00  0.00     0.031 A 
ATOM     14  C   UNL A   1      39.526  28.945  28.719  1.00  0.00     0.074 A 
ATOM     15  C   UNL A   1      41.817  28.031  28.870  1.00  0.00     0.049 A 
ATOM     16  N   UNL A   1      39.700  30.116  29.280  1.00  0.00    -0.248 NA
ATOM     17  C   UNL A   1      38.153  28.704  28.251  1.00  0.00     0.031 C 
ATOM     18  C   UNL A   1      42.894  27.052  28.694  1.00  0.00     0.029 A 
ATOM     19  N   UNL A   1      42.424  29.071  29.526  1.00  0.00    -0.354 N 
ATOM     20  C   UNL A   1      38.473  30.763  29.201  1.00  0.00     0.074 A 
ATOM     21  C   UNL A   1      37.566  29.863  28.523  1.00  0.00     0.031 C 
ATOM     22  C   UNL A   1      43.999  27.494  29.310  1.00  0.00     0.029 A 
ATOM     23  C   UNL A   1      43.737  28.822  29.851  1.00  0.00     0.049 A 
ATOM     24  H   UNL A   1      41.964  29.915  29.743  1.00  0.00     0.167 HD
ATOM     25  C   UNL A   1      38.131  31.995  29.654  1.00  0.00     0.031 A 
ATOM     26  C   UNL A   1      44.638  29.576  30.505  1.00  0.00     0.031 A 
ATOM     27  C   UNL A   1      39.027  32.883  30.347  1.00  0.00     0.049 A 
ATOM     28  C   UNL A   1      44.232  30.935  30.991  1.00  0.00     0.074 A 
ATOM     29  C   UNL A   1      38.763  34.135  30.876  1.00  0.00     0.029 A 
ATOM     30  N   UNL A   1      40.362  32.614  30.608  1.00  0.00    -0.354 N 
ATOM     31  N   UNL A   1      43.060  31.517  30.927  1.00  0.00    -0.248 NA
ATOM     32  C   UNL A   1      45.277  31.742  31.634  1.00  0.00     0.031 C 
ATOM     33  C   UNL A   1      39.949  34.643  31.415  1.00  0.00     0.029 A 
ATOM     34  C   UNL A   1      40.940  33.685  31.271  1.00  0.00     0.049 A 
ATOM     35  H   UNL A   1      40.830  31.784  30.360  1.00  0.00     0.167 HD
ATOM     36  C   UNL A   1      43.221  32.754  31.534  1.00  0.00     0.074 A 
ATOM     37  C   UNL A   1      44.598  32.825  31.982  1.00  0.00     0.031 C 
ATOM     38  C   UNL A   1      42.311  33.743  31.703  1.00  0.00     0.031 A 
BRANCH  25  39
ATOM     39  C   UNL A   1      36.730  32.472  29.380  1.00  0.00    -0.014 A 
ATOM     40  C   UNL A   1      35.700  32.306  30.318  1.00  0.00     0.009 A 
ATOM     41  C   UNL A   1      36.449  33.137  28.175  1.00  0.00     0.009 A 
ATOM     42  C   UNL A   1      34.409  32.765  30.038  1.00  0.00     0.001 A 
ATOM     43  C   UNL A   1      35.167  33.618  27.910  1.00  0.00     0.001 A 
ATOM     44  C   UNL A   1      34.144  33.423  28.838  1.00  0.00     0.000 A 
ENDBRANCH  25  39
BRANCH  26  45
ATOM     45  C   UNL A   1      46.013  29.061  30.730  1.00  0.00    -0.014 A 
ATOM     46  C   UNL A   1      47.027  29.295  29.789  1.00  0.00     0.009 A 
ATOM     47  C   UNL A   1      46.322  28.343  31.897  1.00  0.00     0.009 A 
ATOM     48  C   UNL A   1      48.317  28.804  30.004  1.00  0.00     0.001 A 
ATOM     49  C   UNL A   1      47.620  27.882  32.125  1.00  0.00     0.001 A 
ATOM     50  C   UNL A   1      48.614  28.106  31.173  1.00  0.00     0.000 A 
ENDBRANCH  26  45
BRANCH  38  51
ATOM     51  C   UNL A   1      42.775  34.971  32.431  1.00  0.00    -0.014 A 
ATOM     52  C   UNL A   1      43.446  36.007  31.760  1.00  0.00     0.009 A 
ATOM     53  C   UNL A   1      42.527  35.097  33.806  1.00  0.00     0.009 A 
ATOM     54  C   UNL A   1      43.895  37.126  32.463  1.00  0.00     0.001 A 
ATOM     55  C   UNL A   1      42.953  36.231  34.500  1.00  0.00     0.001 A 
ATOM     56  C   UNL A   1      43.645  37.239  33.831  1.00  0.00     0.000 A 
ENDBRANCH  38  51
ENDBRANCH  12  13
ENDBRANCH   5   7
ENDBRANCH   2   3
ENDBRANCH   1   2
BRANCH   1  57
ATOM     57  C   UNL A   1      34.678  23.143  25.686  1.00  0.00     0.117 C 
BRANCH  57  58
ATOM     58  N   UNL A   1      33.648  23.503  26.645  1.00  0.00    -0.355 N 
ATOM     59  C   UNL A   1      32.662  24.444  26.591  1.00  0.00     0.228 C 
ATOM     60  H   UNL A   1      33.663  22.976  27.476  1.00  0.00     0.163 HD
ATOM     61  O   UNL A   1      31.773  24.350  27.447  1.00  0.00    -0.274 OA
BRANCH  59  62
ATOM     62  C   UNL A   1      32.623  25.590  25.556  1.00  0.00     0.120 C 
BRANCH  62  63
ATOM     63  C   UNL A   1      31.520  25.384  24.451  1.00  0.00     0.066 C 
BRANCH  63  64
ATOM     64  C   UNL A   1      31.049  26.668  23.701  1.00  0.00    -0.039 A 
ATOM     65  C   UNL A   1      31.918  27.566  23.058  1.00  0.00     0.004 A 
ATOM     66  C   UNL A   1      29.678  26.995  23.687  1.00  0.00     0.004 A 
ATOM     67  C   UNL A   1      31.458  28.761  22.495  1.00  0.00     0.000 A 
ATOM     68  C   UNL A   1      29.208  28.155  23.061  1.00  0.00     0.000 A 
ATOM     69  C   UNL A   1      30.102  29.052  22.488  1.00  0.00     0.000 A 
ENDBRANCH  63  64
BRANCH  63  70
ATOM     70  C   UNL A   1      31.863  24.246  23.456  1.00  0.00    -0.039 A 
ATOM     71  C   UNL A   1      31.232  22.991  23.494  1.00  0.00     0.004 A 
ATOM     72  C   UNL A   1      32.901  24.421  22.523  1.00  0.00     0.004 A 
ATOM     73  C   UNL A   1      31.684  21.936  22.691  1.00  0.00     0.000 A 
ATOM     74  C   UNL A   1      33.328  23.380  21.696  1.00  0.00     0.000 A 
ATOM     75  C   UNL A   1      32.735  22.129  21.798  1.00  0.00     0.000 A 
ENDBRANCH  63  70
ENDBRANCH  62  63
BRANCH  62  76
ATOM     76  C   UNL A   1      32.707  26.959  26.260  1.00  0.00    -0.035 A 
ATOM     77  C   UNL A   1      31.602  27.586  26.869  1.00  0.00     0.004 A 
ATOM     78  C   UNL A   1      33.930  27.653  26.251  1.00  0.00     0.004 A 
ATOM     79  C   UNL A   1      31.719  28.841  27.468  1.00  0.00     0.000 A 
ATOM     80  C   UNL A   1      34.037  28.924  26.822  1.00  0.00     0.000 A 
ATOM     81  C   UNL A   1      32.934  29.513  27.435  1.00  0.00     0.000 A 
ENDBRANCH  62  76
ENDBRANCH  59  62
ENDBRANCH  57  58
ENDBRANCH   1  57
TORSDOF 14
ENDMDL
