MODEL 1
REMARK VINA RESULT:     -11.4      0.000      0.000
REMARK SMILES O=C(CC(=O)c1ccccc1)Nc1cccc(C(=O)NCCCNC(=O)c2ccc(-c3c4nc(c(-c5ccccc5)c5ccc([nH]5)c(-c5ccccc5)c5nc(c(-c6ccccc6)c6ccc3[nH]6)C=C5)C=C4)cc2)c1
REMARK SMILES IDX 21 1 20 2 18 3 19 4 17 6 13 7 14 8 75 9 15 10 16 11 12 12
REMARK SMILES IDX 1 13 2 14 3 16 4 17 5 18 6 19 7 20 11 21 8 22 10 23 9 24
REMARK SMILES IDX 22 25 23 26 24 27 25 28 26 30 27 31 28 32 74 33 29 34 73 35
REMARK SMILES IDX 30 36 31 37 32 38 67 39 33 40 72 41 66 42 68 43 34 44 71 45
REMARK SMILES IDX 65 46 64 47 35 49 57 50 42 51 56 52 43 53 46 54 55 55 69 56
REMARK SMILES IDX 44 57 45 58 54 60 70 61 47 62 36 63 37 64 41 65 38 66 40 67
REMARK SMILES IDX 39 68 58 69 59 70 63 71 60 72 62 73 61 74 48 75 49 76 53 77
REMARK SMILES IDX 50 78 52 79 51 80
REMARK H PARENT 20 5 12 15 24 29 68 48 46 59
REMARK Flexibility Score: inf
ROOT
ATOM      1  C   UNL A   1      36.721  20.792  24.777  1.00  0.00     0.118 C 
ENDROOT
BRANCH   1   2
ATOM      2  N   UNL A   1      35.776  20.966  25.878  1.00  0.00    -0.352 N 
ATOM      3  C   UNL A   1      34.465  21.399  25.915  1.00  0.00     0.251 C 
ATOM      4  O   UNL A   1      33.897  21.452  27.005  1.00  0.00    -0.269 OA
ATOM      5  H   UNL A   1      36.145  20.732  26.760  1.00  0.00     0.163 HD
BRANCH   3   6
ATOM      6  C   UNL A   1      33.749  21.881  24.702  1.00  0.00     0.041 A 
ATOM      7  C   UNL A   1      32.761  23.723  23.495  1.00  0.00     0.041 A 
ATOM      8  C   UNL A   1      31.996  22.824  22.751  1.00  0.00     0.026 A 
ATOM      9  C   UNL A   1      33.750  23.221  24.332  1.00  0.00     0.040 A 
ATOM     10  C   UNL A   1      32.155  21.448  22.937  1.00  0.00     0.003 A 
ATOM     11  C   UNL A   1      32.993  20.978  23.951  1.00  0.00     0.014 A 
BRANCH   7  12
ATOM     12  N   UNL A   1      32.433  25.098  23.445  1.00  0.00    -0.326 N 
ATOM     13  O   UNL A   1      33.652  25.786  21.575  1.00  0.00    -0.274 OA
ATOM     14  C   UNL A   1      32.901  26.021  22.518  1.00  0.00     0.232 C 
ATOM     15  H   UNL A   1      31.815  25.434  24.134  1.00  0.00     0.169 HD
BRANCH  14  16
ATOM     16  C   UNL A   1      32.447  27.429  22.750  1.00  0.00     0.181 C 
BRANCH  16  17
ATOM     17  C   UNL A   1      31.750  27.725  24.045  1.00  0.00     0.172 C 
ATOM     18  O   UNL A   1      30.648  27.227  24.279  1.00  0.00    -0.294 OA
BRANCH  17  19
ATOM     19  C   UNL A   1      32.392  28.560  25.101  1.00  0.00     0.018 A 
ATOM     20  C   UNL A   1      33.545  28.043  25.706  1.00  0.00     0.012 A 
ATOM     21  C   UNL A   1      31.864  29.768  25.571  1.00  0.00     0.012 A 
ATOM     22  C   UNL A   1      34.148  28.714  26.771  1.00  0.00     0.001 A 
ATOM     23  C   UNL A   1      32.457  30.425  26.651  1.00  0.00     0.001 A 
ATOM     24  C   UNL A   1      33.595  29.898  27.251  1.00  0.00     0.000 A 
ENDBRANCH  17  19
ENDBRANCH  16  17
ENDBRANCH  14  16
ENDBRANCH   7  12
ENDBRANCH   3   6
ENDBRANCH   1   2
BRANCH   1  25
ATOM     25  C   UNL A   1      37.775  19.722  24.999  1.00  0.00     0.042 C 
BRANCH  25  26
ATOM     26  C   UNL A   1      39.004  20.182  25.757  1.00  0.00     0.118 C 
BRANCH  26  27
ATOM     27  N   UNL A   1      40.060  19.178  25.800  1.00  0.00    -0.352 N 
ATOM     28  C   UNL A   1      41.416  19.293  25.995  1.00  0.00     0.251 C 
ATOM     29  H   UNL A   1      39.747  18.255  25.667  1.00  0.00     0.163 HD
ATOM     30  O   UNL A   1      42.135  18.312  25.823  1.00  0.00    -0.269 OA
BRANCH  28  31
ATOM     31  C   UNL A   1      42.029  20.584  26.381  1.00  0.00     0.039 A 
ATOM     32  C   UNL A   1      42.427  21.471  25.375  1.00  0.00     0.014 A 
ATOM     33  C   UNL A   1      42.241  20.921  27.717  1.00  0.00     0.014 A 
ATOM     34  C   UNL A   1      42.952  22.722  25.715  1.00  0.00     0.010 A 
ATOM     35  C   UNL A   1      42.658  22.203  28.056  1.00  0.00     0.010 A 
ATOM     36  C   UNL A   1      43.024  23.118  27.060  1.00  0.00    -0.014 A 
BRANCH  36  37
ATOM     37  C   UNL A   1      43.474  24.479  27.447  1.00  0.00     0.031 A 
ATOM     38  C   UNL A   1      42.470  25.528  27.845  1.00  0.00     0.074 A 
ATOM     39  C   UNL A   1      44.782  24.797  27.365  1.00  0.00     0.049 A 
ATOM     40  N   UNL A   1      42.664  26.789  28.141  1.00  0.00    -0.248 NA
ATOM     41  C   UNL A   1      41.057  25.115  27.885  1.00  0.00     0.031 C 
ATOM     42  C   UNL A   1      45.851  23.888  26.946  1.00  0.00     0.029 A 
ATOM     43  N   UNL A   1      45.434  25.978  27.622  1.00  0.00    -0.354 N 
ATOM     44  C   UNL A   1      41.403  27.321  28.379  1.00  0.00     0.074 A 
ATOM     45  C   UNL A   1      40.446  26.263  28.139  1.00  0.00     0.031 C 
ATOM     46  C   UNL A   1      47.027  24.534  27.006  1.00  0.00     0.029 A 
ATOM     47  C   UNL A   1      46.791  25.913  27.418  1.00  0.00     0.049 A 
ATOM     48  H   UNL A   1      44.972  26.793  27.923  1.00  0.00     0.167 HD
ATOM     49  C   UNL A   1      41.070  28.570  28.781  1.00  0.00     0.031 A 
ATOM     50  C   UNL A   1      47.741  26.860  27.539  1.00  0.00     0.031 A 
ATOM     51  C   UNL A   1      42.023  29.618  29.029  1.00  0.00     0.049 A 
ATOM     52  C   UNL A   1      47.345  28.242  27.974  1.00  0.00     0.074 A 
ATOM     53  C   UNL A   1      41.793  30.899  29.502  1.00  0.00     0.029 A 
ATOM     54  N   UNL A   1      43.389  29.508  28.820  1.00  0.00    -0.354 N 
ATOM     55  N   UNL A   1      46.155  28.706  28.270  1.00  0.00    -0.248 NA
ATOM     56  C   UNL A   1      48.426  29.229  28.101  1.00  0.00     0.031 C 
ATOM     57  C   UNL A   1      43.012  31.583  29.520  1.00  0.00     0.029 A 
ATOM     58  C   UNL A   1      44.011  30.708  29.122  1.00  0.00     0.049 A 
ATOM     59  H   UNL A   1      43.850  28.697  28.503  1.00  0.00     0.167 HD
ATOM     60  C   UNL A   1      46.347  30.030  28.642  1.00  0.00     0.074 A 
ATOM     61  C   UNL A   1      47.769  30.287  28.555  1.00  0.00     0.031 C 
ATOM     62  C   UNL A   1      45.427  30.951  29.023  1.00  0.00     0.031 A 
BRANCH  49  63
ATOM     63  C   UNL A   1      39.607  28.874  28.965  1.00  0.00    -0.014 A 
ATOM     64  C   UNL A   1      38.971  28.676  30.202  1.00  0.00     0.009 A 
ATOM     65  C   UNL A   1      38.863  29.398  27.897  1.00  0.00     0.009 A 
ATOM     66  C   UNL A   1      37.611  28.958  30.352  1.00  0.00     0.001 A 
ATOM     67  C   UNL A   1      37.511  29.709  28.059  1.00  0.00     0.001 A 
ATOM     68  C   UNL A   1      36.883  29.479  29.282  1.00  0.00     0.000 A 
ENDBRANCH  49  63
BRANCH  50  69
ATOM     69  C   UNL A   1      49.162  26.529  27.253  1.00  0.00    -0.014 A 
ATOM     70  C   UNL A   1      49.651  26.562  25.938  1.00  0.00     0.009 A 
ATOM     71  C   UNL A   1      50.038  26.180  28.293  1.00  0.00     0.009 A 
ATOM     72  C   UNL A   1      50.979  26.223  25.667  1.00  0.00     0.001 A 
ATOM     73  C   UNL A   1      51.374  25.874  28.022  1.00  0.00     0.001 A 
ATOM     74  C   UNL A   1      51.841  25.885  26.709  1.00  0.00     0.000 A 
ENDBRANCH  50  69
BRANCH  62  75
ATOM     75  C   UNL A   1      45.936  32.313  29.402  1.00  0.00    -0.014 A 
ATOM     76  C   UNL A   1      46.045  33.342  28.452  1.00  0.00     0.009 A 
ATOM     77  C   UNL A   1      46.273  32.582  30.738  1.00  0.00     0.009 A 
ATOM     78  C   UNL A   1      46.517  34.601  28.828  1.00  0.00     0.001 A 
ATOM     79  C   UNL A   1      46.712  33.851  31.116  1.00  0.00     0.001 A 
ATOM     80  C   UNL A   1      46.844  34.856  30.159  1.00  0.00     0.000 A 
ENDBRANCH  62  75
ENDBRANCH  36  37
ENDBRANCH  28  31
ENDBRANCH  26  27
ENDBRANCH  25  26
ENDBRANCH   1  25
TORSDOF 14
ENDMDL
MODEL 2
REMARK VINA RESULT:     -11.4      1.320      6.075
REMARK SMILES O=C(CC(=O)c1ccccc1)Nc1cccc(C(=O)NCCCNC(=O)c2ccc(-c3c4nc(c(-c5ccccc5)c5ccc([nH]5)c(-c5ccccc5)c5nc(c(-c6ccccc6)c6ccc3[nH]6)C=C5)C=C4)cc2)c1
REMARK SMILES IDX 21 1 20 2 18 3 19 4 17 6 13 7 14 8 75 9 15 10 16 11 12 12
REMARK SMILES IDX 1 13 2 14 3 16 4 17 5 18 6 19 7 20 11 21 8 22 10 23 9 24
REMARK SMILES IDX 22 25 23 26 24 27 25 28 26 30 27 31 28 32 74 33 29 34 73 35
REMARK SMILES IDX 30 36 31 37 32 38 67 39 33 40 72 41 66 42 68 43 34 44 71 45
REMARK SMILES IDX 65 46 64 47 35 49 57 50 42 51 56 52 43 53 46 54 55 55 69 56
REMARK SMILES IDX 44 57 45 58 54 60 70 61 47 62 36 63 37 64 41 65 38 66 40 67
REMARK SMILES IDX 39 68 58 69 59 70 63 71 60 72 62 73 61 74 48 75 49 76 53 77
REMARK SMILES IDX 50 78 52 79 51 80
REMARK H PARENT 20 5 12 15 24 29 68 48 46 59
REMARK Flexibility Score: inf
ROOT
ATOM      1  C   UNL A   1      36.987  21.048  24.603  1.00  0.00     0.118 C 
ENDROOT
BRANCH   1   2
ATOM      2  N   UNL A   1      36.155  21.288  25.781  1.00  0.00    -0.352 N 
ATOM      3  C   UNL A   1      34.823  21.625  25.922  1.00  0.00     0.251 C 
ATOM      4  O   UNL A   1      34.374  21.770  27.058  1.00  0.00    -0.269 OA
ATOM      5  H   UNL A   1      36.636  21.190  26.635  1.00  0.00     0.163 HD
BRANCH   3   6
ATOM      6  C   UNL A   1      33.942  21.902  24.755  1.00  0.00     0.041 A 
ATOM      7  C   UNL A   1      32.643  23.497  23.493  1.00  0.00     0.041 A 
ATOM      8  C   UNL A   1      31.910  22.453  22.928  1.00  0.00     0.026 A 
ATOM      9  C   UNL A   1      33.760  23.188  24.260  1.00  0.00     0.040 A 
ATOM     10  C   UNL A   1      32.235  21.127  23.227  1.00  0.00     0.003 A 
ATOM     11  C   UNL A   1      33.217  20.853  24.183  1.00  0.00     0.014 A 
BRANCH   7  12
ATOM     12  N   UNL A   1      32.165  24.821  23.347  1.00  0.00    -0.326 N 
ATOM     13  O   UNL A   1      33.713  25.697  21.831  1.00  0.00    -0.274 OA
ATOM     14  C   UNL A   1      32.727  25.815  22.554  1.00  0.00     0.232 C 
ATOM     15  H   UNL A   1      31.357  25.061  23.856  1.00  0.00     0.169 HD
BRANCH  14  16
ATOM     16  C   UNL A   1      32.052  27.148  22.649  1.00  0.00     0.181 C 
BRANCH  16  17
ATOM     17  C   UNL A   1      31.027  27.329  23.730  1.00  0.00     0.172 C 
ATOM     18  O   UNL A   1      29.908  26.830  23.606  1.00  0.00    -0.294 OA
BRANCH  17  19
ATOM     19  C   UNL A   1      31.351  28.044  24.999  1.00  0.00     0.018 A 
ATOM     20  C   UNL A   1      31.717  29.391  24.891  1.00  0.00     0.012 A 
ATOM     21  C   UNL A   1      31.391  27.427  26.254  1.00  0.00     0.012 A 
ATOM     22  C   UNL A   1      32.131  30.104  26.018  1.00  0.00     0.001 A 
ATOM     23  C   UNL A   1      31.827  28.137  27.375  1.00  0.00     0.001 A 
ATOM     24  C   UNL A   1      32.199  29.472  27.256  1.00  0.00     0.000 A 
ENDBRANCH  17  19
ENDBRANCH  16  17
ENDBRANCH  14  16
ENDBRANCH   7  12
ENDBRANCH   3   6
ENDBRANCH   1   2
BRANCH   1  25
ATOM     25  C   UNL A   1      38.035  19.962  24.767  1.00  0.00     0.042 C 
BRANCH  25  26
ATOM     26  C   UNL A   1      38.946  20.128  25.966  1.00  0.00     0.118 C 
BRANCH  26  27
ATOM     27  N   UNL A   1      40.126  19.273  25.913  1.00  0.00    -0.352 N 
ATOM     28  C   UNL A   1      41.458  19.548  26.112  1.00  0.00     0.251 C 
ATOM     29  H   UNL A   1      39.935  18.333  25.695  1.00  0.00     0.163 HD
ATOM     30  O   UNL A   1      42.297  18.691  25.848  1.00  0.00    -0.269 OA
BRANCH  28  31
ATOM     31  C   UNL A   1      41.902  20.868  26.616  1.00  0.00     0.039 A 
ATOM     32  C   UNL A   1      42.336  21.830  25.698  1.00  0.00     0.014 A 
ATOM     33  C   UNL A   1      41.921  21.161  27.979  1.00  0.00     0.014 A 
ATOM     34  C   UNL A   1      42.702  23.104  26.142  1.00  0.00     0.010 A 
ATOM     35  C   UNL A   1      42.177  22.458  28.410  1.00  0.00     0.010 A 
ATOM     36  C   UNL A   1      42.577  23.444  27.498  1.00  0.00    -0.014 A 
BRANCH  36  37
ATOM     37  C   UNL A   1      42.853  24.820  27.984  1.00  0.00     0.031 A 
ATOM     38  C   UNL A   1      44.248  25.221  28.381  1.00  0.00     0.074 A 
ATOM     39  C   UNL A   1      41.832  25.686  28.145  1.00  0.00     0.049 A 
ATOM     40  N   UNL A   1      44.670  26.349  28.897  1.00  0.00    -0.248 NA
ATOM     41  C   UNL A   1      45.306  24.212  28.204  1.00  0.00     0.031 C 
ATOM     42  C   UNL A   1      40.426  25.407  27.845  1.00  0.00     0.029 A 
ATOM     43  N   UNL A   1      41.820  26.978  28.610  1.00  0.00    -0.354 N 
ATOM     44  C   UNL A   1      46.029  26.176  29.125  1.00  0.00     0.074 A 
ATOM     45  C   UNL A   1      46.353  24.819  28.744  1.00  0.00     0.031 C 
ATOM     46  C   UNL A   1      39.695  26.503  28.102  1.00  0.00     0.029 A 
ATOM     47  C   UNL A   1      40.569  27.544  28.631  1.00  0.00     0.049 A 
ATOM     48  H   UNL A   1      42.632  27.453  28.901  1.00  0.00     0.167 HD
ATOM     49  C   UNL A   1      46.933  27.070  29.591  1.00  0.00     0.031 A 
ATOM     50  C   UNL A   1      40.165  28.762  29.040  1.00  0.00     0.031 A 
ATOM     51  C   UNL A   1      46.612  28.423  29.960  1.00  0.00     0.049 A 
ATOM     52  C   UNL A   1      41.185  29.733  29.564  1.00  0.00     0.074 A 
ATOM     53  C   UNL A   1      47.466  29.428  30.380  1.00  0.00     0.029 A 
ATOM     54  N   UNL A   1      45.333  28.959  29.957  1.00  0.00    -0.354 N 
ATOM     55  N   UNL A   1      42.479  29.579  29.699  1.00  0.00    -0.248 NA
ATOM     56  C   UNL A   1      40.687  31.051  29.983  1.00  0.00     0.031 C 
ATOM     57  C   UNL A   1      46.697  30.553  30.690  1.00  0.00     0.029 A 
ATOM     58  C   UNL A   1      45.371  30.271  30.400  1.00  0.00     0.049 A 
ATOM     59  H   UNL A   1      44.519  28.479  29.681  1.00  0.00     0.167 HD
ATOM     60  C   UNL A   1      42.955  30.786  30.195  1.00  0.00     0.074 A 
ATOM     61  C   UNL A   1      41.813  31.668  30.315  1.00  0.00     0.031 C 
ATOM     62  C   UNL A   1      44.224  31.133  30.521  1.00  0.00     0.031 A 
BRANCH  49  63
ATOM     63  C   UNL A   1      48.357  26.607  29.738  1.00  0.00    -0.014 A 
ATOM     64  C   UNL A   1      49.294  26.789  28.707  1.00  0.00     0.009 A 
ATOM     65  C   UNL A   1      48.777  26.011  30.937  1.00  0.00     0.009 A 
ATOM     66  C   UNL A   1      50.610  26.346  28.860  1.00  0.00     0.001 A 
ATOM     67  C   UNL A   1      50.102  25.598  31.099  1.00  0.00     0.001 A 
ATOM     68  C   UNL A   1      51.014  25.756  30.057  1.00  0.00     0.000 A 
ENDBRANCH  49  63
BRANCH  50  69
ATOM     69  C   UNL A   1      38.728  29.136  28.960  1.00  0.00    -0.014 A 
ATOM     70  C   UNL A   1      37.889  28.985  30.075  1.00  0.00     0.009 A 
ATOM     71  C   UNL A   1      38.187  29.646  27.769  1.00  0.00     0.009 A 
ATOM     72  C   UNL A   1      36.533  29.310  29.991  1.00  0.00     0.001 A 
ATOM     73  C   UNL A   1      36.837  30.000  27.697  1.00  0.00     0.001 A 
ATOM     74  C   UNL A   1      36.009  29.822  28.804  1.00  0.00     0.000 A 
ENDBRANCH  50  69
BRANCH  62  75
ATOM     75  C   UNL A   1      44.448  32.537  31.011  1.00  0.00    -0.014 A 
ATOM     76  C   UNL A   1      44.415  32.846  32.379  1.00  0.00     0.009 A 
ATOM     77  C   UNL A   1      44.735  33.556  30.089  1.00  0.00     0.009 A 
ATOM     78  C   UNL A   1      44.628  34.157  32.811  1.00  0.00     0.001 A 
ATOM     79  C   UNL A   1      44.982  34.858  30.527  1.00  0.00     0.001 A 
ATOM     80  C   UNL A   1      44.917  35.159  31.887  1.00  0.00     0.000 A 
ENDBRANCH  62  75
ENDBRANCH  36  37
ENDBRANCH  28  31
ENDBRANCH  26  27
ENDBRANCH  25  26
ENDBRANCH   1  25
TORSDOF 14
ENDMDL
MODEL 3
REMARK VINA RESULT:     -11.4      1.585      2.061
REMARK SMILES O=C(CC(=O)c1ccccc1)Nc1cccc(C(=O)NCCCNC(=O)c2ccc(-c3c4nc(c(-c5ccccc5)c5ccc([nH]5)c(-c5ccccc5)c5nc(c(-c6ccccc6)c6ccc3[nH]6)C=C5)C=C4)cc2)c1
REMARK SMILES IDX 21 1 20 2 18 3 19 4 17 6 13 7 14 8 75 9 15 10 16 11 12 12
REMARK SMILES IDX 1 13 2 14 3 16 4 17 5 18 6 19 7 20 11 21 8 22 10 23 9 24
REMARK SMILES IDX 22 25 23 26 24 27 25 28 26 30 27 31 28 32 74 33 29 34 73 35
REMARK SMILES IDX 30 36 31 37 32 38 67 39 33 40 72 41 66 42 68 43 34 44 71 45
REMARK SMILES IDX 65 46 64 47 35 49 57 50 42 51 56 52 43 53 46 54 55 55 69 56
REMARK SMILES IDX 44 57 45 58 54 60 70 61 47 62 36 63 37 64 41 65 38 66 40 67
REMARK SMILES IDX 39 68 58 69 59 70 63 71 60 72 62 73 61 74 48 75 49 76 53 77
REMARK SMILES IDX 50 78 52 79 51 80
REMARK H PARENT 20 5 12 15 24 29 68 48 46 59
REMARK Flexibility Score: inf
ROOT
ATOM      1  C   UNL A   1      37.451  21.312  24.494  1.00  0.00     0.118 C 
ENDROOT
BRANCH   1   2
ATOM      2  N   UNL A   1      37.922  22.511  25.182  1.00  0.00    -0.352 N 
ATOM      3  C   UNL A   1      37.254  23.578  25.749  1.00  0.00     0.251 C 
ATOM      4  O   UNL A   1      37.917  24.473  26.273  1.00  0.00    -0.269 OA
ATOM      5  H   UNL A   1      38.903  22.570  25.255  1.00  0.00     0.163 HD
BRANCH   3   6
ATOM      6  C   UNL A   1      35.774  23.725  25.673  1.00  0.00     0.041 A 
ATOM      7  C   UNL A   1      33.872  25.000  24.913  1.00  0.00     0.041 A 
ATOM      8  C   UNL A   1      33.074  24.385  25.878  1.00  0.00     0.026 A 
ATOM      9  C   UNL A   1      35.164  24.527  24.716  1.00  0.00     0.040 A 
ATOM     10  C   UNL A   1      33.611  23.391  26.700  1.00  0.00     0.003 A 
ATOM     11  C   UNL A   1      34.976  23.099  26.634  1.00  0.00     0.014 A 
BRANCH   7  12
ATOM     12  N   UNL A   1      33.371  26.142  24.244  1.00  0.00    -0.326 N 
ATOM     13  O   UNL A   1      33.653  25.520  22.010  1.00  0.00    -0.274 OA
ATOM     14  C   UNL A   1      33.309  26.328  22.868  1.00  0.00     0.232 C 
ATOM     15  H   UNL A   1      33.035  26.877  24.808  1.00  0.00     0.169 HD
BRANCH  14  16
ATOM     16  C   UNL A   1      32.800  27.669  22.439  1.00  0.00     0.181 C 
BRANCH  16  17
ATOM     17  C   UNL A   1      32.018  28.465  23.442  1.00  0.00     0.172 C 
ATOM     18  O   UNL A   1      32.609  29.142  24.285  1.00  0.00    -0.294 OA
BRANCH  17  19
ATOM     19  C   UNL A   1      30.528  28.518  23.405  1.00  0.00     0.018 A 
ATOM     20  C   UNL A   1      29.844  27.329  23.689  1.00  0.00     0.012 A 
ATOM     21  C   UNL A   1      29.796  29.647  23.022  1.00  0.00     0.012 A 
ATOM     22  C   UNL A   1      28.454  27.268  23.578  1.00  0.00     0.001 A 
ATOM     23  C   UNL A   1      28.407  29.576  22.890  1.00  0.00     0.001 A 
ATOM     24  C   UNL A   1      27.738  28.388  23.165  1.00  0.00     0.000 A 
ENDBRANCH  17  19
ENDBRANCH  16  17
ENDBRANCH  14  16
ENDBRANCH   7  12
ENDBRANCH   3   6
ENDBRANCH   1   2
BRANCH   1  25
ATOM     25  C   UNL A   1      38.086  20.014  24.958  1.00  0.00     0.042 C 
BRANCH  25  26
ATOM     26  C   UNL A   1      39.119  20.163  26.056  1.00  0.00     0.118 C 
BRANCH  26  27
ATOM     27  N   UNL A   1      40.243  19.246  25.915  1.00  0.00    -0.352 N 
ATOM     28  C   UNL A   1      41.599  19.446  26.024  1.00  0.00     0.251 C 
ATOM     29  H   UNL A   1      39.986  18.320  25.704  1.00  0.00     0.163 HD
ATOM     30  O   UNL A   1      42.369  18.548  25.697  1.00  0.00    -0.269 OA
BRANCH  28  31
ATOM     31  C   UNL A   1      42.148  20.734  26.506  1.00  0.00     0.039 A 
ATOM     32  C   UNL A   1      42.629  21.655  25.570  1.00  0.00     0.014 A 
ATOM     33  C   UNL A   1      42.219  21.035  27.865  1.00  0.00     0.014 A 
ATOM     34  C   UNL A   1      43.096  22.903  25.994  1.00  0.00     0.010 A 
ATOM     35  C   UNL A   1      42.577  22.314  28.279  1.00  0.00     0.010 A 
ATOM     36  C   UNL A   1      43.026  23.262  27.349  1.00  0.00    -0.014 A 
BRANCH  36  37
ATOM     37  C   UNL A   1      43.412  24.617  27.817  1.00  0.00     0.031 A 
ATOM     38  C   UNL A   1      42.356  25.648  28.114  1.00  0.00     0.074 A 
ATOM     39  C   UNL A   1      44.717  24.947  27.898  1.00  0.00     0.049 A 
ATOM     40  N   UNL A   1      42.500  26.904  28.458  1.00  0.00    -0.248 NA
ATOM     41  C   UNL A   1      40.953  25.223  27.975  1.00  0.00     0.031 C 
ATOM     42  C   UNL A   1      45.838  24.057  27.591  1.00  0.00     0.029 A 
ATOM     43  N   UNL A   1      45.320  26.127  28.256  1.00  0.00    -0.354 N 
ATOM     44  C   UNL A   1      41.214  27.419  28.555  1.00  0.00     0.074 A 
ATOM     45  C   UNL A   1      40.303  26.360  28.180  1.00  0.00     0.031 C 
ATOM     46  C   UNL A   1      46.991  24.711  27.805  1.00  0.00     0.029 A 
ATOM     47  C   UNL A   1      46.692  26.078  28.215  1.00  0.00     0.049 A 
ATOM     48  H   UNL A   1      44.817  26.932  28.518  1.00  0.00     0.167 HD
ATOM     49  C   UNL A   1      40.821  28.657  28.940  1.00  0.00     0.031 A 
ATOM     50  C   UNL A   1      47.610  27.030  28.469  1.00  0.00     0.031 A 
ATOM     51  C   UNL A   1      41.726  29.707  29.323  1.00  0.00     0.049 A 
ATOM     52  C   UNL A   1      47.150  28.399  28.884  1.00  0.00     0.074 A 
ATOM     53  C   UNL A   1      41.427  30.974  29.792  1.00  0.00     0.029 A 
ATOM     54  N   UNL A   1      43.108  29.613  29.277  1.00  0.00    -0.354 N 
ATOM     55  N   UNL A   1      45.929  28.846  29.045  1.00  0.00    -0.248 NA
ATOM     56  C   UNL A   1      48.197  29.392  29.160  1.00  0.00     0.031 C 
ATOM     57  C   UNL A   1      42.628  31.668  29.971  1.00  0.00     0.029 A 
ATOM     58  C   UNL A   1      43.677  30.810  29.677  1.00  0.00     0.049 A 
ATOM     59  H   UNL A   1      43.612  28.813  29.000  1.00  0.00     0.167 HD
ATOM     60  C   UNL A   1      46.060  30.163  29.465  1.00  0.00     0.074 A 
ATOM     61  C   UNL A   1      47.480  30.434  29.554  1.00  0.00     0.031 C 
ATOM     62  C   UNL A   1      45.092  31.067  29.753  1.00  0.00     0.031 A 
BRANCH  49  63
ATOM     63  C   UNL A   1      39.344  28.945  28.955  1.00  0.00    -0.014 A 
ATOM     64  C   UNL A   1      38.571  28.737  30.110  1.00  0.00     0.009 A 
ATOM     65  C   UNL A   1      38.722  29.462  27.809  1.00  0.00     0.009 A 
ATOM     66  C   UNL A   1      37.199  29.004  30.102  1.00  0.00     0.001 A 
ATOM     67  C   UNL A   1      37.357  29.758  27.813  1.00  0.00     0.001 A 
ATOM     68  C   UNL A   1      36.595  29.518  28.956  1.00  0.00     0.000 A 
ENDBRANCH  49  63
BRANCH  50  69
ATOM     69  C   UNL A   1      49.059  26.719  28.348  1.00  0.00    -0.014 A 
ATOM     70  C   UNL A   1      49.715  26.844  27.114  1.00  0.00     0.009 A 
ATOM     71  C   UNL A   1      49.795  26.293  29.466  1.00  0.00     0.009 A 
ATOM     72  C   UNL A   1      51.070  26.523  26.995  1.00  0.00     0.001 A 
ATOM     73  C   UNL A   1      51.157  26.004  29.351  1.00  0.00     0.001 A 
ATOM     74  C   UNL A   1      51.791  26.109  28.114  1.00  0.00     0.000 A 
ENDBRANCH  50  69
BRANCH  62  75
ATOM     75  C   UNL A   1      45.536  32.425  30.219  1.00  0.00    -0.014 A 
ATOM     76  C   UNL A   1      45.725  33.482  29.314  1.00  0.00     0.009 A 
ATOM     77  C   UNL A   1      45.731  32.660  31.589  1.00  0.00     0.009 A 
ATOM     78  C   UNL A   1      46.136  34.736  29.770  1.00  0.00     0.001 A 
ATOM     79  C   UNL A   1      46.108  33.924  32.044  1.00  0.00     0.001 A 
ATOM     80  C   UNL A   1      46.321  34.957  31.134  1.00  0.00     0.000 A 
ENDBRANCH  62  75
ENDBRANCH  36  37
ENDBRANCH  28  31
ENDBRANCH  26  27
ENDBRANCH  25  26
ENDBRANCH   1  25
TORSDOF 14
ENDMDL
