MODEL 1
REMARK VINA RESULT:     -10.2      0.000      0.000
REMARK SMILES COCC(=O)N[C@H]1C=C[C@@H](C(=O)NCCCNC(=O)c2ccc(-c3c4nc(c(-c5ccccc5)c5ccc([nH]5)c(-c5ccccc5)c5nc(c(-c6ccccc6)c6ccc3[nH]6)C=C5)C=C4)cc2)C1
REMARK SMILES IDX 14 1 13 2 11 3 12 4 10 6 7 7 8 8 68 9 9 10 6 11 4 12 5 13
REMARK SMILES IDX 3 15 2 16 1 17 15 18 16 19 17 20 18 21 19 23 20 24 21 25
REMARK SMILES IDX 67 26 22 27 66 28 23 29 24 30 25 31 60 32 26 33 65 34 59 35
REMARK SMILES IDX 61 36 27 37 64 38 58 39 57 40 28 42 50 43 35 44 49 45 36 46
REMARK SMILES IDX 39 47 48 48 62 49 37 50 38 51 47 53 63 54 40 55 29 56 30 57
REMARK SMILES IDX 34 58 31 59 33 60 32 61 51 62 52 63 56 64 53 65 55 66 54 67
REMARK SMILES IDX 41 68 42 69 46 70 43 71 45 72 44 73
REMARK H PARENT 13 5 6 14 17 22 61 41 39 52
REMARK Flexibility Score: inf
ROOT
ATOM      1  C   UNL A   1      32.410  26.544  25.849  1.00  0.00     0.117 C 
ENDROOT
BRANCH   1   2
ATOM      2  N   UNL A   1      31.472  25.666  26.529  1.00  0.00    -0.356 N 
ATOM      3  C   UNL A   1      31.404  24.310  26.616  1.00  0.00     0.227 C 
ATOM      4  O   UNL A   1      30.467  23.843  27.273  1.00  0.00    -0.274 OA
ATOM      5  H   UNL A   1      30.758  26.138  27.015  1.00  0.00     0.163 HD
BRANCH   3   6
ATOM      6  C   UNL A   1      32.416  23.369  25.957  1.00  0.00     0.103 C 
ATOM      7  C   UNL A   1      33.124  21.039  25.807  1.00  0.00     0.106 C 
ATOM      8  C   UNL A   1      32.331  21.463  24.603  1.00  0.00    -0.006 C 
ATOM      9  C   UNL A   1      32.835  22.163  26.806  1.00  0.00     0.047 C 
ATOM     10  C   UNL A   1      31.939  22.741  24.684  1.00  0.00    -0.016 C 
BRANCH   7  11
ATOM     11  N   UNL A   1      32.793  19.653  26.075  1.00  0.00    -0.348 N 
ATOM     12  C   UNL A   1      32.940  18.469  25.429  1.00  0.00     0.246 C 
ATOM     13  O   UNL A   1      32.317  17.498  25.873  1.00  0.00    -0.272 OA
ATOM     14  H   UNL A   1      32.348  19.543  26.948  1.00  0.00     0.164 HD
BRANCH  12  15
ATOM     15  C   UNL A   1      33.897  18.292  24.260  1.00  0.00     0.259 C 
BRANCH  15  16
ATOM     16  O   UNL A   1      33.452  17.458  23.206  1.00  0.00    -0.375 OA
ATOM     17  C   UNL A   1      32.430  18.080  22.439  1.00  0.00     0.195 C 
ENDBRANCH  15  16
ENDBRANCH  12  15
ENDBRANCH   7  11
ENDBRANCH   3   6
ENDBRANCH   1   2
BRANCH   1  18
ATOM     18  C   UNL A   1      32.842  27.703  26.742  1.00  0.00     0.042 C 
BRANCH  18  19
ATOM     19  C   UNL A   1      33.801  28.683  26.080  1.00  0.00     0.118 C 
BRANCH  19  20
ATOM     20  N   UNL A   1      33.700  30.022  26.642  1.00  0.00    -0.352 N 
ATOM     21  C   UNL A   1      34.476  30.687  27.557  1.00  0.00     0.251 C 
ATOM     22  H   UNL A   1      32.937  30.545  26.305  1.00  0.00     0.163 HD
ATOM     23  O   UNL A   1      34.049  31.745  28.029  1.00  0.00    -0.269 OA
BRANCH  21  24
ATOM     24  C   UNL A   1      35.795  30.179  28.010  1.00  0.00     0.039 A 
ATOM     25  C   UNL A   1      35.915  29.717  29.327  1.00  0.00     0.014 A 
ATOM     26  C   UNL A   1      36.934  30.230  27.205  1.00  0.00     0.014 A 
ATOM     27  C   UNL A   1      37.149  29.269  29.813  1.00  0.00     0.010 A 
ATOM     28  C   UNL A   1      38.142  29.695  27.656  1.00  0.00     0.010 A 
ATOM     29  C   UNL A   1      38.271  29.227  28.972  1.00  0.00    -0.014 A 
BRANCH  29  30
ATOM     30  C   UNL A   1      39.587  28.729  29.454  1.00  0.00     0.031 A 
ATOM     31  C   UNL A   1      40.429  29.568  30.381  1.00  0.00     0.074 A 
ATOM     32  C   UNL A   1      40.069  27.554  29.004  1.00  0.00     0.049 A 
ATOM     33  N   UNL A   1      41.637  29.344  30.835  1.00  0.00    -0.248 NA
ATOM     34  C   UNL A   1      39.847  30.843  30.832  1.00  0.00     0.031 C 
ATOM     35  C   UNL A   1      39.388  26.660  28.067  1.00  0.00     0.029 A 
ATOM     36  N   UNL A   1      41.258  26.918  29.267  1.00  0.00    -0.354 N 
ATOM     37  C   UNL A   1      41.973  30.462  31.588  1.00  0.00     0.074 A 
ATOM     38  C   UNL A   1      40.859  31.380  31.499  1.00  0.00     0.031 C 
ATOM     39  C   UNL A   1      40.161  25.586  27.844  1.00  0.00     0.029 A 
ATOM     40  C   UNL A   1      41.407  25.731  28.591  1.00  0.00     0.049 A 
ATOM     41  H   UNL A   1      41.939  27.278  29.879  1.00  0.00     0.167 HD
ATOM     42  C   UNL A   1      43.098  30.701  32.304  1.00  0.00     0.031 A 
ATOM     43  C   UNL A   1      42.432  24.859  28.564  1.00  0.00     0.031 A 
ATOM     44  C   UNL A   1      44.196  29.780  32.426  1.00  0.00     0.049 A 
ATOM     45  C   UNL A   1      43.657  25.127  29.389  1.00  0.00     0.074 A 
ATOM     46  C   UNL A   1      45.339  29.897  33.198  1.00  0.00     0.029 A 
ATOM     47  N   UNL A   1      44.288  28.570  31.756  1.00  0.00    -0.354 N 
ATOM     48  N   UNL A   1      43.926  26.156  30.156  1.00  0.00    -0.248 NA
ATOM     49  C   UNL A   1      44.716  24.108  29.354  1.00  0.00     0.031 C 
ATOM     50  C   UNL A   1      46.145  28.777  32.960  1.00  0.00     0.029 A 
ATOM     51  C   UNL A   1      45.479  27.942  32.077  1.00  0.00     0.049 A 
ATOM     52  H   UNL A   1      43.606  28.211  31.143  1.00  0.00     0.167 HD
ATOM     53  C   UNL A   1      45.175  25.900  30.709  1.00  0.00     0.074 A 
ATOM     54  C   UNL A   1      45.602  24.612  30.202  1.00  0.00     0.031 C 
ATOM     55  C   UNL A   1      45.899  26.665  31.560  1.00  0.00     0.031 A 
BRANCH  42  56
ATOM     56  C   UNL A   1      43.200  32.029  33.005  1.00  0.00    -0.014 A 
ATOM     57  C   UNL A   1      42.709  32.208  34.308  1.00  0.00     0.009 A 
ATOM     58  C   UNL A   1      43.810  33.113  32.355  1.00  0.00     0.009 A 
ATOM     59  C   UNL A   1      42.783  33.458  34.927  1.00  0.00     0.001 A 
ATOM     60  C   UNL A   1      43.910  34.354  32.988  1.00  0.00     0.001 A 
ATOM     61  C   UNL A   1      43.385  34.528  34.267  1.00  0.00     0.000 A 
ENDBRANCH  42  56
BRANCH  43  62
ATOM     62  C   UNL A   1      42.331  23.636  27.727  1.00  0.00    -0.014 A 
ATOM     63  C   UNL A   1      42.770  23.645  26.395  1.00  0.00     0.009 A 
ATOM     64  C   UNL A   1      41.817  22.446  28.267  1.00  0.00     0.009 A 
ATOM     65  C   UNL A   1      42.683  22.490  25.615  1.00  0.00     0.001 A 
ATOM     66  C   UNL A   1      41.755  21.287  27.492  1.00  0.00     0.001 A 
ATOM     67  C   UNL A   1      42.181  21.312  26.165  1.00  0.00     0.000 A 
ENDBRANCH  43  62
BRANCH  55  68
ATOM     68  C   UNL A   1      47.224  26.122  32.013  1.00  0.00    -0.014 A 
ATOM     69  C   UNL A   1      47.326  25.326  33.164  1.00  0.00     0.009 A 
ATOM     70  C   UNL A   1      48.377  26.376  31.255  1.00  0.00     0.009 A 
ATOM     71  C   UNL A   1      48.566  24.819  33.563  1.00  0.00     0.001 A 
ATOM     72  C   UNL A   1      49.609  25.848  31.642  1.00  0.00     0.001 A 
ATOM     73  C   UNL A   1      49.705  25.077  32.800  1.00  0.00     0.000 A 
ENDBRANCH  55  68
ENDBRANCH  29  30
ENDBRANCH  21  24
ENDBRANCH  19  20
ENDBRANCH  18  19
ENDBRANCH   1  18
TORSDOF 13
ENDMDL
MODEL 2
REMARK VINA RESULT:      -9.9      4.238      8.283
REMARK SMILES COCC(=O)N[C@H]1C=C[C@@H](C(=O)NCCCNC(=O)c2ccc(-c3c4nc(c(-c5ccccc5)c5ccc([nH]5)c(-c5ccccc5)c5nc(c(-c6ccccc6)c6ccc3[nH]6)C=C5)C=C4)cc2)C1
REMARK SMILES IDX 14 1 13 2 11 3 12 4 10 6 7 7 8 8 68 9 9 10 6 11 4 12 5 13
REMARK SMILES IDX 3 15 2 16 1 17 15 18 16 19 17 20 18 21 19 23 20 24 21 25
REMARK SMILES IDX 67 26 22 27 66 28 23 29 24 30 25 31 60 32 26 33 65 34 59 35
REMARK SMILES IDX 61 36 27 37 64 38 58 39 57 40 28 42 50 43 35 44 49 45 36 46
REMARK SMILES IDX 39 47 48 48 62 49 37 50 38 51 47 53 63 54 40 55 29 56 30 57
REMARK SMILES IDX 34 58 31 59 33 60 32 61 51 62 52 63 56 64 53 65 55 66 54 67
REMARK SMILES IDX 41 68 42 69 46 70 43 71 45 72 44 73
REMARK H PARENT 13 5 6 14 17 22 61 41 39 52
REMARK Flexibility Score: inf
ROOT
ATOM      1  C   UNL A   1      31.361  30.908  26.021  1.00  0.00     0.117 C 
ENDROOT
BRANCH   1   2
ATOM      2  N   UNL A   1      32.288  30.042  26.730  1.00  0.00    -0.356 N 
ATOM      3  C   UNL A   1      32.912  28.891  26.361  1.00  0.00     0.227 C 
ATOM      4  O   UNL A   1      33.652  28.367  27.201  1.00  0.00    -0.274 OA
ATOM      5  H   UNL A   1      32.505  30.343  27.642  1.00  0.00     0.163 HD
BRANCH   3   6
ATOM      6  C   UNL A   1      32.742  28.242  24.984  1.00  0.00     0.103 C 
ATOM      7  C   UNL A   1      31.518  28.391  22.879  1.00  0.00     0.106 C 
ATOM      8  C   UNL A   1      32.917  28.922  22.753  1.00  0.00    -0.006 C 
ATOM      9  C   UNL A   1      31.328  28.317  24.397  1.00  0.00     0.047 C 
ATOM     10  C   UNL A   1      33.591  28.844  23.907  1.00  0.00    -0.016 C 
BRANCH   7  11
ATOM     11  N   UNL A   1      30.670  29.201  22.025  1.00  0.00    -0.348 N 
ATOM     12  C   UNL A   1      29.362  29.559  22.002  1.00  0.00     0.246 C 
ATOM     13  O   UNL A   1      28.935  30.088  20.970  1.00  0.00    -0.272 OA
ATOM     14  H   UNL A   1      31.171  29.590  21.272  1.00  0.00     0.164 HD
BRANCH  12  15
ATOM     15  C   UNL A   1      28.454  29.410  23.214  1.00  0.00     0.259 C 
BRANCH  15  16
ATOM     16  O   UNL A   1      27.270  30.186  23.210  1.00  0.00    -0.375 OA
ATOM     17  C   UNL A   1      27.507  31.510  23.670  1.00  0.00     0.195 C 
ENDBRANCH  15  16
ENDBRANCH  12  15
ENDBRANCH   7  11
ENDBRANCH   3   6
ENDBRANCH   1   2
BRANCH   1  18
ATOM     18  C   UNL A   1      31.315  32.304  26.637  1.00  0.00     0.042 C 
BRANCH  18  19
ATOM     19  C   UNL A   1      32.654  32.805  27.160  1.00  0.00     0.118 C 
BRANCH  19  20
ATOM     20  N   UNL A   1      32.532  34.064  27.880  1.00  0.00    -0.352 N 
ATOM     21  C   UNL A   1      33.250  34.591  28.922  1.00  0.00     0.251 C 
ATOM     22  H   UNL A   1      31.802  34.641  27.561  1.00  0.00     0.163 HD
ATOM     23  O   UNL A   1      32.805  35.591  29.495  1.00  0.00    -0.269 OA
BRANCH  21  24
ATOM     24  C   UNL A   1      34.527  34.002  29.397  1.00  0.00     0.039 A 
ATOM     25  C   UNL A   1      35.708  34.339  28.724  1.00  0.00     0.014 A 
ATOM     26  C   UNL A   1      34.580  33.060  30.425  1.00  0.00     0.014 A 
ATOM     27  C   UNL A   1      36.931  33.774  29.108  1.00  0.00     0.010 A 
ATOM     28  C   UNL A   1      35.809  32.570  30.871  1.00  0.00     0.010 A 
ATOM     29  C   UNL A   1      36.997  32.904  30.206  1.00  0.00    -0.014 A 
BRANCH  29  30
ATOM     30  C   UNL A   1      38.286  32.313  30.654  1.00  0.00     0.031 A 
ATOM     31  C   UNL A   1      38.799  31.038  30.033  1.00  0.00     0.074 A 
ATOM     32  C   UNL A   1      38.970  32.874  31.670  1.00  0.00     0.049 A 
ATOM     33  N   UNL A   1      39.851  30.326  30.351  1.00  0.00    -0.248 NA
ATOM     34  C   UNL A   1      38.004  30.472  28.931  1.00  0.00     0.031 C 
ATOM     35  C   UNL A   1      38.570  34.080  32.398  1.00  0.00     0.029 A 
ATOM     36  N   UNL A   1      40.140  32.491  32.279  1.00  0.00    -0.354 N 
ATOM     37  C   UNL A   1      39.823  29.214  29.518  1.00  0.00     0.074 A 
ATOM     38  C   UNL A   1      38.630  29.325  28.708  1.00  0.00     0.031 C 
ATOM     39  C   UNL A   1      39.485  34.346  33.343  1.00  0.00     0.029 A 
ATOM     40  C   UNL A   1      40.516  33.313  33.314  1.00  0.00     0.049 A 
ATOM     41  H   UNL A   1      40.660  31.703  32.001  1.00  0.00     0.167 HD
ATOM     42  C   UNL A   1      40.714  28.198  29.421  1.00  0.00     0.031 A 
ATOM     43  C   UNL A   1      41.564  33.241  34.155  1.00  0.00     0.031 A 
ATOM     44  C   UNL A   1      41.921  28.097  30.198  1.00  0.00     0.049 A 
ATOM     45  C   UNL A   1      42.557  32.125  34.011  1.00  0.00     0.074 A 
ATOM     46  C   UNL A   1      42.928  27.152  30.109  1.00  0.00     0.029 A 
ATOM     47  N   UNL A   1      42.283  28.974  31.209  1.00  0.00    -0.354 N 
ATOM     48  N   UNL A   1      42.555  31.123  33.166  1.00  0.00    -0.248 NA
ATOM     49  C   UNL A   1      43.706  32.138  34.928  1.00  0.00     0.031 C 
ATOM     50  C   UNL A   1      43.879  27.431  31.098  1.00  0.00     0.029 A 
ATOM     51  C   UNL A   1      43.485  28.578  31.769  1.00  0.00     0.049 A 
ATOM     52  H   UNL A   1      41.761  29.762  31.487  1.00  0.00     0.167 HD
ATOM     53  C   UNL A   1      43.707  30.396  33.437  1.00  0.00     0.074 A 
ATOM     54  C   UNL A   1      44.393  31.082  34.513  1.00  0.00     0.031 C 
ATOM     55  C   UNL A   1      44.154  29.262  32.845  1.00  0.00     0.031 A 
BRANCH  42  56
ATOM     56  C   UNL A   1      40.405  27.101  28.439  1.00  0.00    -0.014 A 
ATOM     57  C   UNL A   1      39.619  25.996  28.802  1.00  0.00     0.009 A 
ATOM     58  C   UNL A   1      40.896  27.183  27.127  1.00  0.00     0.009 A 
ATOM     59  C   UNL A   1      39.373  24.971  27.884  1.00  0.00     0.001 A 
ATOM     60  C   UNL A   1      40.623  26.172  26.203  1.00  0.00     0.001 A 
ATOM     61  C   UNL A   1      39.873  25.062  26.586  1.00  0.00     0.000 A 
ENDBRANCH  42  56
BRANCH  43  62
ATOM     62  C   UNL A   1      41.729  34.276  35.208  1.00  0.00    -0.014 A 
ATOM     63  C   UNL A   1      42.438  35.457  34.941  1.00  0.00     0.009 A 
ATOM     64  C   UNL A   1      41.157  34.096  36.477  1.00  0.00     0.009 A 
ATOM     65  C   UNL A   1      42.582  36.432  35.931  1.00  0.00     0.001 A 
ATOM     66  C   UNL A   1      41.282  35.084  37.455  1.00  0.00     0.001 A 
ATOM     67  C   UNL A   1      42.000  36.248  37.184  1.00  0.00     0.000 A 
ENDBRANCH  43  62
BRANCH  55  68
ATOM     68  C   UNL A   1      45.458  28.701  33.336  1.00  0.00    -0.014 A 
ATOM     69  C   UNL A   1      45.496  27.745  34.363  1.00  0.00     0.009 A 
ATOM     70  C   UNL A   1      46.660  29.103  32.734  1.00  0.00     0.009 A 
ATOM     71  C   UNL A   1      46.717  27.225  34.797  1.00  0.00     0.001 A 
ATOM     72  C   UNL A   1      47.876  28.563  33.153  1.00  0.00     0.001 A 
ATOM     73  C   UNL A   1      47.906  27.631  34.190  1.00  0.00     0.000 A 
ENDBRANCH  55  68
ENDBRANCH  29  30
ENDBRANCH  21  24
ENDBRANCH  19  20
ENDBRANCH  18  19
ENDBRANCH   1  18
TORSDOF 13
ENDMDL
MODEL 3
REMARK VINA RESULT:      -9.9      2.849      7.484
REMARK SMILES COCC(=O)N[C@H]1C=C[C@@H](C(=O)NCCCNC(=O)c2ccc(-c3c4nc(c(-c5ccccc5)c5ccc([nH]5)c(-c5ccccc5)c5nc(c(-c6ccccc6)c6ccc3[nH]6)C=C5)C=C4)cc2)C1
REMARK SMILES IDX 14 1 13 2 11 3 12 4 10 6 7 7 8 8 68 9 9 10 6 11 4 12 5 13
REMARK SMILES IDX 3 15 2 16 1 17 15 18 16 19 17 20 18 21 19 23 20 24 21 25
REMARK SMILES IDX 67 26 22 27 66 28 23 29 24 30 25 31 60 32 26 33 65 34 59 35
REMARK SMILES IDX 61 36 27 37 64 38 58 39 57 40 28 42 50 43 35 44 49 45 36 46
REMARK SMILES IDX 39 47 48 48 62 49 37 50 38 51 47 53 63 54 40 55 29 56 30 57
REMARK SMILES IDX 34 58 31 59 33 60 32 61 51 62 52 63 56 64 53 65 55 66 54 67
REMARK SMILES IDX 41 68 42 69 46 70 43 71 45 72 44 73
REMARK H PARENT 13 5 6 14 17 22 61 41 39 52
REMARK Flexibility Score: inf
ROOT
ATOM      1  C   UNL A   1      31.614  30.532  26.402  1.00  0.00     0.117 C 
ENDROOT
BRANCH   1   2
ATOM      2  N   UNL A   1      31.169  30.266  25.044  1.00  0.00    -0.356 N 
ATOM      3  C   UNL A   1      31.295  29.168  24.251  1.00  0.00     0.227 C 
ATOM      4  O   UNL A   1      30.811  29.246  23.116  1.00  0.00    -0.274 OA
ATOM      5  H   UNL A   1      30.690  31.015  24.622  1.00  0.00     0.163 HD
BRANCH   3   6
ATOM      6  C   UNL A   1      31.986  27.877  24.698  1.00  0.00     0.103 C 
ATOM      7  C   UNL A   1      31.688  25.842  26.009  1.00  0.00     0.106 C 
ATOM      8  C   UNL A   1      31.565  25.582  24.535  1.00  0.00    -0.006 C 
ATOM      9  C   UNL A   1      31.582  27.367  26.087  1.00  0.00     0.047 C 
ATOM     10  C   UNL A   1      31.726  26.697  23.813  1.00  0.00    -0.016 C 
BRANCH   7  11
ATOM     11  N   UNL A   1      30.753  24.960  26.683  1.00  0.00    -0.348 N 
ATOM     12  C   UNL A   1      30.671  23.630  26.935  1.00  0.00     0.246 C 
ATOM     13  O   UNL A   1      29.591  23.195  27.349  1.00  0.00    -0.272 OA
ATOM     14  H   UNL A   1      29.982  25.453  27.049  1.00  0.00     0.164 HD
BRANCH  12  15
ATOM     15  C   UNL A   1      31.870  22.702  26.813  1.00  0.00     0.259 C 
BRANCH  15  16
ATOM     16  O   UNL A   1      32.660  22.540  27.976  1.00  0.00    -0.375 OA
ATOM     17  C   UNL A   1      34.002  22.194  27.657  1.00  0.00     0.195 C 
ENDBRANCH  15  16
ENDBRANCH  12  15
ENDBRANCH   7  11
ENDBRANCH   3   6
ENDBRANCH   1   2
BRANCH   1  18
ATOM     18  C   UNL A   1      31.392  31.992  26.790  1.00  0.00     0.042 C 
BRANCH  18  19
ATOM     19  C   UNL A   1      32.665  32.824  26.860  1.00  0.00     0.118 C 
BRANCH  19  20
ATOM     20  N   UNL A   1      32.495  34.028  27.660  1.00  0.00    -0.352 N 
ATOM     21  C   UNL A   1      33.194  34.514  28.735  1.00  0.00     0.251 C 
ATOM     22  H   UNL A   1      31.743  34.597  27.378  1.00  0.00     0.163 HD
ATOM     23  O   UNL A   1      32.711  35.457  29.371  1.00  0.00    -0.269 OA
BRANCH  21  24
ATOM     24  C   UNL A   1      34.493  33.944  29.172  1.00  0.00     0.039 A 
ATOM     25  C   UNL A   1      34.498  33.031  30.234  1.00  0.00     0.014 A 
ATOM     26  C   UNL A   1      35.711  34.352  28.625  1.00  0.00     0.014 A 
ATOM     27  C   UNL A   1      35.703  32.501  30.709  1.00  0.00     0.010 A 
ATOM     28  C   UNL A   1      36.904  33.752  29.033  1.00  0.00     0.010 A 
ATOM     29  C   UNL A   1      36.918  32.835  30.094  1.00  0.00    -0.014 A 
BRANCH  29  30
ATOM     30  C   UNL A   1      38.210  32.264  30.559  1.00  0.00     0.031 A 
ATOM     31  C   UNL A   1      38.745  30.990  29.954  1.00  0.00     0.074 A 
ATOM     32  C   UNL A   1      38.876  32.843  31.577  1.00  0.00     0.049 A 
ATOM     33  N   UNL A   1      39.803  30.295  30.288  1.00  0.00    -0.248 NA
ATOM     34  C   UNL A   1      37.969  30.406  28.849  1.00  0.00     0.031 C 
ATOM     35  C   UNL A   1      38.454  34.049  32.291  1.00  0.00     0.029 A 
ATOM     36  N   UNL A   1      40.046  32.480  32.200  1.00  0.00    -0.354 N 
ATOM     37  C   UNL A   1      39.797  29.176  29.464  1.00  0.00     0.074 A 
ATOM     38  C   UNL A   1      38.611  29.265  28.642  1.00  0.00     0.031 C 
ATOM     39  C   UNL A   1      39.356  34.335  33.242  1.00  0.00     0.029 A 
ATOM     40  C   UNL A   1      40.401  33.315  33.232  1.00  0.00     0.049 A 
ATOM     41  H   UNL A   1      40.579  31.696  31.934  1.00  0.00     0.167 HD
ATOM     42  C   UNL A   1      40.703  28.171  29.384  1.00  0.00     0.031 A 
ATOM     43  C   UNL A   1      41.441  33.264  34.084  1.00  0.00     0.031 A 
ATOM     44  C   UNL A   1      41.903  28.092  30.174  1.00  0.00     0.049 A 
ATOM     45  C   UNL A   1      42.451  32.160  33.958  1.00  0.00     0.074 A 
ATOM     46  C   UNL A   1      42.923  27.159  30.102  1.00  0.00     0.029 A 
ATOM     47  N   UNL A   1      42.243  28.982  31.181  1.00  0.00    -0.354 N 
ATOM     48  N   UNL A   1      42.469  31.150  33.122  1.00  0.00    -0.248 NA
ATOM     49  C   UNL A   1      43.590  32.195  34.886  1.00  0.00     0.031 C 
ATOM     50  C   UNL A   1      43.860  27.459  31.098  1.00  0.00     0.029 A 
ATOM     51  C   UNL A   1      43.446  28.606  31.756  1.00  0.00     0.049 A 
ATOM     52  H   UNL A   1      41.709  29.765  31.447  1.00  0.00     0.167 HD
ATOM     53  C   UNL A   1      43.628  30.440  33.410  1.00  0.00     0.074 A 
ATOM     54  C   UNL A   1      44.294  31.144  34.486  1.00  0.00     0.031 C 
ATOM     55  C   UNL A   1      44.095  29.308  32.832  1.00  0.00     0.031 A 
BRANCH  42  56
ATOM     56  C   UNL A   1      40.417  27.062  28.409  1.00  0.00    -0.014 A 
ATOM     57  C   UNL A   1      40.926  27.090  27.100  1.00  0.00     0.009 A 
ATOM     58  C   UNL A   1      39.639  25.966  28.810  1.00  0.00     0.009 A 
ATOM     59  C   UNL A   1      40.620  26.066  26.200  1.00  0.00     0.001 A 
ATOM     60  C   UNL A   1      39.359  24.929  27.918  1.00  0.00     0.001 A 
ATOM     61  C   UNL A   1      39.839  24.987  26.610  1.00  0.00     0.000 A 
ENDBRANCH  42  56
BRANCH  43  62
ATOM     62  C   UNL A   1      41.584  34.309  35.129  1.00  0.00    -0.014 A 
ATOM     63  C   UNL A   1      42.285  35.494  34.862  1.00  0.00     0.009 A 
ATOM     64  C   UNL A   1      40.996  34.136  36.392  1.00  0.00     0.009 A 
ATOM     65  C   UNL A   1      42.407  36.479  35.844  1.00  0.00     0.001 A 
ATOM     66  C   UNL A   1      41.099  35.133  37.363  1.00  0.00     0.001 A 
ATOM     67  C   UNL A   1      41.810  36.301  37.091  1.00  0.00     0.000 A 
ENDBRANCH  43  62
BRANCH  55  68
ATOM     68  C   UNL A   1      45.401  28.767  33.340  1.00  0.00    -0.014 A 
ATOM     69  C   UNL A   1      46.623  29.192  32.797  1.00  0.00     0.009 A 
ATOM     70  C   UNL A   1      45.409  27.851  34.403  1.00  0.00     0.009 A 
ATOM     71  C   UNL A   1      47.828  28.687  33.291  1.00  0.00     0.001 A 
ATOM     72  C   UNL A   1      46.616  27.367  34.911  1.00  0.00     0.001 A 
ATOM     73  C   UNL A   1      47.824  27.779  34.350  1.00  0.00     0.000 A 
ENDBRANCH  55  68
ENDBRANCH  29  30
ENDBRANCH  21  24
ENDBRANCH  19  20
ENDBRANCH  18  19
ENDBRANCH   1  18
TORSDOF 13
ENDMDL
