MODEL 1
REMARK VINA RESULT:     -11.6      0.000      0.000
REMARK SMILES C[C@@H]1[C@@H](C(=O)NCCCNC(=O)c2ccc(-c3c4nc(c(-c5ccccc5)c5ccc([nH]5)c(-c5ccccc5)c5nc(c(-c6ccccc6)c6ccc3[nH]6)C=C5)C=C4)cc2)CCN1C(=O)N1CCC[C@H]2CCC[C@@H]21
REMARK SMILES IDX 8 1 7 2 6 3 4 4 5 5 3 7 1 8 2 9 63 10 61 11 62 12 64 13
REMARK SMILES IDX 65 14 66 15 67 16 74 17 68 18 70 19 73 20 69 21 71 22 72 23
REMARK SMILES IDX 9 24 10 25 11 26 12 28 13 29 14 30 60 31 15 32 59 33 16 34
REMARK SMILES IDX 17 35 18 36 53 37 19 38 58 39 52 40 54 41 20 42 57 43 51 44
REMARK SMILES IDX 50 45 21 47 43 48 28 49 42 50 29 51 32 52 41 53 55 54 30 55
REMARK SMILES IDX 31 56 40 58 56 59 33 60 22 61 23 62 27 63 24 64 26 65 25 66
REMARK SMILES IDX 44 67 45 68 49 69 46 70 48 71 47 72 34 73 35 74 39 75 36 76
REMARK SMILES IDX 38 77 37 78
REMARK H PARENT 6 6 10 27 54 46 32 57
REMARK Flexibility Score: inf
ROOT
ATOM      1  C   UNL A   1      37.714  20.147  24.624  1.00  0.00     0.042 C 
ENDROOT
BRANCH   1   2
ATOM      2  C   UNL A   1      36.258  20.263  25.028  1.00  0.00     0.117 C 
BRANCH   2   3
ATOM      3  N   UNL A   1      36.005  21.298  26.013  1.00  0.00    -0.356 N 
ATOM      4  C   UNL A   1      35.088  22.309  25.989  1.00  0.00     0.225 C 
ATOM      5  O   UNL A   1      35.048  23.055  26.967  1.00  0.00    -0.275 OA
ATOM      6  H   UNL A   1      36.579  21.267  26.812  1.00  0.00     0.163 HD
BRANCH   4   7
ATOM      7  C   UNL A   1      34.260  22.535  24.732  1.00  0.00     0.102 C 
ATOM      8  C   UNL A   1      33.605  24.413  23.234  1.00  0.00     0.032 C 
ATOM      9  C   UNL A   1      33.629  23.948  24.697  1.00  0.00     0.096 C 
ATOM     10  N   UNL A   1      32.280  23.753  25.274  1.00  0.00    -0.321 N 
ATOM     11  C   UNL A   1      33.032  21.629  24.585  1.00  0.00     0.037 C 
ATOM     12  C   UNL A   1      31.962  22.346  25.375  1.00  0.00     0.122 C 
BRANCH  10  13
ATOM     13  C   UNL A   1      31.578  24.598  26.121  1.00  0.00     0.320 C 
ATOM     14  O   UNL A   1      31.448  24.349  27.320  1.00  0.00    -0.248 OA
BRANCH  13  15
ATOM     15  N   UNL A   1      31.150  25.782  25.586  1.00  0.00    -0.321 N 
ATOM     16  C   UNL A   1      29.784  25.966  25.121  1.00  0.00     0.121 C 
ATOM     17  C   UNL A   1      31.829  27.034  25.859  1.00  0.00     0.090 C 
ATOM     18  C   UNL A   1      29.761  26.770  23.818  1.00  0.00     0.022 C 
ATOM     19  C   UNL A   1      31.966  27.758  24.517  1.00  0.00     0.012 C 
ATOM     20  C   UNL A   1      33.267  27.037  26.364  1.00  0.00     0.025 C 
ATOM     21  C   UNL A   1      30.591  28.063  23.925  1.00  0.00     0.007 C 
ATOM     22  C   UNL A   1      32.857  28.941  24.854  1.00  0.00     0.006 C 
ATOM     23  C   UNL A   1      33.818  28.400  25.922  1.00  0.00     0.002 C 
ENDBRANCH  13  15
ENDBRANCH  10  13
ENDBRANCH   4   7
ENDBRANCH   2   3
ENDBRANCH   1   2
BRANCH   1  24
ATOM     24  C   UNL A   1      38.708  20.381  25.749  1.00  0.00     0.118 C 
BRANCH  24  25
ATOM     25  N   UNL A   1      39.798  19.414  25.774  1.00  0.00    -0.352 N 
ATOM     26  C   UNL A   1      41.127  19.569  26.098  1.00  0.00     0.251 C 
ATOM     27  H   UNL A   1      39.541  18.500  25.517  1.00  0.00     0.163 HD
ATOM     28  O   UNL A   1      41.908  18.645  25.917  1.00  0.00    -0.269 OA
BRANCH  26  29
ATOM     29  C   UNL A   1      41.625  20.860  26.623  1.00  0.00     0.039 A 
ATOM     30  C   UNL A   1      42.087  21.823  25.722  1.00  0.00     0.014 A 
ATOM     31  C   UNL A   1      41.631  21.132  27.992  1.00  0.00     0.014 A 
ATOM     32  C   UNL A   1      42.464  23.086  26.189  1.00  0.00     0.010 A 
ATOM     33  C   UNL A   1      41.892  22.422  28.441  1.00  0.00     0.010 A 
ATOM     34  C   UNL A   1      42.317  23.415  27.546  1.00  0.00    -0.014 A 
BRANCH  34  35
ATOM     35  C   UNL A   1      42.605  24.780  28.054  1.00  0.00     0.031 A 
ATOM     36  C   UNL A   1      44.001  25.150  28.481  1.00  0.00     0.074 A 
ATOM     37  C   UNL A   1      41.601  25.668  28.200  1.00  0.00     0.049 A 
ATOM     38  N   UNL A   1      44.433  26.263  29.018  1.00  0.00    -0.248 NA
ATOM     39  C   UNL A   1      45.043  24.123  28.311  1.00  0.00     0.031 C 
ATOM     40  C   UNL A   1      40.195  25.425  27.865  1.00  0.00     0.029 A 
ATOM     41  N   UNL A   1      41.608  26.957  28.674  1.00  0.00    -0.354 N 
ATOM     42  C   UNL A   1      45.785  26.063  29.265  1.00  0.00     0.074 A 
ATOM     43  C   UNL A   1      46.089  24.702  28.880  1.00  0.00     0.031 C 
ATOM     44  C   UNL A   1      39.486  26.540  28.108  1.00  0.00     0.029 A 
ATOM     45  C   UNL A   1      40.373  27.557  28.661  1.00  0.00     0.049 A 
ATOM     46  H   UNL A   1      42.423  27.407  28.992  1.00  0.00     0.167 HD
ATOM     47  C   UNL A   1      46.702  26.936  29.746  1.00  0.00     0.031 A 
ATOM     48  C   UNL A   1      39.993  28.787  29.056  1.00  0.00     0.031 A 
ATOM     49  C   UNL A   1      46.404  28.293  30.119  1.00  0.00     0.049 A 
ATOM     50  C   UNL A   1      41.024  29.731  29.610  1.00  0.00     0.074 A 
ATOM     51  C   UNL A   1      47.273  29.273  30.566  1.00  0.00     0.029 A 
ATOM     52  N   UNL A   1      45.140  28.860  30.090  1.00  0.00    -0.354 N 
ATOM     53  N   UNL A   1      42.310  29.546  29.775  1.00  0.00    -0.248 NA
ATOM     54  C   UNL A   1      40.549  31.059  30.023  1.00  0.00     0.031 C 
ATOM     55  C   UNL A   1      46.525  30.417  30.862  1.00  0.00     0.029 A 
ATOM     56  C   UNL A   1      45.201  30.169  30.536  1.00  0.00     0.049 A 
ATOM     57  H   UNL A   1      44.321  28.400  29.795  1.00  0.00     0.167 HD
ATOM     58  C   UNL A   1      42.804  30.742  30.279  1.00  0.00     0.074 A 
ATOM     59  C   UNL A   1      41.680  31.651  30.377  1.00  0.00     0.031 C 
ATOM     60  C   UNL A   1      44.075  31.062  30.627  1.00  0.00     0.031 A 
BRANCH  47  61
ATOM     61  C   UNL A   1      48.115  26.443  29.900  1.00  0.00    -0.014 A 
ATOM     62  C   UNL A   1      49.051  26.578  28.862  1.00  0.00     0.009 A 
ATOM     63  C   UNL A   1      48.525  25.865  31.111  1.00  0.00     0.009 A 
ATOM     64  C   UNL A   1      50.357  26.107  29.020  1.00  0.00     0.001 A 
ATOM     65  C   UNL A   1      49.840  25.425  31.278  1.00  0.00     0.001 A 
ATOM     66  C   UNL A   1      50.751  25.537  30.229  1.00  0.00     0.000 A 
ENDBRANCH  47  61
BRANCH  48  67
ATOM     67  C   UNL A   1      38.571  29.208  28.929  1.00  0.00    -0.014 A 
ATOM     68  C   UNL A   1      37.695  29.092  30.021  1.00  0.00     0.009 A 
ATOM     69  C   UNL A   1      38.079  29.715  27.717  1.00  0.00     0.009 A 
ATOM     70  C   UNL A   1      36.351  29.445  29.890  1.00  0.00     0.001 A 
ATOM     71  C   UNL A   1      36.741  30.098  27.599  1.00  0.00     0.001 A 
ATOM     72  C   UNL A   1      35.876  29.952  28.682  1.00  0.00     0.000 A 
ENDBRANCH  48  67
BRANCH  60  73
ATOM     73  C   UNL A   1      44.326  32.464  31.107  1.00  0.00    -0.014 A 
ATOM     74  C   UNL A   1      44.278  32.793  32.471  1.00  0.00     0.009 A 
ATOM     75  C   UNL A   1      44.660  33.463  30.178  1.00  0.00     0.009 A 
ATOM     76  C   UNL A   1      44.523  34.102  32.890  1.00  0.00     0.001 A 
ATOM     77  C   UNL A   1      44.938  34.762  30.604  1.00  0.00     0.001 A 
ATOM     78  C   UNL A   1      44.858  35.083  31.958  1.00  0.00     0.000 A 
ENDBRANCH  60  73
ENDBRANCH  34  35
ENDBRANCH  26  29
ENDBRANCH  24  25
ENDBRANCH   1  24
TORSDOF 12
ENDMDL
MODEL 2
REMARK VINA RESULT:     -11.5      0.393      5.978
REMARK SMILES C[C@@H]1[C@@H](C(=O)NCCCNC(=O)c2ccc(-c3c4nc(c(-c5ccccc5)c5ccc([nH]5)c(-c5ccccc5)c5nc(c(-c6ccccc6)c6ccc3[nH]6)C=C5)C=C4)cc2)CCN1C(=O)N1CCC[C@H]2CCC[C@@H]21
REMARK SMILES IDX 8 1 7 2 6 3 4 4 5 5 3 7 1 8 2 9 63 10 61 11 62 12 64 13
REMARK SMILES IDX 65 14 66 15 67 16 74 17 68 18 70 19 73 20 69 21 71 22 72 23
REMARK SMILES IDX 9 24 10 25 11 26 12 28 13 29 14 30 60 31 15 32 59 33 16 34
REMARK SMILES IDX 17 35 18 36 53 37 19 38 58 39 52 40 54 41 20 42 57 43 51 44
REMARK SMILES IDX 50 45 21 47 43 48 28 49 42 50 29 51 32 52 41 53 55 54 30 55
REMARK SMILES IDX 31 56 40 58 56 59 33 60 22 61 23 62 27 63 24 64 26 65 25 66
REMARK SMILES IDX 44 67 45 68 49 69 46 70 48 71 47 72 34 73 35 74 39 75 36 76
REMARK SMILES IDX 38 77 37 78
REMARK H PARENT 6 6 10 27 54 46 32 57
REMARK Flexibility Score: inf
ROOT
ATOM      1  C   UNL A   1      37.540  20.687  24.597  1.00  0.00     0.042 C 
ENDROOT
BRANCH   1   2
ATOM      2  C   UNL A   1      36.126  20.304  24.988  1.00  0.00     0.117 C 
BRANCH   2   3
ATOM      3  N   UNL A   1      35.602  21.067  26.106  1.00  0.00    -0.356 N 
ATOM      4  C   UNL A   1      34.670  22.064  26.111  1.00  0.00     0.225 C 
ATOM      5  O   UNL A   1      34.367  22.546  27.202  1.00  0.00    -0.275 OA
ATOM      6  H   UNL A   1      35.974  20.833  26.986  1.00  0.00     0.163 HD
BRANCH   4   7
ATOM      7  C   UNL A   1      34.149  22.604  24.786  1.00  0.00     0.102 C 
ATOM      8  C   UNL A   1      34.036  24.769  23.562  1.00  0.00     0.032 C 
ATOM      9  C   UNL A   1      33.705  24.083  24.894  1.00  0.00     0.096 C 
ATOM     10  N   UNL A   1      32.253  24.003  25.171  1.00  0.00    -0.321 N 
ATOM     11  C   UNL A   1      32.881  21.925  24.255  1.00  0.00     0.037 C 
ATOM     12  C   UNL A   1      31.761  22.660  24.954  1.00  0.00     0.122 C 
BRANCH  10  13
ATOM     13  C   UNL A   1      31.494  24.800  26.015  1.00  0.00     0.320 C 
ATOM     14  O   UNL A   1      31.328  24.511  27.201  1.00  0.00    -0.248 OA
BRANCH  13  15
ATOM     15  N   UNL A   1      31.050  25.987  25.499  1.00  0.00    -0.321 N 
ATOM     16  C   UNL A   1      29.714  26.131  24.943  1.00  0.00     0.121 C 
ATOM     17  C   UNL A   1      31.648  27.255  25.872  1.00  0.00     0.090 C 
ATOM     18  C   UNL A   1      29.745  26.989  23.677  1.00  0.00     0.022 C 
ATOM     19  C   UNL A   1      31.846  28.043  24.575  1.00  0.00     0.012 C 
ATOM     20  C   UNL A   1      33.044  27.299  26.481  1.00  0.00     0.025 C 
ATOM     21  C   UNL A   1      30.503  28.313  23.897  1.00  0.00     0.007 C 
ATOM     22  C   UNL A   1      32.652  29.248  25.025  1.00  0.00     0.006 C 
ATOM     23  C   UNL A   1      33.560  28.703  26.137  1.00  0.00     0.002 C 
ENDBRANCH  13  15
ENDBRANCH  10  13
ENDBRANCH   4   7
ENDBRANCH   2   3
ENDBRANCH   1   2
BRANCH   1  24
ATOM     24  C   UNL A   1      38.519  20.778  25.755  1.00  0.00     0.118 C 
BRANCH  24  25
ATOM     25  N   UNL A   1      39.539  19.737  25.738  1.00  0.00    -0.352 N 
ATOM     26  C   UNL A   1      40.876  19.788  26.059  1.00  0.00     0.251 C 
ATOM     27  H   UNL A   1      39.218  18.853  25.450  1.00  0.00     0.163 HD
ATOM     28  O   UNL A   1      41.591  18.818  25.839  1.00  0.00    -0.269 OA
BRANCH  26  29
ATOM     29  C   UNL A   1      41.466  21.021  26.627  1.00  0.00     0.039 A 
ATOM     30  C   UNL A   1      42.011  21.971  25.759  1.00  0.00     0.014 A 
ATOM     31  C   UNL A   1      41.476  21.253  28.002  1.00  0.00     0.014 A 
ATOM     32  C   UNL A   1      42.478  23.187  26.266  1.00  0.00     0.010 A 
ATOM     33  C   UNL A   1      41.829  22.506  28.491  1.00  0.00     0.010 A 
ATOM     34  C   UNL A   1      42.340  23.488  27.630  1.00  0.00    -0.014 A 
BRANCH  34  35
ATOM     35  C   UNL A   1      42.726  24.812  28.181  1.00  0.00     0.031 A 
ATOM     36  C   UNL A   1      41.685  25.881  28.383  1.00  0.00     0.074 A 
ATOM     37  C   UNL A   1      44.022  25.081  28.435  1.00  0.00     0.049 A 
ATOM     38  N   UNL A   1      41.837  27.118  28.782  1.00  0.00    -0.248 NA
ATOM     39  C   UNL A   1      40.291  25.521  28.067  1.00  0.00     0.031 C 
ATOM     40  C   UNL A   1      45.138  24.151  28.243  1.00  0.00     0.029 A 
ATOM     41  N   UNL A   1      44.623  26.223  28.906  1.00  0.00    -0.354 N 
ATOM     42  C   UNL A   1      40.569  27.686  28.745  1.00  0.00     0.074 A 
ATOM     43  C   UNL A   1      39.670  26.679  28.227  1.00  0.00     0.031 C 
ATOM     44  C   UNL A   1      46.278  24.746  28.629  1.00  0.00     0.029 A 
ATOM     45  C   UNL A   1      45.985  26.112  29.046  1.00  0.00     0.049 A 
ATOM     46  H   UNL A   1      44.123  27.043  29.121  1.00  0.00     0.167 HD
ATOM     47  C   UNL A   1      40.179  28.924  29.130  1.00  0.00     0.031 A 
ATOM     48  C   UNL A   1      46.898  27.011  29.459  1.00  0.00     0.031 A 
ATOM     49  C   UNL A   1      41.070  29.922  29.658  1.00  0.00     0.049 A 
ATOM     50  C   UNL A   1      46.445  28.388  29.859  1.00  0.00     0.074 A 
ATOM     51  C   UNL A   1      40.764  31.188  30.126  1.00  0.00     0.029 A 
ATOM     52  N   UNL A   1      42.442  29.769  29.784  1.00  0.00    -0.354 N 
ATOM     53  N   UNL A   1      45.232  28.885  29.880  1.00  0.00    -0.248 NA
ATOM     54  C   UNL A   1      47.487  29.325  30.301  1.00  0.00     0.031 C 
ATOM     55  C   UNL A   1      41.958  31.821  30.483  1.00  0.00     0.029 A 
ATOM     56  C   UNL A   1      43.000  30.926  30.299  1.00  0.00     0.049 A 
ATOM     57  H   UNL A   1      42.944  28.956  29.544  1.00  0.00     0.167 HD
ATOM     58  C   UNL A   1      45.362  30.179  30.368  1.00  0.00     0.074 A 
ATOM     59  C   UNL A   1      46.769  30.383  30.645  1.00  0.00     0.031 C 
ATOM     60  C   UNL A   1      44.401  31.115  30.571  1.00  0.00     0.031 A 
BRANCH  47  61
ATOM     61  C   UNL A   1      38.721  29.267  28.989  1.00  0.00    -0.014 A 
ATOM     62  C   UNL A   1      38.192  29.709  27.765  1.00  0.00     0.009 A 
ATOM     63  C   UNL A   1      37.858  29.117  30.085  1.00  0.00     0.009 A 
ATOM     64  C   UNL A   1      36.837  30.032  27.655  1.00  0.00     0.001 A 
ATOM     65  C   UNL A   1      36.498  29.408  29.963  1.00  0.00     0.001 A 
ATOM     66  C   UNL A   1      35.992  29.875  28.751  1.00  0.00     0.000 A 
ENDBRANCH  47  61
BRANCH  48  67
ATOM     67  C   UNL A   1      48.337  26.637  29.533  1.00  0.00    -0.014 A 
ATOM     68  C   UNL A   1      49.193  26.890  28.450  1.00  0.00     0.009 A 
ATOM     69  C   UNL A   1      48.858  26.015  30.677  1.00  0.00     0.009 A 
ATOM     70  C   UNL A   1      50.533  26.499  28.500  1.00  0.00     0.001 A 
ATOM     71  C   UNL A   1      50.207  25.655  30.737  1.00  0.00     0.001 A 
ATOM     72  C   UNL A   1      51.040  25.887  29.645  1.00  0.00     0.000 A 
ENDBRANCH  48  67
BRANCH  60  73
ATOM     73  C   UNL A   1      44.833  32.429  31.159  1.00  0.00    -0.014 A 
ATOM     74  C   UNL A   1      45.191  33.515  30.345  1.00  0.00     0.009 A 
ATOM     75  C   UNL A   1      44.838  32.594  32.553  1.00  0.00     0.009 A 
ATOM     76  C   UNL A   1      45.580  34.727  30.917  1.00  0.00     0.001 A 
ATOM     77  C   UNL A   1      45.195  33.817  33.121  1.00  0.00     0.001 A 
ATOM     78  C   UNL A   1      45.577  34.879  32.303  1.00  0.00     0.000 A 
ENDBRANCH  60  73
ENDBRANCH  34  35
ENDBRANCH  26  29
ENDBRANCH  24  25
ENDBRANCH   1  24
TORSDOF 12
ENDMDL
MODEL 3
REMARK VINA RESULT:     -11.5      3.389      8.831
REMARK SMILES C[C@@H]1[C@@H](C(=O)NCCCNC(=O)c2ccc(-c3c4nc(c(-c5ccccc5)c5ccc([nH]5)c(-c5ccccc5)c5nc(c(-c6ccccc6)c6ccc3[nH]6)C=C5)C=C4)cc2)CCN1C(=O)N1CCC[C@H]2CCC[C@@H]21
REMARK SMILES IDX 8 1 7 2 6 3 4 4 5 5 3 7 1 8 2 9 63 10 61 11 62 12 64 13
REMARK SMILES IDX 65 14 66 15 67 16 74 17 68 18 70 19 73 20 69 21 71 22 72 23
REMARK SMILES IDX 9 24 10 25 11 26 12 28 13 29 14 30 60 31 15 32 59 33 16 34
REMARK SMILES IDX 17 35 18 36 53 37 19 38 58 39 52 40 54 41 20 42 57 43 51 44
REMARK SMILES IDX 50 45 21 47 43 48 28 49 42 50 29 51 32 52 41 53 55 54 30 55
REMARK SMILES IDX 31 56 40 58 56 59 33 60 22 61 23 62 27 63 24 64 26 65 25 66
REMARK SMILES IDX 44 67 45 68 49 69 46 70 48 71 47 72 34 73 35 74 39 75 36 76
REMARK SMILES IDX 38 77 37 78
REMARK H PARENT 6 6 10 27 54 46 32 57
REMARK Flexibility Score: inf
ROOT
ATOM      1  C   UNL A   1      31.415  31.842  26.510  1.00  0.00     0.042 C 
ENDROOT
BRANCH   1   2
ATOM      2  C   UNL A   1      31.524  30.363  26.194  1.00  0.00     0.117 C 
BRANCH   2   3
ATOM      3  N   UNL A   1      32.209  30.082  24.946  1.00  0.00    -0.356 N 
ATOM      4  C   UNL A   1      32.183  28.951  24.182  1.00  0.00     0.225 C 
ATOM      5  O   UNL A   1      32.835  28.962  23.138  1.00  0.00    -0.275 OA
ATOM      6  H   UNL A   1      32.773  30.810  24.602  1.00  0.00     0.163 HD
BRANCH   4   7
ATOM      7  C   UNL A   1      31.464  27.715  24.704  1.00  0.00     0.102 C 
ATOM      8  C   UNL A   1      31.968  25.689  26.062  1.00  0.00     0.032 C 
ATOM      9  C   UNL A   1      32.415  26.501  24.838  1.00  0.00     0.096 C 
ATOM     10  N   UNL A   1      32.253  25.774  23.559  1.00  0.00    -0.321 N 
ATOM     11  C   UNL A   1      30.363  27.163  23.791  1.00  0.00     0.037 C 
ATOM     12  C   UNL A   1      31.112  26.274  22.824  1.00  0.00     0.122 C 
BRANCH  10  13
ATOM     13  C   UNL A   1      33.224  25.129  22.808  1.00  0.00     0.320 C 
ATOM     14  O   UNL A   1      33.930  25.737  22.004  1.00  0.00    -0.248 OA
BRANCH  13  15
ATOM     15  N   UNL A   1      33.447  23.811  23.101  1.00  0.00    -0.321 N 
ATOM     16  C   UNL A   1      32.886  22.739  22.293  1.00  0.00     0.121 C 
ATOM     17  C   UNL A   1      34.582  23.385  23.898  1.00  0.00     0.090 C 
ATOM     18  C   UNL A   1      32.393  21.594  23.181  1.00  0.00     0.022 C 
ATOM     19  C   UNL A   1      34.048  22.369  24.911  1.00  0.00     0.012 C 
ATOM     20  C   UNL A   1      35.304  24.377  24.802  1.00  0.00     0.025 C 
ATOM     21  C   UNL A   1      33.464  21.151  24.197  1.00  0.00     0.007 C 
ATOM     22  C   UNL A   1      35.239  22.136  25.824  1.00  0.00     0.006 C 
ATOM     23  C   UNL A   1      35.938  23.501  25.891  1.00  0.00     0.002 C 
ENDBRANCH  13  15
ENDBRANCH  10  13
ENDBRANCH   4   7
ENDBRANCH   2   3
ENDBRANCH   1   2
BRANCH   1  24
ATOM     24  C   UNL A   1      32.650  32.448  27.156  1.00  0.00     0.118 C 
BRANCH  24  25
ATOM     25  N   UNL A   1      32.460  33.823  27.599  1.00  0.00    -0.352 N 
ATOM     26  C   UNL A   1      33.181  34.585  28.490  1.00  0.00     0.251 C 
ATOM     27  H   UNL A   1      31.689  34.282  27.195  1.00  0.00     0.163 HD
ATOM     28  O   UNL A   1      32.763  35.685  28.827  1.00  0.00    -0.269 OA
BRANCH  26  29
ATOM     29  C   UNL A   1      34.437  34.065  29.077  1.00  0.00     0.039 A 
ATOM     30  C   UNL A   1      34.364  33.209  30.179  1.00  0.00     0.014 A 
ATOM     31  C   UNL A   1      35.681  34.406  28.547  1.00  0.00     0.014 A 
ATOM     32  C   UNL A   1      35.530  32.625  30.683  1.00  0.00     0.010 A 
ATOM     33  C   UNL A   1      36.823  33.736  28.971  1.00  0.00     0.010 A 
ATOM     34  C   UNL A   1      36.763  32.840  30.048  1.00  0.00    -0.014 A 
BRANCH  34  35
ATOM     35  C   UNL A   1      38.001  32.150  30.493  1.00  0.00     0.031 A 
ATOM     36  C   UNL A   1      38.878  32.772  31.546  1.00  0.00     0.074 A 
ATOM     37  C   UNL A   1      38.376  30.999  29.901  1.00  0.00     0.049 A 
ATOM     38  N   UNL A   1      40.031  32.360  32.011  1.00  0.00    -0.248 NA
ATOM     39  C   UNL A   1      38.415  34.041  32.135  1.00  0.00     0.031 C 
ATOM     40  C   UNL A   1      37.641  30.309  28.836  1.00  0.00     0.029 A 
ATOM     41  N   UNL A   1      39.477  30.204  30.108  1.00  0.00    -0.354 N 
ATOM     42  C   UNL A   1      40.435  33.324  32.926  1.00  0.00     0.074 A 
ATOM     43  C   UNL A   1      39.438  34.372  32.906  1.00  0.00     0.031 C 
ATOM     44  C   UNL A   1      38.291  29.179  28.514  1.00  0.00     0.029 A 
ATOM     45  C   UNL A   1      39.511  29.087  29.308  1.00  0.00     0.049 A 
ATOM     46  H   UNL A   1      40.176  30.415  30.768  1.00  0.00     0.167 HD
ATOM     47  C   UNL A   1      41.524  33.331  33.730  1.00  0.00     0.031 A 
ATOM     48  C   UNL A   1      40.424  28.102  29.218  1.00  0.00     0.031 A 
ATOM     49  C   UNL A   1      42.511  32.284  33.761  1.00  0.00     0.049 A 
ATOM     50  C   UNL A   1      41.638  28.143  30.105  1.00  0.00     0.074 A 
ATOM     51  C   UNL A   1      43.621  32.172  34.578  1.00  0.00     0.029 A 
ATOM     52  N   UNL A   1      42.506  31.171  32.935  1.00  0.00    -0.354 N 
ATOM     53  N   UNL A   1      41.970  29.029  31.011  1.00  0.00    -0.248 NA
ATOM     54  C   UNL A   1      42.598  27.039  29.961  1.00  0.00     0.031 C 
ATOM     55  C   UNL A   1      44.321  31.019  34.208  1.00  0.00     0.029 A 
ATOM     56  C   UNL A   1      43.609  30.379  33.205  1.00  0.00     0.049 A 
ATOM     57  H   UNL A   1      41.820  30.973  32.257  1.00  0.00     0.167 HD
ATOM     58  C   UNL A   1      43.158  28.574  31.568  1.00  0.00     0.074 A 
ATOM     59  C   UNL A   1      43.479  27.326  30.908  1.00  0.00     0.031 C 
ATOM     60  C   UNL A   1      43.915  29.139  32.542  1.00  0.00     0.031 A 
BRANCH  47  61
ATOM     61  C   UNL A   1      41.706  34.513  34.643  1.00  0.00    -0.014 A 
ATOM     62  C   UNL A   1      41.191  34.511  35.949  1.00  0.00     0.009 A 
ATOM     63  C   UNL A   1      42.428  35.632  34.201  1.00  0.00     0.009 A 
ATOM     64  C   UNL A   1      41.361  35.622  36.780  1.00  0.00     0.001 A 
ATOM     65  C   UNL A   1      42.626  36.727  35.045  1.00  0.00     0.001 A 
ATOM     66  C   UNL A   1      42.083  36.725  36.329  1.00  0.00     0.000 A 
ENDBRANCH  47  61
BRANCH  48  67
ATOM     67  C   UNL A   1      40.223  26.980  28.262  1.00  0.00    -0.014 A 
ATOM     68  C   UNL A   1      39.498  25.840  28.646  1.00  0.00     0.009 A 
ATOM     69  C   UNL A   1      40.763  27.034  26.968  1.00  0.00     0.009 A 
ATOM     70  C   UNL A   1      39.347  24.767  27.765  1.00  0.00     0.001 A 
ATOM     71  C   UNL A   1      40.582  25.973  26.078  1.00  0.00     0.001 A 
ATOM     72  C   UNL A   1      39.884  24.836  26.481  1.00  0.00     0.000 A 
ENDBRANCH  48  67
BRANCH  60  73
ATOM     73  C   UNL A   1      45.142  28.390  32.982  1.00  0.00    -0.014 A 
ATOM     74  C   UNL A   1      46.396  28.629  32.398  1.00  0.00     0.009 A 
ATOM     75  C   UNL A   1      45.046  27.461  34.029  1.00  0.00     0.009 A 
ATOM     76  C   UNL A   1      47.521  27.925  32.831  1.00  0.00     0.001 A 
ATOM     77  C   UNL A   1      46.178  26.784  34.483  1.00  0.00     0.001 A 
ATOM     78  C   UNL A   1      47.413  27.008  33.875  1.00  0.00     0.000 A 
ENDBRANCH  60  73
ENDBRANCH  34  35
ENDBRANCH  26  29
ENDBRANCH  24  25
ENDBRANCH   1  24
TORSDOF 12
ENDMDL
