MODEL 1
REMARK VINA RESULT:     -11.4      0.000      0.000
REMARK SMILES COc1cc(/C=C2\SC(=S)N(CCC(=O)Nc3ccc(C(=O)NCCCNC(=O)c4ccc(-c5c6nc(c(-c7ccccc7)c7ccc([nH]7)c(-c7ccccc7)c7nc(c(-c8ccccc8)c8ccc5[nH]8)C=C7)C=C6)cc4)cc3)C2=O)ccc1O
REMARK SMILES IDX 21 1 22 2 23 3 20 5 17 6 18 7 79 8 19 9 78 10 16 11 14 12
REMARK SMILES IDX 15 13 13 15 12 16 11 17 6 18 7 19 8 20 80 21 9 22 81 23
REMARK SMILES IDX 10 24 5 25 3 26 4 27 84 28 83 29 82 30 2 31 1 32 85 33 24 35
REMARK SMILES IDX 25 36 26 37 27 38 28 39 29 41 30 42 31 43 77 44 32 45 76 46
REMARK SMILES IDX 33 47 34 48 35 49 70 50 36 51 75 52 69 53 71 54 37 55 74 56
REMARK SMILES IDX 68 57 67 58 38 60 60 61 45 62 59 63 46 64 49 65 58 66 72 67
REMARK SMILES IDX 47 68 48 69 57 71 73 72 50 73 39 74 40 75 44 76 41 77 43 78
REMARK SMILES IDX 42 79 61 80 62 81 66 82 63 83 65 84 64 85 51 86 52 87 56 88
REMARK SMILES IDX 53 89 55 90 54 91
REMARK H PARENT 23 4 16 14 85 34 27 40 71 59 49 70
REMARK Flexibility Score: inf
ROOT
ATOM      1  C   UNL A   1      37.147  22.360  24.558  1.00  0.00     0.251 C 
ATOM      2  O   UNL A   1      37.029  22.182  23.347  1.00  0.00    -0.269 OA
ATOM      3  N   UNL A   1      38.411  22.337  25.107  1.00  0.00    -0.352 N 
ATOM      4  H   UNL A   1      39.135  22.197  24.456  1.00  0.00     0.163 HD
ENDROOT
BRANCH   1   5
ATOM      5  C   UNL A   1      35.924  22.535  25.386  1.00  0.00     0.039 A 
ATOM      6  C   UNL A   1      33.428  22.948  26.642  1.00  0.00     0.041 A 
ATOM      7  C   UNL A   1      34.203  24.035  26.218  1.00  0.00     0.027 A 
ATOM      8  C   UNL A   1      34.001  21.682  26.598  1.00  0.00     0.027 A 
ATOM      9  C   UNL A   1      35.438  23.829  25.586  1.00  0.00     0.016 A 
ATOM     10  C   UNL A   1      35.249  21.478  25.992  1.00  0.00     0.016 A 
BRANCH   6  11
ATOM     11  N   UNL A   1      32.121  23.237  27.071  1.00  0.00    -0.326 N 
ATOM     12  C   UNL A   1      31.013  23.774  26.484  1.00  0.00     0.226 C 
ATOM     13  O   UNL A   1      29.990  23.851  27.175  1.00  0.00    -0.275 OA
ATOM     14  H   UNL A   1      31.971  22.995  28.013  1.00  0.00     0.169 HD
BRANCH  12  15
ATOM     15  C   UNL A   1      30.992  24.338  25.081  1.00  0.00     0.122 C 
BRANCH  15  16
ATOM     16  C   UNL A   1      30.245  25.667  24.936  1.00  0.00     0.137 C 
BRANCH  16  17
ATOM     17  N   UNL A   1      31.072  26.873  25.043  1.00  0.00    -0.292 N 
ATOM     18  C   UNL A   1      32.843  28.967  27.343  1.00  0.00     0.029 C 
ATOM     19  C   UNL A   1      32.232  28.559  26.222  1.00  0.00     0.081 C 
ATOM     20  S   UNL A   1      32.558  28.923  24.587  1.00  0.00    -0.054 SA
ATOM     21  C   UNL A   1      31.212  27.477  26.283  1.00  0.00     0.266 C 
ATOM     22  C   UNL A   1      31.694  27.511  23.993  1.00  0.00     0.148 C 
ATOM     23  O   UNL A   1      30.624  27.158  27.308  1.00  0.00    -0.268 OA
ATOM     24  S   UNL A   1      31.697  27.084  22.379  1.00  0.00    -0.052 S 
BRANCH  18  25
ATOM     25  C   UNL A   1      34.047  29.800  27.548  1.00  0.00    -0.020 A 
ATOM     26  C   UNL A   1      34.904  32.088  27.906  1.00  0.00     0.161 A 
ATOM     27  C   UNL A   1      33.852  31.190  27.666  1.00  0.00     0.058 A 
ATOM     28  C   UNL A   1      36.193  31.573  28.004  1.00  0.00     0.157 A 
ATOM     29  C   UNL A   1      36.414  30.198  27.879  1.00  0.00     0.051 A 
ATOM     30  C   UNL A   1      35.353  29.319  27.636  1.00  0.00     0.012 A 
BRANCH  26  31
ATOM     31  O   UNL A   1      34.475  33.382  28.003  1.00  0.00    -0.493 OA
ATOM     32  C   UNL A   1      34.035  33.895  29.250  1.00  0.00     0.278 C 
ENDBRANCH  26  31
BRANCH  28  33
ATOM     33  O   UNL A   1      37.319  32.323  28.175  1.00  0.00    -0.504 OA
ATOM     34  H   UNL A   1      38.163  31.946  28.018  1.00  0.00     0.293 HD
ENDBRANCH  28  33
ENDBRANCH  18  25
ENDBRANCH  16  17
ENDBRANCH  15  16
ENDBRANCH  12  15
ENDBRANCH   6  11
ENDBRANCH   1   5
BRANCH   3  35
ATOM     35  C   UNL A   1      38.859  22.485  26.484  1.00  0.00     0.118 C 
BRANCH  35  36
ATOM     36  C   UNL A   1      39.166  23.923  26.884  1.00  0.00     0.042 C 
BRANCH  36  37
ATOM     37  C   UNL A   1      40.573  24.168  27.403  1.00  0.00     0.118 C 
BRANCH  37  38
ATOM     38  N   UNL A   1      41.482  23.062  27.137  1.00  0.00    -0.352 N 
ATOM     39  C   UNL A   1      42.798  23.030  26.743  1.00  0.00     0.251 C 
ATOM     40  H   UNL A   1      41.078  22.172  27.260  1.00  0.00     0.163 HD
ATOM     41  O   UNL A   1      43.299  21.945  26.450  1.00  0.00    -0.269 OA
BRANCH  39  42
ATOM     42  C   UNL A   1      43.623  24.259  26.639  1.00  0.00     0.039 A 
ATOM     43  C   UNL A   1      44.291  24.713  27.785  1.00  0.00     0.014 A 
ATOM     44  C   UNL A   1      43.716  25.001  25.462  1.00  0.00     0.014 A 
ATOM     45  C   UNL A   1      45.100  25.853  27.726  1.00  0.00     0.010 A 
ATOM     46  C   UNL A   1      44.597  26.080  25.377  1.00  0.00     0.010 A 
ATOM     47  C   UNL A   1      45.297  26.522  26.508  1.00  0.00    -0.014 A 
BRANCH  47  48
ATOM     48  C   UNL A   1      46.230  27.676  26.396  1.00  0.00     0.031 A 
ATOM     49  C   UNL A   1      47.713  27.451  26.269  1.00  0.00     0.074 A 
ATOM     50  C   UNL A   1      45.749  28.932  26.482  1.00  0.00     0.049 A 
ATOM     51  N   UNL A   1      48.682  28.333  26.243  1.00  0.00    -0.248 NA
ATOM     52  C   UNL A   1      48.171  26.056  26.185  1.00  0.00     0.031 C 
ATOM     53  C   UNL A   1      44.339  29.294  26.645  1.00  0.00     0.029 A 
ATOM     54  N   UNL A   1      46.400  30.142  26.453  1.00  0.00    -0.354 N 
ATOM     55  C   UNL A   1      49.860  27.599  26.164  1.00  0.00     0.074 A 
ATOM     56  C   UNL A   1      49.488  26.201  26.193  1.00  0.00     0.031 C 
ATOM     57  C   UNL A   1      44.228  30.632  26.673  1.00  0.00     0.029 A 
ATOM     58  C   UNL A   1      45.559  31.222  26.577  1.00  0.00     0.049 A 
ATOM     59  H   UNL A   1      47.375  30.227  26.353  1.00  0.00     0.167 HD
ATOM     60  C   UNL A   1      51.135  28.045  26.059  1.00  0.00     0.031 A 
ATOM     61  C   UNL A   1      45.826  32.541  26.622  1.00  0.00     0.031 A 
ATOM     62  C   UNL A   1      51.510  29.432  26.014  1.00  0.00     0.049 A 
ATOM     63  C   UNL A   1      47.251  33.010  26.516  1.00  0.00     0.074 A 
ATOM     64  C   UNL A   1      52.771  29.980  25.848  1.00  0.00     0.029 A 
ATOM     65  N   UNL A   1      50.626  30.493  26.135  1.00  0.00    -0.354 N 
ATOM     66  N   UNL A   1      48.345  32.301  26.379  1.00  0.00    -0.248 NA
ATOM     67  C   UNL A   1      47.474  34.462  26.562  1.00  0.00     0.031 C 
ATOM     68  C   UNL A   1      52.657  31.372  25.920  1.00  0.00     0.029 A 
ATOM     69  C   UNL A   1      51.317  31.692  26.073  1.00  0.00     0.049 A 
ATOM     70  H   UNL A   1      49.652  30.407  26.248  1.00  0.00     0.167 HD
ATOM     71  C   UNL A   1      49.383  33.221  26.296  1.00  0.00     0.074 A 
ATOM     72  C   UNL A   1      48.785  34.538  26.381  1.00  0.00     0.031 C 
ATOM     73  C   UNL A   1      50.712  32.995  26.160  1.00  0.00     0.031 A 
BRANCH  60  74
ATOM     74  C   UNL A   1      52.227  27.011  25.993  1.00  0.00    -0.014 A 
ATOM     75  C   UNL A   1      52.615  26.438  24.770  1.00  0.00     0.009 A 
ATOM     76  C   UNL A   1      52.905  26.634  27.162  1.00  0.00     0.009 A 
ATOM     77  C   UNL A   1      53.631  25.483  24.726  1.00  0.00     0.001 A 
ATOM     78  C   UNL A   1      53.942  25.700  27.112  1.00  0.00     0.001 A 
ATOM     79  C   UNL A   1      54.297  25.118  25.896  1.00  0.00     0.000 A 
ENDBRANCH  60  74
BRANCH  61  80
ATOM     80  C   UNL A   1      44.718  33.522  26.760  1.00  0.00    -0.014 A 
ATOM     81  C   UNL A   1      44.295  33.942  28.031  1.00  0.00     0.009 A 
ATOM     82  C   UNL A   1      44.072  34.037  25.625  1.00  0.00     0.009 A 
ATOM     83  C   UNL A   1      43.231  34.838  28.163  1.00  0.00     0.001 A 
ATOM     84  C   UNL A   1      43.027  34.954  25.759  1.00  0.00     0.001 A 
ATOM     85  C   UNL A   1      42.602  35.347  27.028  1.00  0.00     0.000 A 
ENDBRANCH  61  80
BRANCH  73  86
ATOM     86  C   UNL A   1      51.607  34.197  26.062  1.00  0.00    -0.014 A 
ATOM     87  C   UNL A   1      52.209  34.755  27.200  1.00  0.00     0.009 A 
ATOM     88  C   UNL A   1      51.880  34.758  24.804  1.00  0.00     0.009 A 
ATOM     89  C   UNL A   1      53.042  35.871  27.084  1.00  0.00     0.001 A 
ATOM     90  C   UNL A   1      52.734  35.855  24.687  1.00  0.00     0.001 A 
ATOM     91  C   UNL A   1      53.307  36.416  25.828  1.00  0.00     0.000 A 
ENDBRANCH  73  86
ENDBRANCH  47  48
ENDBRANCH  39  42
ENDBRANCH  37  38
ENDBRANCH  36  37
ENDBRANCH  35  36
ENDBRANCH   3  35
TORSDOF 17
ENDMDL
MODEL 2
REMARK VINA RESULT:     -11.1      6.474     12.789
REMARK SMILES COc1cc(/C=C2\SC(=S)N(CCC(=O)Nc3ccc(C(=O)NCCCNC(=O)c4ccc(-c5c6nc(c(-c7ccccc7)c7ccc([nH]7)c(-c7ccccc7)c7nc(c(-c8ccccc8)c8ccc5[nH]8)C=C7)C=C6)cc4)cc3)C2=O)ccc1O
REMARK SMILES IDX 21 1 22 2 23 3 20 5 17 6 18 7 79 8 19 9 78 10 16 11 14 12
REMARK SMILES IDX 15 13 13 15 12 16 11 17 6 18 7 19 8 20 80 21 9 22 81 23
REMARK SMILES IDX 10 24 5 25 3 26 4 27 84 28 83 29 82 30 2 31 1 32 85 33 24 35
REMARK SMILES IDX 25 36 26 37 27 38 28 39 29 41 30 42 31 43 77 44 32 45 76 46
REMARK SMILES IDX 33 47 34 48 35 49 70 50 36 51 75 52 69 53 71 54 37 55 74 56
REMARK SMILES IDX 68 57 67 58 38 60 60 61 45 62 59 63 46 64 49 65 58 66 72 67
REMARK SMILES IDX 47 68 48 69 57 71 73 72 50 73 39 74 40 75 44 76 41 77 43 78
REMARK SMILES IDX 42 79 61 80 62 81 66 82 63 83 65 84 64 85 51 86 52 87 56 88
REMARK SMILES IDX 53 89 55 90 54 91
REMARK H PARENT 23 4 16 14 85 34 27 40 71 59 49 70
REMARK Flexibility Score: inf
ROOT
ATOM      1  C   UNL A   1      37.742  33.805  33.318  1.00  0.00     0.251 C 
ATOM      2  O   UNL A   1      38.030  34.924  33.736  1.00  0.00    -0.269 OA
ATOM      3  N   UNL A   1      36.678  33.678  32.451  1.00  0.00    -0.352 N 
ATOM      4  H   UNL A   1      36.241  34.528  32.216  1.00  0.00     0.163 HD
ENDROOT
BRANCH   1   5
ATOM      5  C   UNL A   1      38.513  32.630  33.806  1.00  0.00     0.039 A 
ATOM      6  C   UNL A   1      39.818  30.462  35.061  1.00  0.00     0.041 A 
ATOM      7  C   UNL A   1      40.245  31.777  35.281  1.00  0.00     0.027 A 
ATOM      8  C   UNL A   1      38.866  30.243  34.071  1.00  0.00     0.027 A 
ATOM      9  C   UNL A   1      39.591  32.854  34.665  1.00  0.00     0.016 A 
ATOM     10  C   UNL A   1      38.231  31.317  33.434  1.00  0.00     0.016 A 
BRANCH   6  11
ATOM     11  N   UNL A   1      40.390  29.470  35.875  1.00  0.00    -0.326 N 
ATOM     12  C   UNL A   1      41.446  28.616  35.751  1.00  0.00     0.226 C 
ATOM     13  O   UNL A   1      41.692  27.878  36.713  1.00  0.00    -0.275 OA
ATOM     14  H   UNL A   1      39.921  29.369  36.734  1.00  0.00     0.169 HD
BRANCH  12  15
ATOM     15  C   UNL A   1      42.273  28.476  34.493  1.00  0.00     0.122 C 
BRANCH  15  16
ATOM     16  C   UNL A   1      43.788  28.432  34.723  1.00  0.00     0.137 C 
BRANCH  16  17
ATOM     17  N   UNL A   1      44.314  27.162  35.232  1.00  0.00    -0.292 N 
ATOM     18  C   UNL A   1      45.446  23.907  34.263  1.00  0.00     0.029 C 
ATOM     19  C   UNL A   1      45.000  24.911  35.033  1.00  0.00     0.081 C 
ATOM     20  S   UNL A   1      45.319  25.278  36.668  1.00  0.00    -0.054 SA
ATOM     21  C   UNL A   1      44.250  26.041  34.419  1.00  0.00     0.266 C 
ATOM     22  C   UNL A   1      44.828  26.959  36.494  1.00  0.00     0.148 C 
ATOM     23  O   UNL A   1      43.699  25.974  33.329  1.00  0.00    -0.268 OA
ATOM     24  S   UNL A   1      45.010  28.067  37.728  1.00  0.00    -0.052 S 
BRANCH  18  25
ATOM     25  C   UNL A   1      46.419  22.828  34.537  1.00  0.00    -0.020 A 
ATOM     26  C   UNL A   1      46.740  20.392  34.788  1.00  0.00     0.161 A 
ATOM     27  C   UNL A   1      45.919  21.512  34.581  1.00  0.00     0.058 A 
ATOM     28  C   UNL A   1      48.101  20.609  34.984  1.00  0.00     0.157 A 
ATOM     29  C   UNL A   1      48.619  21.907  34.956  1.00  0.00     0.051 A 
ATOM     30  C   UNL A   1      47.784  23.011  34.752  1.00  0.00     0.012 A 
BRANCH  26  31
ATOM     31  O   UNL A   1      46.040  19.219  34.770  1.00  0.00    -0.493 OA
ATOM     32  C   UNL A   1      45.280  18.826  35.900  1.00  0.00     0.278 C 
ENDBRANCH  26  31
BRANCH  28  33
ATOM     33  O   UNL A   1      49.013  19.631  35.255  1.00  0.00    -0.504 OA
ATOM     34  H   UNL A   1      49.882  19.861  35.520  1.00  0.00     0.293 HD
ENDBRANCH  28  33
ENDBRANCH  18  25
ENDBRANCH  16  17
ENDBRANCH  15  16
ENDBRANCH  12  15
ENDBRANCH   6  11
ENDBRANCH   1   5
BRANCH   3  35
ATOM     35  C   UNL A   1      36.091  32.505  31.821  1.00  0.00     0.118 C 
BRANCH  35  36
ATOM     36  C   UNL A   1      34.789  32.787  31.079  1.00  0.00     0.042 C 
BRANCH  36  37
ATOM     37  C   UNL A   1      34.926  32.987  29.579  1.00  0.00     0.118 C 
BRANCH  37  38
ATOM     38  N   UNL A   1      34.208  31.987  28.800  1.00  0.00    -0.352 N 
ATOM     39  C   UNL A   1      34.596  30.777  28.278  1.00  0.00     0.251 C 
ATOM     40  H   UNL A   1      33.270  32.223  28.611  1.00  0.00     0.163 HD
ATOM     41  O   UNL A   1      33.822  30.182  27.530  1.00  0.00    -0.269 OA
BRANCH  39  42
ATOM     42  C   UNL A   1      35.923  30.179  28.570  1.00  0.00     0.039 A 
ATOM     43  C   UNL A   1      36.910  30.231  27.576  1.00  0.00     0.014 A 
ATOM     44  C   UNL A   1      36.204  29.527  29.770  1.00  0.00     0.014 A 
ATOM     45  C   UNL A   1      38.183  29.703  27.816  1.00  0.00     0.010 A 
ATOM     46  C   UNL A   1      37.499  29.087  30.046  1.00  0.00     0.010 A 
ATOM     47  C   UNL A   1      38.504  29.166  29.072  1.00  0.00    -0.014 A 
BRANCH  47  48
ATOM     48  C   UNL A   1      39.877  28.688  29.387  1.00  0.00     0.031 A 
ATOM     49  C   UNL A   1      40.833  29.560  30.158  1.00  0.00     0.074 A 
ATOM     50  C   UNL A   1      40.293  27.495  28.917  1.00  0.00     0.049 A 
ATOM     51  N   UNL A   1      42.091  29.346  30.452  1.00  0.00    -0.248 NA
ATOM     52  C   UNL A   1      40.317  30.851  30.638  1.00  0.00     0.031 C 
ATOM     53  C   UNL A   1      39.485  26.565  28.124  1.00  0.00     0.029 A 
ATOM     54  N   UNL A   1      41.507  26.863  29.031  1.00  0.00    -0.354 N 
ATOM     55  C   UNL A   1      42.520  30.482  31.129  1.00  0.00     0.074 A 
ATOM     56  C   UNL A   1      41.403  31.401  31.161  1.00  0.00     0.031 C 
ATOM     57  C   UNL A   1      40.214  25.473  27.848  1.00  0.00     0.029 A 
ATOM     58  C   UNL A   1      41.554  25.642  28.402  1.00  0.00     0.049 A 
ATOM     59  H   UNL A   1      42.271  27.248  29.517  1.00  0.00     0.167 HD
ATOM     60  C   UNL A   1      43.728  30.733  31.690  1.00  0.00     0.031 A 
ATOM     61  C   UNL A   1      42.563  24.759  28.273  1.00  0.00     0.031 A 
ATOM     62  C   UNL A   1      44.837  29.818  31.676  1.00  0.00     0.049 A 
ATOM     63  C   UNL A   1      43.897  25.067  28.894  1.00  0.00     0.074 A 
ATOM     64  C   UNL A   1      46.080  29.960  32.269  1.00  0.00     0.029 A 
ATOM     65  N   UNL A   1      44.838  28.589  31.034  1.00  0.00    -0.354 N 
ATOM     66  N   UNL A   1      44.263  26.120  29.583  1.00  0.00    -0.248 NA
ATOM     67  C   UNL A   1      44.953  24.059  28.724  1.00  0.00     0.031 C 
ATOM     68  C   UNL A   1      46.851  28.839  31.944  1.00  0.00     0.029 A 
ATOM     69  C   UNL A   1      46.069  27.974  31.197  1.00  0.00     0.049 A 
ATOM     70  H   UNL A   1      44.077  28.210  30.538  1.00  0.00     0.167 HD
ATOM     71  C   UNL A   1      45.583  25.889  29.952  1.00  0.00     0.074 A 
ATOM     72  C   UNL A   1      45.945  24.590  29.424  1.00  0.00     0.031 C 
ATOM     73  C   UNL A   1      46.418  26.682  30.666  1.00  0.00     0.031 A 
BRANCH  60  74
ATOM     74  C   UNL A   1      43.914  32.065  32.365  1.00  0.00    -0.014 A 
ATOM     75  C   UNL A   1      43.593  32.246  33.721  1.00  0.00     0.009 A 
ATOM     76  C   UNL A   1      44.457  33.142  31.648  1.00  0.00     0.009 A 
ATOM     77  C   UNL A   1      43.775  33.488  34.332  1.00  0.00     0.001 A 
ATOM     78  C   UNL A   1      44.665  34.376  32.270  1.00  0.00     0.001 A 
ATOM     79  C   UNL A   1      44.315  34.550  33.608  1.00  0.00     0.000 A 
ENDBRANCH  60  74
BRANCH  61  80
ATOM     80  C   UNL A   1      42.349  23.487  27.534  1.00  0.00    -0.014 A 
ATOM     81  C   UNL A   1      42.669  23.394  26.171  1.00  0.00     0.009 A 
ATOM     82  C   UNL A   1      41.819  22.362  28.185  1.00  0.00     0.009 A 
ATOM     83  C   UNL A   1      42.438  22.210  25.468  1.00  0.00     0.001 A 
ATOM     84  C   UNL A   1      41.616  21.170  27.487  1.00  0.00     0.001 A 
ATOM     85  C   UNL A   1      41.916  21.097  26.127  1.00  0.00     0.000 A 
ENDBRANCH  61  80
BRANCH  73  86
ATOM     86  C   UNL A   1      47.796  26.154  30.946  1.00  0.00    -0.014 A 
ATOM     87  C   UNL A   1      48.811  26.211  29.979  1.00  0.00     0.009 A 
ATOM     88  C   UNL A   1      48.091  25.621  32.211  1.00  0.00     0.009 A 
ATOM     89  C   UNL A   1      50.086  25.716  30.263  1.00  0.00     0.001 A 
ATOM     90  C   UNL A   1      49.373  25.155  32.502  1.00  0.00     0.001 A 
ATOM     91  C   UNL A   1      50.367  25.194  31.525  1.00  0.00     0.000 A 
ENDBRANCH  73  86
ENDBRANCH  47  48
ENDBRANCH  39  42
ENDBRANCH  37  38
ENDBRANCH  36  37
ENDBRANCH  35  36
ENDBRANCH   3  35
TORSDOF 17
ENDMDL
MODEL 3
REMARK VINA RESULT:     -11.1      0.718      5.607
REMARK SMILES COc1cc(/C=C2\SC(=S)N(CCC(=O)Nc3ccc(C(=O)NCCCNC(=O)c4ccc(-c5c6nc(c(-c7ccccc7)c7ccc([nH]7)c(-c7ccccc7)c7nc(c(-c8ccccc8)c8ccc5[nH]8)C=C7)C=C6)cc4)cc3)C2=O)ccc1O
REMARK SMILES IDX 21 1 22 2 23 3 20 5 17 6 18 7 79 8 19 9 78 10 16 11 14 12
REMARK SMILES IDX 15 13 13 15 12 16 11 17 6 18 7 19 8 20 80 21 9 22 81 23
REMARK SMILES IDX 10 24 5 25 3 26 4 27 84 28 83 29 82 30 2 31 1 32 85 33 24 35
REMARK SMILES IDX 25 36 26 37 27 38 28 39 29 41 30 42 31 43 77 44 32 45 76 46
REMARK SMILES IDX 33 47 34 48 35 49 70 50 36 51 75 52 69 53 71 54 37 55 74 56
REMARK SMILES IDX 68 57 67 58 38 60 60 61 45 62 59 63 46 64 49 65 58 66 72 67
REMARK SMILES IDX 47 68 48 69 57 71 73 72 50 73 39 74 40 75 44 76 41 77 43 78
REMARK SMILES IDX 42 79 61 80 62 81 66 82 63 83 65 84 64 85 51 86 52 87 56 88
REMARK SMILES IDX 53 89 55 90 54 91
REMARK H PARENT 23 4 16 14 85 34 27 40 71 59 49 70
REMARK Flexibility Score: inf
ROOT
ATOM      1  C   UNL A   1      37.275  22.667  25.085  1.00  0.00     0.251 C 
ATOM      2  O   UNL A   1      37.322  21.937  24.096  1.00  0.00    -0.269 OA
ATOM      3  N   UNL A   1      38.436  23.275  25.512  1.00  0.00    -0.352 N 
ATOM      4  H   UNL A   1      39.224  23.082  24.955  1.00  0.00     0.163 HD
ENDROOT
BRANCH   1   5
ATOM      5  C   UNL A   1      35.985  22.820  25.810  1.00  0.00     0.039 A 
ATOM      6  C   UNL A   1      33.377  23.112  26.855  1.00  0.00     0.041 A 
ATOM      7  C   UNL A   1      34.045  24.202  26.285  1.00  0.00     0.027 A 
ATOM      8  C   UNL A   1      34.099  21.942  27.062  1.00  0.00     0.027 A 
ATOM      9  C   UNL A   1      35.336  24.055  25.757  1.00  0.00     0.016 A 
ATOM     10  C   UNL A   1      35.401  21.802  26.561  1.00  0.00     0.016 A 
BRANCH   6  11
ATOM     11  N   UNL A   1      32.019  23.297  27.165  1.00  0.00    -0.326 N 
ATOM     12  C   UNL A   1      30.929  23.745  26.479  1.00  0.00     0.226 C 
ATOM     13  O   UNL A   1      29.846  23.742  27.075  1.00  0.00    -0.275 OA
ATOM     14  H   UNL A   1      31.805  23.044  28.092  1.00  0.00     0.169 HD
BRANCH  12  15
ATOM     15  C   UNL A   1      30.989  24.306  25.075  1.00  0.00     0.122 C 
BRANCH  15  16
ATOM     16  C   UNL A   1      30.257  25.639  24.887  1.00  0.00     0.137 C 
BRANCH  16  17
ATOM     17  N   UNL A   1      31.091  26.840  24.995  1.00  0.00    -0.292 N 
ATOM     18  C   UNL A   1      32.856  28.933  27.301  1.00  0.00     0.029 C 
ATOM     19  C   UNL A   1      32.251  28.525  26.176  1.00  0.00     0.081 C 
ATOM     20  S   UNL A   1      32.594  28.879  24.542  1.00  0.00    -0.054 SA
ATOM     21  C   UNL A   1      31.224  27.449  26.234  1.00  0.00     0.266 C 
ATOM     22  C   UNL A   1      31.726  27.469  23.947  1.00  0.00     0.148 C 
ATOM     23  O   UNL A   1      30.625  27.139  27.255  1.00  0.00    -0.268 OA
ATOM     24  S   UNL A   1      31.741  27.034  22.336  1.00  0.00    -0.052 S 
BRANCH  18  25
ATOM     25  C   UNL A   1      34.063  29.760  27.512  1.00  0.00    -0.020 A 
ATOM     26  C   UNL A   1      34.921  31.998  28.106  1.00  0.00     0.161 A 
ATOM     27  C   UNL A   1      33.862  31.116  27.837  1.00  0.00     0.058 A 
ATOM     28  C   UNL A   1      36.220  31.506  28.018  1.00  0.00     0.157 A 
ATOM     29  C   UNL A   1      36.445  30.167  27.686  1.00  0.00     0.051 A 
ATOM     30  C   UNL A   1      35.377  29.303  27.418  1.00  0.00     0.012 A 
BRANCH  26  31
ATOM     31  O   UNL A   1      34.486  33.255  28.418  1.00  0.00    -0.493 OA
ATOM     32  C   UNL A   1      33.227  33.710  27.952  1.00  0.00     0.278 C 
ENDBRANCH  26  31
BRANCH  28  33
ATOM     33  O   UNL A   1      37.347  32.253  28.191  1.00  0.00    -0.504 OA
ATOM     34  H   UNL A   1      38.129  32.038  27.722  1.00  0.00     0.293 HD
ENDBRANCH  28  33
ENDBRANCH  18  25
ENDBRANCH  16  17
ENDBRANCH  15  16
ENDBRANCH  12  15
ENDBRANCH   6  11
ENDBRANCH   1   5
BRANCH   3  35
ATOM     35  C   UNL A   1      38.697  24.153  26.643  1.00  0.00     0.118 C 
BRANCH  35  36
ATOM     36  C   UNL A   1      40.040  24.870  26.572  1.00  0.00     0.042 C 
BRANCH  36  37
ATOM     37  C   UNL A   1      40.912  24.741  27.810  1.00  0.00     0.118 C 
BRANCH  37  38
ATOM     38  N   UNL A   1      41.853  23.633  27.736  1.00  0.00    -0.352 N 
ATOM     39  C   UNL A   1      43.196  23.587  27.446  1.00  0.00     0.251 C 
ATOM     40  H   UNL A   1      41.454  22.753  27.926  1.00  0.00     0.163 HD
ATOM     41  O   UNL A   1      43.733  22.488  27.312  1.00  0.00    -0.269 OA
BRANCH  39  42
ATOM     42  C   UNL A   1      44.010  24.815  27.268  1.00  0.00     0.039 A 
ATOM     43  C   UNL A   1      44.598  25.395  28.401  1.00  0.00     0.014 A 
ATOM     44  C   UNL A   1      44.167  25.437  26.030  1.00  0.00     0.014 A 
ATOM     45  C   UNL A   1      45.395  26.538  28.277  1.00  0.00     0.010 A 
ATOM     46  C   UNL A   1      45.037  26.518  25.891  1.00  0.00     0.010 A 
ATOM     47  C   UNL A   1      45.659  27.085  27.011  1.00  0.00    -0.014 A 
BRANCH  47  48
ATOM     48  C   UNL A   1      46.582  28.240  26.840  1.00  0.00     0.031 A 
ATOM     49  C   UNL A   1      46.053  29.650  26.849  1.00  0.00     0.074 A 
ATOM     50  C   UNL A   1      47.890  28.019  26.602  1.00  0.00     0.049 A 
ATOM     51  N   UNL A   1      46.692  30.773  26.633  1.00  0.00    -0.248 NA
ATOM     52  C   UNL A   1      44.615  29.820  27.110  1.00  0.00     0.031 C 
ATOM     53  C   UNL A   1      48.531  26.704  26.528  1.00  0.00     0.029 A 
ATOM     54  N   UNL A   1      48.918  28.901  26.369  1.00  0.00    -0.354 N 
ATOM     55  C   UNL A   1      45.732  31.776  26.708  1.00  0.00     0.074 A 
ATOM     56  C   UNL A   1      44.461  31.125  26.943  1.00  0.00     0.031 C 
ATOM     57  C   UNL A   1      49.843  26.866  26.296  1.00  0.00     0.029 A 
ATOM     58  C   UNL A   1      50.131  28.290  26.158  1.00  0.00     0.049 A 
ATOM     59  H   UNL A   1      48.796  29.877  26.354  1.00  0.00     0.167 HD
ATOM     60  C   UNL A   1      45.893  33.117  26.608  1.00  0.00     0.031 A 
ATOM     61  C   UNL A   1      51.339  28.813  25.875  1.00  0.00     0.031 A 
ATOM     62  C   UNL A   1      47.156  33.770  26.390  1.00  0.00     0.049 A 
ATOM     63  C   UNL A   1      51.489  30.304  25.757  1.00  0.00     0.074 A 
ATOM     64  C   UNL A   1      47.426  35.127  26.336  1.00  0.00     0.029 A 
ATOM     65  N   UNL A   1      48.360  33.113  26.191  1.00  0.00    -0.354 N 
ATOM     66  N   UNL A   1      50.580  31.238  25.893  1.00  0.00    -0.248 NA
ATOM     67  C   UNL A   1      52.835  30.810  25.455  1.00  0.00     0.031 C 
ATOM     68  C   UNL A   1      48.786  35.291  26.052  1.00  0.00     0.029 A 
ATOM     69  C   UNL A   1      49.372  34.037  25.988  1.00  0.00     0.049 A 
ATOM     70  H   UNL A   1      48.478  32.136  26.194  1.00  0.00     0.167 HD
ATOM     71  C   UNL A   1      51.249  32.444  25.720  1.00  0.00     0.074 A 
ATOM     72  C   UNL A   1      52.641  32.122  25.486  1.00  0.00     0.031 C 
ATOM     73  C   UNL A   1      50.753  33.704  25.754  1.00  0.00     0.031 A 
BRANCH  60  74
ATOM     74  C   UNL A   1      44.662  33.973  26.729  1.00  0.00    -0.014 A 
ATOM     75  C   UNL A   1      44.242  34.476  27.971  1.00  0.00     0.009 A 
ATOM     76  C   UNL A   1      43.934  34.316  25.579  1.00  0.00     0.009 A 
ATOM     77  C   UNL A   1      43.099  35.271  28.064  1.00  0.00     0.001 A 
ATOM     78  C   UNL A   1      42.806  35.136  25.671  1.00  0.00     0.001 A 
ATOM     79  C   UNL A   1      42.385  35.605  26.914  1.00  0.00     0.000 A 
ENDBRANCH  60  74
BRANCH  61  80
ATOM     80  C   UNL A   1      52.513  27.919  25.694  1.00  0.00    -0.014 A 
ATOM     81  C   UNL A   1      53.322  27.578  26.788  1.00  0.00     0.009 A 
ATOM     82  C   UNL A   1      52.835  27.409  24.426  1.00  0.00     0.009 A 
ATOM     83  C   UNL A   1      54.445  26.766  26.613  1.00  0.00     0.001 A 
ATOM     84  C   UNL A   1      53.941  26.573  24.259  1.00  0.00     0.001 A 
ATOM     85  C   UNL A   1      54.751  26.260  25.351  1.00  0.00     0.000 A 
ENDBRANCH  61  80
BRANCH  73  86
ATOM     86  C   UNL A   1      51.728  34.831  25.565  1.00  0.00    -0.014 A 
ATOM     87  C   UNL A   1      51.960  35.392  24.300  1.00  0.00     0.009 A 
ATOM     88  C   UNL A   1      52.399  35.363  26.678  1.00  0.00     0.009 A 
ATOM     89  C   UNL A   1      52.869  36.443  24.149  1.00  0.00     0.001 A 
ATOM     90  C   UNL A   1      53.284  36.431  26.529  1.00  0.00     0.001 A 
ATOM     91  C   UNL A   1      53.525  36.964  25.263  1.00  0.00     0.000 A 
ENDBRANCH  73  86
ENDBRANCH  47  48
ENDBRANCH  39  42
ENDBRANCH  37  38
ENDBRANCH  36  37
ENDBRANCH  35  36
ENDBRANCH   3  35
TORSDOF 17
ENDMDL
