MODEL 1
REMARK VINA RESULT:     -11.2      0.000      0.000
REMARK SMILES N#C/C(=C/c1cc(Br)ccc1OCC(=O)NCCCNC(=O)c1ccc(-c2c3nc(c(-c4ccccc4)c4ccc([nH]4)c(-c4ccccc4)c4nc(c(-c5ccccc5)c5ccc2[nH]5)C=C4)C=C3)cc1)c1ccc(F)cc1
REMARK SMILES IDX 17 1 16 2 14 3 15 4 13 6 12 7 11 8 5 9 6 10 7 11 10 12 8 13
REMARK SMILES IDX 9 14 4 15 3 16 2 17 1 18 71 19 72 20 77 21 73 22 76 23 74 24
REMARK SMILES IDX 75 25 18 26 19 27 20 28 21 29 22 31 23 32 24 33 70 34 25 35
REMARK SMILES IDX 69 36 26 37 27 38 28 39 63 40 29 41 68 42 62 43 64 44 30 45
REMARK SMILES IDX 67 46 61 47 60 48 31 50 53 51 38 52 52 53 39 54 42 55 51 56
REMARK SMILES IDX 65 57 40 58 41 59 50 61 66 62 43 63 32 64 33 65 37 66 34 67
REMARK SMILES IDX 36 68 35 69 54 70 55 71 59 72 56 73 58 74 57 75 44 76 45 77
REMARK SMILES IDX 49 78 46 79 48 80 47 81
REMARK H PARENT 16 5 20 30 64 49 42 60
REMARK Flexibility Score: inf
ROOT
ATOM      1  C   UNL A   1      37.066  21.090  24.574  1.00  0.00     0.117 C 
ENDROOT
BRANCH   1   2
ATOM      2  N   UNL A   1      37.711  22.364  24.809  1.00  0.00    -0.353 N 
ATOM      3  C   UNL A   1      37.288  23.386  25.603  1.00  0.00     0.257 C 
ATOM      4  O   UNL A   1      38.102  24.264  25.894  1.00  0.00    -0.271 OA
ATOM      5  H   UNL A   1      38.562  22.509  24.337  1.00  0.00     0.163 HD
BRANCH   3   6
ATOM      6  C   UNL A   1      35.846  23.426  26.127  1.00  0.00     0.329 C 
BRANCH   6   7
ATOM      7  O   UNL A   1      34.796  23.672  25.214  1.00  0.00    -0.483 OA
BRANCH   7   8
ATOM      8  C   UNL A   1      33.474  23.456  25.490  1.00  0.00     0.127 A 
ATOM      9  C   UNL A   1      32.351  23.463  24.644  1.00  0.00     0.019 A 
ATOM     10  C   UNL A   1      31.086  23.135  25.180  1.00  0.00     0.027 A 
ATOM     11  C   UNL A   1      30.928  22.897  26.544  1.00  0.00     0.018 A 
ATOM     12  C   UNL A   1      33.286  23.196  26.860  1.00  0.00     0.048 A 
ATOM     13  Br  UNL A   1      29.206  22.578  27.251  1.00  0.00    -0.051 Br
ATOM     14  C   UNL A   1      32.025  22.936  27.391  1.00  0.00     0.019 A 
BRANCH   9  15
ATOM     15  C   UNL A   1      32.402  23.898  23.242  1.00  0.00     0.032 C 
ATOM     16  C   UNL A   1      32.666  25.145  22.801  1.00  0.00     0.060 C 
BRANCH  16  17
ATOM     17  C   UNL A   1      32.809  25.382  21.306  1.00  0.00     0.100 C 
ATOM     18  N   UNL A   1      32.927  25.579  20.066  1.00  0.00    -0.192 NA
ENDBRANCH  16  17
BRANCH  16  19
ATOM     19  C   UNL A   1      32.530  26.343  23.668  1.00  0.00    -0.008 A 
ATOM     20  C   UNL A   1      33.623  26.981  24.273  1.00  0.00     0.012 A 
ATOM     21  C   UNL A   1      31.228  26.759  24.017  1.00  0.00     0.012 A 
ATOM     22  C   UNL A   1      33.417  27.955  25.255  1.00  0.00     0.040 A 
ATOM     23  C   UNL A   1      31.026  27.744  24.985  1.00  0.00     0.040 A 
ATOM     24  C   UNL A   1      32.123  28.320  25.608  1.00  0.00     0.123 A 
ATOM     25  F   UNL A   1      31.930  29.225  26.576  1.00  0.00    -0.207 F 
ENDBRANCH  16  19
ENDBRANCH   9  15
ENDBRANCH   7   8
ENDBRANCH   6   7
ENDBRANCH   3   6
ENDBRANCH   1   2
BRANCH   1  26
ATOM     26  C   UNL A   1      37.977  19.892  24.807  1.00  0.00     0.042 C 
BRANCH  26  27
ATOM     27  C   UNL A   1      38.965  20.043  25.960  1.00  0.00     0.118 C 
BRANCH  27  28
ATOM     28  N   UNL A   1      40.059  19.084  25.911  1.00  0.00    -0.352 N 
ATOM     29  C   UNL A   1      41.416  19.252  26.015  1.00  0.00     0.251 C 
ATOM     30  H   UNL A   1      39.773  18.151  25.779  1.00  0.00     0.163 HD
ATOM     31  O   UNL A   1      42.158  18.305  25.769  1.00  0.00    -0.269 OA
BRANCH  29  32
ATOM     32  C   UNL A   1      41.999  20.556  26.396  1.00  0.00     0.039 A 
ATOM     33  C   UNL A   1      42.385  21.436  25.379  1.00  0.00     0.014 A 
ATOM     34  C   UNL A   1      42.208  20.905  27.731  1.00  0.00     0.014 A 
ATOM     35  C   UNL A   1      42.909  22.690  25.703  1.00  0.00     0.010 A 
ATOM     36  C   UNL A   1      42.652  22.185  28.055  1.00  0.00     0.010 A 
ATOM     37  C   UNL A   1      43.008  23.092  27.045  1.00  0.00    -0.014 A 
BRANCH  37  38
ATOM     38  C   UNL A   1      43.460  24.460  27.403  1.00  0.00     0.031 A 
ATOM     39  C   UNL A   1      42.468  25.513  27.814  1.00  0.00     0.074 A 
ATOM     40  C   UNL A   1      44.764  24.777  27.287  1.00  0.00     0.049 A 
ATOM     41  N   UNL A   1      42.677  26.770  28.118  1.00  0.00    -0.248 NA
ATOM     42  C   UNL A   1      41.054  25.112  27.860  1.00  0.00     0.031 C 
ATOM     43  C   UNL A   1      45.820  23.865  26.845  1.00  0.00     0.029 A 
ATOM     44  N   UNL A   1      45.422  25.959  27.521  1.00  0.00    -0.354 N 
ATOM     45  C   UNL A   1      41.423  27.312  28.368  1.00  0.00     0.074 A 
ATOM     46  C   UNL A   1      40.456  26.262  28.132  1.00  0.00     0.031 C 
ATOM     47  C   UNL A   1      46.995  24.514  26.859  1.00  0.00     0.029 A 
ATOM     48  C   UNL A   1      46.771  25.895  27.272  1.00  0.00     0.049 A 
ATOM     49  H   UNL A   1      44.970  26.774  27.838  1.00  0.00     0.167 HD
ATOM     50  C   UNL A   1      41.104  28.566  28.769  1.00  0.00     0.031 A 
ATOM     51  C   UNL A   1      47.724  26.842  27.354  1.00  0.00     0.031 A 
ATOM     52  C   UNL A   1      42.068  29.609  29.008  1.00  0.00     0.049 A 
ATOM     53  C   UNL A   1      47.350  28.224  27.808  1.00  0.00     0.074 A 
ATOM     54  C   UNL A   1      41.853  30.887  29.494  1.00  0.00     0.029 A 
ATOM     55  N   UNL A   1      43.428  29.499  28.764  1.00  0.00    -0.354 N 
ATOM     56  N   UNL A   1      46.171  28.696  28.132  1.00  0.00    -0.248 NA
ATOM     57  C   UNL A   1      48.442  29.201  27.921  1.00  0.00     0.031 C 
ATOM     58  C   UNL A   1      43.073  31.570  29.482  1.00  0.00     0.029 A 
ATOM     59  C   UNL A   1      44.060  30.698  29.053  1.00  0.00     0.049 A 
ATOM     60  H   UNL A   1      43.879  28.688  28.434  1.00  0.00     0.167 HD
ATOM     61  C   UNL A   1      46.380  30.016  28.507  1.00  0.00     0.074 A 
ATOM     62  C   UNL A   1      47.803  30.264  28.388  1.00  0.00     0.031 C 
ATOM     63  C   UNL A   1      45.473  30.939  28.914  1.00  0.00     0.031 A 
BRANCH  50  64
ATOM     64  C   UNL A   1      39.643  28.884  28.950  1.00  0.00    -0.014 A 
ATOM     65  C   UNL A   1      38.998  28.702  30.185  1.00  0.00     0.009 A 
ATOM     66  C   UNL A   1      38.903  29.388  27.869  1.00  0.00     0.009 A 
ATOM     67  C   UNL A   1      37.634  28.969  30.318  1.00  0.00     0.001 A 
ATOM     68  C   UNL A   1      37.547  29.688  28.014  1.00  0.00     0.001 A 
ATOM     69  C   UNL A   1      36.911  29.465  29.233  1.00  0.00     0.000 A 
ENDBRANCH  50  64
BRANCH  51  70
ATOM     70  C   UNL A   1      49.127  26.503  27.001  1.00  0.00    -0.014 A 
ATOM     71  C   UNL A   1      49.585  26.634  25.682  1.00  0.00     0.009 A 
ATOM     72  C   UNL A   1      50.025  26.075  27.992  1.00  0.00     0.009 A 
ATOM     73  C   UNL A   1      50.910  26.328  25.360  1.00  0.00     0.001 A 
ATOM     74  C   UNL A   1      51.356  25.799  27.672  1.00  0.00     0.001 A 
ATOM     75  C   UNL A   1      51.795  25.918  26.355  1.00  0.00     0.000 A 
ENDBRANCH  51  70
BRANCH  63  76
ATOM     76  C   UNL A   1      45.998  32.301  29.281  1.00  0.00    -0.014 A 
ATOM     77  C   UNL A   1      46.062  33.337  28.337  1.00  0.00     0.009 A 
ATOM     78  C   UNL A   1      46.396  32.559  30.602  1.00  0.00     0.009 A 
ATOM     79  C   UNL A   1      46.548  34.595  28.702  1.00  0.00     0.001 A 
ATOM     80  C   UNL A   1      46.852  33.826  30.971  1.00  0.00     0.001 A 
ATOM     81  C   UNL A   1      46.936  34.839  30.018  1.00  0.00     0.000 A 
ENDBRANCH  63  76
ENDBRANCH  37  38
ENDBRANCH  29  32
ENDBRANCH  27  28
ENDBRANCH  26  27
ENDBRANCH   1  26
TORSDOF 15
ENDMDL
MODEL 2
REMARK VINA RESULT:     -11.2      4.763     10.413
REMARK SMILES N#C/C(=C/c1cc(Br)ccc1OCC(=O)NCCCNC(=O)c1ccc(-c2c3nc(c(-c4ccccc4)c4ccc([nH]4)c(-c4ccccc4)c4nc(c(-c5ccccc5)c5ccc2[nH]5)C=C4)C=C3)cc1)c1ccc(F)cc1
REMARK SMILES IDX 17 1 16 2 14 3 15 4 13 6 12 7 11 8 5 9 6 10 7 11 10 12 8 13
REMARK SMILES IDX 9 14 4 15 3 16 2 17 1 18 71 19 72 20 77 21 73 22 76 23 74 24
REMARK SMILES IDX 75 25 18 26 19 27 20 28 21 29 22 31 23 32 24 33 70 34 25 35
REMARK SMILES IDX 69 36 26 37 27 38 28 39 63 40 29 41 68 42 62 43 64 44 30 45
REMARK SMILES IDX 67 46 61 47 60 48 31 50 53 51 38 52 52 53 39 54 42 55 51 56
REMARK SMILES IDX 65 57 40 58 41 59 50 61 66 62 43 63 32 64 33 65 37 66 34 67
REMARK SMILES IDX 36 68 35 69 54 70 55 71 59 72 56 73 58 74 57 75 44 76 45 77
REMARK SMILES IDX 49 78 46 79 48 80 47 81
REMARK H PARENT 16 5 20 30 64 49 42 60
REMARK Flexibility Score: inf
ROOT
ATOM      1  C   UNL A   1      42.358  22.802  26.007  1.00  0.00     0.117 C 
ENDROOT
BRANCH   1   2
ATOM      2  N   UNL A   1      42.892  22.613  24.676  1.00  0.00    -0.353 N 
ATOM      3  C   UNL A   1      44.140  22.911  24.221  1.00  0.00     0.257 C 
ATOM      4  O   UNL A   1      44.493  22.422  23.146  1.00  0.00    -0.271 OA
ATOM      5  H   UNL A   1      42.276  22.220  24.016  1.00  0.00     0.163 HD
BRANCH   3   6
ATOM      6  C   UNL A   1      45.077  23.813  25.037  1.00  0.00     0.329 C 
BRANCH   6   7
ATOM      7  O   UNL A   1      45.340  25.120  24.570  1.00  0.00    -0.483 OA
BRANCH   7   8
ATOM      8  C   UNL A   1      45.158  26.251  25.316  1.00  0.00     0.127 A 
ATOM      9  C   UNL A   1      46.025  26.908  26.208  1.00  0.00     0.019 A 
ATOM     10  C   UNL A   1      45.608  28.117  26.805  1.00  0.00     0.027 A 
ATOM     11  C   UNL A   1      44.323  28.613  26.593  1.00  0.00     0.018 A 
ATOM     12  C   UNL A   1      43.873  26.784  25.109  1.00  0.00     0.048 A 
ATOM     13  Br  UNL A   1      43.753  30.170  27.499  1.00  0.00    -0.051 Br
ATOM     14  C   UNL A   1      43.447  27.945  25.753  1.00  0.00     0.019 A 
BRANCH   9  15
ATOM     15  C   UNL A   1      47.313  26.346  26.638  1.00  0.00     0.032 C 
ATOM     16  C   UNL A   1      47.496  25.386  27.567  1.00  0.00     0.060 C 
BRANCH  16  17
ATOM     17  C   UNL A   1      48.894  24.833  27.787  1.00  0.00     0.100 C 
ATOM     18  N   UNL A   1      50.055  24.374  27.970  1.00  0.00    -0.192 NA
ENDBRANCH  16  17
BRANCH  16  19
ATOM     19  C   UNL A   1      46.467  25.055  28.585  1.00  0.00    -0.008 A 
ATOM     20  C   UNL A   1      46.497  25.553  29.897  1.00  0.00     0.012 A 
ATOM     21  C   UNL A   1      45.506  24.077  28.257  1.00  0.00     0.012 A 
ATOM     22  C   UNL A   1      45.639  25.031  30.870  1.00  0.00     0.040 A 
ATOM     23  C   UNL A   1      44.638  23.570  29.226  1.00  0.00     0.040 A 
ATOM     24  C   UNL A   1      44.726  24.039  30.528  1.00  0.00     0.123 A 
ATOM     25  F   UNL A   1      43.933  23.515  31.471  1.00  0.00    -0.207 F 
ENDBRANCH  16  19
ENDBRANCH   9  15
ENDBRANCH   7   8
ENDBRANCH   6   7
ENDBRANCH   3   6
ENDBRANCH   1   2
BRANCH   1  26
ATOM     26  C   UNL A   1      41.736  21.544  26.600  1.00  0.00     0.042 C 
BRANCH  26  27
ATOM     27  C   UNL A   1      40.345  21.730  27.198  1.00  0.00     0.118 C 
BRANCH  27  28
ATOM     28  N   UNL A   1      39.369  22.234  26.243  1.00  0.00    -0.352 N 
ATOM     29  C   UNL A   1      38.783  23.467  26.111  1.00  0.00     0.251 C 
ATOM     30  H   UNL A   1      39.079  21.572  25.573  1.00  0.00     0.163 HD
ATOM     31  O   UNL A   1      37.852  23.608  25.324  1.00  0.00    -0.269 OA
BRANCH  29  32
ATOM     32  C   UNL A   1      39.239  24.621  26.915  1.00  0.00     0.039 A 
ATOM     33  C   UNL A   1      40.041  25.588  26.300  1.00  0.00     0.014 A 
ATOM     34  C   UNL A   1      38.923  24.743  28.269  1.00  0.00     0.014 A 
ATOM     35  C   UNL A   1      40.462  26.707  27.020  1.00  0.00     0.010 A 
ATOM     36  C   UNL A   1      39.272  25.898  28.965  1.00  0.00     0.010 A 
ATOM     37  C   UNL A   1      40.047  26.894  28.348  1.00  0.00    -0.014 A 
BRANCH  37  38
ATOM     38  C   UNL A   1      40.395  28.129  29.094  1.00  0.00     0.031 A 
ATOM     39  C   UNL A   1      41.708  28.245  29.818  1.00  0.00     0.074 A 
ATOM     40  C   UNL A   1      39.491  29.124  29.183  1.00  0.00     0.049 A 
ATOM     41  N   UNL A   1      42.160  29.230  30.554  1.00  0.00    -0.248 NA
ATOM     42  C   UNL A   1      42.620  27.095  29.728  1.00  0.00     0.031 C 
ATOM     43  C   UNL A   1      38.158  29.114  28.576  1.00  0.00     0.029 A 
ATOM     44  N   UNL A   1      39.552  30.334  29.827  1.00  0.00    -0.354 N 
ATOM     45  C   UNL A   1      43.394  28.809  31.032  1.00  0.00     0.074 A 
ATOM     46  C   UNL A   1      43.597  27.462  30.542  1.00  0.00     0.031 C 
ATOM     47  C   UNL A   1      37.537  30.269  28.860  1.00  0.00     0.029 A 
ATOM     48  C   UNL A   1      38.408  31.084  29.699  1.00  0.00     0.049 A 
ATOM     49  H   UNL A   1      40.341  30.637  30.333  1.00  0.00     0.167 HD
ATOM     50  C   UNL A   1      44.284  29.483  31.798  1.00  0.00     0.031 A 
ATOM     51  C   UNL A   1      38.088  32.288  30.208  1.00  0.00     0.031 A 
ATOM     52  C   UNL A   1      44.083  30.826  32.281  1.00  0.00     0.049 A 
ATOM     53  C   UNL A   1      39.092  33.024  31.049  1.00  0.00     0.074 A 
ATOM     54  C   UNL A   1      44.959  31.625  32.994  1.00  0.00     0.029 A 
ATOM     55  N   UNL A   1      42.919  31.559  32.112  1.00  0.00    -0.354 N 
ATOM     56  N   UNL A   1      40.294  32.650  31.413  1.00  0.00    -0.248 NA
ATOM     57  C   UNL A   1      38.700  34.353  31.536  1.00  0.00     0.031 C 
ATOM     58  C   UNL A   1      44.300  32.817  33.313  1.00  0.00     0.029 A 
ATOM     59  C   UNL A   1      43.039  32.788  32.740  1.00  0.00     0.049 A 
ATOM     60  H   UNL A   1      42.124  31.252  31.618  1.00  0.00     0.167 HD
ATOM     61  C   UNL A   1      40.810  33.704  32.155  1.00  0.00     0.074 A 
ATOM     62  C   UNL A   1      39.797  34.739  32.171  1.00  0.00     0.031 C 
ATOM     63  C   UNL A   1      42.017  33.804  32.766  1.00  0.00     0.031 A 
BRANCH  50  64
ATOM     64  C   UNL A   1      45.551  28.765  32.183  1.00  0.00    -0.014 A 
ATOM     65  C   UNL A   1      45.606  27.921  33.304  1.00  0.00     0.009 A 
ATOM     66  C   UNL A   1      46.705  28.926  31.400  1.00  0.00     0.009 A 
ATOM     67  C   UNL A   1      46.802  27.295  33.662  1.00  0.00     0.001 A 
ATOM     68  C   UNL A   1      47.891  28.270  31.740  1.00  0.00     0.001 A 
ATOM     69  C   UNL A   1      47.942  27.468  32.878  1.00  0.00     0.000 A 
ENDBRANCH  50  64
BRANCH  51  70
ATOM     70  C   UNL A   1      36.750  32.871  29.924  1.00  0.00    -0.014 A 
ATOM     71  C   UNL A   1      36.518  33.588  28.742  1.00  0.00     0.009 A 
ATOM     72  C   UNL A   1      35.689  32.685  30.825  1.00  0.00     0.009 A 
ATOM     73  C   UNL A   1      35.254  34.121  28.475  1.00  0.00     0.001 A 
ATOM     74  C   UNL A   1      34.419  33.192  30.541  1.00  0.00     0.001 A 
ATOM     75  C   UNL A   1      34.205  33.916  29.370  1.00  0.00     0.000 A 
ENDBRANCH  51  70
BRANCH  63  76
ATOM     76  C   UNL A   1      42.316  35.089  33.489  1.00  0.00    -0.014 A 
ATOM     77  C   UNL A   1      43.020  36.131  32.867  1.00  0.00     0.009 A 
ATOM     78  C   UNL A   1      41.849  35.272  34.800  1.00  0.00     0.009 A 
ATOM     79  C   UNL A   1      43.282  37.317  33.556  1.00  0.00     0.001 A 
ATOM     80  C   UNL A   1      42.085  36.471  35.476  1.00  0.00     0.001 A 
ATOM     81  C   UNL A   1      42.809  37.488  34.857  1.00  0.00     0.000 A 
ENDBRANCH  63  76
ENDBRANCH  37  38
ENDBRANCH  29  32
ENDBRANCH  27  28
ENDBRANCH  26  27
ENDBRANCH   1  26
TORSDOF 15
ENDMDL
MODEL 3
REMARK VINA RESULT:     -11.0      1.469      6.006
REMARK SMILES N#C/C(=C/c1cc(Br)ccc1OCC(=O)NCCCNC(=O)c1ccc(-c2c3nc(c(-c4ccccc4)c4ccc([nH]4)c(-c4ccccc4)c4nc(c(-c5ccccc5)c5ccc2[nH]5)C=C4)C=C3)cc1)c1ccc(F)cc1
REMARK SMILES IDX 17 1 16 2 14 3 15 4 13 6 12 7 11 8 5 9 6 10 7 11 10 12 8 13
REMARK SMILES IDX 9 14 4 15 3 16 2 17 1 18 71 19 72 20 77 21 73 22 76 23 74 24
REMARK SMILES IDX 75 25 18 26 19 27 20 28 21 29 22 31 23 32 24 33 70 34 25 35
REMARK SMILES IDX 69 36 26 37 27 38 28 39 63 40 29 41 68 42 62 43 64 44 30 45
REMARK SMILES IDX 67 46 61 47 60 48 31 50 53 51 38 52 52 53 39 54 42 55 51 56
REMARK SMILES IDX 65 57 40 58 41 59 50 61 66 62 43 63 32 64 33 65 37 66 34 67
REMARK SMILES IDX 36 68 35 69 54 70 55 71 59 72 56 73 58 74 57 75 44 76 45 77
REMARK SMILES IDX 49 78 46 79 48 80 47 81
REMARK H PARENT 16 5 20 30 64 49 42 60
REMARK Flexibility Score: inf
ROOT
ATOM      1  C   UNL A   1      37.202  20.793  24.566  1.00  0.00     0.117 C 
ENDROOT
BRANCH   1   2
ATOM      2  N   UNL A   1      37.823  22.083  24.769  1.00  0.00    -0.353 N 
ATOM      3  C   UNL A   1      37.376  23.121  25.528  1.00  0.00     0.257 C 
ATOM      4  O   UNL A   1      38.173  24.021  25.800  1.00  0.00    -0.271 OA
ATOM      5  H   UNL A   1      38.677  22.229  24.300  1.00  0.00     0.163 HD
BRANCH   3   6
ATOM      6  C   UNL A   1      35.928  23.153  26.037  1.00  0.00     0.329 C 
BRANCH   6   7
ATOM      7  O   UNL A   1      34.885  23.372  25.110  1.00  0.00    -0.483 OA
BRANCH   7   8
ATOM      8  C   UNL A   1      33.556  23.265  25.412  1.00  0.00     0.127 A 
ATOM      9  C   UNL A   1      32.420  23.371  24.589  1.00  0.00     0.019 A 
ATOM     10  C   UNL A   1      31.144  23.144  25.150  1.00  0.00     0.027 A 
ATOM     11  C   UNL A   1      30.995  22.910  26.516  1.00  0.00     0.018 A 
ATOM     12  C   UNL A   1      33.375  23.012  26.784  1.00  0.00     0.048 A 
ATOM     13  Br  UNL A   1      29.266  22.729  27.257  1.00  0.00    -0.051 Br
ATOM     14  C   UNL A   1      32.108  22.853  27.340  1.00  0.00     0.019 A 
BRANCH   9  15
ATOM     15  C   UNL A   1      32.478  23.810  23.189  1.00  0.00     0.032 C 
ATOM     16  C   UNL A   1      32.700  25.067  22.754  1.00  0.00     0.060 C 
BRANCH  16  17
ATOM     17  C   UNL A   1      32.860  25.313  21.263  1.00  0.00     0.100 C 
ATOM     18  N   UNL A   1      32.993  25.516  20.026  1.00  0.00    -0.192 NA
ENDBRANCH  16  17
BRANCH  16  19
ATOM     19  C   UNL A   1      32.501  26.257  23.621  1.00  0.00    -0.008 A 
ATOM     20  C   UNL A   1      33.508  26.785  24.442  1.00  0.00     0.012 A 
ATOM     21  C   UNL A   1      31.196  26.780  23.732  1.00  0.00     0.012 A 
ATOM     22  C   UNL A   1      33.200  27.757  25.401  1.00  0.00     0.040 A 
ATOM     23  C   UNL A   1      30.895  27.762  24.677  1.00  0.00     0.040 A 
ATOM     24  C   UNL A   1      31.897  28.228  25.515  1.00  0.00     0.123 A 
ATOM     25  F   UNL A   1      31.599  29.130  26.459  1.00  0.00    -0.207 F 
ENDBRANCH  16  19
ENDBRANCH   9  15
ENDBRANCH   7   8
ENDBRANCH   6   7
ENDBRANCH   3   6
ENDBRANCH   1   2
BRANCH   1  26
ATOM     26  C   UNL A   1      38.141  19.617  24.802  1.00  0.00     0.042 C 
BRANCH  26  27
ATOM     27  C   UNL A   1      39.017  19.728  26.047  1.00  0.00     0.118 C 
BRANCH  27  28
ATOM     28  N   UNL A   1      40.337  19.139  25.876  1.00  0.00    -0.352 N 
ATOM     29  C   UNL A   1      41.592  19.683  25.979  1.00  0.00     0.251 C 
ATOM     30  H   UNL A   1      40.326  18.182  25.646  1.00  0.00     0.163 HD
ATOM     31  O   UNL A   1      42.563  19.024  25.619  1.00  0.00    -0.269 OA
BRANCH  29  32
ATOM     32  C   UNL A   1      41.792  21.055  26.493  1.00  0.00     0.039 A 
ATOM     33  C   UNL A   1      41.682  21.275  27.870  1.00  0.00     0.014 A 
ATOM     34  C   UNL A   1      42.044  22.130  25.638  1.00  0.00     0.014 A 
ATOM     35  C   UNL A   1      41.897  22.551  28.393  1.00  0.00     0.010 A 
ATOM     36  C   UNL A   1      42.340  23.384  26.165  1.00  0.00     0.010 A 
ATOM     37  C   UNL A   1      42.270  23.610  27.549  1.00  0.00    -0.014 A 
BRANCH  37  38
ATOM     38  C   UNL A   1      42.608  24.947  28.100  1.00  0.00     0.031 A 
ATOM     39  C   UNL A   1      44.009  25.260  28.547  1.00  0.00     0.074 A 
ATOM     40  C   UNL A   1      41.631  25.859  28.267  1.00  0.00     0.049 A 
ATOM     41  N   UNL A   1      44.475  26.357  29.092  1.00  0.00    -0.248 NA
ATOM     42  C   UNL A   1      45.010  24.195  28.390  1.00  0.00     0.031 C 
ATOM     43  C   UNL A   1      40.221  25.661  27.927  1.00  0.00     0.029 A 
ATOM     44  N   UNL A   1      41.674  27.133  28.775  1.00  0.00    -0.354 N 
ATOM     45  C   UNL A   1      45.814  26.104  29.362  1.00  0.00     0.074 A 
ATOM     46  C   UNL A   1      46.072  24.736  28.968  1.00  0.00     0.031 C 
ATOM     47  C   UNL A   1      39.538  26.779  28.217  1.00  0.00     0.029 A 
ATOM     48  C   UNL A   1      40.451  27.757  28.798  1.00  0.00     0.049 A 
ATOM     49  H   UNL A   1      42.503  27.560  29.092  1.00  0.00     0.167 HD
ATOM     50  C   UNL A   1      46.748  26.938  29.881  1.00  0.00     0.031 A 
ATOM     51  C   UNL A   1      40.097  28.976  29.247  1.00  0.00     0.031 A 
ATOM     52  C   UNL A   1      46.491  28.301  30.269  1.00  0.00     0.049 A 
ATOM     53  C   UNL A   1      41.149  29.887  29.811  1.00  0.00     0.074 A 
ATOM     54  C   UNL A   1      47.387  29.250  30.727  1.00  0.00     0.029 A 
ATOM     55  N   UNL A   1      45.242  28.902  30.258  1.00  0.00    -0.354 N 
ATOM     56  N   UNL A   1      42.431  29.667  29.973  1.00  0.00    -0.248 NA
ATOM     57  C   UNL A   1      40.707  31.221  30.241  1.00  0.00     0.031 C 
ATOM     58  C   UNL A   1      46.670  30.405  31.055  1.00  0.00     0.029 A 
ATOM     59  C   UNL A   1      45.337  30.199  30.737  1.00  0.00     0.049 A 
ATOM     60  H   UNL A   1      44.410  28.472  29.953  1.00  0.00     0.167 HD
ATOM     61  C   UNL A   1      42.953  30.839  30.505  1.00  0.00     0.074 A 
ATOM     62  C   UNL A   1      41.852  31.773  30.618  1.00  0.00     0.031 C 
ATOM     63  C   UNL A   1      44.231  31.115  30.864  1.00  0.00     0.031 A 
BRANCH  50  64
ATOM     64  C   UNL A   1      48.134  26.384  30.082  1.00  0.00    -0.014 A 
ATOM     65  C   UNL A   1      49.097  26.424  29.060  1.00  0.00     0.009 A 
ATOM     66  C   UNL A   1      48.486  25.826  31.321  1.00  0.00     0.009 A 
ATOM     67  C   UNL A   1      50.364  25.870  29.259  1.00  0.00     0.001 A 
ATOM     68  C   UNL A   1      49.765  25.306  31.529  1.00  0.00     0.001 A 
ATOM     69  C   UNL A   1      50.698  25.315  30.493  1.00  0.00     0.000 A 
ENDBRANCH  50  64
BRANCH  51  70
ATOM     70  C   UNL A   1      38.674  29.400  29.170  1.00  0.00    -0.014 A 
ATOM     71  C   UNL A   1      38.152  29.945  27.988  1.00  0.00     0.009 A 
ATOM     72  C   UNL A   1      37.823  29.232  30.275  1.00  0.00     0.009 A 
ATOM     73  C   UNL A   1      36.810  30.328  27.919  1.00  0.00     0.001 A 
ATOM     74  C   UNL A   1      36.475  29.588  30.192  1.00  0.00     0.001 A 
ATOM     75  C   UNL A   1      35.972  30.142  29.017  1.00  0.00     0.000 A 
ENDBRANCH  51  70
BRANCH  63  76
ATOM     76  C   UNL A   1      44.512  32.493  31.397  1.00  0.00    -0.014 A 
ATOM     77  C   UNL A   1      44.465  32.768  32.772  1.00  0.00     0.009 A 
ATOM     78  C   UNL A   1      44.868  33.521  30.511  1.00  0.00     0.009 A 
ATOM     79  C   UNL A   1      44.733  34.054  33.245  1.00  0.00     0.001 A 
ATOM     80  C   UNL A   1      45.167  34.798  30.989  1.00  0.00     0.001 A 
ATOM     81  C   UNL A   1      45.090  35.065  32.354  1.00  0.00     0.000 A 
ENDBRANCH  63  76
ENDBRANCH  37  38
ENDBRANCH  29  32
ENDBRANCH  27  28
ENDBRANCH  26  27
ENDBRANCH   1  26
TORSDOF 15
ENDMDL
