MODEL 1
REMARK VINA RESULT:     -11.8      0.000      0.000
REMARK SMILES CCNC(=O)c1cccc(-c2ccc(Cl)c(C(=O)NCCCNC(=O)c3ccc(-c4c5nc(c(-c6ccccc6)c6ccc([nH]6)c(-c6ccccc6)c6nc(c(-c7ccccc7)c7ccc4[nH]7)C=C6)C=C5)cc3)c2)c1
REMARK SMILES IDX 20 1 19 2 17 3 18 4 16 6 11 7 12 8 74 9 13 10 14 11 15 12
REMARK SMILES IDX 10 13 6 14 7 15 75 16 8 17 9 18 4 19 3 20 5 22 2 23 1 24
REMARK SMILES IDX 21 25 22 26 23 27 24 28 25 30 26 31 27 32 73 33 28 34 72 35
REMARK SMILES IDX 29 36 30 37 31 38 66 39 32 40 71 41 65 42 67 43 33 44 70 45
REMARK SMILES IDX 64 46 63 47 34 49 56 50 41 51 55 52 42 53 45 54 54 55 68 56
REMARK SMILES IDX 43 57 44 58 53 60 69 61 46 62 35 63 36 64 40 65 37 66 39 67
REMARK SMILES IDX 38 68 57 69 58 70 62 71 59 72 61 73 60 74 47 75 48 76 52 77
REMARK SMILES IDX 49 78 51 79 50 80
REMARK H PARENT 19 5 3 21 23 29 67 48 45 59
REMARK Flexibility Score: inf
ROOT
ATOM      1  C   UNL A   1      36.716  21.100  24.889  1.00  0.00     0.118 C 
ENDROOT
BRANCH   1   2
ATOM      2  N   UNL A   1      35.888  21.228  26.090  1.00  0.00    -0.352 N 
ATOM      3  C   UNL A   1      34.585  21.585  26.386  1.00  0.00     0.252 C 
ATOM      4  O   UNL A   1      34.265  21.460  27.568  1.00  0.00    -0.269 OA
ATOM      5  H   UNL A   1      36.392  20.999  26.903  1.00  0.00     0.163 HD
BRANCH   3   6
ATOM      6  C   UNL A   1      33.603  22.120  25.390  1.00  0.00     0.059 A 
ATOM      7  C   UNL A   1      32.350  24.092  24.600  1.00  0.00    -0.017 A 
ATOM      8  C   UNL A   1      31.561  23.262  23.805  1.00  0.00     0.010 A 
ATOM      9  C   UNL A   1      33.441  23.497  25.255  1.00  0.00     0.024 A 
ATOM     10  C   UNL A   1      31.819  21.890  23.752  1.00  0.00     0.022 A 
ATOM     11  C   UNL A   1      32.802  21.309  24.573  1.00  0.00     0.053 A 
ATOM     12  Cl  UNL A   1      32.921  19.586  24.485  1.00  0.00    -0.083 Cl
BRANCH   7  13
ATOM     13  C   UNL A   1      32.038  25.514  24.855  1.00  0.00    -0.018 A 
ATOM     14  C   UNL A   1      32.110  27.857  24.148  1.00  0.00     0.040 A 
ATOM     15  C   UNL A   1      31.695  28.268  25.414  1.00  0.00     0.014 A 
ATOM     16  C   UNL A   1      32.320  26.499  23.896  1.00  0.00     0.022 A 
ATOM     17  C   UNL A   1      31.429  27.315  26.395  1.00  0.00     0.001 A 
ATOM     18  C   UNL A   1      31.585  25.951  26.112  1.00  0.00     0.009 A 
BRANCH  14  19
ATOM     19  C   UNL A   1      32.418  28.875  23.117  1.00  0.00     0.251 C 
ATOM     20  N   UNL A   1      31.432  29.383  22.308  1.00  0.00    -0.352 N 
ATOM     21  H   UNL A   1      31.758  29.938  21.563  1.00  0.00     0.163 HD
ATOM     22  O   UNL A   1      33.576  29.263  22.984  1.00  0.00    -0.269 OA
BRANCH  20  23
ATOM     23  C   UNL A   1      29.986  29.237  22.369  1.00  0.00     0.112 C 
ATOM     24  C   UNL A   1      29.283  30.385  21.674  1.00  0.00     0.027 C 
ENDBRANCH  20  23
ENDBRANCH  14  19
ENDBRANCH   7  13
ENDBRANCH   3   6
ENDBRANCH   1   2
BRANCH   1  25
ATOM     25  C   UNL A   1      37.790  20.029  24.977  1.00  0.00     0.042 C 
BRANCH  25  26
ATOM     26  C   UNL A   1      39.027  20.444  25.755  1.00  0.00     0.118 C 
BRANCH  26  27
ATOM     27  N   UNL A   1      40.015  19.375  25.862  1.00  0.00    -0.352 N 
ATOM     28  C   UNL A   1      41.368  19.406  26.105  1.00  0.00     0.251 C 
ATOM     29  H   UNL A   1      39.647  18.469  25.739  1.00  0.00     0.163 HD
ATOM     30  O   UNL A   1      42.034  18.389  25.942  1.00  0.00    -0.269 OA
BRANCH  28  31
ATOM     31  C   UNL A   1      42.032  20.654  26.537  1.00  0.00     0.039 A 
ATOM     32  C   UNL A   1      42.520  21.537  25.569  1.00  0.00     0.014 A 
ATOM     33  C   UNL A   1      42.196  20.951  27.892  1.00  0.00     0.014 A 
ATOM     34  C   UNL A   1      43.072  22.760  25.958  1.00  0.00     0.010 A 
ATOM     35  C   UNL A   1      42.653  22.206  28.275  1.00  0.00     0.010 A 
ATOM     36  C   UNL A   1      43.084  23.130  27.312  1.00  0.00    -0.014 A 
BRANCH  36  37
ATOM     37  C   UNL A   1      43.493  24.489  27.746  1.00  0.00     0.031 A 
ATOM     38  C   UNL A   1      42.462  25.537  28.051  1.00  0.00     0.074 A 
ATOM     39  C   UNL A   1      44.803  24.808  27.757  1.00  0.00     0.049 A 
ATOM     40  N   UNL A   1      42.631  26.804  28.332  1.00  0.00    -0.248 NA
ATOM     41  C   UNL A   1      41.053  25.111  28.011  1.00  0.00     0.031 C 
ATOM     42  C   UNL A   1      45.900  23.893  27.432  1.00  0.00     0.029 A 
ATOM     43  N   UNL A   1      45.432  25.996  28.033  1.00  0.00    -0.354 N 
ATOM     44  C   UNL A   1      41.354  27.329  28.487  1.00  0.00     0.074 A 
ATOM     45  C   UNL A   1      40.421  26.257  28.214  1.00  0.00     0.031 C 
ATOM     46  C   UNL A   1      47.065  24.550  27.540  1.00  0.00     0.029 A 
ATOM     47  C   UNL A   1      46.796  25.940  27.890  1.00  0.00     0.049 A 
ATOM     48  H   UNL A   1      44.950  26.811  28.305  1.00  0.00     0.167 HD
ATOM     49  C   UNL A   1      40.990  28.586  28.842  1.00  0.00     0.031 A 
ATOM     50  C   UNL A   1      47.730  26.903  28.002  1.00  0.00     0.031 A 
ATOM     51  C   UNL A   1      41.921  29.652  29.098  1.00  0.00     0.049 A 
ATOM     52  C   UNL A   1      47.304  28.299  28.353  1.00  0.00     0.074 A 
ATOM     53  C   UNL A   1      41.658  30.945  29.515  1.00  0.00     0.029 A 
ATOM     54  N   UNL A   1      43.296  29.553  28.946  1.00  0.00    -0.354 N 
ATOM     55  N   UNL A   1      46.097  28.762  28.573  1.00  0.00    -0.248 NA
ATOM     56  C   UNL A   1      48.368  29.305  28.477  1.00  0.00     0.031 C 
ATOM     57  C   UNL A   1      42.868  31.647  29.551  1.00  0.00     0.029 A 
ATOM     58  C   UNL A   1      43.892  30.774  29.222  1.00  0.00     0.049 A 
ATOM     59  H   UNL A   1      43.778  28.736  28.683  1.00  0.00     0.167 HD
ATOM     60  C   UNL A   1      46.256  30.108  28.873  1.00  0.00     0.074 A 
ATOM     61  C   UNL A   1      47.679  30.381  28.831  1.00  0.00     0.031 C 
ATOM     62  C   UNL A   1      45.307  31.035  29.156  1.00  0.00     0.031 A 
BRANCH  49  63
ATOM     63  C   UNL A   1      39.516  28.869  28.953  1.00  0.00    -0.014 A 
ATOM     64  C   UNL A   1      38.782  29.356  27.858  1.00  0.00     0.009 A 
ATOM     65  C   UNL A   1      38.847  28.634  30.164  1.00  0.00     0.009 A 
ATOM     66  C   UNL A   1      37.423  29.651  27.989  1.00  0.00     0.001 A 
ATOM     67  C   UNL A   1      37.481  28.897  30.283  1.00  0.00     0.001 A 
ATOM     68  C   UNL A   1      36.773  29.418  29.200  1.00  0.00     0.000 A 
ENDBRANCH  49  63
BRANCH  50  69
ATOM     69  C   UNL A   1      49.159  26.572  27.760  1.00  0.00    -0.014 A 
ATOM     70  C   UNL A   1      49.740  26.786  26.501  1.00  0.00     0.009 A 
ATOM     71  C   UNL A   1      49.959  26.069  28.799  1.00  0.00     0.009 A 
ATOM     72  C   UNL A   1      51.087  26.488  26.283  1.00  0.00     0.001 A 
ATOM     73  C   UNL A   1      51.313  25.801  28.587  1.00  0.00     0.001 A 
ATOM     74  C   UNL A   1      51.874  26.003  27.328  1.00  0.00     0.000 A 
ENDBRANCH  50  69
BRANCH  62  75
ATOM     75  C   UNL A   1      45.779  32.433  29.444  1.00  0.00    -0.014 A 
ATOM     76  C   UNL A   1      45.875  33.392  28.424  1.00  0.00     0.009 A 
ATOM     77  C   UNL A   1      46.083  32.809  30.762  1.00  0.00     0.009 A 
ATOM     78  C   UNL A   1      46.291  34.693  28.714  1.00  0.00     0.001 A 
ATOM     79  C   UNL A   1      46.470  34.118  31.054  1.00  0.00     0.001 A 
ATOM     80  C   UNL A   1      46.581  35.056  30.029  1.00  0.00     0.000 A 
ENDBRANCH  62  75
ENDBRANCH  36  37
ENDBRANCH  28  31
ENDBRANCH  26  27
ENDBRANCH  25  26
ENDBRANCH   1  25
TORSDOF 13
ENDMDL
MODEL 2
REMARK VINA RESULT:     -11.7      2.445      7.869
REMARK SMILES CCNC(=O)c1cccc(-c2ccc(Cl)c(C(=O)NCCCNC(=O)c3ccc(-c4c5nc(c(-c6ccccc6)c6ccc([nH]6)c(-c6ccccc6)c6nc(c(-c7ccccc7)c7ccc4[nH]7)C=C6)C=C5)cc3)c2)c1
REMARK SMILES IDX 20 1 19 2 17 3 18 4 16 6 11 7 12 8 74 9 13 10 14 11 15 12
REMARK SMILES IDX 10 13 6 14 7 15 75 16 8 17 9 18 4 19 3 20 5 22 2 23 1 24
REMARK SMILES IDX 21 25 22 26 23 27 24 28 25 30 26 31 27 32 73 33 28 34 72 35
REMARK SMILES IDX 29 36 30 37 31 38 66 39 32 40 71 41 65 42 67 43 33 44 70 45
REMARK SMILES IDX 64 46 63 47 34 49 56 50 41 51 55 52 42 53 45 54 54 55 68 56
REMARK SMILES IDX 43 57 44 58 53 60 69 61 46 62 35 63 36 64 40 65 37 66 39 67
REMARK SMILES IDX 38 68 57 69 58 70 62 71 59 72 61 73 60 74 47 75 48 76 52 77
REMARK SMILES IDX 49 78 51 79 50 80
REMARK H PARENT 19 5 3 21 23 29 67 48 45 59
REMARK Flexibility Score: inf
ROOT
ATOM      1  C   UNL A   1      32.101  27.883  27.452  1.00  0.00     0.118 C 
ENDROOT
BRANCH   1   2
ATOM      2  N   UNL A   1      31.044  26.925  27.123  1.00  0.00    -0.352 N 
ATOM      3  C   UNL A   1      30.839  25.925  26.190  1.00  0.00     0.252 C 
ATOM      4  O   UNL A   1      29.803  25.278  26.337  1.00  0.00    -0.269 OA
ATOM      5  H   UNL A   1      30.273  27.018  27.727  1.00  0.00     0.163 HD
BRANCH   3   6
ATOM      6  C   UNL A   1      31.760  25.629  25.046  1.00  0.00     0.059 A 
ATOM      7  C   UNL A   1      33.850  24.538  24.324  1.00  0.00    -0.017 A 
ATOM      8  C   UNL A   1      33.769  25.207  23.104  1.00  0.00     0.010 A 
ATOM      9  C   UNL A   1      32.756  24.668  25.196  1.00  0.00     0.024 A 
ATOM     10  C   UNL A   1      32.675  26.030  22.827  1.00  0.00     0.022 A 
ATOM     11  C   UNL A   1      31.696  26.282  23.806  1.00  0.00     0.053 A 
ATOM     12  Cl  UNL A   1      30.470  27.416  23.358  1.00  0.00    -0.083 Cl
BRANCH   7  13
ATOM     13  C   UNL A   1      35.048  23.797  24.770  1.00  0.00    -0.018 A 
ATOM     14  C   UNL A   1      36.223  21.675  25.103  1.00  0.00     0.040 A 
ATOM     15  C   UNL A   1      37.212  22.320  25.846  1.00  0.00     0.014 A 
ATOM     16  C   UNL A   1      35.136  22.405  24.616  1.00  0.00     0.022 A 
ATOM     17  C   UNL A   1      37.140  23.699  26.036  1.00  0.00     0.001 A 
ATOM     18  C   UNL A   1      36.077  24.430  25.490  1.00  0.00     0.009 A 
BRANCH  14  19
ATOM     19  C   UNL A   1      36.289  20.205  24.928  1.00  0.00     0.251 C 
ATOM     20  N   UNL A   1      35.145  19.450  24.854  1.00  0.00    -0.352 N 
ATOM     21  H   UNL A   1      35.293  18.477  24.887  1.00  0.00     0.163 HD
ATOM     22  O   UNL A   1      37.387  19.658  24.856  1.00  0.00    -0.269 OA
BRANCH  20  23
ATOM     23  C   UNL A   1      33.751  19.849  24.734  1.00  0.00     0.112 C 
ATOM     24  C   UNL A   1      32.871  19.087  25.703  1.00  0.00     0.027 C 
ENDBRANCH  20  23
ENDBRANCH  14  19
ENDBRANCH   7  13
ENDBRANCH   3   6
ENDBRANCH   1   2
BRANCH   1  25
ATOM     25  C   UNL A   1      32.358  28.930  26.381  1.00  0.00     0.042 C 
BRANCH  25  26
ATOM     26  C   UNL A   1      33.735  29.568  26.446  1.00  0.00     0.118 C 
BRANCH  26  27
ATOM     27  N   UNL A   1      33.778  30.738  27.318  1.00  0.00    -0.352 N 
ATOM     28  C   UNL A   1      34.662  31.106  28.305  1.00  0.00     0.251 C 
ATOM     29  H   UNL A   1      33.043  31.378  27.173  1.00  0.00     0.163 HD
ATOM     30  O   UNL A   1      34.378  32.037  29.052  1.00  0.00    -0.269 OA
BRANCH  28  31
ATOM     31  C   UNL A   1      35.936  30.380  28.491  1.00  0.00     0.039 A 
ATOM     32  C   UNL A   1      36.867  30.360  27.447  1.00  0.00     0.014 A 
ATOM     33  C   UNL A   1      36.213  29.703  29.679  1.00  0.00     0.014 A 
ATOM     34  C   UNL A   1      38.111  29.752  27.636  1.00  0.00     0.010 A 
ATOM     35  C   UNL A   1      37.483  29.187  29.903  1.00  0.00     0.010 A 
ATOM     36  C   UNL A   1      38.451  29.217  28.889  1.00  0.00    -0.014 A 
BRANCH  36  37
ATOM     37  C   UNL A   1      39.822  28.729  29.183  1.00  0.00     0.031 A 
ATOM     38  C   UNL A   1      40.853  29.652  29.767  1.00  0.00     0.074 A 
ATOM     39  C   UNL A   1      40.165  27.478  28.817  1.00  0.00     0.049 A 
ATOM     40  N   UNL A   1      42.126  29.436  29.983  1.00  0.00    -0.248 NA
ATOM     41  C   UNL A   1      40.400  31.004  30.133  1.00  0.00     0.031 C 
ATOM     42  C   UNL A   1      39.269  26.501  28.194  1.00  0.00     0.029 A 
ATOM     43  N   UNL A   1      41.368  26.821  28.897  1.00  0.00    -0.354 N 
ATOM     44  C   UNL A   1      42.628  30.625  30.496  1.00  0.00     0.074 A 
ATOM     45  C   UNL A   1      41.536  31.575  30.505  1.00  0.00     0.031 C 
ATOM     46  C   UNL A   1      39.948  25.368  27.962  1.00  0.00     0.029 A 
ATOM     47  C   UNL A   1      41.336  25.554  28.369  1.00  0.00     0.049 A 
ATOM     48  H   UNL A   1      42.176  27.222  29.293  1.00  0.00     0.167 HD
ATOM     49  C   UNL A   1      43.880  30.899  30.935  1.00  0.00     0.031 A 
ATOM     50  C   UNL A   1      42.318  24.647  28.206  1.00  0.00     0.031 A 
ATOM     51  C   UNL A   1      44.967  29.955  30.910  1.00  0.00     0.049 A 
ATOM     52  C   UNL A   1      43.709  24.984  28.659  1.00  0.00     0.074 A 
ATOM     53  C   UNL A   1      46.259  30.115  31.380  1.00  0.00     0.029 A 
ATOM     54  N   UNL A   1      44.892  28.679  30.371  1.00  0.00    -0.354 N 
ATOM     55  N   UNL A   1      44.150  26.087  29.214  1.00  0.00    -0.248 NA
ATOM     56  C   UNL A   1      44.735  23.950  28.470  1.00  0.00     0.031 C 
ATOM     57  C   UNL A   1      46.983  28.960  31.066  1.00  0.00     0.029 A 
ATOM     58  C   UNL A   1      46.127  28.055  30.460  1.00  0.00     0.049 A 
ATOM     59  H   UNL A   1      44.082  28.276  29.984  1.00  0.00     0.167 HD
ATOM     60  C   UNL A   1      45.502  25.877  29.451  1.00  0.00     0.074 A 
ATOM     61  C   UNL A   1      45.801  24.532  29.002  1.00  0.00     0.031 C 
ATOM     62  C   UNL A   1      46.413  26.724  29.990  1.00  0.00     0.031 A 
BRANCH  49  63
ATOM     63  C   UNL A   1      44.136  32.284  31.463  1.00  0.00    -0.014 A 
ATOM     64  C   UNL A   1      44.570  33.319  30.616  1.00  0.00     0.009 A 
ATOM     65  C   UNL A   1      43.930  32.566  32.822  1.00  0.00     0.009 A 
ATOM     66  C   UNL A   1      44.841  34.589  31.129  1.00  0.00     0.001 A 
ATOM     67  C   UNL A   1      44.169  33.846  33.326  1.00  0.00     0.001 A 
ATOM     68  C   UNL A   1      44.638  34.853  32.483  1.00  0.00     0.000 A 
ENDBRANCH  49  63
BRANCH  50  69
ATOM     69  C   UNL A   1      42.012  23.341  27.566  1.00  0.00    -0.014 A 
ATOM     70  C   UNL A   1      42.319  23.117  26.216  1.00  0.00     0.009 A 
ATOM     71  C   UNL A   1      41.438  22.299  28.313  1.00  0.00     0.009 A 
ATOM     72  C   UNL A   1      42.043  21.881  25.623  1.00  0.00     0.001 A 
ATOM     73  C   UNL A   1      41.192  21.056  27.727  1.00  0.00     0.001 A 
ATOM     74  C   UNL A   1      41.487  20.851  26.381  1.00  0.00     0.000 A 
ENDBRANCH  50  69
BRANCH  62  75
ATOM     75  C   UNL A   1      47.822  26.219  30.127  1.00  0.00    -0.014 A 
ATOM     76  C   UNL A   1      48.712  26.243  29.041  1.00  0.00     0.009 A 
ATOM     77  C   UNL A   1      48.282  25.758  31.370  1.00  0.00     0.009 A 
ATOM     78  C   UNL A   1      50.024  25.793  29.191  1.00  0.00     0.001 A 
ATOM     79  C   UNL A   1      49.603  25.337  31.526  1.00  0.00     0.001 A 
ATOM     80  C   UNL A   1      50.471  25.347  30.435  1.00  0.00     0.000 A 
ENDBRANCH  62  75
ENDBRANCH  36  37
ENDBRANCH  28  31
ENDBRANCH  26  27
ENDBRANCH  25  26
ENDBRANCH   1  25
TORSDOF 13
ENDMDL
MODEL 3
REMARK VINA RESULT:     -11.7      1.456      6.145
REMARK SMILES CCNC(=O)c1cccc(-c2ccc(Cl)c(C(=O)NCCCNC(=O)c3ccc(-c4c5nc(c(-c6ccccc6)c6ccc([nH]6)c(-c6ccccc6)c6nc(c(-c7ccccc7)c7ccc4[nH]7)C=C6)C=C5)cc3)c2)c1
REMARK SMILES IDX 20 1 19 2 17 3 18 4 16 6 11 7 12 8 74 9 13 10 14 11 15 12
REMARK SMILES IDX 10 13 6 14 7 15 75 16 8 17 9 18 4 19 3 20 5 22 2 23 1 24
REMARK SMILES IDX 21 25 22 26 23 27 24 28 25 30 26 31 27 32 73 33 28 34 72 35
REMARK SMILES IDX 29 36 30 37 31 38 66 39 32 40 71 41 65 42 67 43 33 44 70 45
REMARK SMILES IDX 64 46 63 47 34 49 56 50 41 51 55 52 42 53 45 54 54 55 68 56
REMARK SMILES IDX 43 57 44 58 53 60 69 61 46 62 35 63 36 64 40 65 37 66 39 67
REMARK SMILES IDX 38 68 57 69 58 70 62 71 59 72 61 73 60 74 47 75 48 76 52 77
REMARK SMILES IDX 49 78 51 79 50 80
REMARK H PARENT 19 5 3 21 23 29 67 48 45 59
REMARK Flexibility Score: inf
ROOT
ATOM      1  C   UNL A   1      38.189  22.497  25.977  1.00  0.00     0.118 C 
ENDROOT
BRANCH   1   2
ATOM      2  N   UNL A   1      37.778  22.554  24.573  1.00  0.00    -0.352 N 
ATOM      3  C   UNL A   1      36.589  22.581  23.868  1.00  0.00     0.252 C 
ATOM      4  O   UNL A   1      36.706  22.731  22.652  1.00  0.00    -0.269 OA
ATOM      5  H   UNL A   1      38.555  22.582  23.970  1.00  0.00     0.163 HD
BRANCH   3   6
ATOM      6  C   UNL A   1      35.233  22.411  24.481  1.00  0.00     0.059 A 
ATOM      7  C   UNL A   1      33.213  23.538  25.337  1.00  0.00    -0.017 A 
ATOM      8  C   UNL A   1      32.789  22.336  25.899  1.00  0.00     0.010 A 
ATOM      9  C   UNL A   1      34.356  23.493  24.522  1.00  0.00     0.024 A 
ATOM     10  C   UNL A   1      33.539  21.171  25.711  1.00  0.00     0.022 A 
ATOM     11  C   UNL A   1      34.779  21.211  25.047  1.00  0.00     0.053 A 
ATOM     12  Cl  UNL A   1      35.646  19.716  25.000  1.00  0.00    -0.083 Cl
BRANCH   7  13
ATOM     13  C   UNL A   1      32.585  24.843  25.632  1.00  0.00    -0.018 A 
ATOM     14  C   UNL A   1      32.795  27.238  26.095  1.00  0.00     0.040 A 
ATOM     15  C   UNL A   1      31.448  27.303  26.452  1.00  0.00     0.014 A 
ATOM     16  C   UNL A   1      33.356  26.010  25.736  1.00  0.00     0.022 A 
ATOM     17  C   UNL A   1      30.661  26.155  26.382  1.00  0.00     0.001 A 
ATOM     18  C   UNL A   1      31.221  24.942  25.962  1.00  0.00     0.009 A 
BRANCH  14  19
ATOM     19  C   UNL A   1      33.634  28.454  26.198  1.00  0.00     0.251 C 
ATOM     20  N   UNL A   1      33.826  29.275  25.114  1.00  0.00    -0.352 N 
ATOM     21  H   UNL A   1      34.512  29.968  25.241  1.00  0.00     0.163 HD
ATOM     22  O   UNL A   1      34.169  28.725  27.270  1.00  0.00    -0.269 OA
BRANCH  20  23
ATOM     23  C   UNL A   1      33.183  29.288  23.808  1.00  0.00     0.112 C 
ATOM     24  C   UNL A   1      34.026  28.579  22.768  1.00  0.00     0.027 C 
ENDBRANCH  20  23
ENDBRANCH  14  19
ENDBRANCH   7  13
ENDBRANCH   3   6
ENDBRANCH   1   2
BRANCH   1  25
ATOM     25  C   UNL A   1      39.218  21.424  26.289  1.00  0.00     0.042 C 
BRANCH  25  26
ATOM     26  C   UNL A   1      39.135  20.198  25.395  1.00  0.00     0.118 C 
BRANCH  26  27
ATOM     27  N   UNL A   1      40.111  19.171  25.750  1.00  0.00    -0.352 N 
ATOM     28  C   UNL A   1      41.438  19.259  26.099  1.00  0.00     0.251 C 
ATOM     29  H   UNL A   1      39.755  18.252  25.738  1.00  0.00     0.163 HD
ATOM     30  O   UNL A   1      42.117  18.238  26.152  1.00  0.00    -0.269 OA
BRANCH  28  31
ATOM     31  C   UNL A   1      42.061  20.568  26.388  1.00  0.00     0.039 A 
ATOM     32  C   UNL A   1      42.542  21.343  25.327  1.00  0.00     0.014 A 
ATOM     33  C   UNL A   1      42.194  21.029  27.699  1.00  0.00     0.014 A 
ATOM     34  C   UNL A   1      43.055  22.619  25.574  1.00  0.00     0.010 A 
ATOM     35  C   UNL A   1      42.611  22.333  27.935  1.00  0.00     0.010 A 
ATOM     36  C   UNL A   1      43.034  23.148  26.875  1.00  0.00    -0.014 A 
BRANCH  36  37
ATOM     37  C   UNL A   1      43.399  24.560  27.149  1.00  0.00     0.031 A 
ATOM     38  C   UNL A   1      44.836  24.995  27.128  1.00  0.00     0.074 A 
ATOM     39  C   UNL A   1      42.437  25.426  27.526  1.00  0.00     0.049 A 
ATOM     40  N   UNL A   1      45.352  26.153  27.453  1.00  0.00    -0.248 NA
ATOM     41  C   UNL A   1      45.827  23.989  26.713  1.00  0.00     0.031 C 
ATOM     42  C   UNL A   1      41.010  25.112  27.634  1.00  0.00     0.029 A 
ATOM     43  N   UNL A   1      42.517  26.741  27.909  1.00  0.00    -0.354 N 
ATOM     44  C   UNL A   1      46.725  26.011  27.295  1.00  0.00     0.074 A 
ATOM     45  C   UNL A   1      46.965  24.640  26.901  1.00  0.00     0.031 C 
ATOM     46  C   UNL A   1      40.350  26.206  28.040  1.00  0.00     0.029 A 
ATOM     47  C   UNL A   1      41.309  27.281  28.273  1.00  0.00     0.049 A 
ATOM     48  H   UNL A   1      43.362  27.248  27.923  1.00  0.00     0.167 HD
ATOM     49  C   UNL A   1      47.698  26.943  27.448  1.00  0.00     0.031 A 
ATOM     50  C   UNL A   1      41.003  28.497  28.763  1.00  0.00     0.031 A 
ATOM     51  C   UNL A   1      47.456  28.302  27.855  1.00  0.00     0.049 A 
ATOM     52  C   UNL A   1      42.100  29.501  28.966  1.00  0.00     0.074 A 
ATOM     53  C   UNL A   1      48.364  29.337  27.987  1.00  0.00     0.029 A 
ATOM     54  N   UNL A   1      46.215  28.811  28.210  1.00  0.00    -0.354 N 
ATOM     55  N   UNL A   1      43.385  29.376  28.738  1.00  0.00    -0.248 NA
ATOM     56  C   UNL A   1      41.705  30.817  29.489  1.00  0.00     0.031 C 
ATOM     57  C   UNL A   1      47.684  30.454  28.486  1.00  0.00     0.029 A 
ATOM     58  C   UNL A   1      46.341  30.134  28.600  1.00  0.00     0.049 A 
ATOM     59  H   UNL A   1      45.370  28.306  28.186  1.00  0.00     0.167 HD
ATOM     60  C   UNL A   1      43.951  30.598  29.077  1.00  0.00     0.074 A 
ATOM     61  C   UNL A   1      42.865  31.458  29.503  1.00  0.00     0.031 C 
ATOM     62  C   UNL A   1      45.254  30.971  29.041  1.00  0.00     0.031 A 
BRANCH  49  63
ATOM     63  C   UNL A   1      49.114  26.506  27.188  1.00  0.00    -0.014 A 
ATOM     64  C   UNL A   1      49.669  26.558  25.897  1.00  0.00     0.009 A 
ATOM     65  C   UNL A   1      49.913  26.049  28.248  1.00  0.00     0.009 A 
ATOM     66  C   UNL A   1      50.971  26.112  25.666  1.00  0.00     0.001 A 
ATOM     67  C   UNL A   1      51.227  25.635  28.019  1.00  0.00     0.001 A 
ATOM     68  C   UNL A   1      51.751  25.654  26.728  1.00  0.00     0.000 A 
ENDBRANCH  49  63
BRANCH  50  69
ATOM     69  C   UNL A   1      39.593  28.816  29.109  1.00  0.00    -0.014 A 
ATOM     70  C   UNL A   1      39.098  28.564  30.398  1.00  0.00     0.009 A 
ATOM     71  C   UNL A   1      38.742  29.404  28.159  1.00  0.00     0.009 A 
ATOM     72  C   UNL A   1      37.776  28.880  30.722  1.00  0.00     0.001 A 
ATOM     73  C   UNL A   1      37.431  29.747  28.495  1.00  0.00     0.001 A 
ATOM     74  C   UNL A   1      36.947  29.478  29.774  1.00  0.00     0.000 A 
ENDBRANCH  50  69
BRANCH  62  75
ATOM     75  C   UNL A   1      45.577  32.374  29.472  1.00  0.00    -0.014 A 
ATOM     76  C   UNL A   1      45.932  32.663  30.800  1.00  0.00     0.009 A 
ATOM     77  C   UNL A   1      45.576  33.412  28.528  1.00  0.00     0.009 A 
ATOM     78  C   UNL A   1      46.252  33.968  31.177  1.00  0.00     0.001 A 
ATOM     79  C   UNL A   1      45.927  34.711  28.902  1.00  0.00     0.001 A 
ATOM     80  C   UNL A   1      46.257  34.989  30.227  1.00  0.00     0.000 A 
ENDBRANCH  62  75
ENDBRANCH  36  37
ENDBRANCH  28  31
ENDBRANCH  26  27
ENDBRANCH  25  26
ENDBRANCH   1  25
TORSDOF 13
ENDMDL
