MODEL 1
REMARK VINA RESULT:     -11.8      0.000      0.000
REMARK SMILES Cc1nc(C)c(C(=O)N2CCC([C@H](C)C(=O)NCCCNC(=O)c3ccc(-c4c5nc(c(-c6ccccc6)c6ccc([nH]6)c(-c6ccccc6)c6nc(c(-c7ccccc7)c7ccc4[nH]7)C=C6)C=C5)cc3)CC2)s1
REMARK SMILES IDX 19 1 18 2 17 3 15 4 16 5 13 7 14 8 12 9 7 10 8 11 9 12 10 13
REMARK SMILES IDX 73 14 11 15 72 16 6 17 1 18 2 19 3 20 74 21 4 22 5 23 20 24
REMARK SMILES IDX 21 25 22 26 23 28 24 29 25 30 71 31 26 32 70 33 27 34 28 35
REMARK SMILES IDX 29 36 64 37 30 38 69 39 63 40 65 41 31 42 68 43 62 44 61 45
REMARK SMILES IDX 32 47 54 48 39 49 53 50 40 51 43 52 52 53 66 54 41 55 42 56
REMARK SMILES IDX 51 58 67 59 44 60 33 61 34 62 38 63 35 64 37 65 36 66 55 67
REMARK SMILES IDX 56 68 60 69 57 70 59 71 58 72 45 73 46 74 50 75 47 76 49 77
REMARK SMILES IDX 48 78
REMARK H PARENT 17 6 21 27 65 46 43 57
REMARK Flexibility Score: inf
ROOT
ATOM      1  C   UNL A   1      37.700  19.940  24.963  1.00  0.00     0.042 C 
ENDROOT
BRANCH   1   2
ATOM      2  C   UNL A   1      36.669  21.026  24.770  1.00  0.00     0.117 C 
BRANCH   2   3
ATOM      3  N   UNL A   1      35.759  21.159  25.886  1.00  0.00    -0.356 N 
ATOM      4  C   UNL A   1      34.399  21.193  25.888  1.00  0.00     0.223 C 
ATOM      5  O   UNL A   1      33.833  21.155  26.983  1.00  0.00    -0.275 OA
ATOM      6  H   UNL A   1      36.184  21.236  26.770  1.00  0.00     0.163 HD
BRANCH   4   7
ATOM      7  C   UNL A   1      33.584  21.303  24.594  1.00  0.00     0.078 C 
ATOM      8  C   UNL A   1      32.617  20.117  24.493  1.00  0.00     0.018 C 
BRANCH   7   9
ATOM      9  C   UNL A   1      33.008  22.715  24.220  1.00  0.00     0.005 C 
ATOM     10  C   UNL A   1      30.915  25.986  25.791  1.00  0.00     0.265 C 
ATOM     11  O   UNL A   1      29.980  25.490  26.422  1.00  0.00    -0.268 OA
ATOM     12  N   UNL A   1      31.647  25.183  24.910  1.00  0.00    -0.338 N 
ATOM     13  C   UNL A   1      30.938  24.233  24.078  1.00  0.00     0.120 C 
ATOM     14  C   UNL A   1      33.088  25.251  24.710  1.00  0.00     0.120 C 
ATOM     15  C   UNL A   1      31.464  22.818  24.242  1.00  0.00     0.026 C 
ATOM     16  C   UNL A   1      33.723  23.882  24.942  1.00  0.00     0.026 C 
BRANCH  10  17
ATOM     17  C   UNL A   1      31.217  27.411  25.849  1.00  0.00     0.115 A 
ATOM     18  C   UNL A   1      32.790  30.748  27.087  1.00  0.00     0.079 C 
ATOM     19  C   UNL A   1      32.130  29.597  26.418  1.00  0.00     0.091 A 
ATOM     20  N   UNL A   1      31.603  29.635  25.216  1.00  0.00    -0.246 NA
ATOM     21  S   UNL A   1      32.056  28.083  27.197  1.00  0.00    -0.113 S 
ATOM     22  C   UNL A   1      31.110  28.382  24.861  1.00  0.00     0.061 A 
ATOM     23  C   UNL A   1      30.577  28.244  23.476  1.00  0.00     0.068 C 
ENDBRANCH  10  17
ENDBRANCH   7   9
ENDBRANCH   4   7
ENDBRANCH   2   3
ENDBRANCH   1   2
BRANCH   1  24
ATOM     24  C   UNL A   1      38.899  20.416  25.757  1.00  0.00     0.118 C 
BRANCH  24  25
ATOM     25  N   UNL A   1      39.974  19.429  25.804  1.00  0.00    -0.352 N 
ATOM     26  C   UNL A   1      41.307  19.592  26.086  1.00  0.00     0.251 C 
ATOM     27  H   UNL A   1      39.700  18.504  25.605  1.00  0.00     0.163 HD
ATOM     28  O   UNL A   1      42.098  18.672  25.902  1.00  0.00    -0.269 OA
BRANCH  26  29
ATOM     29  C   UNL A   1      41.784  20.893  26.590  1.00  0.00     0.039 A 
ATOM     30  C   UNL A   1      42.248  21.851  25.686  1.00  0.00     0.014 A 
ATOM     31  C   UNL A   1      41.735  21.176  27.956  1.00  0.00     0.014 A 
ATOM     32  C   UNL A   1      42.588  23.121  26.149  1.00  0.00     0.010 A 
ATOM     33  C   UNL A   1      41.952  22.471  28.396  1.00  0.00     0.010 A 
ATOM     34  C   UNL A   1      42.399  23.453  27.501  1.00  0.00    -0.014 A 
BRANCH  34  35
ATOM     35  C   UNL A   1      42.681  24.813  28.016  1.00  0.00     0.031 A 
ATOM     36  C   UNL A   1      44.083  25.182  28.420  1.00  0.00     0.074 A 
ATOM     37  C   UNL A   1      41.670  25.683  28.195  1.00  0.00     0.049 A 
ATOM     38  N   UNL A   1      44.522  26.289  28.960  1.00  0.00    -0.248 NA
ATOM     39  C   UNL A   1      45.122  24.157  28.225  1.00  0.00     0.031 C 
ATOM     40  C   UNL A   1      40.261  25.427  27.889  1.00  0.00     0.029 A 
ATOM     41  N   UNL A   1      41.675  26.966  28.683  1.00  0.00    -0.354 N 
ATOM     42  C   UNL A   1      45.876  26.082  29.190  1.00  0.00     0.074 A 
ATOM     43  C   UNL A   1      46.173  24.724  28.794  1.00  0.00     0.031 C 
ATOM     44  C   UNL A   1      39.545  26.531  28.157  1.00  0.00     0.029 A 
ATOM     45  C   UNL A   1      40.433  27.554  28.696  1.00  0.00     0.049 A 
ATOM     46  H   UNL A   1      42.490  27.421  28.994  1.00  0.00     0.167 HD
ATOM     47  C   UNL A   1      46.800  26.952  29.663  1.00  0.00     0.031 A 
ATOM     48  C   UNL A   1      40.055  28.780  29.101  1.00  0.00     0.031 A 
ATOM     49  C   UNL A   1      46.504  28.306  30.042  1.00  0.00     0.049 A 
ATOM     50  C   UNL A   1      41.094  29.726  29.633  1.00  0.00     0.074 A 
ATOM     51  C   UNL A   1      47.374  29.291  30.473  1.00  0.00     0.029 A 
ATOM     52  N   UNL A   1      45.234  28.865  30.036  1.00  0.00    -0.354 N 
ATOM     53  N   UNL A   1      42.385  29.542  29.775  1.00  0.00    -0.248 NA
ATOM     54  C   UNL A   1      40.624  31.054  30.051  1.00  0.00     0.031 C 
ATOM     55  C   UNL A   1      46.623  30.429  30.782  1.00  0.00     0.029 A 
ATOM     56  C   UNL A   1      45.294  30.174  30.483  1.00  0.00     0.049 A 
ATOM     57  H   UNL A   1      44.413  28.400  29.755  1.00  0.00     0.167 HD
ATOM     58  C   UNL A   1      42.886  30.737  30.272  1.00  0.00     0.074 A 
ATOM     59  C   UNL A   1      41.762  31.644  30.391  1.00  0.00     0.031 C 
ATOM     60  C   UNL A   1      44.162  31.058  30.599  1.00  0.00     0.031 A 
BRANCH  47  61
ATOM     61  C   UNL A   1      48.211  26.450  29.801  1.00  0.00    -0.014 A 
ATOM     62  C   UNL A   1      48.654  25.827  30.979  1.00  0.00     0.009 A 
ATOM     63  C   UNL A   1      49.112  26.598  28.735  1.00  0.00     0.009 A 
ATOM     64  C   UNL A   1      49.980  25.409  31.107  1.00  0.00     0.001 A 
ATOM     65  C   UNL A   1      50.428  26.148  28.851  1.00  0.00     0.001 A 
ATOM     66  C   UNL A   1      50.865  25.566  30.041  1.00  0.00     0.000 A 
ENDBRANCH  47  61
BRANCH  48  67
ATOM     67  C   UNL A   1      38.632  29.192  28.990  1.00  0.00    -0.014 A 
ATOM     68  C   UNL A   1      37.772  29.078  30.095  1.00  0.00     0.009 A 
ATOM     69  C   UNL A   1      38.125  29.712  27.789  1.00  0.00     0.009 A 
ATOM     70  C   UNL A   1      36.431  29.453  29.991  1.00  0.00     0.001 A 
ATOM     71  C   UNL A   1      36.791  30.113  27.696  1.00  0.00     0.001 A 
ATOM     72  C   UNL A   1      35.943  29.975  28.794  1.00  0.00     0.000 A 
ENDBRANCH  48  67
BRANCH  60  73
ATOM     73  C   UNL A   1      44.415  32.456  31.087  1.00  0.00    -0.014 A 
ATOM     74  C   UNL A   1      44.695  33.502  30.194  1.00  0.00     0.009 A 
ATOM     75  C   UNL A   1      44.331  32.737  32.459  1.00  0.00     0.009 A 
ATOM     76  C   UNL A   1      44.918  34.796  30.670  1.00  0.00     0.001 A 
ATOM     77  C   UNL A   1      44.523  34.037  32.930  1.00  0.00     0.001 A 
ATOM     78  C   UNL A   1      44.827  35.062  32.036  1.00  0.00     0.000 A 
ENDBRANCH  60  73
ENDBRANCH  34  35
ENDBRANCH  26  29
ENDBRANCH  24  25
ENDBRANCH   1  24
TORSDOF 12
ENDMDL
MODEL 2
REMARK VINA RESULT:     -11.6      3.033      8.974
REMARK SMILES Cc1nc(C)c(C(=O)N2CCC([C@H](C)C(=O)NCCCNC(=O)c3ccc(-c4c5nc(c(-c6ccccc6)c6ccc([nH]6)c(-c6ccccc6)c6nc(c(-c7ccccc7)c7ccc4[nH]7)C=C6)C=C5)cc3)CC2)s1
REMARK SMILES IDX 19 1 18 2 17 3 15 4 16 5 13 7 14 8 12 9 7 10 8 11 9 12 10 13
REMARK SMILES IDX 73 14 11 15 72 16 6 17 1 18 2 19 3 20 74 21 4 22 5 23 20 24
REMARK SMILES IDX 21 25 22 26 23 28 24 29 25 30 71 31 26 32 70 33 27 34 28 35
REMARK SMILES IDX 29 36 64 37 30 38 69 39 63 40 65 41 31 42 68 43 62 44 61 45
REMARK SMILES IDX 32 47 54 48 39 49 53 50 40 51 43 52 52 53 66 54 41 55 42 56
REMARK SMILES IDX 51 58 67 59 44 60 33 61 34 62 38 63 35 64 37 65 36 66 55 67
REMARK SMILES IDX 56 68 60 69 57 70 59 71 58 72 45 73 46 74 50 75 47 76 49 77
REMARK SMILES IDX 48 78
REMARK H PARENT 17 6 21 27 65 46 43 57
REMARK Flexibility Score: inf
ROOT
ATOM      1  C   UNL A   1      31.543  31.641  26.493  1.00  0.00     0.042 C 
ENDROOT
BRANCH   1   2
ATOM      2  C   UNL A   1      31.710  30.160  26.254  1.00  0.00     0.117 C 
BRANCH   2   3
ATOM      3  N   UNL A   1      32.323  29.849  24.981  1.00  0.00    -0.356 N 
ATOM      4  C   UNL A   1      31.925  28.964  24.028  1.00  0.00     0.223 C 
ATOM      5  O   UNL A   1      32.525  28.985  22.950  1.00  0.00    -0.275 OA
ATOM      6  H   UNL A   1      33.146  30.350  24.776  1.00  0.00     0.163 HD
BRANCH   4   7
ATOM      7  C   UNL A   1      30.799  27.953  24.273  1.00  0.00     0.078 C 
ATOM      8  C   UNL A   1      29.642  28.229  23.304  1.00  0.00     0.018 C 
BRANCH   7   9
ATOM      9  C   UNL A   1      31.206  26.451  24.473  1.00  0.00     0.005 C 
ATOM     10  C   UNL A   1      33.775  23.471  23.034  1.00  0.00     0.265 C 
ATOM     11  O   UNL A   1      33.695  23.550  21.807  1.00  0.00    -0.268 OA
ATOM     12  N   UNL A   1      32.832  24.136  23.824  1.00  0.00    -0.338 N 
ATOM     13  C   UNL A   1      31.442  24.119  23.417  1.00  0.00     0.120 C 
ATOM     14  C   UNL A   1      33.117  24.820  25.079  1.00  0.00     0.120 C 
ATOM     15  C   UNL A   1      30.861  25.516  23.289  1.00  0.00     0.026 C 
ATOM     16  C   UNL A   1      32.645  26.270  25.013  1.00  0.00     0.026 C 
BRANCH  10  17
ATOM     17  C   UNL A   1      34.756  22.617  23.692  1.00  0.00     0.115 A 
ATOM     18  C   UNL A   1      38.091  21.543  25.385  1.00  0.00     0.079 C 
ATOM     19  C   UNL A   1      36.729  21.748  24.826  1.00  0.00     0.091 A 
ATOM     20  N   UNL A   1      35.717  20.932  25.010  1.00  0.00    -0.246 NA
ATOM     21  S   UNL A   1      36.383  23.142  23.909  1.00  0.00    -0.113 S 
ATOM     22  C   UNL A   1      34.571  21.434  24.398  1.00  0.00     0.061 A 
ATOM     23  C   UNL A   1      33.311  20.666  24.613  1.00  0.00     0.068 C 
ENDBRANCH  10  17
ENDBRANCH   7   9
ENDBRANCH   4   7
ENDBRANCH   2   3
ENDBRANCH   1   2
BRANCH   1  24
ATOM     24  C   UNL A   1      32.759  32.261  27.151  1.00  0.00     0.118 C 
BRANCH  24  25
ATOM     25  N   UNL A   1      32.531  33.638  27.580  1.00  0.00    -0.352 N 
ATOM     26  C   UNL A   1      33.223  34.404  28.484  1.00  0.00     0.251 C 
ATOM     27  H   UNL A   1      31.764  34.085  27.154  1.00  0.00     0.163 HD
ATOM     28  O   UNL A   1      32.776  35.487  28.852  1.00  0.00    -0.269 OA
BRANCH  26  29
ATOM     29  C   UNL A   1      34.499  33.904  29.027  1.00  0.00     0.039 A 
ATOM     30  C   UNL A   1      34.494  33.137  30.193  1.00  0.00     0.014 A 
ATOM     31  C   UNL A   1      35.695  34.165  28.357  1.00  0.00     0.014 A 
ATOM     32  C   UNL A   1      35.685  32.566  30.641  1.00  0.00     0.010 A 
ATOM     33  C   UNL A   1      36.850  33.498  28.731  1.00  0.00     0.010 A 
ATOM     34  C   UNL A   1      36.862  32.706  29.888  1.00  0.00    -0.014 A 
BRANCH  34  35
ATOM     35  C   UNL A   1      38.129  32.054  30.294  1.00  0.00     0.031 A 
ATOM     36  C   UNL A   1      39.043  32.745  31.270  1.00  0.00     0.074 A 
ATOM     37  C   UNL A   1      38.493  30.888  29.729  1.00  0.00     0.049 A 
ATOM     38  N   UNL A   1      40.225  32.379  31.694  1.00  0.00    -0.248 NA
ATOM     39  C   UNL A   1      38.584  34.035  31.812  1.00  0.00     0.031 C 
ATOM     40  C   UNL A   1      37.717  30.145  28.733  1.00  0.00     0.029 A 
ATOM     41  N   UNL A   1      39.616  30.122  29.912  1.00  0.00    -0.354 N 
ATOM     42  C   UNL A   1      40.656  33.403  32.528  1.00  0.00     0.074 A 
ATOM     43  C   UNL A   1      39.642  34.433  32.499  1.00  0.00     0.031 C 
ATOM     44  C   UNL A   1      38.368  29.012  28.425  1.00  0.00     0.029 A 
ATOM     45  C   UNL A   1      39.625  28.971  29.163  1.00  0.00     0.049 A 
ATOM     46  H   UNL A   1      40.347  30.375  30.521  1.00  0.00     0.167 HD
ATOM     47  C   UNL A   1      41.783  33.471  33.276  1.00  0.00     0.031 A 
ATOM     48  C   UNL A   1      40.546  27.993  29.080  1.00  0.00     0.031 A 
ATOM     49  C   UNL A   1      42.782  32.439  33.314  1.00  0.00     0.049 A 
ATOM     50  C   UNL A   1      41.794  28.093  29.910  1.00  0.00     0.074 A 
ATOM     51  C   UNL A   1      43.930  32.376  34.084  1.00  0.00     0.029 A 
ATOM     52  N   UNL A   1      42.751  31.285  32.544  1.00  0.00    -0.354 N 
ATOM     53  N   UNL A   1      42.154  29.033  30.751  1.00  0.00    -0.248 NA
ATOM     54  C   UNL A   1      42.759  26.992  29.785  1.00  0.00     0.031 C 
ATOM     55  C   UNL A   1      44.622  31.212  33.738  1.00  0.00     0.029 A 
ATOM     56  C   UNL A   1      43.874  30.518  32.800  1.00  0.00     0.049 A 
ATOM     57  H   UNL A   1      42.036  31.048  31.910  1.00  0.00     0.167 HD
ATOM     58  C   UNL A   1      43.372  28.624  31.277  1.00  0.00     0.074 A 
ATOM     59  C   UNL A   1      43.680  27.344  30.671  1.00  0.00     0.031 C 
ATOM     60  C   UNL A   1      44.165  29.249  32.182  1.00  0.00     0.031 A 
BRANCH  47  61
ATOM     61  C   UNL A   1      41.987  34.712  34.101  1.00  0.00    -0.014 A 
ATOM     62  C   UNL A   1      42.613  35.851  33.567  1.00  0.00     0.009 A 
ATOM     63  C   UNL A   1      41.545  34.746  35.432  1.00  0.00     0.009 A 
ATOM     64  C   UNL A   1      42.836  36.977  34.362  1.00  0.00     0.001 A 
ATOM     65  C   UNL A   1      41.737  35.885  36.215  1.00  0.00     0.001 A 
ATOM     66  C   UNL A   1      42.394  36.994  35.684  1.00  0.00     0.000 A 
ENDBRANCH  47  61
BRANCH  48  67
ATOM     67  C   UNL A   1      40.306  26.820  28.199  1.00  0.00    -0.014 A 
ATOM     68  C   UNL A   1      39.564  25.723  28.666  1.00  0.00     0.009 A 
ATOM     69  C   UNL A   1      40.804  26.792  26.887  1.00  0.00     0.009 A 
ATOM     70  C   UNL A   1      39.346  24.615  27.845  1.00  0.00     0.001 A 
ATOM     71  C   UNL A   1      40.561  25.695  26.059  1.00  0.00     0.001 A 
ATOM     72  C   UNL A   1      39.840  24.603  26.541  1.00  0.00     0.000 A 
ENDBRANCH  48  67
BRANCH  60  73
ATOM     73  C   UNL A   1      45.425  28.543  32.595  1.00  0.00    -0.014 A 
ATOM     74  C   UNL A   1      45.436  27.629  33.660  1.00  0.00     0.009 A 
ATOM     75  C   UNL A   1      46.611  28.767  31.878  1.00  0.00     0.009 A 
ATOM     76  C   UNL A   1      46.618  26.979  34.019  1.00  0.00     0.001 A 
ATOM     77  C   UNL A   1      47.784  28.093  32.219  1.00  0.00     0.001 A 
ATOM     78  C   UNL A   1      47.789  27.207  33.295  1.00  0.00     0.000 A 
ENDBRANCH  60  73
ENDBRANCH  34  35
ENDBRANCH  26  29
ENDBRANCH  24  25
ENDBRANCH   1  24
TORSDOF 12
ENDMDL
MODEL 3
REMARK VINA RESULT:     -11.6      3.189      8.968
REMARK SMILES Cc1nc(C)c(C(=O)N2CCC([C@H](C)C(=O)NCCCNC(=O)c3ccc(-c4c5nc(c(-c6ccccc6)c6ccc([nH]6)c(-c6ccccc6)c6nc(c(-c7ccccc7)c7ccc4[nH]7)C=C6)C=C5)cc3)CC2)s1
REMARK SMILES IDX 19 1 18 2 17 3 15 4 16 5 13 7 14 8 12 9 7 10 8 11 9 12 10 13
REMARK SMILES IDX 73 14 11 15 72 16 6 17 1 18 2 19 3 20 74 21 4 22 5 23 20 24
REMARK SMILES IDX 21 25 22 26 23 28 24 29 25 30 71 31 26 32 70 33 27 34 28 35
REMARK SMILES IDX 29 36 64 37 30 38 69 39 63 40 65 41 31 42 68 43 62 44 61 45
REMARK SMILES IDX 32 47 54 48 39 49 53 50 40 51 43 52 52 53 66 54 41 55 42 56
REMARK SMILES IDX 51 58 67 59 44 60 33 61 34 62 38 63 35 64 37 65 36 66 55 67
REMARK SMILES IDX 56 68 60 69 57 70 59 71 58 72 45 73 46 74 50 75 47 76 49 77
REMARK SMILES IDX 48 78
REMARK H PARENT 17 6 21 27 65 46 43 57
REMARK Flexibility Score: inf
ROOT
ATOM      1  C   UNL A   1      31.739  31.354  26.500  1.00  0.00     0.042 C 
ENDROOT
BRANCH   1   2
ATOM      2  C   UNL A   1      32.043  29.908  26.191  1.00  0.00     0.117 C 
BRANCH   2   3
ATOM      3  N   UNL A   1      32.469  29.689  24.826  1.00  0.00    -0.356 N 
ATOM      4  C   UNL A   1      31.928  28.879  23.876  1.00  0.00     0.223 C 
ATOM      5  O   UNL A   1      32.372  28.977  22.730  1.00  0.00    -0.275 OA
ATOM      6  H   UNL A   1      33.261  30.200  24.544  1.00  0.00     0.163 HD
BRANCH   4   7
ATOM      7  C   UNL A   1      30.833  27.857  24.203  1.00  0.00     0.078 C 
ATOM      8  C   UNL A   1      29.634  28.074  23.271  1.00  0.00     0.018 C 
BRANCH   7   9
ATOM      9  C   UNL A   1      31.277  26.372  24.444  1.00  0.00     0.005 C 
ATOM     10  C   UNL A   1      33.942  23.429  23.105  1.00  0.00     0.265 C 
ATOM     11  O   UNL A   1      33.875  23.477  21.876  1.00  0.00    -0.268 OA
ATOM     12  N   UNL A   1      32.972  24.087  23.869  1.00  0.00    -0.338 N 
ATOM     13  C   UNL A   1      31.589  24.023  23.446  1.00  0.00     0.120 C 
ATOM     14  C   UNL A   1      33.224  24.808  25.109  1.00  0.00     0.120 C 
ATOM     15  C   UNL A   1      30.971  25.400  23.279  1.00  0.00     0.026 C 
ATOM     16  C   UNL A   1      32.715  26.243  25.004  1.00  0.00     0.026 C 
BRANCH  10  17
ATOM     17  C   UNL A   1      34.937  22.617  23.794  1.00  0.00     0.115 A 
ATOM     18  C   UNL A   1      38.268  21.682  25.576  1.00  0.00     0.079 C 
ATOM     19  C   UNL A   1      36.913  21.832  24.983  1.00  0.00     0.091 A 
ATOM     20  N   UNL A   1      35.928  20.980  25.150  1.00  0.00    -0.246 NA
ATOM     21  S   UNL A   1      36.538  23.204  24.045  1.00  0.00    -0.113 S 
ATOM     22  C   UNL A   1      34.779  21.434  24.506  1.00  0.00     0.061 A 
ATOM     23  C   UNL A   1      33.544  20.622  24.698  1.00  0.00     0.068 C 
ENDBRANCH  10  17
ENDBRANCH   7   9
ENDBRANCH   4   7
ENDBRANCH   2   3
ENDBRANCH   1   2
BRANCH   1  24
ATOM     24  C   UNL A   1      32.881  32.044  27.218  1.00  0.00     0.118 C 
BRANCH  24  25
ATOM     25  N   UNL A   1      32.568  33.423  27.584  1.00  0.00    -0.352 N 
ATOM     26  C   UNL A   1      33.191  34.259  28.476  1.00  0.00     0.251 C 
ATOM     27  H   UNL A   1      31.792  33.812  27.120  1.00  0.00     0.163 HD
ATOM     28  O   UNL A   1      32.677  35.329  28.788  1.00  0.00    -0.269 OA
BRANCH  26  29
ATOM     29  C   UNL A   1      34.475  33.850  29.075  1.00  0.00     0.039 A 
ATOM     30  C   UNL A   1      34.474  33.062  30.227  1.00  0.00     0.014 A 
ATOM     31  C   UNL A   1      35.678  34.215  28.469  1.00  0.00     0.014 A 
ATOM     32  C   UNL A   1      35.682  32.577  30.725  1.00  0.00     0.010 A 
ATOM     33  C   UNL A   1      36.862  33.632  28.890  1.00  0.00     0.010 A 
ATOM     34  C   UNL A   1      36.880  32.822  30.033  1.00  0.00    -0.014 A 
BRANCH  34  35
ATOM     35  C   UNL A   1      38.173  32.263  30.492  1.00  0.00     0.031 A 
ATOM     36  C   UNL A   1      38.674  30.968  29.912  1.00  0.00     0.074 A 
ATOM     37  C   UNL A   1      38.853  32.873  31.480  1.00  0.00     0.049 A 
ATOM     38  N   UNL A   1      39.738  30.278  30.230  1.00  0.00    -0.248 NA
ATOM     39  C   UNL A   1      37.849  30.349  28.860  1.00  0.00     0.031 C 
ATOM     40  C   UNL A   1      38.446  34.107  32.159  1.00  0.00     0.029 A 
ATOM     41  N   UNL A   1      40.034  32.534  32.090  1.00  0.00    -0.354 N 
ATOM     42  C   UNL A   1      39.695  29.137  29.438  1.00  0.00     0.074 A 
ATOM     43  C   UNL A   1      38.469  29.194  28.675  1.00  0.00     0.031 C 
ATOM     44  C   UNL A   1      39.383  34.442  33.060  1.00  0.00     0.029 A 
ATOM     45  C   UNL A   1      40.430  33.426  33.058  1.00  0.00     0.049 A 
ATOM     46  H   UNL A   1      40.549  31.729  31.857  1.00  0.00     0.167 HD
ATOM     47  C   UNL A   1      40.606  28.142  29.333  1.00  0.00     0.031 A 
ATOM     48  C   UNL A   1      41.514  33.422  33.854  1.00  0.00     0.031 A 
ATOM     49  C   UNL A   1      41.831  28.096  30.082  1.00  0.00     0.049 A 
ATOM     50  C   UNL A   1      42.508  32.302  33.729  1.00  0.00     0.074 A 
ATOM     51  C   UNL A   1      42.855  27.168  30.007  1.00  0.00     0.029 A 
ATOM     52  N   UNL A   1      42.198  29.021  31.049  1.00  0.00    -0.354 N 
ATOM     53  N   UNL A   1      42.491  31.268  32.923  1.00  0.00    -0.248 NA
ATOM     54  C   UNL A   1      43.677  32.356  34.618  1.00  0.00     0.031 C 
ATOM     55  C   UNL A   1      43.814  27.500  30.969  1.00  0.00     0.029 A 
ATOM     56  C   UNL A   1      43.419  28.670  31.598  1.00  0.00     0.049 A 
ATOM     57  H   UNL A   1      41.667  29.810  31.306  1.00  0.00     0.167 HD
ATOM     58  C   UNL A   1      43.657  30.562  33.187  1.00  0.00     0.074 A 
ATOM     59  C   UNL A   1      44.365  31.296  34.216  1.00  0.00     0.031 C 
ATOM     60  C   UNL A   1      44.104  29.411  32.627  1.00  0.00     0.031 A 
BRANCH  47  61
ATOM     61  C   UNL A   1      40.297  27.024  28.376  1.00  0.00    -0.014 A 
ATOM     62  C   UNL A   1      39.510  25.926  28.764  1.00  0.00     0.009 A 
ATOM     63  C   UNL A   1      40.795  27.067  27.065  1.00  0.00     0.009 A 
ATOM     64  C   UNL A   1      39.271  24.874  27.877  1.00  0.00     0.001 A 
ATOM     65  C   UNL A   1      40.526  26.031  26.169  1.00  0.00     0.001 A 
ATOM     66  C   UNL A   1      39.777  24.930  26.579  1.00  0.00     0.000 A 
ENDBRANCH  47  61
BRANCH  48  67
ATOM     67  C   UNL A   1      41.730  34.531  34.820  1.00  0.00    -0.014 A 
ATOM     68  C   UNL A   1      42.411  35.693  34.423  1.00  0.00     0.009 A 
ATOM     69  C   UNL A   1      41.250  34.443  36.136  1.00  0.00     0.009 A 
ATOM     70  C   UNL A   1      42.627  36.732  35.331  1.00  0.00     0.001 A 
ATOM     71  C   UNL A   1      41.441  35.495  37.033  1.00  0.00     0.001 A 
ATOM     72  C   UNL A   1      42.137  36.635  36.633  1.00  0.00     0.000 A 
ENDBRANCH  48  67
BRANCH  60  73
ATOM     73  C   UNL A   1      45.435  28.892  33.093  1.00  0.00    -0.014 A 
ATOM     74  C   UNL A   1      45.533  27.979  34.154  1.00  0.00     0.009 A 
ATOM     75  C   UNL A   1      46.605  29.295  32.431  1.00  0.00     0.009 A 
ATOM     76  C   UNL A   1      46.780  27.504  34.563  1.00  0.00     0.001 A 
ATOM     77  C   UNL A   1      47.848  28.795  32.821  1.00  0.00     0.001 A 
ATOM     78  C   UNL A   1      47.935  27.908  33.893  1.00  0.00     0.000 A 
ENDBRANCH  60  73
ENDBRANCH  34  35
ENDBRANCH  26  29
ENDBRANCH  24  25
ENDBRANCH   1  24
TORSDOF 12
ENDMDL
