MODEL 1
REMARK VINA RESULT:     -10.4      0.000      0.000
REMARK SMILES CCCOc1cc(NC[C@H]2CC[C@@H](C(=O)NCCCNC(=O)c3ccc(-c4c5nc(c(-c6ccccc6)c6ccc([nH]6)c(-c6ccccc6)c6nc(c(-c7ccccc7)c7ccc4[nH]7)C=C6)C=C5)cc3)O2)ncn1
REMARK SMILES IDX 14 1 15 2 16 3 13 5 10 6 11 7 71 8 12 9 9 10 8 11 7 13 5 14
REMARK SMILES IDX 6 15 74 16 73 17 72 18 4 19 3 20 2 21 1 22 17 23 18 24 19 25
REMARK SMILES IDX 20 26 21 27 22 29 23 30 24 31 70 32 25 33 69 34 26 35 27 36
REMARK SMILES IDX 28 37 63 38 29 39 68 40 62 41 64 42 30 43 67 44 61 45 60 46
REMARK SMILES IDX 31 48 53 49 38 50 52 51 39 52 42 53 51 54 65 55 40 56 41 57
REMARK SMILES IDX 50 59 66 60 43 61 32 62 33 63 37 64 34 65 36 66 35 67 54 68
REMARK SMILES IDX 55 69 59 70 56 71 58 72 57 73 44 74 45 75 49 76 46 77 48 78
REMARK SMILES IDX 47 79
REMARK H PARENT 16 4 8 12 20 28 64 47 42 58
REMARK Flexibility Score: inf
ROOT
ATOM      1  C   UNL A   1      34.911  22.968  25.861  1.00  0.00     0.249 C 
ATOM      2  O   UNL A   1      34.199  23.007  26.870  1.00  0.00    -0.272 OA
ATOM      3  N   UNL A   1      35.501  21.775  25.566  1.00  0.00    -0.354 N 
ATOM      4  H   UNL A   1      35.293  21.046  26.194  1.00  0.00     0.163 HD
ENDROOT
BRANCH   1   5
ATOM      5  C   UNL A   1      35.033  24.204  24.942  1.00  0.00     0.207 C 
ATOM      6  C   UNL A   1      33.959  25.180  23.089  1.00  0.00     0.138 C 
ATOM      7  C   UNL A   1      33.899  26.171  24.239  1.00  0.00     0.037 C 
ATOM      8  O   UNL A   1      34.750  24.063  23.554  1.00  0.00    -0.363 OA
ATOM      9  C   UNL A   1      34.137  25.319  25.461  1.00  0.00     0.045 C 
BRANCH   6  10
ATOM     10  C   UNL A   1      32.612  24.689  22.499  1.00  0.00     0.146 C 
BRANCH  10  11
ATOM     11  N   UNL A   1      32.523  23.241  22.330  1.00  0.00    -0.367 N 
ATOM     12  H   UNL A   1      32.739  22.832  21.461  1.00  0.00     0.162 HD
BRANCH  11  13
ATOM     13  C   UNL A   1      32.137  22.445  23.397  1.00  0.00     0.133 A 
ATOM     14  C   UNL A   1      32.301  20.459  24.610  1.00  0.00     0.218 A 
ATOM     15  C   UNL A   1      32.518  21.124  23.426  1.00  0.00     0.115 A 
ATOM     16  N   UNL A   1      31.608  20.949  25.644  1.00  0.00    -0.202 NA
ATOM     17  C   UNL A   1      31.163  22.192  25.461  1.00  0.00     0.228 A 
ATOM     18  N   UNL A   1      31.426  22.977  24.405  1.00  0.00    -0.219 NA
BRANCH  14  19
ATOM     19  O   UNL A   1      32.877  19.225  24.786  1.00  0.00    -0.478 OA
BRANCH  19  20
ATOM     20  C   UNL A   1      32.471  18.341  23.725  1.00  0.00     0.231 C 
BRANCH  20  21
ATOM     21  C   UNL A   1      33.620  17.399  23.340  1.00  0.00     0.038 C 
ATOM     22  C   UNL A   1      34.799  17.461  24.305  1.00  0.00     0.007 C 
ENDBRANCH  20  21
ENDBRANCH  19  20
ENDBRANCH  14  19
ENDBRANCH  11  13
ENDBRANCH  10  11
ENDBRANCH   6  10
ENDBRANCH   1   5
BRANCH   3  23
ATOM     23  C   UNL A   1      36.385  21.407  24.479  1.00  0.00     0.117 C 
BRANCH  23  24
ATOM     24  C   UNL A   1      37.326  20.272  24.851  1.00  0.00     0.042 C 
BRANCH  24  25
ATOM     25  C   UNL A   1      38.557  20.753  25.606  1.00  0.00     0.118 C 
BRANCH  25  26
ATOM     26  N   UNL A   1      39.588  19.723  25.700  1.00  0.00    -0.352 N 
ATOM     27  C   UNL A   1      40.919  19.813  26.019  1.00  0.00     0.251 C 
ATOM     28  H   UNL A   1      39.275  18.811  25.499  1.00  0.00     0.163 HD
ATOM     29  O   UNL A   1      41.658  18.857  25.819  1.00  0.00    -0.269 OA
BRANCH  27  30
ATOM     30  C   UNL A   1      41.463  21.060  26.592  1.00  0.00     0.039 A 
ATOM     31  C   UNL A   1      42.005  22.020  25.733  1.00  0.00     0.014 A 
ATOM     32  C   UNL A   1      41.457  21.277  27.971  1.00  0.00     0.014 A 
ATOM     33  C   UNL A   1      42.470  23.229  26.254  1.00  0.00     0.010 A 
ATOM     34  C   UNL A   1      41.828  22.516  28.477  1.00  0.00     0.010 A 
ATOM     35  C   UNL A   1      42.343  23.503  27.625  1.00  0.00    -0.014 A 
BRANCH  35  36
ATOM     36  C   UNL A   1      42.731  24.819  28.190  1.00  0.00     0.031 A 
ATOM     37  C   UNL A   1      41.692  25.883  28.413  1.00  0.00     0.074 A 
ATOM     38  C   UNL A   1      44.030  25.077  28.433  1.00  0.00     0.049 A 
ATOM     39  N   UNL A   1      41.850  27.113  28.833  1.00  0.00    -0.248 NA
ATOM     40  C   UNL A   1      40.298  25.530  28.099  1.00  0.00     0.031 C 
ATOM     41  C   UNL A   1      45.137  24.142  28.214  1.00  0.00     0.029 A 
ATOM     42  N   UNL A   1      44.642  26.209  28.910  1.00  0.00    -0.354 N 
ATOM     43  C   UNL A   1      40.582  27.682  28.815  1.00  0.00     0.074 A 
ATOM     44  C   UNL A   1      39.676  26.684  28.292  1.00  0.00     0.031 C 
ATOM     45  C   UNL A   1      46.287  24.726  28.589  1.00  0.00     0.029 A 
ATOM     46  C   UNL A   1      46.006  26.090  29.023  1.00  0.00     0.049 A 
ATOM     47  H   UNL A   1      44.150  27.027  29.149  1.00  0.00     0.167 HD
ATOM     48  C   UNL A   1      40.204  28.918  29.217  1.00  0.00     0.031 A 
ATOM     49  C   UNL A   1      46.931  26.983  29.422  1.00  0.00     0.031 A 
ATOM     50  C   UNL A   1      41.106  29.907  29.743  1.00  0.00     0.049 A 
ATOM     51  C   UNL A   1      46.486  28.357  29.841  1.00  0.00     0.074 A 
ATOM     52  C   UNL A   1      40.813  31.168  30.231  1.00  0.00     0.029 A 
ATOM     53  N   UNL A   1      42.480  29.747  29.844  1.00  0.00    -0.354 N 
ATOM     54  N   UNL A   1      45.273  28.854  29.888  1.00  0.00    -0.248 NA
ATOM     55  C   UNL A   1      47.537  29.288  30.274  1.00  0.00     0.031 C 
ATOM     56  C   UNL A   1      42.017  31.794  30.570  1.00  0.00     0.029 A 
ATOM     57  C   UNL A   1      43.052  30.898  30.360  1.00  0.00     0.049 A 
ATOM     58  H   UNL A   1      42.975  28.935  29.589  1.00  0.00     0.167 HD
ATOM     59  C   UNL A   1      45.413  30.144  30.384  1.00  0.00     0.074 A 
ATOM     60  C   UNL A   1      46.825  30.344  30.639  1.00  0.00     0.031 C 
ATOM     61  C   UNL A   1      44.458  31.080  30.608  1.00  0.00     0.031 A 
BRANCH  48  62
ATOM     62  C   UNL A   1      38.746  29.273  29.095  1.00  0.00    -0.014 A 
ATOM     63  C   UNL A   1      37.876  29.169  30.191  1.00  0.00     0.009 A 
ATOM     64  C   UNL A   1      38.246  29.758  27.876  1.00  0.00     0.009 A 
ATOM     65  C   UNL A   1      36.527  29.509  30.060  1.00  0.00     0.001 A 
ATOM     66  C   UNL A   1      36.906  30.127  27.756  1.00  0.00     0.001 A 
ATOM     67  C   UNL A   1      36.045  29.993  28.845  1.00  0.00     0.000 A 
ENDBRANCH  48  62
BRANCH  49  68
ATOM     68  C   UNL A   1      48.369  26.608  29.453  1.00  0.00    -0.014 A 
ATOM     69  C   UNL A   1      48.924  25.998  30.589  1.00  0.00     0.009 A 
ATOM     70  C   UNL A   1      49.200  26.868  28.352  1.00  0.00     0.009 A 
ATOM     71  C   UNL A   1      50.284  25.687  30.633  1.00  0.00     0.001 A 
ATOM     72  C   UNL A   1      50.553  26.525  28.385  1.00  0.00     0.001 A 
ATOM     73  C   UNL A   1      51.097  25.946  29.531  1.00  0.00     0.000 A 
ENDBRANCH  49  68
BRANCH  61  74
ATOM     74  C   UNL A   1      44.904  32.390  31.195  1.00  0.00    -0.014 A 
ATOM     75  C   UNL A   1      45.255  33.478  30.382  1.00  0.00     0.009 A 
ATOM     76  C   UNL A   1      44.934  32.547  32.591  1.00  0.00     0.009 A 
ATOM     77  C   UNL A   1      45.663  34.685  30.954  1.00  0.00     0.001 A 
ATOM     78  C   UNL A   1      45.310  33.764  33.160  1.00  0.00     0.001 A 
ATOM     79  C   UNL A   1      45.685  34.828  32.341  1.00  0.00     0.000 A 
ENDBRANCH  61  74
ENDBRANCH  35  36
ENDBRANCH  27  30
ENDBRANCH  25  26
ENDBRANCH  24  25
ENDBRANCH  23  24
ENDBRANCH   3  23
TORSDOF 16
ENDMDL
MODEL 2
REMARK VINA RESULT:     -10.2      0.491      5.988
REMARK SMILES CCCOc1cc(NC[C@H]2CC[C@@H](C(=O)NCCCNC(=O)c3ccc(-c4c5nc(c(-c6ccccc6)c6ccc([nH]6)c(-c6ccccc6)c6nc(c(-c7ccccc7)c7ccc4[nH]7)C=C6)C=C5)cc3)O2)ncn1
REMARK SMILES IDX 14 1 15 2 16 3 13 5 10 6 11 7 71 8 12 9 9 10 8 11 7 13 5 14
REMARK SMILES IDX 6 15 74 16 73 17 72 18 4 19 3 20 2 21 1 22 17 23 18 24 19 25
REMARK SMILES IDX 20 26 21 27 22 29 23 30 24 31 70 32 25 33 69 34 26 35 27 36
REMARK SMILES IDX 28 37 63 38 29 39 68 40 62 41 64 42 30 43 67 44 61 45 60 46
REMARK SMILES IDX 31 48 53 49 38 50 52 51 39 52 42 53 51 54 65 55 40 56 41 57
REMARK SMILES IDX 50 59 66 60 43 61 32 62 33 63 37 64 34 65 36 66 35 67 54 68
REMARK SMILES IDX 55 69 59 70 56 71 58 72 57 73 44 74 45 75 49 76 46 77 48 78
REMARK SMILES IDX 47 79
REMARK H PARENT 16 4 8 12 20 28 64 47 42 58
REMARK Flexibility Score: inf
ROOT
ATOM      1  C   UNL A   1      35.037  23.132  25.755  1.00  0.00     0.249 C 
ATOM      2  O   UNL A   1      34.371  23.139  26.795  1.00  0.00    -0.272 OA
ATOM      3  N   UNL A   1      35.668  21.967  25.432  1.00  0.00    -0.354 N 
ATOM      4  H   UNL A   1      35.522  21.230  26.068  1.00  0.00     0.163 HD
ENDROOT
BRANCH   1   5
ATOM      5  C   UNL A   1      35.060  24.371  24.831  1.00  0.00     0.207 C 
ATOM      6  C   UNL A   1      33.784  25.360  23.118  1.00  0.00     0.138 C 
ATOM      7  C   UNL A   1      33.865  26.347  24.270  1.00  0.00     0.037 C 
ATOM      8  O   UNL A   1      34.617  24.237  23.485  1.00  0.00    -0.363 OA
ATOM      9  C   UNL A   1      34.237  25.488  25.455  1.00  0.00     0.045 C 
BRANCH   6  10
ATOM     10  C   UNL A   1      32.375  24.879  22.687  1.00  0.00     0.146 C 
BRANCH  10  11
ATOM     11  N   UNL A   1      32.298  23.457  22.368  1.00  0.00    -0.367 N 
ATOM     12  H   UNL A   1      32.396  23.154  21.436  1.00  0.00     0.162 HD
BRANCH  11  13
ATOM     13  C   UNL A   1      32.088  22.533  23.380  1.00  0.00     0.133 A 
ATOM     14  C   UNL A   1      32.569  20.486  24.390  1.00  0.00     0.218 A 
ATOM     15  C   UNL A   1      32.616  21.269  23.261  1.00  0.00     0.115 A 
ATOM     16  N   UNL A   1      31.908  20.801  25.510  1.00  0.00    -0.202 NA
ATOM     17  C   UNL A   1      31.314  21.994  25.474  1.00  0.00     0.228 A 
ATOM     18  N   UNL A   1      31.404  22.891  24.479  1.00  0.00    -0.219 NA
BRANCH  14  19
ATOM     19  O   UNL A   1      33.292  19.318  24.411  1.00  0.00    -0.478 OA
BRANCH  19  20
ATOM     20  C   UNL A   1      32.402  18.191  24.306  1.00  0.00     0.231 C 
BRANCH  20  21
ATOM     21  C   UNL A   1      33.197  16.879  24.287  1.00  0.00     0.038 C 
ATOM     22  C   UNL A   1      34.127  16.755  23.085  1.00  0.00     0.007 C 
ENDBRANCH  20  21
ENDBRANCH  19  20
ENDBRANCH  14  19
ENDBRANCH  11  13
ENDBRANCH  10  11
ENDBRANCH   6  10
ENDBRANCH   1   5
BRANCH   3  23
ATOM     23  C   UNL A   1      36.517  21.638  24.306  1.00  0.00     0.117 C 
BRANCH  23  24
ATOM     24  C   UNL A   1      37.430  20.456  24.589  1.00  0.00     0.042 C 
BRANCH  24  25
ATOM     25  C   UNL A   1      38.433  20.741  25.698  1.00  0.00     0.118 C 
BRANCH  25  26
ATOM     26  N   UNL A   1      39.515  19.762  25.734  1.00  0.00    -0.352 N 
ATOM     27  C   UNL A   1      40.850  19.910  26.010  1.00  0.00     0.251 C 
ATOM     28  H   UNL A   1      39.240  18.840  25.522  1.00  0.00     0.163 HD
ATOM     29  O   UNL A   1      41.628  18.996  25.763  1.00  0.00    -0.269 OA
BRANCH  27  30
ATOM     30  C   UNL A   1      41.353  21.170  26.594  1.00  0.00     0.039 A 
ATOM     31  C   UNL A   1      41.926  22.125  25.751  1.00  0.00     0.014 A 
ATOM     32  C   UNL A   1      41.277  21.402  27.968  1.00  0.00     0.014 A 
ATOM     33  C   UNL A   1      42.353  23.345  26.279  1.00  0.00     0.010 A 
ATOM     34  C   UNL A   1      41.609  22.651  28.477  1.00  0.00     0.010 A 
ATOM     35  C   UNL A   1      42.155  23.634  27.639  1.00  0.00    -0.014 A 
BRANCH  35  36
ATOM     36  C   UNL A   1      42.501  24.960  28.207  1.00  0.00     0.031 A 
ATOM     37  C   UNL A   1      43.908  25.249  28.652  1.00  0.00     0.074 A 
ATOM     38  C   UNL A   1      41.531  25.876  28.387  1.00  0.00     0.049 A 
ATOM     39  N   UNL A   1      44.385  26.321  29.232  1.00  0.00    -0.248 NA
ATOM     40  C   UNL A   1      44.905  24.186  28.445  1.00  0.00     0.031 C 
ATOM     41  C   UNL A   1      40.119  25.698  28.037  1.00  0.00     0.029 A 
ATOM     42  N   UNL A   1      41.583  27.140  28.918  1.00  0.00    -0.354 N 
ATOM     43  C   UNL A   1      45.727  26.054  29.474  1.00  0.00     0.074 A 
ATOM     44  C   UNL A   1      45.976  24.701  29.028  1.00  0.00     0.031 C 
ATOM     45  C   UNL A   1      39.448  26.824  28.331  1.00  0.00     0.029 A 
ATOM     46  C   UNL A   1      40.367  27.780  28.936  1.00  0.00     0.049 A 
ATOM     47  H   UNL A   1      42.412  27.550  29.254  1.00  0.00     0.167 HD
ATOM     48  C   UNL A   1      46.671  26.868  30.000  1.00  0.00     0.031 A 
ATOM     49  C   UNL A   1      40.027  28.997  29.398  1.00  0.00     0.031 A 
ATOM     50  C   UNL A   1      46.422  28.216  30.436  1.00  0.00     0.049 A 
ATOM     51  C   UNL A   1      41.091  29.874  29.999  1.00  0.00     0.074 A 
ATOM     52  C   UNL A   1      47.322  29.143  30.930  1.00  0.00     0.029 A 
ATOM     53  N   UNL A   1      45.177  28.828  30.435  1.00  0.00    -0.354 N 
ATOM     54  N   UNL A   1      42.371  29.632  30.152  1.00  0.00    -0.248 NA
ATOM     55  C   UNL A   1      40.664  31.194  30.480  1.00  0.00     0.031 C 
ATOM     56  C   UNL A   1      46.613  30.294  31.285  1.00  0.00     0.029 A 
ATOM     57  C   UNL A   1      45.282  30.110  30.947  1.00  0.00     0.049 A 
ATOM     58  H   UNL A   1      44.343  28.413  30.115  1.00  0.00     0.167 HD
ATOM     59  C   UNL A   1      42.907  30.782  30.718  1.00  0.00     0.074 A 
ATOM     60  C   UNL A   1      41.817  31.725  30.863  1.00  0.00     0.031 C 
ATOM     61  C   UNL A   1      44.187  31.035  31.085  1.00  0.00     0.031 A 
BRANCH  48  62
ATOM     62  C   UNL A   1      48.064  26.318  30.141  1.00  0.00    -0.014 A 
ATOM     63  C   UNL A   1      48.992  26.403  29.090  1.00  0.00     0.009 A 
ATOM     64  C   UNL A   1      48.469  25.743  31.356  1.00  0.00     0.009 A 
ATOM     65  C   UNL A   1      50.283  25.891  29.241  1.00  0.00     0.001 A 
ATOM     66  C   UNL A   1      49.769  25.262  31.516  1.00  0.00     0.001 A 
ATOM     67  C   UNL A   1      50.672  25.327  30.456  1.00  0.00     0.000 A 
ENDBRANCH  48  62
BRANCH  49  68
ATOM     68  C   UNL A   1      38.619  29.467  29.305  1.00  0.00    -0.014 A 
ATOM     69  C   UNL A   1      37.737  29.299  30.384  1.00  0.00     0.009 A 
ATOM     70  C   UNL A   1      38.145  30.076  28.132  1.00  0.00     0.009 A 
ATOM     71  C   UNL A   1      36.404  29.701  30.278  1.00  0.00     0.001 A 
ATOM     72  C   UNL A   1      36.820  30.507  28.042  1.00  0.00     0.001 A 
ATOM     73  C   UNL A   1      35.948  30.308  29.110  1.00  0.00     0.000 A 
ENDBRANCH  49  68
BRANCH  61  74
ATOM     74  C   UNL A   1      44.486  32.400  31.640  1.00  0.00    -0.014 A 
ATOM     75  C   UNL A   1      44.433  32.659  33.018  1.00  0.00     0.009 A 
ATOM     76  C   UNL A   1      44.866  33.433  30.768  1.00  0.00     0.009 A 
ATOM     77  C   UNL A   1      44.719  33.936  33.507  1.00  0.00     0.001 A 
ATOM     78  C   UNL A   1      45.183  34.699  31.263  1.00  0.00     0.001 A 
ATOM     79  C   UNL A   1      45.099  34.951  32.631  1.00  0.00     0.000 A 
ENDBRANCH  61  74
ENDBRANCH  35  36
ENDBRANCH  27  30
ENDBRANCH  25  26
ENDBRANCH  24  25
ENDBRANCH  23  24
ENDBRANCH   3  23
TORSDOF 16
ENDMDL
MODEL 3
REMARK VINA RESULT:     -10.1      2.090      3.780
REMARK SMILES CCCOc1cc(NC[C@H]2CC[C@@H](C(=O)NCCCNC(=O)c3ccc(-c4c5nc(c(-c6ccccc6)c6ccc([nH]6)c(-c6ccccc6)c6nc(c(-c7ccccc7)c7ccc4[nH]7)C=C6)C=C5)cc3)O2)ncn1
REMARK SMILES IDX 14 1 15 2 16 3 13 5 10 6 11 7 71 8 12 9 9 10 8 11 7 13 5 14
REMARK SMILES IDX 6 15 74 16 73 17 72 18 4 19 3 20 2 21 1 22 17 23 18 24 19 25
REMARK SMILES IDX 20 26 21 27 22 29 23 30 24 31 70 32 25 33 69 34 26 35 27 36
REMARK SMILES IDX 28 37 63 38 29 39 68 40 62 41 64 42 30 43 67 44 61 45 60 46
REMARK SMILES IDX 31 48 53 49 38 50 52 51 39 52 42 53 51 54 65 55 40 56 41 57
REMARK SMILES IDX 50 59 66 60 43 61 32 62 33 63 37 64 34 65 36 66 35 67 54 68
REMARK SMILES IDX 55 69 59 70 56 71 58 72 57 73 44 74 45 75 49 76 46 77 48 78
REMARK SMILES IDX 47 79
REMARK H PARENT 16 4 8 12 20 28 64 47 42 58
REMARK Flexibility Score: inf
ROOT
ATOM      1  C   UNL A   1      34.021  20.323  25.053  1.00  0.00     0.249 C 
ATOM      2  O   UNL A   1      33.177  19.428  24.939  1.00  0.00    -0.272 OA
ATOM      3  N   UNL A   1      35.331  19.950  24.996  1.00  0.00    -0.354 N 
ATOM      4  H   UNL A   1      35.479  18.986  24.862  1.00  0.00     0.163 HD
ENDROOT
BRANCH   1   5
ATOM      5  C   UNL A   1      33.583  21.801  25.158  1.00  0.00     0.207 C 
ATOM      6  C   UNL A   1      33.215  23.670  23.774  1.00  0.00     0.138 C 
ATOM      7  C   UNL A   1      31.907  23.342  24.474  1.00  0.00     0.037 C 
ATOM      8  O   UNL A   1      34.205  22.767  24.317  1.00  0.00    -0.363 OA
ATOM      9  C   UNL A   1      32.085  21.909  24.916  1.00  0.00     0.045 C 
BRANCH   6  10
ATOM     10  C   UNL A   1      33.226  23.627  22.225  1.00  0.00     0.146 C 
BRANCH  10  11
ATOM     11  N   UNL A   1      32.313  24.575  21.593  1.00  0.00    -0.367 N 
ATOM     12  H   UNL A   1      31.607  24.252  20.987  1.00  0.00     0.162 HD
BRANCH  11  13
ATOM     13  C   UNL A   1      32.441  25.932  21.849  1.00  0.00     0.133 A 
ATOM     14  C   UNL A   1      31.594  27.919  22.731  1.00  0.00     0.218 A 
ATOM     15  C   UNL A   1      31.346  26.644  22.278  1.00  0.00     0.115 A 
ATOM     16  N   UNL A   1      32.768  28.551  22.624  1.00  0.00    -0.202 NA
ATOM     17  C   UNL A   1      33.732  27.818  22.068  1.00  0.00     0.228 A 
ATOM     18  N   UNL A   1      33.637  26.528  21.711  1.00  0.00    -0.219 NA
BRANCH  14  19
ATOM     19  O   UNL A   1      30.594  28.586  23.396  1.00  0.00    -0.478 OA
BRANCH  19  20
ATOM     20  C   UNL A   1      29.820  29.362  22.462  1.00  0.00     0.231 C 
BRANCH  20  21
ATOM     21  C   UNL A   1      28.331  29.310  22.825  1.00  0.00     0.038 C 
ATOM     22  C   UNL A   1      27.773  30.655  23.276  1.00  0.00     0.007 C 
ENDBRANCH  20  21
ENDBRANCH  19  20
ENDBRANCH  14  19
ENDBRANCH  11  13
ENDBRANCH  10  11
ENDBRANCH   6  10
ENDBRANCH   1   5
BRANCH   3  23
ATOM     23  C   UNL A   1      36.539  20.741  25.103  1.00  0.00     0.117 C 
BRANCH  23  24
ATOM     24  C   UNL A   1      37.797  19.921  24.863  1.00  0.00     0.042 C 
BRANCH  24  25
ATOM     25  C   UNL A   1      38.951  20.339  25.763  1.00  0.00     0.118 C 
BRANCH  25  26
ATOM     26  N   UNL A   1      39.974  19.302  25.871  1.00  0.00    -0.352 N 
ATOM     27  C   UNL A   1      41.327  19.395  26.079  1.00  0.00     0.251 C 
ATOM     28  H   UNL A   1      39.636  18.382  25.776  1.00  0.00     0.163 HD
ATOM     29  O   UNL A   1      42.037  18.411  25.910  1.00  0.00    -0.269 OA
BRANCH  27  30
ATOM     30  C   UNL A   1      41.928  20.677  26.497  1.00  0.00     0.039 A 
ATOM     31  C   UNL A   1      42.370  21.569  25.516  1.00  0.00     0.014 A 
ATOM     32  C   UNL A   1      42.073  20.993  27.849  1.00  0.00     0.014 A 
ATOM     33  C   UNL A   1      42.887  22.809  25.893  1.00  0.00     0.010 A 
ATOM     34  C   UNL A   1      42.494  22.264  28.220  1.00  0.00     0.010 A 
ATOM     35  C   UNL A   1      42.910  23.184  27.246  1.00  0.00    -0.014 A 
BRANCH  35  36
ATOM     36  C   UNL A   1      43.356  24.535  27.668  1.00  0.00     0.031 A 
ATOM     37  C   UNL A   1      42.344  25.590  28.017  1.00  0.00     0.074 A 
ATOM     38  C   UNL A   1      44.670  24.829  27.665  1.00  0.00     0.049 A 
ATOM     39  N   UNL A   1      42.539  26.843  28.340  1.00  0.00    -0.248 NA
ATOM     40  C   UNL A   1      40.926  25.196  27.970  1.00  0.00     0.031 C 
ATOM     41  C   UNL A   1      45.747  23.903  27.303  1.00  0.00     0.029 A 
ATOM     42  N   UNL A   1      45.325  25.995  27.971  1.00  0.00    -0.354 N 
ATOM     43  C   UNL A   1      41.272  27.389  28.517  1.00  0.00     0.074 A 
ATOM     44  C   UNL A   1      40.316  26.347  28.212  1.00  0.00     0.031 C 
ATOM     45  C   UNL A   1      46.928  24.527  27.440  1.00  0.00     0.029 A 
ATOM     46  C   UNL A   1      46.691  25.907  27.848  1.00  0.00     0.049 A 
ATOM     47  H   UNL A   1      44.860  26.816  28.251  1.00  0.00     0.167 HD
ATOM     48  C   UNL A   1      40.936  28.637  28.918  1.00  0.00     0.031 A 
ATOM     49  C   UNL A   1      47.646  26.837  28.033  1.00  0.00     0.031 A 
ATOM     50  C   UNL A   1      41.890  29.669  29.226  1.00  0.00     0.049 A 
ATOM     51  C   UNL A   1      47.244  28.223  28.456  1.00  0.00     0.074 A 
ATOM     52  C   UNL A   1      41.653  30.949  29.694  1.00  0.00     0.029 A 
ATOM     53  N   UNL A   1      43.264  29.539  29.093  1.00  0.00    -0.354 N 
ATOM     54  N   UNL A   1      46.045  28.700  28.689  1.00  0.00    -0.248 NA
ATOM     55  C   UNL A   1      48.329  29.194  28.649  1.00  0.00     0.031 C 
ATOM     56  C   UNL A   1      42.879  31.614  29.785  1.00  0.00     0.029 A 
ATOM     57  C   UNL A   1      43.886  30.726  29.442  1.00  0.00     0.049 A 
ATOM     58  H   UNL A   1      43.728  28.724  28.795  1.00  0.00     0.167 HD
ATOM     59  C   UNL A   1      46.234  30.017  29.088  1.00  0.00     0.074 A 
ATOM     60  C   UNL A   1      47.663  30.256  29.081  1.00  0.00     0.031 C 
ATOM     61  C   UNL A   1      45.308  30.947  29.429  1.00  0.00     0.031 A 
BRANCH  48  62
ATOM     62  C   UNL A   1      39.471  28.959  29.035  1.00  0.00    -0.014 A 
ATOM     63  C   UNL A   1      38.742  29.447  27.939  1.00  0.00     0.009 A 
ATOM     64  C   UNL A   1      38.801  28.730  30.247  1.00  0.00     0.009 A 
ATOM     65  C   UNL A   1      37.380  29.735  28.066  1.00  0.00     0.001 A 
ATOM     66  C   UNL A   1      37.434  28.987  30.362  1.00  0.00     0.001 A 
ATOM     67  C   UNL A   1      36.727  29.498  29.274  1.00  0.00     0.000 A 
ENDBRANCH  48  62
BRANCH  49  68
ATOM     68  C   UNL A   1      49.078  26.490  27.830  1.00  0.00    -0.014 A 
ATOM     69  C   UNL A   1      49.885  26.123  28.918  1.00  0.00     0.009 A 
ATOM     70  C   UNL A   1      49.649  26.534  26.549  1.00  0.00     0.009 A 
ATOM     71  C   UNL A   1      51.239  25.840  28.731  1.00  0.00     0.001 A 
ATOM     72  C   UNL A   1      50.995  26.218  26.360  1.00  0.00     0.001 A 
ATOM     73  C   UNL A   1      51.793  25.884  27.453  1.00  0.00     0.000 A 
ENDBRANCH  49  68
BRANCH  61  74
ATOM     74  C   UNL A   1      45.814  32.294  29.863  1.00  0.00    -0.014 A 
ATOM     75  C   UNL A   1      45.965  33.350  28.951  1.00  0.00     0.009 A 
ATOM     76  C   UNL A   1      46.107  32.519  31.218  1.00  0.00     0.009 A 
ATOM     77  C   UNL A   1      46.434  34.593  29.383  1.00  0.00     0.001 A 
ATOM     78  C   UNL A   1      46.544  33.771  31.652  1.00  0.00     0.001 A 
ATOM     79  C   UNL A   1      46.718  34.804  30.732  1.00  0.00     0.000 A 
ENDBRANCH  61  74
ENDBRANCH  35  36
ENDBRANCH  27  30
ENDBRANCH  25  26
ENDBRANCH  24  25
ENDBRANCH  23  24
ENDBRANCH   3  23
TORSDOF 16
ENDMDL
