MODEL 1
REMARK VINA RESULT:     -11.6      0.000      0.000
REMARK SMILES Cc1ccc(Cl)c(Nc2ccccc2C(=O)NCC(=O)NCCCNC(=O)c2ccc(-c3c4nc(c(-c5ccccc5)c5ccc([nH]5)c(-c5ccccc5)c5nc(c(-c6ccccc6)c6ccc3[nH]6)C=C5)C=C4)cc2)c1Cl
REMARK SMILES IDX 22 1 21 2 19 3 20 4 18 6 17 7 15 8 16 9 14 11 9 12 10 13
REMARK SMILES IDX 11 14 13 15 12 16 8 17 7 19 1 20 2 21 3 22 76 23 4 24 77 25
REMARK SMILES IDX 5 26 6 27 23 28 24 29 25 30 26 31 27 33 28 34 29 35 75 36
REMARK SMILES IDX 30 37 74 38 31 39 32 40 33 41 68 42 34 43 73 44 67 45 69 46
REMARK SMILES IDX 35 47 72 48 66 49 65 50 36 52 58 53 43 54 57 55 44 56 47 57
REMARK SMILES IDX 56 58 70 59 45 60 46 61 55 63 71 64 48 65 37 66 38 67 42 68
REMARK SMILES IDX 39 69 41 70 40 71 59 72 60 73 64 74 61 75 63 76 62 77 49 78
REMARK SMILES IDX 50 79 54 80 51 81 53 82 52 83
REMARK H PARENT 21 5 17 10 8 18 25 32 69 51 47 62
REMARK Flexibility Score: inf
ROOT
ATOM      1  C   UNL A   1      36.749  20.343  25.015  1.00  0.00     0.117 C 
ENDROOT
BRANCH   1   2
ATOM      2  N   UNL A   1      36.550  21.526  25.817  1.00  0.00    -0.355 N 
ATOM      3  C   UNL A   1      36.739  22.818  25.426  1.00  0.00     0.239 C 
ATOM      4  O   UNL A   1      36.693  23.704  26.281  1.00  0.00    -0.273 OA
ATOM      5  H   UNL A   1      36.247  21.386  26.743  1.00  0.00     0.163 HD
BRANCH   3   6
ATOM      6  C   UNL A   1      36.729  23.142  23.936  1.00  0.00     0.216 C 
BRANCH   6   7
ATOM      7  N   UNL A   1      35.560  23.077  23.088  1.00  0.00    -0.343 N 
ATOM      8  C   UNL A   1      34.391  23.803  23.067  1.00  0.00     0.253 C 
ATOM      9  O   UNL A   1      33.843  23.850  21.958  1.00  0.00    -0.269 OA
ATOM     10  H   UNL A   1      35.609  22.381  22.394  1.00  0.00     0.164 HD
BRANCH   8  11
ATOM     11  C   UNL A   1      33.625  24.342  24.254  1.00  0.00     0.063 A 
ATOM     12  C   UNL A   1      32.525  23.829  24.983  1.00  0.00     0.051 A 
ATOM     13  C   UNL A   1      31.943  24.655  25.985  1.00  0.00     0.027 A 
ATOM     14  C   UNL A   1      32.459  25.902  26.330  1.00  0.00     0.002 A 
ATOM     15  C   UNL A   1      34.135  25.612  24.644  1.00  0.00     0.016 A 
ATOM     16  C   UNL A   1      33.577  26.374  25.672  1.00  0.00     0.001 A 
BRANCH  12  17
ATOM     17  N   UNL A   1      31.978  22.528  24.960  1.00  0.00    -0.352 N 
ATOM     18  H   UNL A   1      31.001  22.515  25.091  1.00  0.00     0.167 HD
BRANCH  17  19
ATOM     19  C   UNL A   1      32.536  21.237  24.788  1.00  0.00     0.077 A 
ATOM     20  C   UNL A   1      32.235  18.195  22.489  1.00  0.00     0.046 C 
ATOM     21  C   UNL A   1      32.574  19.063  23.668  1.00  0.00    -0.030 A 
ATOM     22  C   UNL A   1      33.059  18.469  24.843  1.00  0.00     0.006 A 
ATOM     23  C   UNL A   1      32.358  20.454  23.632  1.00  0.00     0.069 A 
ATOM     24  C   UNL A   1      33.371  19.247  25.953  1.00  0.00     0.023 A 
ATOM     25  Cl  UNL A   1      31.967  21.202  22.111  1.00  0.00    -0.082 Cl
ATOM     26  C   UNL A   1      33.126  20.617  25.921  1.00  0.00     0.066 A 
ATOM     27  Cl  UNL A   1      33.418  21.525  27.372  1.00  0.00    -0.082 Cl
ENDBRANCH  17  19
ENDBRANCH  12  17
ENDBRANCH   8  11
ENDBRANCH   6   7
ENDBRANCH   3   6
ENDBRANCH   1   2
BRANCH   1  28
ATOM     28  C   UNL A   1      38.228  20.149  24.723  1.00  0.00     0.042 C 
BRANCH  28  29
ATOM     29  C   UNL A   1      39.055  20.170  25.998  1.00  0.00     0.118 C 
BRANCH  29  30
ATOM     30  N   UNL A   1      40.196  19.269  25.917  1.00  0.00    -0.352 N 
ATOM     31  C   UNL A   1      41.526  19.563  26.066  1.00  0.00     0.251 C 
ATOM     32  H   UNL A   1      39.983  18.326  25.731  1.00  0.00     0.163 HD
ATOM     33  O   UNL A   1      42.382  18.748  25.752  1.00  0.00    -0.269 OA
BRANCH  31  34
ATOM     34  C   UNL A   1      41.904  20.887  26.593  1.00  0.00     0.039 A 
ATOM     35  C   UNL A   1      42.277  21.887  25.697  1.00  0.00     0.014 A 
ATOM     36  C   UNL A   1      41.861  21.136  27.969  1.00  0.00     0.014 A 
ATOM     37  C   UNL A   1      42.569  23.161  26.183  1.00  0.00     0.010 A 
ATOM     38  C   UNL A   1      42.059  22.426  28.438  1.00  0.00     0.010 A 
ATOM     39  C   UNL A   1      42.434  23.446  27.553  1.00  0.00    -0.014 A 
BRANCH  39  40
ATOM     40  C   UNL A   1      42.709  24.802  28.080  1.00  0.00     0.031 A 
ATOM     41  C   UNL A   1      44.108  25.179  28.482  1.00  0.00     0.074 A 
ATOM     42  C   UNL A   1      41.693  25.671  28.239  1.00  0.00     0.049 A 
ATOM     43  N   UNL A   1      44.544  26.304  28.989  1.00  0.00    -0.248 NA
ATOM     44  C   UNL A   1      45.149  24.150  28.321  1.00  0.00     0.031 C 
ATOM     45  C   UNL A   1      40.288  25.402  27.927  1.00  0.00     0.029 A 
ATOM     46  N   UNL A   1      41.690  26.961  28.704  1.00  0.00    -0.354 N 
ATOM     47  C   UNL A   1      45.900  26.111  29.219  1.00  0.00     0.074 A 
ATOM     48  C   UNL A   1      46.204  24.745  28.856  1.00  0.00     0.031 C 
ATOM     49  C   UNL A   1      39.566  26.507  28.172  1.00  0.00     0.029 A 
ATOM     50  C   UNL A   1      40.446  27.543  28.699  1.00  0.00     0.049 A 
ATOM     51  H   UNL A   1      42.502  27.426  29.012  1.00  0.00     0.167 HD
ATOM     52  C   UNL A   1      46.817  26.998  29.670  1.00  0.00     0.031 A 
ATOM     53  C   UNL A   1      40.060  28.775  29.080  1.00  0.00     0.031 A 
ATOM     54  C   UNL A   1      46.512  28.359  30.022  1.00  0.00     0.049 A 
ATOM     55  C   UNL A   1      41.096  29.737  29.593  1.00  0.00     0.074 A 
ATOM     56  C   UNL A   1      47.377  29.355  30.437  1.00  0.00     0.029 A 
ATOM     57  N   UNL A   1      45.240  28.909  30.003  1.00  0.00    -0.354 N 
ATOM     58  N   UNL A   1      42.387  29.563  29.734  1.00  0.00    -0.248 NA
ATOM     59  C   UNL A   1      40.619  31.069  29.986  1.00  0.00     0.031 C 
ATOM     60  C   UNL A   1      46.619  30.495  30.726  1.00  0.00     0.029 A 
ATOM     61  C   UNL A   1      45.293  30.227  30.426  1.00  0.00     0.049 A 
ATOM     62  H   UNL A   1      44.422  28.436  29.730  1.00  0.00     0.167 HD
ATOM     63  C   UNL A   1      42.883  30.773  30.204  1.00  0.00     0.074 A 
ATOM     64  C   UNL A   1      41.754  31.676  30.305  1.00  0.00     0.031 C 
ATOM     65  C   UNL A   1      44.157  31.108  30.521  1.00  0.00     0.031 A 
BRANCH  52  66
ATOM     66  C   UNL A   1      48.235  26.516  29.812  1.00  0.00    -0.014 A 
ATOM     67  C   UNL A   1      48.683  25.902  30.993  1.00  0.00     0.009 A 
ATOM     68  C   UNL A   1      49.129  26.654  28.739  1.00  0.00     0.009 A 
ATOM     69  C   UNL A   1      50.007  25.472  31.111  1.00  0.00     0.001 A 
ATOM     70  C   UNL A   1      50.443  26.194  28.847  1.00  0.00     0.001 A 
ATOM     71  C   UNL A   1      50.883  25.614  30.036  1.00  0.00     0.000 A 
ENDBRANCH  52  66
BRANCH  53  72
ATOM     72  C   UNL A   1      38.633  29.175  28.976  1.00  0.00    -0.014 A 
ATOM     73  C   UNL A   1      38.122  29.692  27.775  1.00  0.00     0.009 A 
ATOM     74  C   UNL A   1      37.772  29.049  30.078  1.00  0.00     0.009 A 
ATOM     75  C   UNL A   1      36.790  30.102  27.690  1.00  0.00     0.001 A 
ATOM     76  C   UNL A   1      36.432  29.430  29.981  1.00  0.00     0.001 A 
ATOM     77  C   UNL A   1      35.945  29.967  28.790  1.00  0.00     0.000 A 
ENDBRANCH  53  72
BRANCH  65  78
ATOM     78  C   UNL A   1      44.403  32.520  30.973  1.00  0.00    -0.014 A 
ATOM     79  C   UNL A   1      44.315  32.883  32.325  1.00  0.00     0.009 A 
ATOM     80  C   UNL A   1      44.765  33.494  30.029  1.00  0.00     0.009 A 
ATOM     81  C   UNL A   1      44.551  34.202  32.718  1.00  0.00     0.001 A 
ATOM     82  C   UNL A   1      45.033  34.804  30.429  1.00  0.00     0.001 A 
ATOM     83  C   UNL A   1      44.914  35.159  31.772  1.00  0.00     0.000 A 
ENDBRANCH  65  78
ENDBRANCH  39  40
ENDBRANCH  31  34
ENDBRANCH  29  30
ENDBRANCH  28  29
ENDBRANCH   1  28
TORSDOF 14
ENDMDL
MODEL 2
REMARK VINA RESULT:     -11.5      0.941      5.857
REMARK SMILES Cc1ccc(Cl)c(Nc2ccccc2C(=O)NCC(=O)NCCCNC(=O)c2ccc(-c3c4nc(c(-c5ccccc5)c5ccc([nH]5)c(-c5ccccc5)c5nc(c(-c6ccccc6)c6ccc3[nH]6)C=C5)C=C4)cc2)c1Cl
REMARK SMILES IDX 22 1 21 2 19 3 20 4 18 6 17 7 15 8 16 9 14 11 9 12 10 13
REMARK SMILES IDX 11 14 13 15 12 16 8 17 7 19 1 20 2 21 3 22 76 23 4 24 77 25
REMARK SMILES IDX 5 26 6 27 23 28 24 29 25 30 26 31 27 33 28 34 29 35 75 36
REMARK SMILES IDX 30 37 74 38 31 39 32 40 33 41 68 42 34 43 73 44 67 45 69 46
REMARK SMILES IDX 35 47 72 48 66 49 65 50 36 52 58 53 43 54 57 55 44 56 47 57
REMARK SMILES IDX 56 58 70 59 45 60 46 61 55 63 71 64 48 65 37 66 38 67 42 68
REMARK SMILES IDX 39 69 41 70 40 71 59 72 60 73 64 74 61 75 63 76 62 77 49 78
REMARK SMILES IDX 50 79 54 80 51 81 53 82 52 83
REMARK H PARENT 21 5 17 10 8 18 25 32 69 51 47 62
REMARK Flexibility Score: inf
ROOT
ATOM      1  C   UNL A   1      36.778  20.466  25.013  1.00  0.00     0.117 C 
ENDROOT
BRANCH   1   2
ATOM      2  N   UNL A   1      36.620  21.639  25.838  1.00  0.00    -0.355 N 
ATOM      3  C   UNL A   1      36.820  22.933  25.463  1.00  0.00     0.239 C 
ATOM      4  O   UNL A   1      36.813  23.806  26.334  1.00  0.00    -0.273 OA
ATOM      5  H   UNL A   1      36.339  21.488  26.770  1.00  0.00     0.163 HD
BRANCH   3   6
ATOM      6  C   UNL A   1      36.777  23.282  23.980  1.00  0.00     0.216 C 
BRANCH   6   7
ATOM      7  N   UNL A   1      35.615  23.130  23.133  1.00  0.00    -0.343 N 
ATOM      8  C   UNL A   1      34.412  23.796  23.086  1.00  0.00     0.253 C 
ATOM      9  O   UNL A   1      33.865  23.779  21.976  1.00  0.00    -0.269 OA
ATOM     10  H   UNL A   1      35.701  22.416  22.462  1.00  0.00     0.164 HD
BRANCH   8  11
ATOM     11  C   UNL A   1      33.617  24.334  24.254  1.00  0.00     0.063 A 
ATOM     12  C   UNL A   1      32.507  23.815  24.964  1.00  0.00     0.051 A 
ATOM     13  C   UNL A   1      31.897  24.640  25.949  1.00  0.00     0.027 A 
ATOM     14  C   UNL A   1      32.392  25.895  26.296  1.00  0.00     0.002 A 
ATOM     15  C   UNL A   1      34.106  25.612  24.646  1.00  0.00     0.016 A 
ATOM     16  C   UNL A   1      33.519  26.374  25.658  1.00  0.00     0.001 A 
BRANCH  12  17
ATOM     17  N   UNL A   1      31.974  22.508  24.938  1.00  0.00    -0.352 N 
ATOM     18  H   UNL A   1      30.995  22.485  25.050  1.00  0.00     0.167 HD
BRANCH  17  19
ATOM     19  C   UNL A   1      32.549  21.221  24.785  1.00  0.00     0.077 A 
ATOM     20  C   UNL A   1      32.279  18.139  22.536  1.00  0.00     0.046 C 
ATOM     21  C   UNL A   1      32.611  19.031  23.700  1.00  0.00    -0.030 A 
ATOM     22  C   UNL A   1      33.108  18.462  24.882  1.00  0.00     0.006 A 
ATOM     23  C   UNL A   1      32.376  20.418  23.643  1.00  0.00     0.069 A 
ATOM     24  C   UNL A   1      33.414  19.262  25.979  1.00  0.00     0.023 A 
ATOM     25  Cl  UNL A   1      31.970  21.136  22.111  1.00  0.00    -0.082 Cl
ATOM     26  C   UNL A   1      33.150  20.628  25.925  1.00  0.00     0.066 A 
ATOM     27  Cl  UNL A   1      33.436  21.563  27.361  1.00  0.00    -0.082 Cl
ENDBRANCH  17  19
ENDBRANCH  12  17
ENDBRANCH   8  11
ENDBRANCH   6   7
ENDBRANCH   3   6
ENDBRANCH   1   2
BRANCH   1  28
ATOM     28  C   UNL A   1      38.251  20.213  24.735  1.00  0.00     0.042 C 
BRANCH  28  29
ATOM     29  C   UNL A   1      39.074  20.253  26.013  1.00  0.00     0.118 C 
BRANCH  29  30
ATOM     30  N   UNL A   1      40.109  19.230  26.022  1.00  0.00    -0.352 N 
ATOM     31  C   UNL A   1      41.465  19.390  26.131  1.00  0.00     0.251 C 
ATOM     32  H   UNL A   1      39.792  18.301  25.939  1.00  0.00     0.163 HD
ATOM     33  O   UNL A   1      42.223  18.458  25.901  1.00  0.00    -0.269 OA
BRANCH  31  34
ATOM     34  C   UNL A   1      41.993  20.713  26.512  1.00  0.00     0.039 A 
ATOM     35  C   UNL A   1      42.301  21.630  25.508  1.00  0.00     0.014 A 
ATOM     36  C   UNL A   1      42.155  21.046  27.861  1.00  0.00     0.014 A 
ATOM     37  C   UNL A   1      42.735  22.906  25.862  1.00  0.00     0.010 A 
ATOM     38  C   UNL A   1      42.494  22.345  28.210  1.00  0.00     0.010 A 
ATOM     39  C   UNL A   1      42.808  23.281  27.215  1.00  0.00    -0.014 A 
BRANCH  39  40
ATOM     40  C   UNL A   1      43.235  24.643  27.608  1.00  0.00     0.031 A 
ATOM     41  C   UNL A   1      42.202  25.687  27.931  1.00  0.00     0.074 A 
ATOM     42  C   UNL A   1      44.546  24.949  27.626  1.00  0.00     0.049 A 
ATOM     43  N   UNL A   1      42.374  26.940  28.267  1.00  0.00    -0.248 NA
ATOM     44  C   UNL A   1      40.790  25.279  27.838  1.00  0.00     0.031 C 
ATOM     45  C   UNL A   1      45.637  24.032  27.288  1.00  0.00     0.029 A 
ATOM     46  N   UNL A   1      45.182  26.121  27.945  1.00  0.00    -0.354 N 
ATOM     47  C   UNL A   1      41.098  27.469  28.410  1.00  0.00     0.074 A 
ATOM     48  C   UNL A   1      40.162  26.423  28.064  1.00  0.00     0.031 C 
ATOM     49  C   UNL A   1      46.809  24.666  27.455  1.00  0.00     0.029 A 
ATOM     50  C   UNL A   1      46.551  26.041  27.868  1.00  0.00     0.049 A 
ATOM     51  H   UNL A   1      44.703  26.941  28.205  1.00  0.00     0.167 HD
ATOM     52  C   UNL A   1      40.736  28.708  28.814  1.00  0.00     0.031 A 
ATOM     53  C   UNL A   1      47.492  26.973  28.102  1.00  0.00     0.031 A 
ATOM     54  C   UNL A   1      41.670  29.743  29.165  1.00  0.00     0.049 A 
ATOM     55  C   UNL A   1      47.063  28.348  28.535  1.00  0.00     0.074 A 
ATOM     56  C   UNL A   1      41.408  31.016  29.640  1.00  0.00     0.029 A 
ATOM     57  N   UNL A   1      43.049  29.623  29.073  1.00  0.00    -0.354 N 
ATOM     58  N   UNL A   1      45.854  28.812  28.737  1.00  0.00    -0.248 NA
ATOM     59  C   UNL A   1      48.133  29.324  28.785  1.00  0.00     0.031 C 
ATOM     60  C   UNL A   1      42.628  31.686  29.781  1.00  0.00     0.029 A 
ATOM     61  C   UNL A   1      43.651  30.809  29.457  1.00  0.00     0.049 A 
ATOM     62  H   UNL A   1      43.528  28.815  28.779  1.00  0.00     0.167 HD
ATOM     63  C   UNL A   1      46.017  30.123  29.166  1.00  0.00     0.074 A 
ATOM     64  C   UNL A   1      47.443  30.372  29.212  1.00  0.00     0.031 C 
ATOM     65  C   UNL A   1      45.072  31.038  29.494  1.00  0.00     0.031 A 
BRANCH  52  66
ATOM     66  C   UNL A   1      39.264  29.009  28.891  1.00  0.00    -0.014 A 
ATOM     67  C   UNL A   1      38.538  28.810  30.077  1.00  0.00     0.009 A 
ATOM     68  C   UNL A   1      38.598  29.526  27.769  1.00  0.00     0.009 A 
ATOM     69  C   UNL A   1      37.170  29.083  30.126  1.00  0.00     0.001 A 
ATOM     70  C   UNL A   1      37.237  29.830  27.829  1.00  0.00     0.001 A 
ATOM     71  C   UNL A   1      36.522  29.598  29.004  1.00  0.00     0.000 A 
ENDBRANCH  52  66
BRANCH  53  72
ATOM     72  C   UNL A   1      48.931  26.637  27.948  1.00  0.00    -0.014 A 
ATOM     73  C   UNL A   1      49.575  26.804  26.712  1.00  0.00     0.009 A 
ATOM     74  C   UNL A   1      49.670  26.141  29.034  1.00  0.00     0.009 A 
ATOM     75  C   UNL A   1      50.918  26.453  26.559  1.00  0.00     0.001 A 
ATOM     76  C   UNL A   1      51.021  25.821  28.886  1.00  0.00     0.001 A 
ATOM     77  C   UNL A   1      51.641  25.966  27.646  1.00  0.00     0.000 A 
ENDBRANCH  53  72
BRANCH  65  78
ATOM     78  C   UNL A   1      45.553  32.381  29.967  1.00  0.00    -0.014 A 
ATOM     79  C   UNL A   1      45.844  32.620  31.319  1.00  0.00     0.009 A 
ATOM     80  C   UNL A   1      45.754  33.411  29.035  1.00  0.00     0.009 A 
ATOM     81  C   UNL A   1      46.292  33.877  31.732  1.00  0.00     0.001 A 
ATOM     82  C   UNL A   1      46.234  34.655  29.446  1.00  0.00     0.001 A 
ATOM     83  C   UNL A   1      46.491  34.890  30.796  1.00  0.00     0.000 A 
ENDBRANCH  65  78
ENDBRANCH  39  40
ENDBRANCH  31  34
ENDBRANCH  29  30
ENDBRANCH  28  29
ENDBRANCH   1  28
TORSDOF 14
ENDMDL
MODEL 3
REMARK VINA RESULT:     -11.4      4.107      9.039
REMARK SMILES Cc1ccc(Cl)c(Nc2ccccc2C(=O)NCC(=O)NCCCNC(=O)c2ccc(-c3c4nc(c(-c5ccccc5)c5ccc([nH]5)c(-c5ccccc5)c5nc(c(-c6ccccc6)c6ccc3[nH]6)C=C5)C=C4)cc2)c1Cl
REMARK SMILES IDX 22 1 21 2 19 3 20 4 18 6 17 7 15 8 16 9 14 11 9 12 10 13
REMARK SMILES IDX 11 14 13 15 12 16 8 17 7 19 1 20 2 21 3 22 76 23 4 24 77 25
REMARK SMILES IDX 5 26 6 27 23 28 24 29 25 30 26 31 27 33 28 34 29 35 75 36
REMARK SMILES IDX 30 37 74 38 31 39 32 40 33 41 68 42 34 43 73 44 67 45 69 46
REMARK SMILES IDX 35 47 72 48 66 49 65 50 36 52 58 53 43 54 57 55 44 56 47 57
REMARK SMILES IDX 56 58 70 59 45 60 46 61 55 63 71 64 48 65 37 66 38 67 42 68
REMARK SMILES IDX 39 69 41 70 40 71 59 72 60 73 64 74 61 75 63 76 62 77 49 78
REMARK SMILES IDX 50 79 54 80 51 81 53 82 52 83
REMARK H PARENT 21 5 17 10 8 18 25 32 69 51 47 62
REMARK Flexibility Score: inf
ROOT
ATOM      1  C   UNL A   1      31.417  30.747  25.996  1.00  0.00     0.117 C 
ENDROOT
BRANCH   1   2
ATOM      2  N   UNL A   1      32.525  29.897  25.633  1.00  0.00    -0.355 N 
ATOM      3  C   UNL A   1      32.968  28.800  26.309  1.00  0.00     0.239 C 
ATOM      4  O   UNL A   1      34.033  28.285  25.963  1.00  0.00    -0.273 OA
ATOM      5  H   UNL A   1      33.013  30.135  24.811  1.00  0.00     0.163 HD
BRANCH   3   6
ATOM      6  C   UNL A   1      32.017  28.100  27.273  1.00  0.00     0.216 C 
BRANCH   6   7
ATOM      7  N   UNL A   1      31.120  27.026  26.909  1.00  0.00    -0.343 N 
ATOM      8  C   UNL A   1      31.343  25.772  26.386  1.00  0.00     0.253 C 
ATOM      9  O   UNL A   1      30.463  24.945  26.658  1.00  0.00    -0.269 OA
ATOM     10  H   UNL A   1      30.170  27.228  27.065  1.00  0.00     0.164 HD
BRANCH   8  11
ATOM     11  C   UNL A   1      32.392  25.376  25.373  1.00  0.00     0.063 A 
ATOM     12  C   UNL A   1      32.400  25.400  23.957  1.00  0.00     0.051 A 
ATOM     13  C   UNL A   1      33.515  24.828  23.283  1.00  0.00     0.027 A 
ATOM     14  C   UNL A   1      34.625  24.322  23.955  1.00  0.00     0.002 A 
ATOM     15  C   UNL A   1      33.550  24.866  26.025  1.00  0.00     0.016 A 
ATOM     16  C   UNL A   1      34.654  24.364  25.335  1.00  0.00     0.001 A 
BRANCH  12  17
ATOM     17  N   UNL A   1      31.502  26.046  23.079  1.00  0.00    -0.352 N 
ATOM     18  H   UNL A   1      31.285  25.509  22.282  1.00  0.00     0.167 HD
BRANCH  17  19
ATOM     19  C   UNL A   1      30.848  27.304  23.102  1.00  0.00     0.077 A 
ATOM     20  C   UNL A   1      27.317  28.772  23.030  1.00  0.00     0.046 C 
ATOM     21  C   UNL A   1      28.813  28.649  22.943  1.00  0.00    -0.030 A 
ATOM     22  C   UNL A   1      29.561  29.714  22.417  1.00  0.00     0.006 A 
ATOM     23  C   UNL A   1      29.468  27.463  23.326  1.00  0.00     0.069 A 
ATOM     24  C   UNL A   1      30.946  29.624  22.316  1.00  0.00     0.023 A 
ATOM     25  Cl  UNL A   1      28.563  26.243  24.174  1.00  0.00    -0.082 Cl
ATOM     26  C   UNL A   1      31.583  28.437  22.667  1.00  0.00     0.066 A 
ATOM     27  Cl  UNL A   1      33.297  28.333  22.408  1.00  0.00    -0.082 Cl
ENDBRANCH  17  19
ENDBRANCH  12  17
ENDBRANCH   8  11
ENDBRANCH   6   7
ENDBRANCH   3   6
ENDBRANCH   1   2
BRANCH   1  28
ATOM     28  C   UNL A   1      31.759  31.554  27.237  1.00  0.00     0.042 C 
BRANCH  28  29
ATOM     29  C   UNL A   1      32.851  32.573  26.956  1.00  0.00     0.118 C 
BRANCH  29  30
ATOM     30  N   UNL A   1      32.554  33.865  27.560  1.00  0.00    -0.352 N 
ATOM     31  C   UNL A   1      33.178  34.476  28.614  1.00  0.00     0.251 C 
ATOM     32  H   UNL A   1      31.806  34.362  27.157  1.00  0.00     0.163 HD
ATOM     33  O   UNL A   1      32.679  35.455  29.151  1.00  0.00    -0.269 OA
BRANCH  31  34
ATOM     34  C   UNL A   1      34.454  33.920  29.102  1.00  0.00     0.039 A 
ATOM     35  C   UNL A   1      34.443  33.092  30.223  1.00  0.00     0.014 A 
ATOM     36  C   UNL A   1      35.648  34.199  28.430  1.00  0.00     0.014 A 
ATOM     37  C   UNL A   1      35.633  32.506  30.649  1.00  0.00     0.010 A 
ATOM     38  C   UNL A   1      36.812  33.541  28.797  1.00  0.00     0.010 A 
ATOM     39  C   UNL A   1      36.821  32.705  29.922  1.00  0.00    -0.014 A 
BRANCH  39  40
ATOM     40  C   UNL A   1      38.088  32.064  30.341  1.00  0.00     0.031 A 
ATOM     41  C   UNL A   1      38.957  32.730  31.372  1.00  0.00     0.074 A 
ATOM     42  C   UNL A   1      38.474  30.912  29.761  1.00  0.00     0.049 A 
ATOM     43  N   UNL A   1      40.113  32.342  31.849  1.00  0.00    -0.248 NA
ATOM     44  C   UNL A   1      38.482  34.011  31.918  1.00  0.00     0.031 C 
ATOM     45  C   UNL A   1      37.735  30.197  28.718  1.00  0.00     0.029 A 
ATOM     46  N   UNL A   1      39.587  30.139  29.970  1.00  0.00    -0.354 N 
ATOM     47  C   UNL A   1      40.505  33.337  32.736  1.00  0.00     0.074 A 
ATOM     48  C   UNL A   1      39.499  34.374  32.685  1.00  0.00     0.031 C 
ATOM     49  C   UNL A   1      38.396  29.071  28.407  1.00  0.00     0.029 A 
ATOM     50  C   UNL A   1      39.623  29.007  29.193  1.00  0.00     0.049 A 
ATOM     51  H   UNL A   1      40.292  30.373  30.616  1.00  0.00     0.167 HD
ATOM     52  C   UNL A   1      41.594  33.374  33.538  1.00  0.00     0.031 A 
ATOM     53  C   UNL A   1      40.544  28.029  29.122  1.00  0.00     0.031 A 
ATOM     54  C   UNL A   1      42.588  32.336  33.591  1.00  0.00     0.049 A 
ATOM     55  C   UNL A   1      41.754  28.102  30.013  1.00  0.00     0.074 A 
ATOM     56  C   UNL A   1      43.700  32.250  34.408  1.00  0.00     0.029 A 
ATOM     57  N   UNL A   1      42.589  31.206  32.788  1.00  0.00    -0.354 N 
ATOM     58  N   UNL A   1      42.073  29.012  30.901  1.00  0.00    -0.248 NA
ATOM     59  C   UNL A   1      42.722  27.003  29.901  1.00  0.00     0.031 C 
ATOM     60  C   UNL A   1      44.407  31.094  34.060  1.00  0.00     0.029 A 
ATOM     61  C   UNL A   1      43.699  30.428  33.072  1.00  0.00     0.049 A 
ATOM     62  H   UNL A   1      41.903  30.988  32.116  1.00  0.00     0.167 HD
ATOM     63  C   UNL A   1      43.264  28.582  31.473  1.00  0.00     0.074 A 
ATOM     64  C   UNL A   1      43.597  27.320  30.845  1.00  0.00     0.031 C 
ATOM     65  C   UNL A   1      44.013  29.176  32.434  1.00  0.00     0.031 A 
BRANCH  52  66
ATOM     66  C   UNL A   1      41.765  34.582  34.417  1.00  0.00    -0.014 A 
ATOM     67  C   UNL A   1      41.251  34.614  35.724  1.00  0.00     0.009 A 
ATOM     68  C   UNL A   1      42.475  35.696  33.942  1.00  0.00     0.009 A 
ATOM     69  C   UNL A   1      41.409  35.750  36.521  1.00  0.00     0.001 A 
ATOM     70  C   UNL A   1      42.661  36.818  34.752  1.00  0.00     0.001 A 
ATOM     71  C   UNL A   1      42.118  36.848  36.036  1.00  0.00     0.000 A 
ENDBRANCH  52  66
BRANCH  53  72
ATOM     72  C   UNL A   1      40.353  26.889  28.188  1.00  0.00    -0.014 A 
ATOM     73  C   UNL A   1      40.904  26.926  26.897  1.00  0.00     0.009 A 
ATOM     74  C   UNL A   1      39.615  25.761  28.577  1.00  0.00     0.009 A 
ATOM     75  C   UNL A   1      40.692  25.870  26.007  1.00  0.00     0.001 A 
ATOM     76  C   UNL A   1      39.432  24.693  27.696  1.00  0.00     0.001 A 
ATOM     77  C   UNL A   1      39.961  24.754  26.407  1.00  0.00     0.000 A 
ENDBRANCH  53  72
BRANCH  65  78
ATOM     78  C   UNL A   1      45.247  28.449  32.888  1.00  0.00    -0.014 A 
ATOM     79  C   UNL A   1      46.510  28.740  32.349  1.00  0.00     0.009 A 
ATOM     80  C   UNL A   1      45.146  27.482  33.902  1.00  0.00     0.009 A 
ATOM     81  C   UNL A   1      47.641  28.051  32.792  1.00  0.00     0.001 A 
ATOM     82  C   UNL A   1      46.283  26.820  34.365  1.00  0.00     0.001 A 
ATOM     83  C   UNL A   1      47.528  27.097  33.801  1.00  0.00     0.000 A 
ENDBRANCH  65  78
ENDBRANCH  39  40
ENDBRANCH  31  34
ENDBRANCH  29  30
ENDBRANCH  28  29
ENDBRANCH   1  28
TORSDOF 14
ENDMDL
