MODEL 1
REMARK VINA RESULT:     -12.4      0.000      0.000
REMARK SMILES Cc1cccc(NC(=O)COc2ccc(N3C[C@@H](C(=O)NCCCNC(=O)c4ccc(-c5c6nc(c(-c7ccccc7)c7ccc([nH]7)c(-c7ccccc7)c7nc(c(-c8ccccc8)c8ccc5[nH]8)C=C7)C=C6)cc4)CC3=O)cc2)c1
REMARK SMILES IDX 19 1 20 2 21 3 18 5 16 6 17 7 77 8 76 9 78 10 15 11 12 12
REMARK SMILES IDX 13 13 80 14 14 15 79 16 11 17 10 18 8 19 7 20 9 22 6 23 1 24
REMARK SMILES IDX 2 25 3 26 81 27 4 28 5 29 22 30 23 31 24 32 25 33 26 34
REMARK SMILES IDX 27 36 28 37 29 38 75 39 30 40 74 41 31 42 32 43 33 44 68 45
REMARK SMILES IDX 34 46 73 47 67 48 69 49 35 50 72 51 66 52 65 53 36 55 58 56
REMARK SMILES IDX 43 57 57 58 44 59 47 60 56 61 70 62 45 63 46 64 55 66 71 67
REMARK SMILES IDX 48 68 37 69 38 70 42 71 39 72 41 73 40 74 59 75 60 76 64 77
REMARK SMILES IDX 61 78 63 79 62 80 49 81 50 82 54 83 51 84 53 85 52 86
REMARK H PARENT 21 4 7 21 25 35 69 54 47 65
REMARK Flexibility Score: inf
ROOT
ATOM      1  C   UNL A   1      35.411  21.288  25.418  1.00  0.00     0.225 C 
ATOM      2  O   UNL A   1      34.500  20.663  25.967  1.00  0.00    -0.275 OA
ATOM      3  N   UNL A   1      36.674  20.834  25.620  1.00  0.00    -0.356 N 
ATOM      4  H   UNL A   1      36.726  20.059  26.225  1.00  0.00     0.163 HD
ENDROOT
BRANCH   1   5
ATOM      5  C   UNL A   1      35.073  22.499  24.568  1.00  0.00     0.107 C 
ATOM      6  N   UNL A   1      33.625  24.306  25.029  1.00  0.00    -0.312 N 
ATOM      7  C   UNL A   1      34.933  23.786  25.352  1.00  0.00     0.139 C 
ATOM      8  C   UNL A   1      32.916  23.482  24.151  1.00  0.00     0.227 C 
ATOM      9  C   UNL A   1      33.820  22.353  23.728  1.00  0.00     0.116 C 
ATOM     10  O   UNL A   1      31.789  23.616  23.723  1.00  0.00    -0.274 OA
BRANCH   6  11
ATOM     11  C   UNL A   1      33.131  25.491  25.622  1.00  0.00     0.044 A 
ATOM     12  C   UNL A   1      32.182  27.835  26.868  1.00  0.00     0.120 A 
ATOM     13  C   UNL A   1      33.505  27.748  26.445  1.00  0.00     0.048 A 
ATOM     14  C   UNL A   1      31.322  26.766  26.639  1.00  0.00     0.048 A 
ATOM     15  C   UNL A   1      33.985  26.576  25.855  1.00  0.00     0.030 A 
ATOM     16  C   UNL A   1      31.790  25.610  26.002  1.00  0.00     0.030 A 
BRANCH  12  17
ATOM     17  O   UNL A   1      31.827  29.032  27.411  1.00  0.00    -0.484 OA
BRANCH  17  18
ATOM     18  C   UNL A   1      32.301  30.201  26.767  1.00  0.00     0.329 C 
BRANCH  18  19
ATOM     19  C   UNL A   1      31.367  31.012  25.871  1.00  0.00     0.262 C 
ATOM     20  N   UNL A   1      30.786  30.519  24.743  1.00  0.00    -0.323 N 
ATOM     21  H   UNL A   1      30.144  31.148  24.341  1.00  0.00     0.170 HD
ATOM     22  O   UNL A   1      31.093  32.181  26.177  1.00  0.00    -0.271 OA
BRANCH  20  23
ATOM     23  C   UNL A   1      30.893  29.320  24.019  1.00  0.00     0.041 A 
ATOM     24  C   UNL A   1      33.747  27.604  22.139  1.00  0.00     0.044 C 
ATOM     25  C   UNL A   1      32.393  27.887  22.717  1.00  0.00    -0.049 A 
ATOM     26  C   UNL A   1      31.351  26.977  22.530  1.00  0.00     0.003 A 
ATOM     27  C   UNL A   1      32.153  29.053  23.458  1.00  0.00     0.029 A 
ATOM     28  C   UNL A   1      30.103  27.223  23.096  1.00  0.00     0.002 A 
ATOM     29  C   UNL A   1      29.881  28.380  23.850  1.00  0.00     0.026 A 
ENDBRANCH  20  23
ENDBRANCH  18  19
ENDBRANCH  17  18
ENDBRANCH  12  17
ENDBRANCH   6  11
ENDBRANCH   1   5
BRANCH   3  30
ATOM     30  C   UNL A   1      37.968  21.273  25.114  1.00  0.00     0.117 C 
BRANCH  30  31
ATOM     31  C   UNL A   1      38.531  22.456  25.884  1.00  0.00     0.042 C 
BRANCH  31  32
ATOM     32  C   UNL A   1      39.748  22.120  26.727  1.00  0.00     0.118 C 
BRANCH  32  33
ATOM     33  N   UNL A   1      40.582  21.059  26.180  1.00  0.00    -0.352 N 
ATOM     34  C   UNL A   1      41.961  20.951  26.115  1.00  0.00     0.251 C 
ATOM     35  H   UNL A   1      40.088  20.300  25.796  1.00  0.00     0.163 HD
ATOM     36  O   UNL A   1      42.458  20.000  25.517  1.00  0.00    -0.269 OA
BRANCH  34  37
ATOM     37  C   UNL A   1      42.831  21.844  26.925  1.00  0.00     0.039 A 
ATOM     38  C   UNL A   1      42.593  21.848  28.308  1.00  0.00     0.014 A 
ATOM     39  C   UNL A   1      43.525  22.892  26.340  1.00  0.00     0.014 A 
ATOM     40  C   UNL A   1      42.705  23.039  29.006  1.00  0.00     0.010 A 
ATOM     41  C   UNL A   1      43.485  24.107  26.969  1.00  0.00     0.010 A 
ATOM     42  C   UNL A   1      42.998  24.179  28.273  1.00  0.00    -0.014 A 
BRANCH  42  43
ATOM     43  C   UNL A   1      42.831  25.526  28.760  1.00  0.00     0.031 A 
ATOM     44  C   UNL A   1      41.658  26.266  28.298  1.00  0.00     0.074 A 
ATOM     45  C   UNL A   1      43.639  25.939  29.758  1.00  0.00     0.049 A 
ATOM     46  N   UNL A   1      41.565  27.545  28.310  1.00  0.00    -0.248 NA
ATOM     47  C   UNL A   1      40.486  25.600  27.732  1.00  0.00     0.031 C 
ATOM     48  C   UNL A   1      43.494  27.077  30.655  1.00  0.00     0.029 A 
ATOM     49  N   UNL A   1      44.921  25.457  30.026  1.00  0.00    -0.354 N 
ATOM     50  C   UNL A   1      40.235  27.835  28.122  1.00  0.00     0.074 A 
ATOM     51  C   UNL A   1      39.633  26.621  27.632  1.00  0.00     0.031 C 
ATOM     52  C   UNL A   1      44.703  27.382  31.163  1.00  0.00     0.029 A 
ATOM     53  C   UNL A   1      45.680  26.559  30.466  1.00  0.00     0.049 A 
ATOM     54  H   UNL A   1      45.234  24.528  29.928  1.00  0.00     0.167 HD
ATOM     55  C   UNL A   1      39.759  29.017  28.598  1.00  0.00     0.031 A 
ATOM     56  C   UNL A   1      46.673  27.040  29.657  1.00  0.00     0.031 A 
ATOM     57  C   UNL A   1      40.841  29.811  29.186  1.00  0.00     0.049 A 
ATOM     58  C   UNL A   1      46.387  28.435  29.121  1.00  0.00     0.074 A 
ATOM     59  C   UNL A   1      41.258  30.031  30.489  1.00  0.00     0.029 A 
ATOM     60  N   UNL A   1      41.908  30.174  28.378  1.00  0.00    -0.354 N 
ATOM     61  N   UNL A   1      45.229  29.034  29.181  1.00  0.00    -0.248 NA
ATOM     62  C   UNL A   1      47.381  29.231  28.411  1.00  0.00     0.031 C 
ATOM     63  C   UNL A   1      42.599  30.514  30.449  1.00  0.00     0.029 A 
ATOM     64  C   UNL A   1      42.984  30.615  29.125  1.00  0.00     0.049 A 
ATOM     65  H   UNL A   1      41.899  30.126  27.395  1.00  0.00     0.167 HD
ATOM     66  C   UNL A   1      45.285  30.243  28.533  1.00  0.00     0.074 A 
ATOM     67  C   UNL A   1      46.657  30.306  28.051  1.00  0.00     0.031 C 
ATOM     68  C   UNL A   1      44.190  31.063  28.430  1.00  0.00     0.031 A 
BRANCH  55  69
ATOM     69  C   UNL A   1      38.294  29.293  28.801  1.00  0.00    -0.014 A 
ATOM     70  C   UNL A   1      37.486  29.557  27.682  1.00  0.00     0.009 A 
ATOM     71  C   UNL A   1      37.653  29.344  30.052  1.00  0.00     0.009 A 
ATOM     72  C   UNL A   1      36.139  29.918  27.805  1.00  0.00     0.001 A 
ATOM     73  C   UNL A   1      36.313  29.738  30.186  1.00  0.00     0.001 A 
ATOM     74  C   UNL A   1      35.557  30.029  29.060  1.00  0.00     0.000 A 
ENDBRANCH  55  69
BRANCH  56  75
ATOM     75  C   UNL A   1      47.352  25.947  28.882  1.00  0.00    -0.014 A 
ATOM     76  C   UNL A   1      46.928  25.713  27.553  1.00  0.00     0.009 A 
ATOM     77  C   UNL A   1      48.615  25.475  29.266  1.00  0.00     0.009 A 
ATOM     78  C   UNL A   1      47.810  25.197  26.597  1.00  0.00     0.001 A 
ATOM     79  C   UNL A   1      49.481  24.921  28.311  1.00  0.00     0.001 A 
ATOM     80  C   UNL A   1      49.100  24.835  26.971  1.00  0.00     0.000 A 
ENDBRANCH  56  75
BRANCH  68  81
ATOM     81  C   UNL A   1      44.092  32.358  27.638  1.00  0.00    -0.014 A 
ATOM     82  C   UNL A   1      44.309  32.481  26.264  1.00  0.00     0.009 A 
ATOM     83  C   UNL A   1      43.790  33.567  28.316  1.00  0.00     0.009 A 
ATOM     84  C   UNL A   1      44.126  33.702  25.595  1.00  0.00     0.001 A 
ATOM     85  C   UNL A   1      43.611  34.787  27.662  1.00  0.00     0.001 A 
ATOM     86  C   UNL A   1      43.760  34.850  26.290  1.00  0.00     0.000 A 
ENDBRANCH  68  81
ENDBRANCH  42  43
ENDBRANCH  34  37
ENDBRANCH  32  33
ENDBRANCH  31  32
ENDBRANCH  30  31
ENDBRANCH   3  30
TORSDOF 15
ENDMDL
MODEL 2
REMARK VINA RESULT:     -12.4      1.043      1.983
REMARK SMILES Cc1cccc(NC(=O)COc2ccc(N3C[C@@H](C(=O)NCCCNC(=O)c4ccc(-c5c6nc(c(-c7ccccc7)c7ccc([nH]7)c(-c7ccccc7)c7nc(c(-c8ccccc8)c8ccc5[nH]8)C=C7)C=C6)cc4)CC3=O)cc2)c1
REMARK SMILES IDX 19 1 20 2 21 3 18 5 16 6 17 7 77 8 76 9 78 10 15 11 12 12
REMARK SMILES IDX 13 13 80 14 14 15 79 16 11 17 10 18 8 19 7 20 9 22 6 23 1 24
REMARK SMILES IDX 2 25 3 26 81 27 4 28 5 29 22 30 23 31 24 32 25 33 26 34
REMARK SMILES IDX 27 36 28 37 29 38 75 39 30 40 74 41 31 42 32 43 33 44 68 45
REMARK SMILES IDX 34 46 73 47 67 48 69 49 35 50 72 51 66 52 65 53 36 55 58 56
REMARK SMILES IDX 43 57 57 58 44 59 47 60 56 61 70 62 45 63 46 64 55 66 71 67
REMARK SMILES IDX 48 68 37 69 38 70 42 71 39 72 41 73 40 74 59 75 60 76 64 77
REMARK SMILES IDX 61 78 63 79 62 80 49 81 50 82 54 83 51 84 53 85 52 86
REMARK H PARENT 21 4 7 21 25 35 69 54 47 65
REMARK Flexibility Score: inf
ROOT
ATOM      1  C   UNL A   1      35.524  21.934  25.838  1.00  0.00     0.225 C 
ATOM      2  O   UNL A   1      34.665  21.846  26.719  1.00  0.00    -0.275 OA
ATOM      3  N   UNL A   1      36.820  21.857  26.235  1.00  0.00    -0.356 N 
ATOM      4  H   UNL A   1      36.933  21.772  27.210  1.00  0.00     0.163 HD
ENDROOT
BRANCH   1   5
ATOM      5  C   UNL A   1      35.091  22.118  24.395  1.00  0.00     0.107 C 
ATOM      6  N   UNL A   1      33.414  23.513  23.492  1.00  0.00    -0.312 N 
ATOM      7  C   UNL A   1      34.755  23.547  24.027  1.00  0.00     0.139 C 
ATOM      8  C   UNL A   1      32.858  22.231  23.505  1.00  0.00     0.227 C 
ATOM      9  C   UNL A   1      33.912  21.263  23.974  1.00  0.00     0.116 C 
ATOM     10  O   UNL A   1      31.748  21.880  23.164  1.00  0.00    -0.274 OA
BRANCH   6  11
ATOM     11  C   UNL A   1      32.750  24.692  23.081  1.00  0.00     0.044 A 
ATOM     12  C   UNL A   1      31.403  27.007  22.201  1.00  0.00     0.120 A 
ATOM     13  C   UNL A   1      30.687  25.919  22.692  1.00  0.00     0.048 A 
ATOM     14  C   UNL A   1      32.792  26.954  22.180  1.00  0.00     0.048 A 
ATOM     15  C   UNL A   1      31.351  24.760  23.101  1.00  0.00     0.030 A 
ATOM     16  C   UNL A   1      33.461  25.811  22.637  1.00  0.00     0.030 A 
BRANCH  12  17
ATOM     17  O   UNL A   1      30.648  28.085  21.853  1.00  0.00    -0.484 OA
BRANCH  17  18
ATOM     18  C   UNL A   1      29.645  28.495  22.764  1.00  0.00     0.329 C 
BRANCH  18  19
ATOM     19  C   UNL A   1      29.837  29.764  23.592  1.00  0.00     0.262 C 
ATOM     20  N   UNL A   1      30.833  29.927  24.505  1.00  0.00    -0.323 N 
ATOM     21  H   UNL A   1      30.862  30.839  24.876  1.00  0.00     0.170 HD
ATOM     22  O   UNL A   1      29.067  30.721  23.427  1.00  0.00    -0.271 OA
BRANCH  20  23
ATOM     23  C   UNL A   1      31.829  29.094  25.039  1.00  0.00     0.041 A 
ATOM     24  C   UNL A   1      31.803  25.619  26.637  1.00  0.00     0.044 C 
ATOM     25  C   UNL A   1      32.283  26.938  26.110  1.00  0.00    -0.049 A 
ATOM     26  C   UNL A   1      33.642  27.255  26.159  1.00  0.00     0.003 A 
ATOM     27  C   UNL A   1      31.389  27.863  25.552  1.00  0.00     0.029 A 
ATOM     28  C   UNL A   1      34.093  28.465  25.639  1.00  0.00     0.002 A 
ATOM     29  C   UNL A   1      33.193  29.371  25.067  1.00  0.00     0.026 A 
ENDBRANCH  20  23
ENDBRANCH  18  19
ENDBRANCH  17  18
ENDBRANCH  12  17
ENDBRANCH   6  11
ENDBRANCH   1   5
BRANCH   3  30
ATOM     30  C   UNL A   1      38.076  21.876  25.497  1.00  0.00     0.117 C 
BRANCH  30  31
ATOM     31  C   UNL A   1      39.166  22.661  26.208  1.00  0.00     0.042 C 
BRANCH  31  32
ATOM     32  C   UNL A   1      40.087  21.806  27.058  1.00  0.00     0.118 C 
BRANCH  32  33
ATOM     33  N   UNL A   1      41.001  20.967  26.295  1.00  0.00    -0.352 N 
ATOM     34  C   UNL A   1      42.370  21.070  26.117  1.00  0.00     0.251 C 
ATOM     35  H   UNL A   1      40.579  20.207  25.834  1.00  0.00     0.163 HD
ATOM     36  O   UNL A   1      42.932  20.298  25.344  1.00  0.00    -0.269 OA
BRANCH  34  37
ATOM     37  C   UNL A   1      43.185  21.953  26.992  1.00  0.00     0.039 A 
ATOM     38  C   UNL A   1      42.830  21.972  28.350  1.00  0.00     0.014 A 
ATOM     39  C   UNL A   1      43.945  22.985  26.462  1.00  0.00     0.014 A 
ATOM     40  C   UNL A   1      42.905  23.166  29.048  1.00  0.00     0.010 A 
ATOM     41  C   UNL A   1      43.875  24.205  27.078  1.00  0.00     0.010 A 
ATOM     42  C   UNL A   1      43.280  24.295  28.336  1.00  0.00    -0.014 A 
BRANCH  42  43
ATOM     43  C   UNL A   1      43.097  25.649  28.799  1.00  0.00     0.031 A 
ATOM     44  C   UNL A   1      41.905  26.359  28.342  1.00  0.00     0.074 A 
ATOM     45  C   UNL A   1      43.914  26.095  29.775  1.00  0.00     0.049 A 
ATOM     46  N   UNL A   1      41.790  27.636  28.329  1.00  0.00    -0.248 NA
ATOM     47  C   UNL A   1      40.736  25.662  27.808  1.00  0.00     0.031 C 
ATOM     48  C   UNL A   1      43.763  27.248  30.652  1.00  0.00     0.029 A 
ATOM     49  N   UNL A   1      45.208  25.640  30.032  1.00  0.00    -0.354 N 
ATOM     50  C   UNL A   1      40.453  27.900  28.157  1.00  0.00     0.074 A 
ATOM     51  C   UNL A   1      39.863  26.666  27.701  1.00  0.00     0.031 C 
ATOM     52  C   UNL A   1      44.975  27.583  31.135  1.00  0.00     0.029 A 
ATOM     53  C   UNL A   1      45.954  26.763  30.438  1.00  0.00     0.049 A 
ATOM     54  H   UNL A   1      45.535  24.715  29.947  1.00  0.00     0.167 HD
ATOM     55  C   UNL A   1      39.964  29.083  28.618  1.00  0.00     0.031 A 
ATOM     56  C   UNL A   1      46.926  27.245  29.604  1.00  0.00     0.031 A 
ATOM     57  C   UNL A   1      41.040  29.906  29.172  1.00  0.00     0.049 A 
ATOM     58  C   UNL A   1      46.608  28.624  29.045  1.00  0.00     0.074 A 
ATOM     59  C   UNL A   1      41.474  30.160  30.464  1.00  0.00     0.029 A 
ATOM     60  N   UNL A   1      42.088  30.272  28.341  1.00  0.00    -0.354 N 
ATOM     61  N   UNL A   1      45.440  29.204  29.112  1.00  0.00    -0.248 NA
ATOM     62  C   UNL A   1      47.577  29.423  28.304  1.00  0.00     0.031 C 
ATOM     63  C   UNL A   1      42.806  30.664  30.393  1.00  0.00     0.029 A 
ATOM     64  C   UNL A   1      43.168  30.746  29.062  1.00  0.00     0.049 A 
ATOM     65  H   UNL A   1      42.065  30.204  27.359  1.00  0.00     0.167 HD
ATOM     66  C   UNL A   1      45.466  30.401  28.440  1.00  0.00     0.074 A 
ATOM     67  C   UNL A   1      46.828  30.478  27.934  1.00  0.00     0.031 C 
ATOM     68  C   UNL A   1      44.355  31.200  28.338  1.00  0.00     0.031 A 
BRANCH  55  69
ATOM     69  C   UNL A   1      38.497  29.338  28.839  1.00  0.00    -0.014 A 
ATOM     70  C   UNL A   1      37.704  29.757  27.757  1.00  0.00     0.009 A 
ATOM     71  C   UNL A   1      37.840  29.221  30.077  1.00  0.00     0.009 A 
ATOM     72  C   UNL A   1      36.358  30.107  27.911  1.00  0.00     0.001 A 
ATOM     73  C   UNL A   1      36.501  29.602  30.248  1.00  0.00     0.001 A 
ATOM     74  C   UNL A   1      35.761  30.049  29.163  1.00  0.00     0.000 A 
ENDBRANCH  55  69
BRANCH  56  75
ATOM     75  C   UNL A   1      47.611  26.148  28.840  1.00  0.00    -0.014 A 
ATOM     76  C   UNL A   1      47.270  25.974  27.478  1.00  0.00     0.009 A 
ATOM     77  C   UNL A   1      48.826  25.613  29.291  1.00  0.00     0.009 A 
ATOM     78  C   UNL A   1      48.193  25.450  26.567  1.00  0.00     0.001 A 
ATOM     79  C   UNL A   1      49.732  25.051  28.377  1.00  0.00     0.001 A 
ATOM     80  C   UNL A   1      49.439  25.023  27.013  1.00  0.00     0.000 A 
ENDBRANCH  56  75
BRANCH  68  81
ATOM     81  C   UNL A   1      44.222  32.478  27.523  1.00  0.00    -0.014 A 
ATOM     82  C   UNL A   1      44.442  32.582  26.147  1.00  0.00     0.009 A 
ATOM     83  C   UNL A   1      43.881  33.689  28.178  1.00  0.00     0.009 A 
ATOM     84  C   UNL A   1      44.225  33.785  25.456  1.00  0.00     0.001 A 
ATOM     85  C   UNL A   1      43.669  34.890  27.501  1.00  0.00     0.001 A 
ATOM     86  C   UNL A   1      43.822  34.934  26.129  1.00  0.00     0.000 A 
ENDBRANCH  68  81
ENDBRANCH  42  43
ENDBRANCH  34  37
ENDBRANCH  32  33
ENDBRANCH  31  32
ENDBRANCH  30  31
ENDBRANCH   3  30
TORSDOF 15
ENDMDL
MODEL 3
REMARK VINA RESULT:     -12.0      3.272     10.059
REMARK SMILES Cc1cccc(NC(=O)COc2ccc(N3C[C@@H](C(=O)NCCCNC(=O)c4ccc(-c5c6nc(c(-c7ccccc7)c7ccc([nH]7)c(-c7ccccc7)c7nc(c(-c8ccccc8)c8ccc5[nH]8)C=C7)C=C6)cc4)CC3=O)cc2)c1
REMARK SMILES IDX 19 1 20 2 21 3 18 5 16 6 17 7 77 8 76 9 78 10 15 11 12 12
REMARK SMILES IDX 13 13 80 14 14 15 79 16 11 17 10 18 8 19 7 20 9 22 6 23 1 24
REMARK SMILES IDX 2 25 3 26 81 27 4 28 5 29 22 30 23 31 24 32 25 33 26 34
REMARK SMILES IDX 27 36 28 37 29 38 75 39 30 40 74 41 31 42 32 43 33 44 68 45
REMARK SMILES IDX 34 46 73 47 67 48 69 49 35 50 72 51 66 52 65 53 36 55 58 56
REMARK SMILES IDX 43 57 57 58 44 59 47 60 56 61 70 62 45 63 46 64 55 66 71 67
REMARK SMILES IDX 48 68 37 69 38 70 42 71 39 72 41 73 40 74 59 75 60 76 64 77
REMARK SMILES IDX 61 78 63 79 62 80 49 81 50 82 54 83 51 84 53 85 52 86
REMARK H PARENT 21 4 7 21 25 35 69 54 47 65
REMARK Flexibility Score: inf
ROOT
ATOM      1  C   UNL A   1      33.683  27.443  24.325  1.00  0.00     0.225 C 
ATOM      2  O   UNL A   1      33.488  27.685  23.131  1.00  0.00    -0.275 OA
ATOM      3  N   UNL A   1      34.081  28.481  25.104  1.00  0.00    -0.356 N 
ATOM      4  H   UNL A   1      34.207  29.323  24.610  1.00  0.00     0.163 HD
ENDROOT
BRANCH   1   5
ATOM      5  C   UNL A   1      33.468  26.032  24.840  1.00  0.00     0.107 C 
ATOM      6  N   UNL A   1      34.903  24.160  24.747  1.00  0.00    -0.312 N 
ATOM      7  C   UNL A   1      34.701  25.403  25.454  1.00  0.00     0.139 C 
ATOM      8  C   UNL A   1      33.955  23.945  23.743  1.00  0.00     0.227 C 
ATOM      9  C   UNL A   1      32.937  25.054  23.811  1.00  0.00     0.116 C 
ATOM     10  O   UNL A   1      33.874  23.027  22.956  1.00  0.00    -0.274 OA
BRANCH   6  11
ATOM     11  C   UNL A   1      36.005  23.318  25.029  1.00  0.00     0.044 A 
ATOM     12  C   UNL A   1      38.234  21.667  25.530  1.00  0.00     0.120 A 
ATOM     13  C   UNL A   1      38.300  23.035  25.778  1.00  0.00     0.048 A 
ATOM     14  C   UNL A   1      37.045  21.116  25.065  1.00  0.00     0.048 A 
ATOM     15  C   UNL A   1      37.207  23.859  25.502  1.00  0.00     0.030 A 
ATOM     16  C   UNL A   1      35.932  21.935  24.836  1.00  0.00     0.030 A 
BRANCH  12  17
ATOM     17  O   UNL A   1      39.355  20.966  25.857  1.00  0.00    -0.484 OA
BRANCH  17  18
ATOM     18  C   UNL A   1      40.397  21.675  26.503  1.00  0.00     0.329 C 
BRANCH  18  19
ATOM     19  C   UNL A   1      41.210  21.002  27.606  1.00  0.00     0.262 C 
ATOM     20  N   UNL A   1      42.290  21.574  28.204  1.00  0.00    -0.323 N 
ATOM     21  H   UNL A   1      42.635  21.040  28.956  1.00  0.00     0.170 HD
ATOM     22  O   UNL A   1      40.874  19.880  28.011  1.00  0.00    -0.271 OA
BRANCH  20  23
ATOM     23  C   UNL A   1      43.028  22.751  27.993  1.00  0.00     0.041 A 
ATOM     24  C   UNL A   1      43.665  25.891  30.083  1.00  0.00     0.044 C 
ATOM     25  C   UNL A   1      43.693  24.904  28.953  1.00  0.00    -0.049 A 
ATOM     26  C   UNL A   1      44.431  25.183  27.802  1.00  0.00     0.003 A 
ATOM     27  C   UNL A   1      42.995  23.691  29.037  1.00  0.00     0.029 A 
ATOM     28  C   UNL A   1      44.485  24.252  26.769  1.00  0.00     0.002 A 
ATOM     29  C   UNL A   1      43.801  23.036  26.872  1.00  0.00     0.026 A 
ENDBRANCH  20  23
ENDBRANCH  18  19
ENDBRANCH  17  18
ENDBRANCH  12  17
ENDBRANCH   6  11
ENDBRANCH   1   5
BRANCH   3  30
ATOM     30  C   UNL A   1      34.358  28.588  26.530  1.00  0.00     0.117 C 
BRANCH  30  31
ATOM     31  C   UNL A   1      33.484  29.620  27.224  1.00  0.00     0.042 C 
BRANCH  31  32
ATOM     32  C   UNL A   1      34.222  30.885  27.622  1.00  0.00     0.118 C 
BRANCH  32  33
ATOM     33  N   UNL A   1      33.416  32.097  27.556  1.00  0.00    -0.352 N 
ATOM     34  C   UNL A   1      33.437  33.228  28.352  1.00  0.00     0.251 C 
ATOM     35  H   UNL A   1      32.752  32.113  26.830  1.00  0.00     0.163 HD
ATOM     36  O   UNL A   1      32.592  34.102  28.173  1.00  0.00    -0.269 OA
BRANCH  34  37
ATOM     37  C   UNL A   1      34.579  33.489  29.269  1.00  0.00     0.039 A 
ATOM     38  C   UNL A   1      35.632  34.250  28.741  1.00  0.00     0.014 A 
ATOM     39  C   UNL A   1      34.788  32.707  30.395  1.00  0.00     0.014 A 
ATOM     40  C   UNL A   1      36.933  33.934  29.094  1.00  0.00     0.010 A 
ATOM     41  C   UNL A   1      36.062  32.270  30.634  1.00  0.00     0.010 A 
ATOM     42  C   UNL A   1      37.118  32.835  29.920  1.00  0.00    -0.014 A 
BRANCH  42  43
ATOM     43  C   UNL A   1      38.381  32.169  30.120  1.00  0.00     0.031 A 
ATOM     44  C   UNL A   1      38.562  30.867  29.482  1.00  0.00     0.074 A 
ATOM     45  C   UNL A   1      39.376  32.871  30.700  1.00  0.00     0.049 A 
ATOM     46  N   UNL A   1      39.423  29.995  29.860  1.00  0.00    -0.248 NA
ATOM     47  C   UNL A   1      37.732  30.421  28.363  1.00  0.00     0.031 C 
ATOM     48  C   UNL A   1      40.807  32.598  30.727  1.00  0.00     0.029 A 
ATOM     49  N   UNL A   1      39.218  33.939  31.584  1.00  0.00    -0.354 N 
ATOM     50  C   UNL A   1      39.515  29.078  28.840  1.00  0.00     0.074 A 
ATOM     51  C   UNL A   1      38.361  29.300  28.006  1.00  0.00     0.031 C 
ATOM     52  C   UNL A   1      41.353  33.262  31.763  1.00  0.00     0.029 A 
ATOM     53  C   UNL A   1      40.256  33.832  32.530  1.00  0.00     0.049 A 
ATOM     54  H   UNL A   1      38.519  34.631  31.553  1.00  0.00     0.167 HD
ATOM     55  C   UNL A   1      40.670  28.372  28.710  1.00  0.00     0.031 A 
ATOM     56  C   UNL A   1      39.942  33.491  33.818  1.00  0.00     0.031 A 
ATOM     57  C   UNL A   1      41.604  28.704  29.788  1.00  0.00     0.049 A 
ATOM     58  C   UNL A   1      40.476  32.126  34.225  1.00  0.00     0.074 A 
ATOM     59  C   UNL A   1      42.712  29.535  29.864  1.00  0.00     0.029 A 
ATOM     60  N   UNL A   1      41.211  28.476  31.098  1.00  0.00    -0.354 N 
ATOM     61  N   UNL A   1      40.953  31.236  33.398  1.00  0.00    -0.248 NA
ATOM     62  C   UNL A   1      40.446  31.640  35.598  1.00  0.00     0.031 C 
ATOM     63  C   UNL A   1      42.962  29.815  31.239  1.00  0.00     0.029 A 
ATOM     64  C   UNL A   1      42.030  29.132  31.998  1.00  0.00     0.049 A 
ATOM     65  H   UNL A   1      40.444  27.914  31.355  1.00  0.00     0.167 HD
ATOM     66  C   UNL A   1      41.271  30.083  34.072  1.00  0.00     0.074 A 
ATOM     67  C   UNL A   1      40.912  30.386  35.450  1.00  0.00     0.031 C 
ATOM     68  C   UNL A   1      41.771  28.980  33.429  1.00  0.00     0.031 A 
BRANCH  55  69
ATOM     69  C   UNL A   1      41.049  27.637  27.453  1.00  0.00    -0.014 A 
ATOM     70  C   UNL A   1      40.653  26.297  27.298  1.00  0.00     0.009 A 
ATOM     71  C   UNL A   1      41.815  28.180  26.406  1.00  0.00     0.009 A 
ATOM     72  C   UNL A   1      41.054  25.524  26.202  1.00  0.00     0.001 A 
ATOM     73  C   UNL A   1      42.249  27.403  25.321  1.00  0.00     0.001 A 
ATOM     74  C   UNL A   1      41.870  26.072  25.222  1.00  0.00     0.000 A 
ENDBRANCH  55  69
BRANCH  56  75
ATOM     75  C   UNL A   1      38.617  34.055  34.245  1.00  0.00    -0.014 A 
ATOM     76  C   UNL A   1      37.753  34.555  33.242  1.00  0.00     0.009 A 
ATOM     77  C   UNL A   1      38.061  33.715  35.487  1.00  0.00     0.009 A 
ATOM     78  C   UNL A   1      36.365  34.537  33.415  1.00  0.00     0.001 A 
ATOM     79  C   UNL A   1      36.670  33.738  35.667  1.00  0.00     0.001 A 
ATOM     80  C   UNL A   1      35.823  34.093  34.616  1.00  0.00     0.000 A 
ENDBRANCH  56  75
BRANCH  68  81
ATOM     81  C   UNL A   1      42.043  27.613  34.039  1.00  0.00    -0.014 A 
ATOM     82  C   UNL A   1      41.189  26.937  34.913  1.00  0.00     0.009 A 
ATOM     83  C   UNL A   1      43.265  26.952  33.750  1.00  0.00     0.009 A 
ATOM     84  C   UNL A   1      41.482  25.643  35.375  1.00  0.00     0.001 A 
ATOM     85  C   UNL A   1      43.567  25.669  34.207  1.00  0.00     0.001 A 
ATOM     86  C   UNL A   1      42.660  25.003  35.008  1.00  0.00     0.000 A 
ENDBRANCH  68  81
ENDBRANCH  42  43
ENDBRANCH  34  37
ENDBRANCH  32  33
ENDBRANCH  31  32
ENDBRANCH  30  31
ENDBRANCH   3  30
TORSDOF 15
ENDMDL
