MODEL 1
REMARK VINA RESULT:     -10.0      0.000      0.000
REMARK SMILES COCCN(CC(=O)NCCCNC(=O)c1ccc(-c2c3nc(c(-c4ccccc4)c4ccc([nH]4)c(-c4ccccc4)c4nc(c(-c5ccccc5)c5ccc2[nH]5)C=C4)C=C3)cc1)C(=O)c1cccc(N)c1
REMARK SMILES IDX 10 1 9 2 7 3 8 4 6 6 5 7 4 8 3 9 2 10 1 11 64 12 65 13 66 14
REMARK SMILES IDX 67 15 72 16 68 17 70 18 69 19 71 20 11 23 12 24 13 25 14 26
REMARK SMILES IDX 15 28 16 29 17 30 63 31 18 32 62 33 19 34 20 35 21 36 56 37
REMARK SMILES IDX 22 38 61 39 55 40 57 41 23 42 60 43 54 44 53 45 24 47 46 48
REMARK SMILES IDX 31 49 45 50 32 51 35 52 44 53 58 54 33 55 34 56 43 58 59 59
REMARK SMILES IDX 36 60 25 61 26 62 30 63 27 64 29 65 28 66 47 67 48 68 52 69
REMARK SMILES IDX 49 70 51 71 50 72 37 73 38 74 42 75 39 76 41 77 40 78
REMARK H PARENT 9 5 71 21 71 22 13 27 57 46 35 57
REMARK Flexibility Score: inf
ROOT
ATOM      1  C   UNL A   1      31.345  27.515  26.369  1.00  0.00     0.117 C 
ENDROOT
BRANCH   1   2
ATOM      2  N   UNL A   1      30.945  26.132  26.532  1.00  0.00    -0.354 N 
ATOM      3  C   UNL A   1      31.699  25.002  26.644  1.00  0.00     0.239 C 
ATOM      4  O   UNL A   1      31.144  24.022  27.152  1.00  0.00    -0.273 OA
ATOM      5  H   UNL A   1      29.972  25.986  26.568  1.00  0.00     0.163 HD
BRANCH   3   6
ATOM      6  C   UNL A   1      33.200  24.950  26.294  1.00  0.00     0.219 C 
BRANCH   6   7
ATOM      7  N   UNL A   1      33.550  24.733  24.884  1.00  0.00    -0.327 N 
BRANCH   7   8
ATOM      8  C   UNL A   1      34.101  25.876  24.132  1.00  0.00     0.149 C 
BRANCH   8   9
ATOM      9  C   UNL A   1      33.202  26.391  22.996  1.00  0.00     0.181 C 
BRANCH   9  10
ATOM     10  O   UNL A   1      33.698  25.996  21.720  1.00  0.00    -0.383 OA
ATOM     11  C   UNL A   1      32.687  25.536  20.840  1.00  0.00     0.194 C 
ENDBRANCH   9  10
ENDBRANCH   8   9
ENDBRANCH   7   8
BRANCH   7  12
ATOM     12  C   UNL A   1      33.586  23.473  24.268  1.00  0.00     0.254 C 
ATOM     13  O   UNL A   1      32.755  23.099  23.448  1.00  0.00    -0.269 OA
BRANCH  12  14
ATOM     14  C   UNL A   1      34.711  22.549  24.541  1.00  0.00     0.042 A 
ATOM     15  C   UNL A   1      34.425  21.186  24.662  1.00  0.00     0.014 A 
ATOM     16  C   UNL A   1      36.010  23.014  24.755  1.00  0.00     0.039 A 
ATOM     17  C   UNL A   1      35.451  20.286  24.939  1.00  0.00     0.003 A 
ATOM     18  C   UNL A   1      37.056  22.110  24.958  1.00  0.00     0.032 A 
ATOM     19  C   UNL A   1      36.759  20.750  25.087  1.00  0.00     0.025 A 
BRANCH  18  20
ATOM     20  N   UNL A   1      38.348  22.571  25.177  1.00  0.00    -0.399 N 
ATOM     21  H   UNL A   1      38.720  22.578  26.088  1.00  0.00     0.156 HD
ATOM     22  H   UNL A   1      38.891  22.892  24.421  1.00  0.00     0.156 HD
ENDBRANCH  18  20
ENDBRANCH  12  14
ENDBRANCH   7  12
ENDBRANCH   6   7
ENDBRANCH   3   6
ENDBRANCH   1   2
BRANCH   1  23
ATOM     23  C   UNL A   1      32.024  28.132  27.587  1.00  0.00     0.042 C 
BRANCH  23  24
ATOM     24  C   UNL A   1      33.419  28.697  27.335  1.00  0.00     0.118 C 
BRANCH  24  25
ATOM     25  N   UNL A   1      33.514  30.121  27.622  1.00  0.00    -0.352 N 
ATOM     26  C   UNL A   1      34.511  30.866  28.198  1.00  0.00     0.251 C 
ATOM     27  H   UNL A   1      32.721  30.641  27.357  1.00  0.00     0.163 HD
ATOM     28  O   UNL A   1      34.274  32.032  28.509  1.00  0.00    -0.269 OA
BRANCH  26  29
ATOM     29  C   UNL A   1      35.856  30.304  28.466  1.00  0.00     0.039 A 
ATOM     30  C   UNL A   1      36.794  30.301  27.426  1.00  0.00     0.014 A 
ATOM     31  C   UNL A   1      36.188  29.718  29.690  1.00  0.00     0.014 A 
ATOM     32  C   UNL A   1      38.072  29.772  27.631  1.00  0.00     0.010 A 
ATOM     33  C   UNL A   1      37.484  29.249  29.915  1.00  0.00     0.010 A 
ATOM     34  C   UNL A   1      38.440  29.272  28.889  1.00  0.00    -0.014 A 
BRANCH  34  35
ATOM     35  C   UNL A   1      39.824  28.793  29.153  1.00  0.00     0.031 A 
ATOM     36  C   UNL A   1      40.855  29.712  29.751  1.00  0.00     0.074 A 
ATOM     37  C   UNL A   1      40.173  27.543  28.789  1.00  0.00     0.049 A 
ATOM     38  N   UNL A   1      42.124  29.487  29.984  1.00  0.00    -0.248 NA
ATOM     39  C   UNL A   1      40.410  31.066  30.118  1.00  0.00     0.031 C 
ATOM     40  C   UNL A   1      39.283  26.562  28.163  1.00  0.00     0.029 A 
ATOM     41  N   UNL A   1      41.376  26.887  28.880  1.00  0.00    -0.354 N 
ATOM     42  C   UNL A   1      42.634  30.674  30.497  1.00  0.00     0.074 A 
ATOM     43  C   UNL A   1      41.544  31.626  30.519  1.00  0.00     0.031 C 
ATOM     44  C   UNL A   1      39.967  25.428  27.938  1.00  0.00     0.029 A 
ATOM     45  C   UNL A   1      41.351  25.613  28.365  1.00  0.00     0.049 A 
ATOM     46  H   UNL A   1      42.182  27.293  29.276  1.00  0.00     0.167 HD
ATOM     47  C   UNL A   1      43.891  30.943  30.920  1.00  0.00     0.031 A 
ATOM     48  C   UNL A   1      42.332  24.700  28.235  1.00  0.00     0.031 A 
ATOM     49  C   UNL A   1      44.972  29.993  30.927  1.00  0.00     0.049 A 
ATOM     50  C   UNL A   1      43.717  25.031  28.714  1.00  0.00     0.074 A 
ATOM     51  C   UNL A   1      46.257  30.155  31.416  1.00  0.00     0.029 A 
ATOM     52  N   UNL A   1      44.896  28.707  30.418  1.00  0.00    -0.354 N 
ATOM     53  N   UNL A   1      44.157  26.129  29.278  1.00  0.00    -0.248 NA
ATOM     54  C   UNL A   1      44.741  23.988  28.547  1.00  0.00     0.031 C 
ATOM     55  C   UNL A   1      46.974  28.983  31.159  1.00  0.00     0.029 A 
ATOM     56  C   UNL A   1      46.121  28.075  30.554  1.00  0.00     0.049 A 
ATOM     57  H   UNL A   1      44.092  28.303  30.019  1.00  0.00     0.167 HD
ATOM     58  C   UNL A   1      45.498  25.899  29.555  1.00  0.00     0.074 A 
ATOM     59  C   UNL A   1      45.795  24.553  29.116  1.00  0.00     0.031 C 
ATOM     60  C   UNL A   1      46.403  26.734  30.122  1.00  0.00     0.031 A 
BRANCH  47  61
ATOM     61  C   UNL A   1      44.184  32.333  31.413  1.00  0.00    -0.014 A 
ATOM     62  C   UNL A   1      44.052  32.666  32.769  1.00  0.00     0.009 A 
ATOM     63  C   UNL A   1      44.678  33.296  30.520  1.00  0.00     0.009 A 
ATOM     64  C   UNL A   1      44.391  33.944  33.219  1.00  0.00     0.001 A 
ATOM     65  C   UNL A   1      45.039  34.566  30.976  1.00  0.00     0.001 A 
ATOM     66  C   UNL A   1      44.890  34.891  32.323  1.00  0.00     0.000 A 
ENDBRANCH  47  61
BRANCH  48  67
ATOM     67  C   UNL A   1      42.049  23.379  27.617  1.00  0.00    -0.014 A 
ATOM     68  C   UNL A   1      42.323  23.154  26.259  1.00  0.00     0.009 A 
ATOM     69  C   UNL A   1      41.469  22.347  28.373  1.00  0.00     0.009 A 
ATOM     70  C   UNL A   1      41.988  21.936  25.663  1.00  0.00     0.001 A 
ATOM     71  C   UNL A   1      41.164  21.121  27.781  1.00  0.00     0.001 A 
ATOM     72  C   UNL A   1      41.412  20.920  26.424  1.00  0.00     0.000 A 
ENDBRANCH  48  67
BRANCH  60  73
ATOM     73  C   UNL A   1      47.790  26.199  30.334  1.00  0.00    -0.014 A 
ATOM     74  C   UNL A   1      48.731  26.185  29.293  1.00  0.00     0.009 A 
ATOM     75  C   UNL A   1      48.171  25.736  31.603  1.00  0.00     0.009 A 
ATOM     76  C   UNL A   1      50.017  25.687  29.512  1.00  0.00     0.001 A 
ATOM     77  C   UNL A   1      49.465  25.265  31.826  1.00  0.00     0.001 A 
ATOM     78  C   UNL A   1      50.383  25.232  30.778  1.00  0.00     0.000 A 
ENDBRANCH  60  73
ENDBRANCH  34  35
ENDBRANCH  26  29
ENDBRANCH  24  25
ENDBRANCH  23  24
ENDBRANCH   1  23
TORSDOF 17
ENDMDL
MODEL 2
REMARK VINA RESULT:     -10.0      2.085      7.419
REMARK SMILES COCCN(CC(=O)NCCCNC(=O)c1ccc(-c2c3nc(c(-c4ccccc4)c4ccc([nH]4)c(-c4ccccc4)c4nc(c(-c5ccccc5)c5ccc2[nH]5)C=C4)C=C3)cc1)C(=O)c1cccc(N)c1
REMARK SMILES IDX 10 1 9 2 7 3 8 4 6 6 5 7 4 8 3 9 2 10 1 11 64 12 65 13 66 14
REMARK SMILES IDX 67 15 72 16 68 17 70 18 69 19 71 20 11 23 12 24 13 25 14 26
REMARK SMILES IDX 15 28 16 29 17 30 63 31 18 32 62 33 19 34 20 35 21 36 56 37
REMARK SMILES IDX 22 38 61 39 55 40 57 41 23 42 60 43 54 44 53 45 24 47 46 48
REMARK SMILES IDX 31 49 45 50 32 51 35 52 44 53 58 54 33 55 34 56 43 58 59 59
REMARK SMILES IDX 36 60 25 61 26 62 30 63 27 64 29 65 28 66 47 67 48 68 52 69
REMARK SMILES IDX 49 70 51 71 50 72 37 73 38 74 42 75 39 76 41 77 40 78
REMARK H PARENT 9 5 71 21 71 22 13 27 57 46 35 57
REMARK Flexibility Score: inf
ROOT
ATOM      1  C   UNL A   1      36.561  20.406  24.935  1.00  0.00     0.117 C 
ENDROOT
BRANCH   1   2
ATOM      2  N   UNL A   1      36.671  21.752  25.459  1.00  0.00    -0.354 N 
ATOM      3  C   UNL A   1      35.882  22.846  25.257  1.00  0.00     0.239 C 
ATOM      4  O   UNL A   1      35.964  23.743  26.103  1.00  0.00    -0.273 OA
ATOM      5  H   UNL A   1      37.438  21.901  26.057  1.00  0.00     0.163 HD
BRANCH   3   6
ATOM      6  C   UNL A   1      34.837  22.936  24.127  1.00  0.00     0.219 C 
BRANCH   6   7
ATOM      7  N   UNL A   1      33.422  22.902  24.521  1.00  0.00    -0.327 N 
BRANCH   7   8
ATOM      8  C   UNL A   1      32.963  23.892  25.511  1.00  0.00     0.149 C 
BRANCH   8   9
ATOM      9  C   UNL A   1      32.573  23.301  26.877  1.00  0.00     0.181 C 
BRANCH   9  10
ATOM     10  O   UNL A   1      31.280  23.741  27.284  1.00  0.00    -0.383 OA
ATOM     11  C   UNL A   1      30.224  22.988  26.712  1.00  0.00     0.194 C 
ENDBRANCH   9  10
ENDBRANCH   8   9
ENDBRANCH   7   8
BRANCH   7  12
ATOM     12  C   UNL A   1      32.445  22.130  23.873  1.00  0.00     0.254 C 
ATOM     13  O   UNL A   1      31.574  22.609  23.155  1.00  0.00    -0.269 OA
BRANCH  12  14
ATOM     14  C   UNL A   1      32.479  20.653  23.980  1.00  0.00     0.042 A 
ATOM     15  C   UNL A   1      32.269  19.907  22.816  1.00  0.00     0.014 A 
ATOM     16  C   UNL A   1      32.633  20.007  25.207  1.00  0.00     0.039 A 
ATOM     17  C   UNL A   1      32.273  18.515  22.877  1.00  0.00     0.003 A 
ATOM     18  C   UNL A   1      32.713  18.614  25.265  1.00  0.00     0.032 A 
ATOM     19  C   UNL A   1      32.493  17.876  24.098  1.00  0.00     0.025 A 
BRANCH  18  20
ATOM     20  N   UNL A   1      32.859  17.969  26.486  1.00  0.00    -0.399 N 
ATOM     21  H   UNL A   1      32.091  17.507  26.894  1.00  0.00     0.156 HD
ATOM     22  H   UNL A   1      33.731  17.975  26.945  1.00  0.00     0.156 HD
ENDBRANCH  18  20
ENDBRANCH  12  14
ENDBRANCH   7  12
ENDBRANCH   6   7
ENDBRANCH   3   6
ENDBRANCH   1   2
BRANCH   1  23
ATOM     23  C   UNL A   1      37.879  19.643  24.852  1.00  0.00     0.042 C 
BRANCH  23  24
ATOM     24  C   UNL A   1      38.879  19.953  25.962  1.00  0.00     0.118 C 
BRANCH  24  25
ATOM     25  N   UNL A   1      40.123  19.210  25.829  1.00  0.00    -0.352 N 
ATOM     26  C   UNL A   1      41.431  19.598  25.968  1.00  0.00     0.251 C 
ATOM     27  H   UNL A   1      40.005  18.261  25.596  1.00  0.00     0.163 HD
ATOM     28  O   UNL A   1      42.318  18.823  25.614  1.00  0.00    -0.269 OA
BRANCH  26  29
ATOM     29  C   UNL A   1      41.804  20.921  26.520  1.00  0.00     0.039 A 
ATOM     30  C   UNL A   1      42.360  21.870  25.653  1.00  0.00     0.014 A 
ATOM     31  C   UNL A   1      41.686  21.221  27.879  1.00  0.00     0.014 A 
ATOM     32  C   UNL A   1      42.736  23.129  26.133  1.00  0.00     0.010 A 
ATOM     33  C   UNL A   1      42.000  22.498  28.347  1.00  0.00     0.010 A 
ATOM     34  C   UNL A   1      42.528  23.467  27.479  1.00  0.00    -0.014 A 
BRANCH  34  35
ATOM     35  C   UNL A   1      42.833  24.831  27.986  1.00  0.00     0.031 A 
ATOM     36  C   UNL A   1      44.232  25.205  28.397  1.00  0.00     0.074 A 
ATOM     37  C   UNL A   1      41.831  25.719  28.142  1.00  0.00     0.049 A 
ATOM     38  N   UNL A   1      44.665  26.322  28.926  1.00  0.00    -0.248 NA
ATOM     39  C   UNL A   1      45.278  24.187  28.208  1.00  0.00     0.031 C 
ATOM     40  C   UNL A   1      40.422  25.474  27.822  1.00  0.00     0.029 A 
ATOM     41  N   UNL A   1      41.840  27.005  28.626  1.00  0.00    -0.354 N 
ATOM     42  C   UNL A   1      46.023  26.133  29.156  1.00  0.00     0.074 A 
ATOM     43  C   UNL A   1      46.338  24.785  28.734  1.00  0.00     0.031 C 
ATOM     44  C   UNL A   1      39.708  26.575  28.106  1.00  0.00     0.029 A 
ATOM     45  C   UNL A   1      40.597  27.589  28.664  1.00  0.00     0.049 A 
ATOM     46  H   UNL A   1      42.662  27.463  28.918  1.00  0.00     0.167 HD
ATOM     47  C   UNL A   1      46.926  27.005  29.664  1.00  0.00     0.031 A 
ATOM     48  C   UNL A   1      40.211  28.798  29.113  1.00  0.00     0.031 A 
ATOM     49  C   UNL A   1      46.624  28.355  30.060  1.00  0.00     0.049 A 
ATOM     50  C   UNL A   1      41.237  29.742  29.672  1.00  0.00     0.074 A 
ATOM     51  C   UNL A   1      47.494  29.335  30.507  1.00  0.00     0.029 A 
ATOM     52  N   UNL A   1      45.356  28.913  30.061  1.00  0.00    -0.354 N 
ATOM     53  N   UNL A   1      42.531  29.576  29.800  1.00  0.00    -0.248 NA
ATOM     54  C   UNL A   1      40.749  31.048  30.140  1.00  0.00     0.031 C 
ATOM     55  C   UNL A   1      46.746  30.472  30.824  1.00  0.00     0.029 A 
ATOM     56  C   UNL A   1      45.417  30.216  30.529  1.00  0.00     0.049 A 
ATOM     57  H   UNL A   1      44.535  28.453  29.772  1.00  0.00     0.167 HD
ATOM     58  C   UNL A   1      43.012  30.762  30.337  1.00  0.00     0.074 A 
ATOM     59  C   UNL A   1      41.878  31.646  30.494  1.00  0.00     0.031 C 
ATOM     60  C   UNL A   1      44.284  31.088  30.673  1.00  0.00     0.031 A 
BRANCH  47  61
ATOM     61  C   UNL A   1      48.342  26.531  29.833  1.00  0.00    -0.014 A 
ATOM     62  C   UNL A   1      49.311  26.771  28.849  1.00  0.00     0.009 A 
ATOM     63  C   UNL A   1      48.727  25.908  31.031  1.00  0.00     0.009 A 
ATOM     64  C   UNL A   1      50.637  26.380  29.052  1.00  0.00     0.001 A 
ATOM     65  C   UNL A   1      50.058  25.539  31.242  1.00  0.00     0.001 A 
ATOM     66  C   UNL A   1      51.010  25.771  30.251  1.00  0.00     0.000 A 
ENDBRANCH  47  61
BRANCH  48  67
ATOM     67  C   UNL A   1      38.779  29.194  29.062  1.00  0.00    -0.014 A 
ATOM     68  C   UNL A   1      38.233  29.748  27.895  1.00  0.00     0.009 A 
ATOM     69  C   UNL A   1      37.960  29.054  30.195  1.00  0.00     0.009 A 
ATOM     70  C   UNL A   1      36.907  30.188  27.873  1.00  0.00     0.001 A 
ATOM     71  C   UNL A   1      36.627  29.466  30.160  1.00  0.00     0.001 A 
ATOM     72  C   UNL A   1      36.105  30.044  29.004  1.00  0.00     0.000 A 
ENDBRANCH  48  67
BRANCH  60  73
ATOM     73  C   UNL A   1      44.520  32.471  31.207  1.00  0.00    -0.014 A 
ATOM     74  C   UNL A   1      44.791  33.547  30.347  1.00  0.00     0.009 A 
ATOM     75  C   UNL A   1      44.434  32.707  32.588  1.00  0.00     0.009 A 
ATOM     76  C   UNL A   1      45.004  34.826  30.864  1.00  0.00     0.001 A 
ATOM     77  C   UNL A   1      44.620  33.992  33.098  1.00  0.00     0.001 A 
ATOM     78  C   UNL A   1      44.914  35.048  32.237  1.00  0.00     0.000 A 
ENDBRANCH  60  73
ENDBRANCH  34  35
ENDBRANCH  26  29
ENDBRANCH  24  25
ENDBRANCH  23  24
ENDBRANCH   1  23
TORSDOF 17
ENDMDL
MODEL 3
REMARK VINA RESULT:      -9.9      0.950      1.981
REMARK SMILES COCCN(CC(=O)NCCCNC(=O)c1ccc(-c2c3nc(c(-c4ccccc4)c4ccc([nH]4)c(-c4ccccc4)c4nc(c(-c5ccccc5)c5ccc2[nH]5)C=C4)C=C3)cc1)C(=O)c1cccc(N)c1
REMARK SMILES IDX 10 1 9 2 7 3 8 4 6 6 5 7 4 8 3 9 2 10 1 11 64 12 65 13 66 14
REMARK SMILES IDX 67 15 72 16 68 17 70 18 69 19 71 20 11 23 12 24 13 25 14 26
REMARK SMILES IDX 15 28 16 29 17 30 63 31 18 32 62 33 19 34 20 35 21 36 56 37
REMARK SMILES IDX 22 38 61 39 55 40 57 41 23 42 60 43 54 44 53 45 24 47 46 48
REMARK SMILES IDX 31 49 45 50 32 51 35 52 44 53 58 54 33 55 34 56 43 58 59 59
REMARK SMILES IDX 36 60 25 61 26 62 30 63 27 64 29 65 28 66 47 67 48 68 52 69
REMARK SMILES IDX 49 70 51 71 50 72 37 73 38 74 42 75 39 76 41 77 40 78
REMARK H PARENT 9 5 71 21 71 22 13 27 57 46 35 57
REMARK Flexibility Score: inf
ROOT
ATOM      1  C   UNL A   1      31.982  27.097  26.310  1.00  0.00     0.117 C 
ENDROOT
BRANCH   1   2
ATOM      2  N   UNL A   1      31.441  25.921  26.959  1.00  0.00    -0.354 N 
ATOM      3  C   UNL A   1      31.170  24.682  26.459  1.00  0.00     0.239 C 
ATOM      4  O   UNL A   1      31.083  23.766  27.284  1.00  0.00    -0.273 OA
ATOM      5  H   UNL A   1      31.235  26.035  27.915  1.00  0.00     0.163 HD
BRANCH   3   6
ATOM      6  C   UNL A   1      31.103  24.377  24.949  1.00  0.00     0.219 C 
BRANCH   6   7
ATOM      7  N   UNL A   1      32.283  23.747  24.341  1.00  0.00    -0.327 N 
BRANCH   7   8
ATOM      8  C   UNL A   1      32.194  22.317  23.997  1.00  0.00     0.149 C 
BRANCH   8   9
ATOM      9  C   UNL A   1      32.701  21.361  25.091  1.00  0.00     0.181 C 
BRANCH   9  10
ATOM     10  O   UNL A   1      32.005  20.118  25.060  1.00  0.00    -0.383 OA
ATOM     11  C   UNL A   1      32.821  19.007  25.391  1.00  0.00     0.194 C 
ENDBRANCH   9  10
ENDBRANCH   8   9
ENDBRANCH   7   8
BRANCH   7  12
ATOM     12  C   UNL A   1      33.405  24.456  23.885  1.00  0.00     0.254 C 
ATOM     13  O   UNL A   1      33.335  25.554  23.344  1.00  0.00    -0.269 OA
BRANCH  12  14
ATOM     14  C   UNL A   1      34.764  23.916  24.117  1.00  0.00     0.042 A 
ATOM     15  C   UNL A   1      35.396  23.253  23.060  1.00  0.00     0.014 A 
ATOM     16  C   UNL A   1      35.380  23.985  25.367  1.00  0.00     0.039 A 
ATOM     17  C   UNL A   1      36.667  22.713  23.244  1.00  0.00     0.003 A 
ATOM     18  C   UNL A   1      36.684  23.513  25.538  1.00  0.00     0.032 A 
ATOM     19  C   UNL A   1      37.303  22.843  24.478  1.00  0.00     0.025 A 
BRANCH  18  20
ATOM     20  N   UNL A   1      37.296  23.576  26.783  1.00  0.00    -0.399 N 
ATOM     21  H   UNL A   1      38.269  23.707  26.846  1.00  0.00     0.156 HD
ATOM     22  H   UNL A   1      36.756  23.487  27.602  1.00  0.00     0.156 HD
ENDBRANCH  18  20
ENDBRANCH  12  14
ENDBRANCH   7  12
ENDBRANCH   6   7
ENDBRANCH   3   6
ENDBRANCH   1   2
BRANCH   1  23
ATOM     23  C   UNL A   1      32.225  28.284  27.237  1.00  0.00     0.042 C 
BRANCH  23  24
ATOM     24  C   UNL A   1      33.615  28.907  27.144  1.00  0.00     0.118 C 
BRANCH  24  25
ATOM     25  N   UNL A   1      33.659  30.273  27.643  1.00  0.00    -0.352 N 
ATOM     26  C   UNL A   1      34.613  30.944  28.365  1.00  0.00     0.251 C 
ATOM     27  H   UNL A   1      32.863  30.810  27.426  1.00  0.00     0.163 HD
ATOM     28  O   UNL A   1      34.332  32.045  28.836  1.00  0.00    -0.269 OA
BRANCH  26  29
ATOM     29  C   UNL A   1      35.962  30.379  28.602  1.00  0.00     0.039 A 
ATOM     30  C   UNL A   1      36.885  30.398  27.548  1.00  0.00     0.014 A 
ATOM     31  C   UNL A   1      36.312  29.768  29.808  1.00  0.00     0.014 A 
ATOM     32  C   UNL A   1      38.166  29.866  27.724  1.00  0.00     0.010 A 
ATOM     33  C   UNL A   1      37.611  29.296  30.005  1.00  0.00     0.010 A 
ATOM     34  C   UNL A   1      38.552  29.340  28.966  1.00  0.00    -0.014 A 
BRANCH  34  35
ATOM     35  C   UNL A   1      39.940  28.858  29.200  1.00  0.00     0.031 A 
ATOM     36  C   UNL A   1      40.984  29.771  29.787  1.00  0.00     0.074 A 
ATOM     37  C   UNL A   1      40.280  27.610  28.819  1.00  0.00     0.049 A 
ATOM     38  N   UNL A   1      42.257  29.541  29.994  1.00  0.00    -0.248 NA
ATOM     39  C   UNL A   1      40.547  31.122  30.173  1.00  0.00     0.031 C 
ATOM     40  C   UNL A   1      39.378  26.635  28.202  1.00  0.00     0.029 A 
ATOM     41  N   UNL A   1      41.485  26.952  28.882  1.00  0.00    -0.354 N 
ATOM     42  C   UNL A   1      42.777  30.723  30.507  1.00  0.00     0.074 A 
ATOM     43  C   UNL A   1      41.689  31.676  30.558  1.00  0.00     0.031 C 
ATOM     44  C   UNL A   1      40.056  25.503  27.954  1.00  0.00     0.029 A 
ATOM     45  C   UNL A   1      41.447  25.683  28.357  1.00  0.00     0.049 A 
ATOM     46  H   UNL A   1      42.298  27.353  29.266  1.00  0.00     0.167 HD
ATOM     47  C   UNL A   1      44.043  30.987  30.909  1.00  0.00     0.031 A 
ATOM     48  C   UNL A   1      42.424  24.770  28.201  1.00  0.00     0.031 A 
ATOM     49  C   UNL A   1      45.122  30.035  30.888  1.00  0.00     0.049 A 
ATOM     50  C   UNL A   1      43.819  25.094  28.657  1.00  0.00     0.074 A 
ATOM     51  C   UNL A   1      46.416  30.192  31.354  1.00  0.00     0.029 A 
ATOM     52  N   UNL A   1      45.035  28.754  30.369  1.00  0.00    -0.354 N 
ATOM     53  N   UNL A   1      44.271  26.187  29.221  1.00  0.00    -0.248 NA
ATOM     54  C   UNL A   1      44.838  24.052  28.462  1.00  0.00     0.031 C 
ATOM     55  C   UNL A   1      47.126  29.022  31.074  1.00  0.00     0.029 A 
ATOM     56  C   UNL A   1      46.261  28.120  30.478  1.00  0.00     0.049 A 
ATOM     57  H   UNL A   1      44.223  28.355  29.982  1.00  0.00     0.167 HD
ATOM     58  C   UNL A   1      45.617  25.954  29.472  1.00  0.00     0.074 A 
ATOM     59  C   UNL A   1      45.904  24.611  29.015  1.00  0.00     0.031 C 
ATOM     60  C   UNL A   1      46.533  26.782  30.029  1.00  0.00     0.031 A 
BRANCH  47  61
ATOM     61  C   UNL A   1      44.346  32.372  31.409  1.00  0.00    -0.014 A 
ATOM     62  C   UNL A   1      44.746  33.390  30.531  1.00  0.00     0.009 A 
ATOM     63  C   UNL A   1      44.149  32.680  32.764  1.00  0.00     0.009 A 
ATOM     64  C   UNL A   1      44.961  34.687  31.005  1.00  0.00     0.001 A 
ATOM     65  C   UNL A   1      44.342  33.982  33.231  1.00  0.00     0.001 A 
ATOM     66  C   UNL A   1      44.752  34.983  32.352  1.00  0.00     0.000 A 
ENDBRANCH  47  61
BRANCH  48  67
ATOM     67  C   UNL A   1      42.128  23.454  27.576  1.00  0.00    -0.014 A 
ATOM     68  C   UNL A   1      41.614  22.399  28.346  1.00  0.00     0.009 A 
ATOM     69  C   UNL A   1      42.395  23.235  26.215  1.00  0.00     0.009 A 
ATOM     70  C   UNL A   1      41.407  21.142  27.773  1.00  0.00     0.001 A 
ATOM     71  C   UNL A   1      42.157  21.986  25.640  1.00  0.00     0.001 A 
ATOM     72  C   UNL A   1      41.676  20.937  26.422  1.00  0.00     0.000 A 
ENDBRANCH  48  67
BRANCH  60  73
ATOM     73  C   UNL A   1      47.923  26.244  30.210  1.00  0.00    -0.014 A 
ATOM     74  C   UNL A   1      48.343  25.713  31.440  1.00  0.00     0.009 A 
ATOM     75  C   UNL A   1      48.813  26.236  29.125  1.00  0.00     0.009 A 
ATOM     76  C   UNL A   1      49.639  25.214  31.587  1.00  0.00     0.001 A 
ATOM     77  C   UNL A   1      50.098  25.712  29.268  1.00  0.00     0.001 A 
ATOM     78  C   UNL A   1      50.513  25.211  30.500  1.00  0.00     0.000 A 
ENDBRANCH  60  73
ENDBRANCH  34  35
ENDBRANCH  26  29
ENDBRANCH  24  25
ENDBRANCH  23  24
ENDBRANCH   1  23
TORSDOF 17
ENDMDL
