MODEL 1
REMARK VINA RESULT:     -13.3      0.000      0.000
REMARK SMILES O=C(CCN1C(=O)S/C(=C\c2ccc(F)cc2)C1=O)Nc1ccc(O)cc1C(=O)NCCCNC(=O)c1ccc(-c2c3nc(c(-c4ccccc4)c4ccc([nH]4)c(-c4ccccc4)c4nc(c(-c5ccccc5)c5ccc2[nH]5)C=C4)C=C3)cc1
REMARK SMILES IDX 28 1 29 2 30 3 27 5 21 6 22 7 23 8 26 9 24 10 20 11 1 12
REMARK SMILES IDX 2 13 3 15 4 16 5 17 6 18 18 19 7 20 8 21 9 22 19 23 10 24
REMARK SMILES IDX 11 25 12 26 17 27 13 28 16 29 14 30 15 31 25 32 31 34 32 35
REMARK SMILES IDX 33 36 34 37 35 38 36 40 37 41 38 42 84 43 39 44 83 45 40 46
REMARK SMILES IDX 41 47 42 48 77 49 43 50 82 51 76 52 78 53 44 54 81 55 75 56
REMARK SMILES IDX 74 57 45 59 67 60 52 61 66 62 53 63 56 64 65 65 79 66 54 67
REMARK SMILES IDX 55 68 64 70 80 71 57 72 46 73 47 74 51 75 48 76 50 77 49 78
REMARK SMILES IDX 68 79 69 80 73 81 70 82 72 83 71 84 58 85 59 86 63 87 60 88
REMARK SMILES IDX 62 89 61 90
REMARK H PARENT 30 4 20 14 25 33 34 39 78 58 56 69
REMARK Flexibility Score: inf
ROOT
ATOM      1  C   UNL A   1      31.513  29.187  23.448  1.00  0.00     0.253 C 
ATOM      2  O   UNL A   1      32.139  29.172  22.389  1.00  0.00    -0.269 OA
ATOM      3  N   UNL A   1      31.963  30.027  24.442  1.00  0.00    -0.352 N 
ATOM      4  H   UNL A   1      32.785  30.528  24.237  1.00  0.00     0.163 HD
ENDROOT
BRANCH   1   5
ATOM      5  C   UNL A   1      30.363  28.244  23.609  1.00  0.00     0.067 A 
ATOM      6  C   UNL A   1      30.375  26.987  24.243  1.00  0.00     0.054 A 
ATOM      7  C   UNL A   1      29.191  26.233  24.334  1.00  0.00     0.031 A 
ATOM      8  C   UNL A   1      27.984  26.737  23.856  1.00  0.00     0.048 A 
ATOM      9  C   UNL A   1      29.131  28.741  23.142  1.00  0.00     0.062 A 
ATOM     10  C   UNL A   1      27.961  28.001  23.286  1.00  0.00     0.116 A 
BRANCH   6  11
ATOM     11  N   UNL A   1      31.425  26.562  25.076  1.00  0.00    -0.325 N 
ATOM     12  O   UNL A   1      32.927  25.969  23.428  1.00  0.00    -0.275 OA
ATOM     13  C   UNL A   1      32.594  25.996  24.610  1.00  0.00     0.226 C 
ATOM     14  H   UNL A   1      31.320  26.674  26.048  1.00  0.00     0.169 HD
BRANCH  13  15
ATOM     15  C   UNL A   1      33.481  25.418  25.699  1.00  0.00     0.122 C 
BRANCH  15  16
ATOM     16  C   UNL A   1      32.962  24.119  26.326  1.00  0.00     0.140 C 
BRANCH  16  17
ATOM     17  N   UNL A   1      33.315  22.819  25.741  1.00  0.00    -0.268 N 
ATOM     18  C   UNL A   1      34.121  21.936  26.413  1.00  0.00     0.293 C 
ATOM     19  C   UNL A   1      32.749  22.265  24.615  1.00  0.00     0.268 C 
ATOM     20  O   UNL A   1      34.225  21.777  27.623  1.00  0.00    -0.261 OA
ATOM     21  S   UNL A   1      34.731  20.729  25.310  1.00  0.00    -0.022 SA
ATOM     22  C   UNL A   1      33.252  20.875  24.455  1.00  0.00     0.083 C 
ATOM     23  O   UNL A   1      31.815  22.719  23.970  1.00  0.00    -0.268 OA
ATOM     24  C   UNL A   1      32.448  19.876  24.067  1.00  0.00     0.029 C 
BRANCH  24  25
ATOM     25  C   UNL A   1      32.795  18.474  24.312  1.00  0.00    -0.024 A 
ATOM     26  C   UNL A   1      32.474  17.880  25.545  1.00  0.00     0.011 A 
ATOM     27  C   UNL A   1      33.539  17.760  23.373  1.00  0.00     0.011 A 
ATOM     28  C   UNL A   1      32.897  16.584  25.835  1.00  0.00     0.040 A 
ATOM     29  C   UNL A   1      33.960  16.462  23.665  1.00  0.00     0.040 A 
ATOM     30  C   UNL A   1      33.637  15.887  24.890  1.00  0.00     0.123 A 
ATOM     31  F   UNL A   1      34.060  14.647  25.168  1.00  0.00    -0.207 F 
ENDBRANCH  24  25
ENDBRANCH  16  17
ENDBRANCH  15  16
ENDBRANCH  13  15
ENDBRANCH   6  11
BRANCH  10  32
ATOM     32  O   UNL A   1      26.792  28.570  22.877  1.00  0.00    -0.508 OA
ATOM     33  H   UNL A   1      26.805  29.276  22.260  1.00  0.00     0.293 HD
ENDBRANCH  10  32
ENDBRANCH   1   5
BRANCH   3  34
ATOM     34  C   UNL A   1      31.391  30.270  25.742  1.00  0.00     0.118 C 
BRANCH  34  35
ATOM     35  C   UNL A   1      32.003  29.518  26.912  1.00  0.00     0.042 C 
BRANCH  35  36
ATOM     36  C   UNL A   1      33.497  29.709  27.182  1.00  0.00     0.118 C 
BRANCH  36  37
ATOM     37  N   UNL A   1      33.855  30.822  28.058  1.00  0.00    -0.352 N 
ATOM     38  C   UNL A   1      34.946  31.154  28.825  1.00  0.00     0.251 C 
ATOM     39  H   UNL A   1      33.142  31.499  28.110  1.00  0.00     0.163 HD
ATOM     40  O   UNL A   1      34.926  32.138  29.564  1.00  0.00    -0.269 OA
BRANCH  38  41
ATOM     41  C   UNL A   1      36.145  30.314  28.849  1.00  0.00     0.039 A 
ATOM     42  C   UNL A   1      36.956  30.277  27.707  1.00  0.00     0.014 A 
ATOM     43  C   UNL A   1      36.480  29.585  29.979  1.00  0.00     0.014 A 
ATOM     44  C   UNL A   1      38.183  29.627  27.756  1.00  0.00     0.010 A 
ATOM     45  C   UNL A   1      37.749  29.056  30.075  1.00  0.00     0.010 A 
ATOM     46  C   UNL A   1      38.616  29.090  28.971  1.00  0.00    -0.014 A 
BRANCH  46  47
ATOM     47  C   UNL A   1      39.980  28.568  29.171  1.00  0.00     0.031 A 
ATOM     48  C   UNL A   1      41.061  29.529  29.558  1.00  0.00     0.074 A 
ATOM     49  C   UNL A   1      40.256  27.306  28.795  1.00  0.00     0.049 A 
ATOM     50  N   UNL A   1      42.354  29.410  29.439  1.00  0.00    -0.248 NA
ATOM     51  C   UNL A   1      40.614  30.839  30.065  1.00  0.00     0.031 C 
ATOM     52  C   UNL A   1      39.277  26.312  28.341  1.00  0.00     0.029 A 
ATOM     53  N   UNL A   1      41.456  26.656  28.698  1.00  0.00    -0.354 N 
ATOM     54  C   UNL A   1      42.868  30.657  29.766  1.00  0.00     0.074 A 
ATOM     55  C   UNL A   1      41.748  31.521  30.062  1.00  0.00     0.031 C 
ATOM     56  C   UNL A   1      39.917  25.173  28.030  1.00  0.00     0.029 A 
ATOM     57  C   UNL A   1      41.348  25.377  28.208  1.00  0.00     0.049 A 
ATOM     58  H   UNL A   1      42.315  27.064  28.955  1.00  0.00     0.167 HD
ATOM     59  C   UNL A   1      44.166  31.037  29.814  1.00  0.00     0.031 A 
ATOM     60  C   UNL A   1      42.306  24.481  27.916  1.00  0.00     0.031 A 
ATOM     61  C   UNL A   1      45.257  30.131  29.584  1.00  0.00     0.049 A 
ATOM     62  C   UNL A   1      43.737  24.883  28.114  1.00  0.00     0.074 A 
ATOM     63  C   UNL A   1      46.616  30.363  29.696  1.00  0.00     0.029 A 
ATOM     64  N   UNL A   1      45.102  28.800  29.223  1.00  0.00    -0.354 N 
ATOM     65  N   UNL A   1      44.222  26.055  28.453  1.00  0.00    -0.248 NA
ATOM     66  C   UNL A   1      44.751  23.845  27.899  1.00  0.00     0.031 C 
ATOM     67  C   UNL A   1      47.282  29.169  29.397  1.00  0.00     0.029 A 
ATOM     68  C   UNL A   1      46.337  28.191  29.125  1.00  0.00     0.049 A 
ATOM     69  H   UNL A   1      44.238  28.357  29.060  1.00  0.00     0.167 HD
ATOM     70  C   UNL A   1      45.597  25.890  28.517  1.00  0.00     0.074 A 
ATOM     71  C   UNL A   1      45.865  24.501  28.193  1.00  0.00     0.031 C 
ATOM     72  C   UNL A   1      46.555  26.802  28.813  1.00  0.00     0.031 A 
BRANCH  59  73
ATOM     73  C   UNL A   1      44.447  32.480  30.123  1.00  0.00    -0.014 A 
ATOM     74  C   UNL A   1      44.640  32.923  31.442  1.00  0.00     0.009 A 
ATOM     75  C   UNL A   1      44.493  33.420  29.081  1.00  0.00     0.009 A 
ATOM     76  C   UNL A   1      44.813  34.282  31.717  1.00  0.00     0.001 A 
ATOM     77  C   UNL A   1      44.700  34.774  29.356  1.00  0.00     0.001 A 
ATOM     78  C   UNL A   1      44.844  35.205  30.674  1.00  0.00     0.000 A 
ENDBRANCH  59  73
BRANCH  60  79
ATOM     79  C   UNL A   1      41.933  23.119  27.462  1.00  0.00    -0.014 A 
ATOM     80  C   UNL A   1      42.049  22.779  26.105  1.00  0.00     0.009 A 
ATOM     81  C   UNL A   1      41.509  22.139  28.373  1.00  0.00     0.009 A 
ATOM     82  C   UNL A   1      41.728  21.494  25.666  1.00  0.00     0.001 A 
ATOM     83  C   UNL A   1      41.210  20.847  27.933  1.00  0.00     0.001 A 
ATOM     84  C   UNL A   1      41.314  20.527  26.580  1.00  0.00     0.000 A 
ENDBRANCH  60  79
BRANCH  72  85
ATOM     85  C   UNL A   1      47.968  26.306  28.841  1.00  0.00    -0.014 A 
ATOM     86  C   UNL A   1      48.574  25.919  30.045  1.00  0.00     0.009 A 
ATOM     87  C   UNL A   1      48.681  26.181  27.639  1.00  0.00     0.009 A 
ATOM     88  C   UNL A   1      49.882  25.436  30.046  1.00  0.00     0.001 A 
ATOM     89  C   UNL A   1      49.981  25.678  27.642  1.00  0.00     0.001 A 
ATOM     90  C   UNL A   1      50.582  25.312  28.846  1.00  0.00     0.000 A 
ENDBRANCH  72  85
ENDBRANCH  46  47
ENDBRANCH  38  41
ENDBRANCH  36  37
ENDBRANCH  35  36
ENDBRANCH  34  35
ENDBRANCH   3  34
TORSDOF 16
ENDMDL
MODEL 2
REMARK VINA RESULT:     -12.8      2.049      2.660
REMARK SMILES O=C(CCN1C(=O)S/C(=C\c2ccc(F)cc2)C1=O)Nc1ccc(O)cc1C(=O)NCCCNC(=O)c1ccc(-c2c3nc(c(-c4ccccc4)c4ccc([nH]4)c(-c4ccccc4)c4nc(c(-c5ccccc5)c5ccc2[nH]5)C=C4)C=C3)cc1
REMARK SMILES IDX 28 1 29 2 30 3 27 5 21 6 22 7 23 8 26 9 24 10 20 11 1 12
REMARK SMILES IDX 2 13 3 15 4 16 5 17 6 18 18 19 7 20 8 21 9 22 19 23 10 24
REMARK SMILES IDX 11 25 12 26 17 27 13 28 16 29 14 30 15 31 25 32 31 34 32 35
REMARK SMILES IDX 33 36 34 37 35 38 36 40 37 41 38 42 84 43 39 44 83 45 40 46
REMARK SMILES IDX 41 47 42 48 77 49 43 50 82 51 76 52 78 53 44 54 81 55 75 56
REMARK SMILES IDX 74 57 45 59 67 60 52 61 66 62 53 63 56 64 65 65 79 66 54 67
REMARK SMILES IDX 55 68 64 70 80 71 57 72 46 73 47 74 51 75 48 76 50 77 49 78
REMARK SMILES IDX 68 79 69 80 73 81 70 82 72 83 71 84 58 85 59 86 63 87 60 88
REMARK SMILES IDX 62 89 61 90
REMARK H PARENT 30 4 20 14 25 33 34 39 78 58 56 69
REMARK Flexibility Score: inf
ROOT
ATOM      1  C   UNL A   1      31.561  29.328  23.386  1.00  0.00     0.253 C 
ATOM      2  O   UNL A   1      32.271  29.189  22.389  1.00  0.00    -0.269 OA
ATOM      3  N   UNL A   1      32.189  29.390  24.610  1.00  0.00    -0.352 N 
ATOM      4  H   UNL A   1      33.167  29.279  24.593  1.00  0.00     0.163 HD
ENDROOT
BRANCH   1   5
ATOM      5  C   UNL A   1      30.077  29.341  23.207  1.00  0.00     0.067 A 
ATOM      6  C   UNL A   1      29.199  28.244  23.291  1.00  0.00     0.054 A 
ATOM      7  C   UNL A   1      27.816  28.434  23.125  1.00  0.00     0.031 A 
ATOM      8  C   UNL A   1      27.287  29.709  22.935  1.00  0.00     0.048 A 
ATOM      9  C   UNL A   1      29.522  30.623  23.027  1.00  0.00     0.062 A 
ATOM     10  C   UNL A   1      28.146  30.797  22.914  1.00  0.00     0.116 A 
BRANCH   6  11
ATOM     11  N   UNL A   1      29.575  27.006  23.843  1.00  0.00    -0.325 N 
ATOM     12  O   UNL A   1      30.843  26.233  22.078  1.00  0.00    -0.275 OA
ATOM     13  C   UNL A   1      30.295  26.047  23.161  1.00  0.00     0.226 C 
ATOM     14  H   UNL A   1      29.308  26.813  24.771  1.00  0.00     0.169 HD
BRANCH  13  15
ATOM     15  C   UNL A   1      30.390  24.713  23.881  1.00  0.00     0.122 C 
BRANCH  15  16
ATOM     16  C   UNL A   1      30.816  24.807  25.351  1.00  0.00     0.140 C 
BRANCH  16  17
ATOM     17  N   UNL A   1      32.149  24.354  25.769  1.00  0.00    -0.268 N 
ATOM     18  C   UNL A   1      32.362  23.060  26.170  1.00  0.00     0.293 C 
ATOM     19  C   UNL A   1      33.321  25.061  25.620  1.00  0.00     0.268 C 
ATOM     20  O   UNL A   1      31.788  22.046  25.792  1.00  0.00    -0.261 OA
ATOM     21  S   UNL A   1      33.876  22.946  27.030  1.00  0.00    -0.022 SA
ATOM     22  C   UNL A   1      34.462  24.191  26.007  1.00  0.00     0.083 C 
ATOM     23  O   UNL A   1      33.457  26.133  25.049  1.00  0.00    -0.268 OA
ATOM     24  C   UNL A   1      35.610  24.187  25.316  1.00  0.00     0.029 C 
BRANCH  24  25
ATOM     25  C   UNL A   1      36.554  23.071  25.404  1.00  0.00    -0.024 A 
ATOM     26  C   UNL A   1      37.751  23.223  26.124  1.00  0.00     0.011 A 
ATOM     27  C   UNL A   1      36.323  21.896  24.687  1.00  0.00     0.011 A 
ATOM     28  C   UNL A   1      38.709  22.211  26.123  1.00  0.00     0.040 A 
ATOM     29  C   UNL A   1      37.283  20.883  24.688  1.00  0.00     0.040 A 
ATOM     30  C   UNL A   1      38.465  21.050  25.404  1.00  0.00     0.123 A 
ATOM     31  F   UNL A   1      39.387  20.079  25.386  1.00  0.00    -0.207 F 
ENDBRANCH  24  25
ENDBRANCH  16  17
ENDBRANCH  15  16
ENDBRANCH  13  15
ENDBRANCH   6  11
BRANCH  10  32
ATOM     32  O   UNL A   1      27.670  32.070  22.812  1.00  0.00    -0.508 OA
ATOM     33  H   UNL A   1      28.192  32.791  23.107  1.00  0.00     0.293 HD
ENDBRANCH  10  32
ENDBRANCH   1   5
BRANCH   3  34
ATOM     34  C   UNL A   1      31.606  29.597  25.911  1.00  0.00     0.118 C 
BRANCH  34  35
ATOM     35  C   UNL A   1      32.234  28.844  27.072  1.00  0.00     0.042 C 
BRANCH  35  36
ATOM     36  C   UNL A   1      33.726  29.059  27.340  1.00  0.00     0.118 C 
BRANCH  36  37
ATOM     37  N   UNL A   1      34.085  30.302  28.015  1.00  0.00    -0.352 N 
ATOM     38  C   UNL A   1      35.211  30.793  28.633  1.00  0.00     0.251 C 
ATOM     39  H   UNL A   1      33.341  30.947  28.031  1.00  0.00     0.163 HD
ATOM     40  O   UNL A   1      35.191  31.872  29.224  1.00  0.00    -0.269 OA
BRANCH  38  41
ATOM     41  C   UNL A   1      36.454  30.022  28.676  1.00  0.00     0.039 A 
ATOM     42  C   UNL A   1      37.272  30.011  27.537  1.00  0.00     0.014 A 
ATOM     43  C   UNL A   1      36.824  29.330  29.818  1.00  0.00     0.014 A 
ATOM     44  C   UNL A   1      38.532  29.431  27.601  1.00  0.00     0.010 A 
ATOM     45  C   UNL A   1      38.120  28.874  29.928  1.00  0.00     0.010 A 
ATOM     46  C   UNL A   1      38.989  28.939  28.827  1.00  0.00    -0.014 A 
BRANCH  46  47
ATOM     47  C   UNL A   1      40.379  28.496  29.040  1.00  0.00     0.031 A 
ATOM     48  C   UNL A   1      41.404  29.523  29.411  1.00  0.00     0.074 A 
ATOM     49  C   UNL A   1      40.725  27.244  28.690  1.00  0.00     0.049 A 
ATOM     50  N   UNL A   1      42.702  29.472  29.297  1.00  0.00    -0.248 NA
ATOM     51  C   UNL A   1      40.884  30.816  29.891  1.00  0.00     0.031 C 
ATOM     52  C   UNL A   1      39.804  26.189  28.252  1.00  0.00     0.029 A 
ATOM     53  N   UNL A   1      41.960  26.659  28.608  1.00  0.00    -0.354 N 
ATOM     54  C   UNL A   1      43.146  30.752  29.602  1.00  0.00     0.074 A 
ATOM     55  C   UNL A   1      41.978  31.559  29.877  1.00  0.00     0.031 C 
ATOM     56  C   UNL A   1      40.507  25.081  27.965  1.00  0.00     0.029 A 
ATOM     57  C   UNL A   1      41.923  25.368  28.143  1.00  0.00     0.049 A 
ATOM     58  H   UNL A   1      42.793  27.119  28.859  1.00  0.00     0.167 HD
ATOM     59  C   UNL A   1      44.420  31.204  29.645  1.00  0.00     0.031 A 
ATOM     60  C   UNL A   1      42.930  24.520  27.871  1.00  0.00     0.031 A 
ATOM     61  C   UNL A   1      45.560  30.355  29.436  1.00  0.00     0.049 A 
ATOM     62  C   UNL A   1      44.337  25.004  28.064  1.00  0.00     0.074 A 
ATOM     63  C   UNL A   1      46.904  30.664  29.546  1.00  0.00     0.029 A 
ATOM     64  N   UNL A   1      45.480  29.011  29.100  1.00  0.00    -0.354 N 
ATOM     65  N   UNL A   1      44.755  26.207  28.382  1.00  0.00    -0.248 NA
ATOM     66  C   UNL A   1      45.407  24.019  27.873  1.00  0.00     0.031 C 
ATOM     67  C   UNL A   1      47.636  29.503  29.272  1.00  0.00     0.029 A 
ATOM     68  C   UNL A   1      46.747  28.469  29.017  1.00  0.00     0.049 A 
ATOM     69  H   UNL A   1      44.642  28.518  28.943  1.00  0.00     0.167 HD
ATOM     70  C   UNL A   1      46.137  26.119  28.452  1.00  0.00     0.074 A 
ATOM     71  C   UNL A   1      46.482  24.741  28.156  1.00  0.00     0.031 C 
ATOM     72  C   UNL A   1      47.042  27.088  28.732  1.00  0.00     0.031 A 
BRANCH  59  73
ATOM     73  C   UNL A   1      44.620  32.666  29.926  1.00  0.00    -0.014 A 
ATOM     74  C   UNL A   1      44.680  33.610  28.888  1.00  0.00     0.009 A 
ATOM     75  C   UNL A   1      44.780  33.106  31.250  1.00  0.00     0.009 A 
ATOM     76  C   UNL A   1      44.954  34.952  29.163  1.00  0.00     0.001 A 
ATOM     77  C   UNL A   1      45.020  34.455  31.525  1.00  0.00     0.001 A 
ATOM     78  C   UNL A   1      45.122  35.373  30.480  1.00  0.00     0.000 A 
ENDBRANCH  59  73
BRANCH  60  79
ATOM     79  C   UNL A   1      42.634  23.131  27.443  1.00  0.00    -0.014 A 
ATOM     80  C   UNL A   1      42.210  22.184  28.388  1.00  0.00     0.009 A 
ATOM     81  C   UNL A   1      42.724  22.751  26.095  1.00  0.00     0.009 A 
ATOM     82  C   UNL A   1      41.903  20.880  27.997  1.00  0.00     0.001 A 
ATOM     83  C   UNL A   1      42.394  21.451  25.703  1.00  0.00     0.001 A 
ATOM     84  C   UNL A   1      41.990  20.515  26.655  1.00  0.00     0.000 A 
ENDBRANCH  60  79
BRANCH  72  85
ATOM     85  C   UNL A   1      48.481  26.671  28.774  1.00  0.00    -0.014 A 
ATOM     86  C   UNL A   1      49.306  26.814  27.650  1.00  0.00     0.009 A 
ATOM     87  C   UNL A   1      49.022  26.176  29.970  1.00  0.00     0.009 A 
ATOM     88  C   UNL A   1      50.649  26.443  27.717  1.00  0.00     0.001 A 
ATOM     89  C   UNL A   1      50.369  25.826  30.040  1.00  0.00     0.001 A 
ATOM     90  C   UNL A   1      51.180  25.954  28.912  1.00  0.00     0.000 A 
ENDBRANCH  72  85
ENDBRANCH  46  47
ENDBRANCH  38  41
ENDBRANCH  36  37
ENDBRANCH  35  36
ENDBRANCH  34  35
ENDBRANCH   3  34
TORSDOF 16
ENDMDL
MODEL 3
REMARK VINA RESULT:     -12.8      3.866      9.355
REMARK SMILES O=C(CCN1C(=O)S/C(=C\c2ccc(F)cc2)C1=O)Nc1ccc(O)cc1C(=O)NCCCNC(=O)c1ccc(-c2c3nc(c(-c4ccccc4)c4ccc([nH]4)c(-c4ccccc4)c4nc(c(-c5ccccc5)c5ccc2[nH]5)C=C4)C=C3)cc1
REMARK SMILES IDX 28 1 29 2 30 3 27 5 21 6 22 7 23 8 26 9 24 10 20 11 1 12
REMARK SMILES IDX 2 13 3 15 4 16 5 17 6 18 18 19 7 20 8 21 9 22 19 23 10 24
REMARK SMILES IDX 11 25 12 26 17 27 13 28 16 29 14 30 15 31 25 32 31 34 32 35
REMARK SMILES IDX 33 36 34 37 35 38 36 40 37 41 38 42 84 43 39 44 83 45 40 46
REMARK SMILES IDX 41 47 42 48 77 49 43 50 82 51 76 52 78 53 44 54 81 55 75 56
REMARK SMILES IDX 74 57 45 59 67 60 52 61 66 62 53 63 56 64 65 65 79 66 54 67
REMARK SMILES IDX 55 68 64 70 80 71 57 72 46 73 47 74 51 75 48 76 50 77 49 78
REMARK SMILES IDX 68 79 69 80 73 81 70 82 72 83 71 84 58 85 59 86 63 87 60 88
REMARK SMILES IDX 62 89 61 90
REMARK H PARENT 30 4 20 14 25 33 34 39 78 58 56 69
REMARK Flexibility Score: inf
ROOT
ATOM      1  C   UNL A   1      34.099  20.793  25.615  1.00  0.00     0.253 C 
ATOM      2  O   UNL A   1      33.688  20.736  26.774  1.00  0.00    -0.269 OA
ATOM      3  N   UNL A   1      35.035  21.757  25.318  1.00  0.00    -0.352 N 
ATOM      4  H   UNL A   1      35.277  22.359  26.058  1.00  0.00     0.163 HD
ENDROOT
BRANCH   1   5
ATOM      5  C   UNL A   1      33.500  19.869  24.602  1.00  0.00     0.067 A 
ATOM      6  C   UNL A   1      32.601  20.202  23.573  1.00  0.00     0.054 A 
ATOM      7  C   UNL A   1      32.153  19.211  22.681  1.00  0.00     0.031 A 
ATOM      8  C   UNL A   1      32.634  17.906  22.762  1.00  0.00     0.048 A 
ATOM      9  C   UNL A   1      33.984  18.547  24.660  1.00  0.00     0.062 A 
ATOM     10  C   UNL A   1      33.567  17.592  23.738  1.00  0.00     0.116 A 
BRANCH   6  11
ATOM     11  N   UNL A   1      32.353  21.528  23.173  1.00  0.00    -0.325 N 
ATOM     12  O   UNL A   1      31.122  22.195  25.006  1.00  0.00    -0.275 OA
ATOM     13  C   UNL A   1      31.553  22.405  23.875  1.00  0.00     0.226 C 
ATOM     14  H   UNL A   1      32.776  21.848  22.344  1.00  0.00     0.169 HD
BRANCH  13  15
ATOM     15  C   UNL A   1      31.259  23.701  23.140  1.00  0.00     0.122 C 
BRANCH  15  16
ATOM     16  C   UNL A   1      32.499  24.454  22.647  1.00  0.00     0.140 C 
BRANCH  16  17
ATOM     17  N   UNL A   1      32.982  25.642  23.364  1.00  0.00    -0.268 N 
ATOM     18  C   UNL A   1      32.623  26.903  22.964  1.00  0.00     0.293 C 
ATOM     19  C   UNL A   1      33.638  25.637  24.574  1.00  0.00     0.268 C 
ATOM     20  O   UNL A   1      31.581  27.260  22.429  1.00  0.00    -0.261 OA
ATOM     21  S   UNL A   1      33.692  28.081  23.682  1.00  0.00    -0.022 SA
ATOM     22  C   UNL A   1      33.801  27.040  25.040  1.00  0.00     0.083 C 
ATOM     23  O   UNL A   1      33.853  24.665  25.282  1.00  0.00    -0.268 OA
ATOM     24  C   UNL A   1      33.635  27.378  26.325  1.00  0.00     0.029 C 
BRANCH  24  25
ATOM     25  C   UNL A   1      33.369  28.761  26.726  1.00  0.00    -0.024 A 
ATOM     26  C   UNL A   1      32.087  29.308  26.542  1.00  0.00     0.011 A 
ATOM     27  C   UNL A   1      34.407  29.571  27.186  1.00  0.00     0.011 A 
ATOM     28  C   UNL A   1      31.849  30.655  26.812  1.00  0.00     0.040 A 
ATOM     29  C   UNL A   1      34.167  30.919  27.457  1.00  0.00     0.040 A 
ATOM     30  C   UNL A   1      32.893  31.448  27.267  1.00  0.00     0.123 A 
ATOM     31  F   UNL A   1      32.676  32.745  27.515  1.00  0.00    -0.207 F 
ENDBRANCH  24  25
ENDBRANCH  16  17
ENDBRANCH  15  16
ENDBRANCH  13  15
ENDBRANCH   6  11
BRANCH  10  32
ATOM     32  O   UNL A   1      34.127  16.352  23.807  1.00  0.00    -0.508 OA
ATOM     33  H   UNL A   1      34.988  16.245  24.163  1.00  0.00     0.293 HD
ENDBRANCH  10  32
ENDBRANCH   1   5
BRANCH   3  34
ATOM     34  C   UNL A   1      35.708  22.004  24.067  1.00  0.00     0.118 C 
BRANCH  34  35
ATOM     35  C   UNL A   1      36.917  22.922  24.108  1.00  0.00     0.042 C 
BRANCH  35  36
ATOM     36  C   UNL A   1      37.450  23.342  25.480  1.00  0.00     0.118 C 
BRANCH  36  37
ATOM     37  N   UNL A   1      38.783  22.858  25.828  1.00  0.00    -0.352 N 
ATOM     38  C   UNL A   1      39.867  23.370  26.500  1.00  0.00     0.251 C 
ATOM     39  H   UNL A   1      38.943  21.942  25.504  1.00  0.00     0.163 HD
ATOM     40  O   UNL A   1      40.930  22.751  26.553  1.00  0.00    -0.269 OA
BRANCH  38  41
ATOM     41  C   UNL A   1      39.827  24.697  27.115  1.00  0.00     0.039 A 
ATOM     42  C   UNL A   1      39.202  24.835  28.362  1.00  0.00     0.014 A 
ATOM     43  C   UNL A   1      40.404  25.790  26.488  1.00  0.00     0.014 A 
ATOM     44  C   UNL A   1      39.293  26.040  29.047  1.00  0.00     0.010 A 
ATOM     45  C   UNL A   1      40.612  26.940  27.219  1.00  0.00     0.010 A 
ATOM     46  C   UNL A   1      40.075  27.066  28.510  1.00  0.00    -0.014 A 
BRANCH  46  47
ATOM     47  C   UNL A   1      40.397  28.297  29.256  1.00  0.00     0.031 A 
ATOM     48  C   UNL A   1      41.621  28.306  30.118  1.00  0.00     0.074 A 
ATOM     49  C   UNL A   1      39.484  29.284  29.310  1.00  0.00     0.049 A 
ATOM     50  N   UNL A   1      41.919  29.086  31.120  1.00  0.00    -0.248 NA
ATOM     51  C   UNL A   1      42.597  27.229  29.873  1.00  0.00     0.031 C 
ATOM     52  C   UNL A   1      38.228  29.334  28.553  1.00  0.00     0.029 A 
ATOM     53  N   UNL A   1      39.457  30.420  30.071  1.00  0.00    -0.354 N 
ATOM     54  C   UNL A   1      43.065  28.540  31.680  1.00  0.00     0.074 A 
ATOM     55  C   UNL A   1      43.390  27.351  30.924  1.00  0.00     0.031 C 
ATOM     56  C   UNL A   1      37.563  30.455  28.878  1.00  0.00     0.029 A 
ATOM     57  C   UNL A   1      38.316  31.165  29.902  1.00  0.00     0.049 A 
ATOM     58  H   UNL A   1      40.185  30.680  30.681  1.00  0.00     0.167 HD
ATOM     59  C   UNL A   1      43.778  28.999  32.735  1.00  0.00     0.031 A 
ATOM     60  C   UNL A   1      37.918  32.287  30.525  1.00  0.00     0.031 A 
ATOM     61  C   UNL A   1      43.466  30.223  33.418  1.00  0.00     0.049 A 
ATOM     62  C   UNL A   1      38.800  32.855  31.597  1.00  0.00     0.074 A 
ATOM     63  C   UNL A   1      44.161  30.851  34.436  1.00  0.00     0.029 A 
ATOM     64  N   UNL A   1      42.372  31.024  33.121  1.00  0.00    -0.354 N 
ATOM     65  N   UNL A   1      39.901  32.353  32.105  1.00  0.00    -0.248 NA
ATOM     66  C   UNL A   1      38.395  34.142  32.173  1.00  0.00     0.031 C 
ATOM     67  C   UNL A   1      43.482  32.031  34.757  1.00  0.00     0.029 A 
ATOM     68  C   UNL A   1      42.381  32.150  33.921  1.00  0.00     0.049 A 
ATOM     69  H   UNL A   1      41.691  30.819  32.441  1.00  0.00     0.167 HD
ATOM     70  C   UNL A   1      40.336  33.274  33.046  1.00  0.00     0.074 A 
ATOM     71  C   UNL A   1      39.384  34.369  33.026  1.00  0.00     0.031 C 
ATOM     72  C   UNL A   1      41.420  33.221  33.857  1.00  0.00     0.031 A 
BRANCH  59  73
ATOM     73  C   UNL A   1      44.943  28.166  33.190  1.00  0.00    -0.014 A 
ATOM     74  C   UNL A   1      46.188  28.234  32.544  1.00  0.00     0.009 A 
ATOM     75  C   UNL A   1      44.787  27.278  34.266  1.00  0.00     0.009 A 
ATOM     76  C   UNL A   1      47.233  27.389  32.926  1.00  0.00     0.001 A 
ATOM     77  C   UNL A   1      45.844  26.459  34.668  1.00  0.00     0.001 A 
ATOM     78  C   UNL A   1      47.061  26.504  33.987  1.00  0.00     0.000 A 
ENDBRANCH  59  73
BRANCH  60  79
ATOM     79  C   UNL A   1      36.661  32.958  30.111  1.00  0.00    -0.014 A 
ATOM     80  C   UNL A   1      35.494  32.784  30.871  1.00  0.00     0.009 A 
ATOM     81  C   UNL A   1      36.624  33.810  28.997  1.00  0.00     0.009 A 
ATOM     82  C   UNL A   1      34.310  33.430  30.511  1.00  0.00     0.001 A 
ATOM     83  C   UNL A   1      35.443  34.472  28.652  1.00  0.00     0.001 A 
ATOM     84  C   UNL A   1      34.286  34.277  29.405  1.00  0.00     0.000 A 
ENDBRANCH  60  79
BRANCH  72  85
ATOM     85  C   UNL A   1      41.650  34.403  34.749  1.00  0.00    -0.014 A 
ATOM     86  C   UNL A   1      41.284  34.368  36.102  1.00  0.00     0.009 A 
ATOM     87  C   UNL A   1      42.283  35.544  34.235  1.00  0.00     0.009 A 
ATOM     88  C   UNL A   1      41.530  35.469  36.921  1.00  0.00     0.001 A 
ATOM     89  C   UNL A   1      42.546  36.635  35.061  1.00  0.00     0.001 A 
ATOM     90  C   UNL A   1      42.164  36.599  36.402  1.00  0.00     0.000 A 
ENDBRANCH  72  85
ENDBRANCH  46  47
ENDBRANCH  38  41
ENDBRANCH  36  37
ENDBRANCH  35  36
ENDBRANCH  34  35
ENDBRANCH   3  34
TORSDOF 16
ENDMDL
