MODEL 1
REMARK VINA RESULT:      -8.9      0.000      0.000
REMARK SMILES CSCC[NH2+]CC(C)(C)C(=O)NCCCNC(=O)c1ccc(-c2c3nc(c(-c4ccccc4)c4ccc([nH]4)c(-c4ccccc4)c4nc(c(-c5ccccc5)c5ccc2[nH]5)C=C4)C=C3)cc1
REMARK SMILES IDX 10 1 11 2 12 3 7 5 8 6 9 7 6 8 5 9 4 12 3 13 2 14 1 15 13 16
REMARK SMILES IDX 14 17 15 18 16 19 17 20 18 22 19 23 20 24 66 25 21 26 65 27
REMARK SMILES IDX 22 28 23 29 24 30 59 31 25 32 64 33 58 34 60 35 26 36 63 37
REMARK SMILES IDX 57 38 56 39 27 41 49 42 34 43 48 44 35 45 38 46 47 47 61 48
REMARK SMILES IDX 36 49 37 50 46 52 62 53 39 54 28 55 29 56 33 57 30 58 32 59
REMARK SMILES IDX 31 60 50 61 51 62 55 63 52 64 54 65 53 66 40 67 41 68 45 69
REMARK SMILES IDX 42 70 44 71 43 72
REMARK H PARENT 12 4 5 10 5 11 16 21 60 40 38 51
REMARK Flexibility Score: inf
ROOT
ATOM      1  C   UNL A   1      35.202  22.430  25.998  1.00  0.00     0.231 C 
ATOM      2  O   UNL A   1      35.626  23.427  26.592  1.00  0.00    -0.274 OA
ATOM      3  N   UNL A   1      36.049  21.371  25.982  1.00  0.00    -0.355 N 
ATOM      4  H   UNL A   1      36.652  21.324  26.759  1.00  0.00     0.163 HD
ENDROOT
BRANCH   1   5
ATOM      5  C   UNL A   1      33.825  22.410  25.308  1.00  0.00     0.092 C 
ATOM      6  C   UNL A   1      33.890  22.190  23.786  1.00  0.00     0.027 C 
ATOM      7  C   UNL A   1      33.129  23.748  25.618  1.00  0.00     0.027 C 
BRANCH   5   8
ATOM      8  C   UNL A   1      32.965  21.258  25.943  1.00  0.00     0.276 C 
BRANCH   8   9
ATOM      9  N   UNL A   1      32.579  20.126  25.076  1.00  0.00    -0.345 N 
ATOM     10  H   UNL A   1      31.591  20.224  24.840  1.00  0.00     0.346 HD
ATOM     11  H   UNL A   1      33.179  20.161  24.253  1.00  0.00     0.346 HD
BRANCH   9  12
ATOM     12  C   UNL A   1      32.779  18.814  25.701  1.00  0.00     0.271 C 
BRANCH  12  13
ATOM     13  C   UNL A   1      32.500  17.635  24.759  1.00  0.00     0.130 C 
BRANCH  13  14
ATOM     14  S   UNL A   1      32.996  16.004  25.439  1.00  0.00    -0.160 SA
ATOM     15  C   UNL A   1      34.781  16.051  25.163  1.00  0.00     0.085 C 
ENDBRANCH  13  14
ENDBRANCH  12  13
ENDBRANCH   9  12
ENDBRANCH   8   9
ENDBRANCH   5   8
ENDBRANCH   1   5
BRANCH   3  16
ATOM     16  C   UNL A   1      36.225  20.298  25.025  1.00  0.00     0.117 C 
BRANCH  16  17
ATOM     17  C   UNL A   1      37.697  20.142  24.660  1.00  0.00     0.042 C 
BRANCH  17  18
ATOM     18  C   UNL A   1      38.648  20.374  25.828  1.00  0.00     0.118 C 
BRANCH  18  19
ATOM     19  N   UNL A   1      39.750  19.423  25.847  1.00  0.00    -0.352 N 
ATOM     20  C   UNL A   1      41.081  19.627  26.104  1.00  0.00     0.251 C 
ATOM     21  H   UNL A   1      39.502  18.493  25.645  1.00  0.00     0.163 HD
ATOM     22  O   UNL A   1      41.895  18.737  25.858  1.00  0.00    -0.269 OA
BRANCH  20  23
ATOM     23  C   UNL A   1      41.547  20.917  26.652  1.00  0.00     0.039 A 
ATOM     24  C   UNL A   1      42.040  21.886  25.774  1.00  0.00     0.014 A 
ATOM     25  C   UNL A   1      41.508  21.172  28.026  1.00  0.00     0.014 A 
ATOM     26  C   UNL A   1      42.426  23.132  26.267  1.00  0.00     0.010 A 
ATOM     27  C   UNL A   1      41.807  22.445  28.504  1.00  0.00     0.010 A 
ATOM     28  C   UNL A   1      42.273  23.437  27.630  1.00  0.00    -0.014 A 
BRANCH  28  29
ATOM     29  C   UNL A   1      42.586  24.792  28.149  1.00  0.00     0.031 A 
ATOM     30  C   UNL A   1      43.990  25.148  28.555  1.00  0.00     0.074 A 
ATOM     31  C   UNL A   1      41.591  25.688  28.301  1.00  0.00     0.049 A 
ATOM     32  N   UNL A   1      44.443  26.271  29.054  1.00  0.00    -0.248 NA
ATOM     33  C   UNL A   1      45.016  24.103  28.403  1.00  0.00     0.031 C 
ATOM     34  C   UNL A   1      40.179  25.450  27.990  1.00  0.00     0.029 A 
ATOM     35  N   UNL A   1      41.614  26.982  28.757  1.00  0.00    -0.354 N 
ATOM     36  C   UNL A   1      45.798  26.063  29.281  1.00  0.00     0.074 A 
ATOM     37  C   UNL A   1      46.084  24.692  28.919  1.00  0.00     0.031 C 
ATOM     38  C   UNL A   1      39.480  26.571  28.231  1.00  0.00     0.029 A 
ATOM     39  C   UNL A   1      40.382  27.591  28.754  1.00  0.00     0.049 A 
ATOM     40  H   UNL A   1      42.437  27.433  29.057  1.00  0.00     0.167 HD
ATOM     41  C   UNL A   1      46.727  26.941  29.727  1.00  0.00     0.031 A 
ATOM     42  C   UNL A   1      40.017  28.829  29.134  1.00  0.00     0.031 A 
ATOM     43  C   UNL A   1      46.446  28.307  30.083  1.00  0.00     0.049 A 
ATOM     44  C   UNL A   1      41.067  29.777  29.643  1.00  0.00     0.074 A 
ATOM     45  C   UNL A   1      47.329  29.288  30.501  1.00  0.00     0.029 A 
ATOM     46  N   UNL A   1      45.187  28.883  30.063  1.00  0.00    -0.354 N 
ATOM     47  N   UNL A   1      42.357  29.585  29.783  1.00  0.00    -0.248 NA
ATOM     48  C   UNL A   1      40.611  31.117  30.036  1.00  0.00     0.031 C 
ATOM     49  C   UNL A   1      46.594  30.443  30.786  1.00  0.00     0.029 A 
ATOM     50  C   UNL A   1      45.264  30.200  30.487  1.00  0.00     0.049 A 
ATOM     51  H   UNL A   1      44.359  28.425  29.791  1.00  0.00     0.167 HD
ATOM     52  C   UNL A   1      42.868  30.786  30.254  1.00  0.00     0.074 A 
ATOM     53  C   UNL A   1      41.754  31.708  30.351  1.00  0.00     0.031 C 
ATOM     54  C   UNL A   1      44.146  31.101  30.581  1.00  0.00     0.031 A 
BRANCH  41  55
ATOM     55  C   UNL A   1      48.144  26.451  29.853  1.00  0.00    -0.014 A 
ATOM     56  C   UNL A   1      49.068  26.627  28.808  1.00  0.00     0.009 A 
ATOM     57  C   UNL A   1      48.577  25.855  31.046  1.00  0.00     0.009 A 
ATOM     58  C   UNL A   1      50.386  26.189  28.948  1.00  0.00     0.001 A 
ATOM     59  C   UNL A   1      49.903  25.445  31.194  1.00  0.00     0.001 A 
ATOM     60  C   UNL A   1      50.804  25.605  30.142  1.00  0.00     0.000 A 
ENDBRANCH  41  55
BRANCH  42  61
ATOM     61  C   UNL A   1      38.594  29.252  29.048  1.00  0.00    -0.014 A 
ATOM     62  C   UNL A   1      38.079  29.792  27.860  1.00  0.00     0.009 A 
ATOM     63  C   UNL A   1      37.750  29.143  30.164  1.00  0.00     0.009 A 
ATOM     64  C   UNL A   1      36.760  30.248  27.802  1.00  0.00     0.001 A 
ATOM     65  C   UNL A   1      36.422  29.568  30.093  1.00  0.00     0.001 A 
ATOM     66  C   UNL A   1      35.932  30.132  28.917  1.00  0.00     0.000 A 
ENDBRANCH  42  61
BRANCH  54  67
ATOM     67  C   UNL A   1      44.407  32.508  31.043  1.00  0.00    -0.014 A 
ATOM     68  C   UNL A   1      44.363  32.849  32.404  1.00  0.00     0.009 A 
ATOM     69  C   UNL A   1      44.726  33.500  30.103  1.00  0.00     0.009 A 
ATOM     70  C   UNL A   1      44.590  34.166  32.809  1.00  0.00     0.001 A 
ATOM     71  C   UNL A   1      44.985  34.807  30.513  1.00  0.00     0.001 A 
ATOM     72  C   UNL A   1      44.905  35.142  31.864  1.00  0.00     0.000 A 
ENDBRANCH  54  67
ENDBRANCH  28  29
ENDBRANCH  20  23
ENDBRANCH  18  19
ENDBRANCH  17  18
ENDBRANCH  16  17
ENDBRANCH   3  16
TORSDOF 15
ENDMDL
MODEL 2
REMARK VINA RESULT:      -8.9      1.949      6.561
REMARK SMILES CSCC[NH2+]CC(C)(C)C(=O)NCCCNC(=O)c1ccc(-c2c3nc(c(-c4ccccc4)c4ccc([nH]4)c(-c4ccccc4)c4nc(c(-c5ccccc5)c5ccc2[nH]5)C=C4)C=C3)cc1
REMARK SMILES IDX 10 1 11 2 12 3 7 5 8 6 9 7 6 8 5 9 4 12 3 13 2 14 1 15 13 16
REMARK SMILES IDX 14 17 15 18 16 19 17 20 18 22 19 23 20 24 66 25 21 26 65 27
REMARK SMILES IDX 22 28 23 29 24 30 59 31 25 32 64 33 58 34 60 35 26 36 63 37
REMARK SMILES IDX 57 38 56 39 27 41 49 42 34 43 48 44 35 45 38 46 47 47 61 48
REMARK SMILES IDX 36 49 37 50 46 52 62 53 39 54 28 55 29 56 33 57 30 58 32 59
REMARK SMILES IDX 31 60 50 61 51 62 55 63 52 64 54 65 53 66 40 67 41 68 45 69
REMARK SMILES IDX 42 70 44 71 43 72
REMARK H PARENT 12 4 5 10 5 11 16 21 60 40 38 51
REMARK Flexibility Score: inf
ROOT
ATOM      1  C   UNL A   1      36.250  22.684  23.586  1.00  0.00     0.231 C 
ATOM      2  O   UNL A   1      36.445  23.037  22.418  1.00  0.00    -0.274 OA
ATOM      3  N   UNL A   1      37.050  21.680  24.021  1.00  0.00    -0.355 N 
ATOM      4  H   UNL A   1      37.933  21.649  23.586  1.00  0.00     0.163 HD
ENDROOT
BRANCH   1   5
ATOM      5  C   UNL A   1      35.158  23.324  24.464  1.00  0.00     0.092 C 
ATOM      6  C   UNL A   1      34.348  24.425  23.755  1.00  0.00     0.027 C 
ATOM      7  C   UNL A   1      35.844  23.898  25.717  1.00  0.00     0.027 C 
BRANCH   5   8
ATOM      8  C   UNL A   1      34.167  22.195  24.928  1.00  0.00     0.276 C 
BRANCH   8   9
ATOM      9  N   UNL A   1      33.491  21.398  23.885  1.00  0.00    -0.345 N 
ATOM     10  H   UNL A   1      33.243  22.019  23.115  1.00  0.00     0.346 HD
ATOM     11  H   UNL A   1      34.140  20.666  23.598  1.00  0.00     0.346 HD
BRANCH   9  12
ATOM     12  C   UNL A   1      32.271  20.732  24.355  1.00  0.00     0.271 C 
BRANCH  12  13
ATOM     13  C   UNL A   1      32.528  19.361  24.997  1.00  0.00     0.130 C 
BRANCH  13  14
ATOM     14  S   UNL A   1      33.928  18.439  24.252  1.00  0.00    -0.160 SA
ATOM     15  C   UNL A   1      33.046  17.334  23.126  1.00  0.00     0.085 C 
ENDBRANCH  13  14
ENDBRANCH  12  13
ENDBRANCH   9  12
ENDBRANCH   8   9
ENDBRANCH   5   8
ENDBRANCH   1   5
BRANCH   3  16
ATOM     16  C   UNL A   1      36.838  20.645  25.012  1.00  0.00     0.117 C 
BRANCH  16  17
ATOM     17  C   UNL A   1      37.993  19.650  25.001  1.00  0.00     0.042 C 
BRANCH  17  18
ATOM     18  C   UNL A   1      39.230  20.135  25.747  1.00  0.00     0.118 C 
BRANCH  18  19
ATOM     19  N   UNL A   1      40.233  19.091  25.903  1.00  0.00    -0.352 N 
ATOM     20  C   UNL A   1      41.586  19.196  26.098  1.00  0.00     0.251 C 
ATOM     21  H   UNL A   1      39.888  18.171  25.861  1.00  0.00     0.163 HD
ATOM     22  O   UNL A   1      42.299  18.198  25.988  1.00  0.00    -0.269 OA
BRANCH  20  23
ATOM     23  C   UNL A   1      42.195  20.503  26.418  1.00  0.00     0.039 A 
ATOM     24  C   UNL A   1      42.709  21.281  25.378  1.00  0.00     0.014 A 
ATOM     25  C   UNL A   1      42.271  20.959  27.737  1.00  0.00     0.014 A 
ATOM     26  C   UNL A   1      43.232  22.544  25.653  1.00  0.00     0.010 A 
ATOM     27  C   UNL A   1      42.709  22.254  27.999  1.00  0.00     0.010 A 
ATOM     28  C   UNL A   1      43.198  23.059  26.961  1.00  0.00    -0.014 A 
BRANCH  28  29
ATOM     29  C   UNL A   1      43.659  24.440  27.250  1.00  0.00     0.031 A 
ATOM     30  C   UNL A   1      42.680  25.496  27.684  1.00  0.00     0.074 A 
ATOM     31  C   UNL A   1      44.957  24.755  27.072  1.00  0.00     0.049 A 
ATOM     32  N   UNL A   1      42.897  26.759  27.953  1.00  0.00    -0.248 NA
ATOM     33  C   UNL A   1      41.271  25.089  27.814  1.00  0.00     0.031 C 
ATOM     34  C   UNL A   1      45.998  23.834  26.607  1.00  0.00     0.029 A 
ATOM     35  N   UNL A   1      45.625  25.938  27.260  1.00  0.00    -0.354 N 
ATOM     36  C   UNL A   1      41.656  27.295  28.273  1.00  0.00     0.074 A 
ATOM     37  C   UNL A   1      40.682  26.238  28.112  1.00  0.00     0.031 C 
ATOM     38  C   UNL A   1      47.176  24.478  26.580  1.00  0.00     0.029 A 
ATOM     39  C   UNL A   1      46.968  25.864  26.982  1.00  0.00     0.049 A 
ATOM     40  H   UNL A   1      45.182  26.763  27.566  1.00  0.00     0.167 HD
ATOM     41  C   UNL A   1      41.355  28.548  28.689  1.00  0.00     0.031 A 
ATOM     42  C   UNL A   1      47.926  26.808  27.038  1.00  0.00     0.031 A 
ATOM     43  C   UNL A   1      42.322  29.601  28.855  1.00  0.00     0.049 A 
ATOM     44  C   UNL A   1      47.560  28.196  27.485  1.00  0.00     0.074 A 
ATOM     45  C   UNL A   1      42.122  30.891  29.315  1.00  0.00     0.029 A 
ATOM     46  N   UNL A   1      43.672  29.483  28.564  1.00  0.00    -0.354 N 
ATOM     47  N   UNL A   1      46.393  28.666  27.853  1.00  0.00    -0.248 NA
ATOM     48  C   UNL A   1      48.649  29.181  27.534  1.00  0.00     0.031 C 
ATOM     49  C   UNL A   1      43.342  31.570  29.252  1.00  0.00     0.029 A 
ATOM     50  C   UNL A   1      44.313  30.686  28.812  1.00  0.00     0.049 A 
ATOM     51  H   UNL A   1      44.110  28.668  28.231  1.00  0.00     0.167 HD
ATOM     52  C   UNL A   1      46.612  29.991  28.202  1.00  0.00     0.074 A 
ATOM     53  C   UNL A   1      48.028  30.243  28.027  1.00  0.00     0.031 C 
ATOM     54  C   UNL A   1      45.721  30.920  28.628  1.00  0.00     0.031 A 
BRANCH  41  55
ATOM     55  C   UNL A   1      39.914  28.852  28.999  1.00  0.00    -0.014 A 
ATOM     56  C   UNL A   1      39.043  29.324  28.003  1.00  0.00     0.009 A 
ATOM     57  C   UNL A   1      39.407  28.616  30.285  1.00  0.00     0.009 A 
ATOM     58  C   UNL A   1      37.702  29.579  28.298  1.00  0.00     0.001 A 
ATOM     59  C   UNL A   1      38.060  28.843  30.570  1.00  0.00     0.001 A 
ATOM     60  C   UNL A   1      37.211  29.332  29.578  1.00  0.00     0.000 A 
ENDBRANCH  41  55
BRANCH  42  61
ATOM     61  C   UNL A   1      49.328  26.478  26.667  1.00  0.00    -0.014 A 
ATOM     62  C   UNL A   1      49.793  26.699  25.362  1.00  0.00     0.009 A 
ATOM     63  C   UNL A   1      50.201  25.916  27.611  1.00  0.00     0.009 A 
ATOM     64  C   UNL A   1      51.091  26.328  25.000  1.00  0.00     0.001 A 
ATOM     65  C   UNL A   1      51.509  25.578  27.255  1.00  0.00     0.001 A 
ATOM     66  C   UNL A   1      51.948  25.772  25.948  1.00  0.00     0.000 A 
ENDBRANCH  42  61
BRANCH  54  67
ATOM     67  C   UNL A   1      46.262  32.283  28.961  1.00  0.00    -0.014 A 
ATOM     68  C   UNL A   1      46.310  33.305  28.000  1.00  0.00     0.009 A 
ATOM     69  C   UNL A   1      46.706  32.554  30.265  1.00  0.00     0.009 A 
ATOM     70  C   UNL A   1      46.834  34.557  28.327  1.00  0.00     0.001 A 
ATOM     71  C   UNL A   1      47.197  33.816  30.598  1.00  0.00     0.001 A 
ATOM     72  C   UNL A   1      47.272  34.813  29.626  1.00  0.00     0.000 A 
ENDBRANCH  54  67
ENDBRANCH  28  29
ENDBRANCH  20  23
ENDBRANCH  18  19
ENDBRANCH  17  18
ENDBRANCH  16  17
ENDBRANCH   3  16
TORSDOF 15
ENDMDL
MODEL 3
REMARK VINA RESULT:      -8.9      2.297      3.119
REMARK SMILES CSCC[NH2+]CC(C)(C)C(=O)NCCCNC(=O)c1ccc(-c2c3nc(c(-c4ccccc4)c4ccc([nH]4)c(-c4ccccc4)c4nc(c(-c5ccccc5)c5ccc2[nH]5)C=C4)C=C3)cc1
REMARK SMILES IDX 10 1 11 2 12 3 7 5 8 6 9 7 6 8 5 9 4 12 3 13 2 14 1 15 13 16
REMARK SMILES IDX 14 17 15 18 16 19 17 20 18 22 19 23 20 24 66 25 21 26 65 27
REMARK SMILES IDX 22 28 23 29 24 30 59 31 25 32 64 33 58 34 60 35 26 36 63 37
REMARK SMILES IDX 57 38 56 39 27 41 49 42 34 43 48 44 35 45 38 46 47 47 61 48
REMARK SMILES IDX 36 49 37 50 46 52 62 53 39 54 28 55 29 56 33 57 30 58 32 59
REMARK SMILES IDX 31 60 50 61 51 62 55 63 52 64 54 65 53 66 40 67 41 68 45 69
REMARK SMILES IDX 42 70 44 71 43 72
REMARK H PARENT 12 4 5 10 5 11 16 21 60 40 38 51
REMARK Flexibility Score: inf
ROOT
ATOM      1  C   UNL A   1      36.172  22.649  23.815  1.00  0.00     0.231 C 
ATOM      2  O   UNL A   1      36.542  23.216  22.782  1.00  0.00    -0.274 OA
ATOM      3  N   UNL A   1      36.985  21.653  24.244  1.00  0.00    -0.355 N 
ATOM      4  H   UNL A   1      37.932  21.771  24.000  1.00  0.00     0.163 HD
ENDROOT
BRANCH   1   5
ATOM      5  C   UNL A   1      34.867  23.033  24.538  1.00  0.00     0.092 C 
ATOM      6  C   UNL A   1      35.024  23.220  26.058  1.00  0.00     0.027 C 
ATOM      7  C   UNL A   1      33.831  21.931  24.247  1.00  0.00     0.027 C 
BRANCH   5   8
ATOM      8  C   UNL A   1      34.331  24.375  23.921  1.00  0.00     0.276 C 
BRANCH   8   9
ATOM      9  N   UNL A   1      33.555  24.297  22.667  1.00  0.00    -0.345 N 
ATOM     10  H   UNL A   1      34.074  24.783  21.935  1.00  0.00     0.346 HD
ATOM     11  H   UNL A   1      33.423  23.309  22.456  1.00  0.00     0.346 HD
BRANCH   9  12
ATOM     12  C   UNL A   1      32.220  24.898  22.765  1.00  0.00     0.271 C 
BRANCH  12  13
ATOM     13  C   UNL A   1      31.728  25.071  24.210  1.00  0.00     0.130 C 
BRANCH  13  14
ATOM     14  S   UNL A   1      31.120  26.759  24.594  1.00  0.00    -0.160 SA
ATOM     15  C   UNL A   1      32.466  27.763  23.926  1.00  0.00     0.085 C 
ENDBRANCH  13  14
ENDBRANCH  12  13
ENDBRANCH   9  12
ENDBRANCH   8   9
ENDBRANCH   5   8
ENDBRANCH   1   5
BRANCH   3  16
ATOM     16  C   UNL A   1      36.711  20.447  24.996  1.00  0.00     0.117 C 
BRANCH  16  17
ATOM     17  C   UNL A   1      37.913  19.509  24.962  1.00  0.00     0.042 C 
BRANCH  17  18
ATOM     18  C   UNL A   1      39.108  20.013  25.762  1.00  0.00     0.118 C 
BRANCH  18  19
ATOM     19  N   UNL A   1      40.176  19.026  25.850  1.00  0.00    -0.352 N 
ATOM     20  C   UNL A   1      41.524  19.205  26.023  1.00  0.00     0.251 C 
ATOM     21  H   UNL A   1      39.886  18.089  25.774  1.00  0.00     0.163 HD
ATOM     22  O   UNL A   1      42.293  18.259  25.854  1.00  0.00    -0.269 OA
BRANCH  20  23
ATOM     23  C   UNL A   1      42.060  20.532  26.389  1.00  0.00     0.039 A 
ATOM     24  C   UNL A   1      42.429  21.415  25.372  1.00  0.00     0.014 A 
ATOM     25  C   UNL A   1      42.210  20.904  27.728  1.00  0.00     0.014 A 
ATOM     26  C   UNL A   1      42.880  22.694  25.697  1.00  0.00     0.010 A 
ATOM     27  C   UNL A   1      42.572  22.209  28.049  1.00  0.00     0.010 A 
ATOM     28  C   UNL A   1      42.914  23.117  27.037  1.00  0.00    -0.014 A 
BRANCH  28  29
ATOM     29  C   UNL A   1      43.296  24.508  27.389  1.00  0.00     0.031 A 
ATOM     30  C   UNL A   1      44.735  24.941  27.335  1.00  0.00     0.074 A 
ATOM     31  C   UNL A   1      42.347  25.368  27.807  1.00  0.00     0.049 A 
ATOM     32  N   UNL A   1      45.257  26.104  27.633  1.00  0.00    -0.248 NA
ATOM     33  C   UNL A   1      45.722  23.933  26.913  1.00  0.00     0.031 C 
ATOM     34  C   UNL A   1      40.922  25.057  27.950  1.00  0.00     0.029 A 
ATOM     35  N   UNL A   1      42.437  26.683  28.189  1.00  0.00    -0.354 N 
ATOM     36  C   UNL A   1      46.626  25.964  27.443  1.00  0.00     0.074 A 
ATOM     37  C   UNL A   1      46.863  24.590  27.058  1.00  0.00     0.031 C 
ATOM     38  C   UNL A   1      40.269  26.158  28.354  1.00  0.00     0.029 A 
ATOM     39  C   UNL A   1      41.230  27.239  28.541  1.00  0.00     0.049 A 
ATOM     40  H   UNL A   1      43.286  27.181  28.208  1.00  0.00     0.167 HD
ATOM     41  C   UNL A   1      47.598  26.901  27.554  1.00  0.00     0.031 A 
ATOM     42  C   UNL A   1      40.931  28.478  28.973  1.00  0.00     0.031 A 
ATOM     43  C   UNL A   1      47.364  28.270  27.932  1.00  0.00     0.049 A 
ATOM     44  C   UNL A   1      42.033  29.492  29.104  1.00  0.00     0.074 A 
ATOM     45  C   UNL A   1      48.278  29.306  28.027  1.00  0.00     0.029 A 
ATOM     46  N   UNL A   1      46.128  28.792  28.278  1.00  0.00    -0.354 N 
ATOM     47  N   UNL A   1      43.313  29.362  28.851  1.00  0.00    -0.248 NA
ATOM     48  C   UNL A   1      41.646  30.830  29.572  1.00  0.00     0.031 C 
ATOM     49  C   UNL A   1      47.602  30.441  28.483  1.00  0.00     0.029 A 
ATOM     50  C   UNL A   1      46.259  30.130  28.612  1.00  0.00     0.049 A 
ATOM     51  H   UNL A   1      45.283  28.287  28.287  1.00  0.00     0.167 HD
ATOM     52  C   UNL A   1      43.877  30.604  29.102  1.00  0.00     0.074 A 
ATOM     53  C   UNL A   1      42.797  31.483  29.503  1.00  0.00     0.031 C 
ATOM     54  C   UNL A   1      45.175  30.987  29.013  1.00  0.00     0.031 A 
BRANCH  41  55
ATOM     55  C   UNL A   1      49.010  26.477  27.258  1.00  0.00    -0.014 A 
ATOM     56  C   UNL A   1      49.858  26.017  28.280  1.00  0.00     0.009 A 
ATOM     57  C   UNL A   1      49.485  26.486  25.938  1.00  0.00     0.009 A 
ATOM     58  C   UNL A   1      51.159  25.603  27.988  1.00  0.00     0.001 A 
ATOM     59  C   UNL A   1      50.776  26.044  25.645  1.00  0.00     0.001 A 
ATOM     60  C   UNL A   1      51.614  25.611  26.671  1.00  0.00     0.000 A 
ENDBRANCH  41  55
BRANCH  42  61
ATOM     61  C   UNL A   1      39.528  28.838  29.310  1.00  0.00    -0.014 A 
ATOM     62  C   UNL A   1      38.682  29.401  28.344  1.00  0.00     0.009 A 
ATOM     63  C   UNL A   1      39.036  28.642  30.610  1.00  0.00     0.009 A 
ATOM     64  C   UNL A   1      37.385  29.797  28.681  1.00  0.00     0.001 A 
ATOM     65  C   UNL A   1      37.728  29.007  30.936  1.00  0.00     0.001 A 
ATOM     66  C   UNL A   1      36.909  29.596  29.976  1.00  0.00     0.000 A 
ENDBRANCH  42  61
BRANCH  54  67
ATOM     67  C   UNL A   1      45.487  32.425  29.325  1.00  0.00    -0.014 A 
ATOM     68  C   UNL A   1      45.848  32.828  30.620  1.00  0.00     0.009 A 
ATOM     69  C   UNL A   1      45.442  33.383  28.300  1.00  0.00     0.009 A 
ATOM     70  C   UNL A   1      46.115  34.172  30.891  1.00  0.00     0.001 A 
ATOM     71  C   UNL A   1      45.741  34.719  28.567  1.00  0.00     0.001 A 
ATOM     72  C   UNL A   1      46.066  35.114  29.863  1.00  0.00     0.000 A 
ENDBRANCH  54  67
ENDBRANCH  28  29
ENDBRANCH  20  23
ENDBRANCH  18  19
ENDBRANCH  17  18
ENDBRANCH  16  17
ENDBRANCH   3  16
TORSDOF 15
ENDMDL
