MODEL 1
REMARK VINA RESULT:     -10.6      0.000      0.000
REMARK SMILES CCC(C)(C)c1cccc(C(=O)NCCCNC(=O)c2ccc(-c3c4nc(c(-c5ccccc5)c5ccc([nH]5)c(-c5ccccc5)c5nc(c(-c6ccccc6)c6ccc3[nH]6)C=C5)C=C4)cc2)c1
REMARK SMILES IDX 15 1 14 2 13 3 11 4 12 5 10 7 6 8 7 9 68 10 8 11 9 12 3 13
REMARK SMILES IDX 4 14 5 15 2 16 1 17 16 18 17 19 18 20 19 22 20 23 21 24
REMARK SMILES IDX 67 25 22 26 66 27 23 28 24 29 25 30 60 31 26 32 65 33 59 34
REMARK SMILES IDX 61 35 27 36 64 37 58 38 57 39 28 41 50 42 35 43 49 44 36 45
REMARK SMILES IDX 39 46 48 47 62 48 37 49 38 50 47 52 63 53 40 54 29 55 30 56
REMARK SMILES IDX 34 57 31 58 33 59 32 60 51 61 52 62 56 63 53 64 55 65 54 66
REMARK SMILES IDX 41 67 42 68 46 69 43 70 45 71 44 72
REMARK H PARENT 13 6 17 21 61 40 39 51
REMARK Flexibility Score: inf
ROOT
ATOM      1  C   UNL A   1      38.660  20.357  25.000  1.00  0.00     0.042 C 
ENDROOT
BRANCH   1   2
ATOM      2  C   UNL A   1      38.046  21.685  25.407  1.00  0.00     0.118 C 
BRANCH   2   3
ATOM      3  N   UNL A   1      37.448  22.436  24.316  1.00  0.00    -0.352 N 
ATOM      4  C   UNL A   1      36.151  22.654  23.907  1.00  0.00     0.251 C 
ATOM      5  O   UNL A   1      35.990  23.372  22.918  1.00  0.00    -0.269 OA
ATOM      6  H   UNL A   1      38.113  22.889  23.748  1.00  0.00     0.163 HD
BRANCH   4   7
ATOM      7  C   UNL A   1      34.961  22.009  24.532  1.00  0.00     0.040 A 
ATOM      8  C   UNL A   1      33.489  20.072  24.871  1.00  0.00    -0.042 A 
ATOM      9  C   UNL A   1      32.522  20.940  25.392  1.00  0.00     0.004 A 
ATOM     10  C   UNL A   1      34.752  20.630  24.586  1.00  0.00     0.018 A 
ATOM     11  C   UNL A   1      32.781  22.307  25.538  1.00  0.00     0.001 A 
ATOM     12  C   UNL A   1      33.975  22.846  25.065  1.00  0.00     0.014 A 
BRANCH   8  13
ATOM     13  C   UNL A   1      33.215  18.598  24.500  1.00  0.00    -0.011 C 
ATOM     14  C   UNL A   1      32.186  18.524  23.357  1.00  0.00     0.016 C 
ATOM     15  C   UNL A   1      32.584  17.899  25.747  1.00  0.00     0.016 C 
BRANCH  13  16
ATOM     16  C   UNL A   1      34.478  17.734  24.171  1.00  0.00     0.008 C 
ATOM     17  C   UNL A   1      34.352  16.644  23.113  1.00  0.00     0.005 C 
ENDBRANCH  13  16
ENDBRANCH   8  13
ENDBRANCH   4   7
ENDBRANCH   2   3
ENDBRANCH   1   2
BRANCH   1  18
ATOM     18  C   UNL A   1      39.243  19.552  26.147  1.00  0.00     0.118 C 
BRANCH  18  19
ATOM     19  N   UNL A   1      40.573  19.028  25.855  1.00  0.00    -0.352 N 
ATOM     20  C   UNL A   1      41.809  19.619  25.859  1.00  0.00     0.251 C 
ATOM     21  H   UNL A   1      40.584  18.075  25.609  1.00  0.00     0.163 HD
ATOM     22  O   UNL A   1      42.763  19.007  25.370  1.00  0.00    -0.269 OA
BRANCH  20  23
ATOM     23  C   UNL A   1      42.028  20.971  26.418  1.00  0.00     0.039 A 
ATOM     24  C   UNL A   1      41.904  21.159  27.799  1.00  0.00     0.014 A 
ATOM     25  C   UNL A   1      42.295  22.068  25.599  1.00  0.00     0.014 A 
ATOM     26  C   UNL A   1      42.107  22.425  28.354  1.00  0.00     0.010 A 
ATOM     27  C   UNL A   1      42.607  23.303  26.161  1.00  0.00     0.010 A 
ATOM     28  C   UNL A   1      42.496  23.502  27.542  1.00  0.00    -0.014 A 
BRANCH  28  29
ATOM     29  C   UNL A   1      42.764  24.844  28.117  1.00  0.00     0.031 A 
ATOM     30  C   UNL A   1      44.157  25.227  28.542  1.00  0.00     0.074 A 
ATOM     31  C   UNL A   1      41.742  25.702  28.307  1.00  0.00     0.049 A 
ATOM     32  N   UNL A   1      44.578  26.341  29.089  1.00  0.00    -0.248 NA
ATOM     33  C   UNL A   1      45.212  24.215  28.362  1.00  0.00     0.031 C 
ATOM     34  C   UNL A   1      40.337  25.433  27.993  1.00  0.00     0.029 A 
ATOM     35  N   UNL A   1      41.731  26.979  28.809  1.00  0.00    -0.354 N 
ATOM     36  C   UNL A   1      45.933  26.151  29.336  1.00  0.00     0.074 A 
ATOM     37  C   UNL A   1      46.252  24.800  28.936  1.00  0.00     0.031 C 
ATOM     38  C   UNL A   1      39.609  26.527  28.268  1.00  0.00     0.029 A 
ATOM     39  C   UNL A   1      40.486  27.559  28.809  1.00  0.00     0.049 A 
ATOM     40  H   UNL A   1      42.539  27.436  29.137  1.00  0.00     0.167 HD
ATOM     41  C   UNL A   1      46.838  27.031  29.829  1.00  0.00     0.031 A 
ATOM     42  C   UNL A   1      40.096  28.788  29.193  1.00  0.00     0.031 A 
ATOM     43  C   UNL A   1      46.528  28.384  30.204  1.00  0.00     0.049 A 
ATOM     44  C   UNL A   1      41.123  29.756  29.707  1.00  0.00     0.074 A 
ATOM     45  C   UNL A   1      47.384  29.373  30.654  1.00  0.00     0.029 A 
ATOM     46  N   UNL A   1      45.259  28.938  30.166  1.00  0.00    -0.354 N 
ATOM     47  N   UNL A   1      42.413  29.583  29.869  1.00  0.00    -0.248 NA
ATOM     48  C   UNL A   1      40.641  31.093  30.076  1.00  0.00     0.031 C 
ATOM     49  C   UNL A   1      46.625  30.517  30.927  1.00  0.00     0.029 A 
ATOM     50  C   UNL A   1      45.305  30.253  30.599  1.00  0.00     0.049 A 
ATOM     51  H   UNL A   1      44.444  28.468  29.874  1.00  0.00     0.167 HD
ATOM     52  C   UNL A   1      42.900  30.797  30.334  1.00  0.00     0.074 A 
ATOM     53  C   UNL A   1      41.771  31.702  30.407  1.00  0.00     0.031 C 
ATOM     54  C   UNL A   1      44.169  31.134  30.671  1.00  0.00     0.031 A 
BRANCH  41  55
ATOM     55  C   UNL A   1      48.254  26.547  29.985  1.00  0.00    -0.014 A 
ATOM     56  C   UNL A   1      49.202  26.734  28.965  1.00  0.00     0.009 A 
ATOM     57  C   UNL A   1      48.652  25.916  31.173  1.00  0.00     0.009 A 
ATOM     58  C   UNL A   1      50.507  26.260  29.116  1.00  0.00     0.001 A 
ATOM     59  C   UNL A   1      49.966  25.470  31.333  1.00  0.00     0.001 A 
ATOM     60  C   UNL A   1      50.890  25.633  30.301  1.00  0.00     0.000 A 
ENDBRANCH  41  55
BRANCH  42  61
ATOM     61  C   UNL A   1      38.671  29.190  29.066  1.00  0.00    -0.014 A 
ATOM     62  C   UNL A   1      38.184  29.701  27.852  1.00  0.00     0.009 A 
ATOM     63  C   UNL A   1      37.793  29.067  30.152  1.00  0.00     0.009 A 
ATOM     64  C   UNL A   1      36.854  30.107  27.738  1.00  0.00     0.001 A 
ATOM     65  C   UNL A   1      36.454  29.449  30.026  1.00  0.00     0.001 A 
ATOM     66  C   UNL A   1      35.989  29.977  28.823  1.00  0.00     0.000 A 
ENDBRANCH  42  61
BRANCH  54  67
ATOM     67  C   UNL A   1      44.399  32.549  31.123  1.00  0.00    -0.014 A 
ATOM     68  C   UNL A   1      44.644  33.577  30.200  1.00  0.00     0.009 A 
ATOM     69  C   UNL A   1      44.355  32.855  32.491  1.00  0.00     0.009 A 
ATOM     70  C   UNL A   1      44.881  34.879  30.642  1.00  0.00     0.001 A 
ATOM     71  C   UNL A   1      44.564  34.164  32.929  1.00  0.00     0.001 A 
ATOM     72  C   UNL A   1      44.839  35.171  32.006  1.00  0.00     0.000 A 
ENDBRANCH  54  67
ENDBRANCH  28  29
ENDBRANCH  20  23
ENDBRANCH  18  19
ENDBRANCH   1  18
TORSDOF 12
ENDMDL
MODEL 2
REMARK VINA RESULT:     -10.6      1.765      6.837
REMARK SMILES CCC(C)(C)c1cccc(C(=O)NCCCNC(=O)c2ccc(-c3c4nc(c(-c5ccccc5)c5ccc([nH]5)c(-c5ccccc5)c5nc(c(-c6ccccc6)c6ccc3[nH]6)C=C5)C=C4)cc2)c1
REMARK SMILES IDX 15 1 14 2 13 3 11 4 12 5 10 7 6 8 7 9 68 10 8 11 9 12 3 13
REMARK SMILES IDX 4 14 5 15 2 16 1 17 16 18 17 19 18 20 19 22 20 23 21 24
REMARK SMILES IDX 67 25 22 26 66 27 23 28 24 29 25 30 60 31 26 32 65 33 59 34
REMARK SMILES IDX 61 35 27 36 64 37 58 38 57 39 28 41 50 42 35 43 49 44 36 45
REMARK SMILES IDX 39 46 48 47 62 48 37 49 38 50 47 52 63 53 40 54 29 55 30 56
REMARK SMILES IDX 34 57 31 58 33 59 32 60 51 61 52 62 56 63 53 64 55 65 54 66
REMARK SMILES IDX 41 67 42 68 46 69 43 70 45 71 44 72
REMARK H PARENT 13 6 17 21 61 40 39 51
REMARK Flexibility Score: inf
ROOT
ATOM      1  C   UNL A   1      37.951  19.954  24.839  1.00  0.00     0.042 C 
ENDROOT
BRANCH   1   2
ATOM      2  C   UNL A   1      37.335  21.268  24.389  1.00  0.00     0.118 C 
BRANCH   2   3
ATOM      3  N   UNL A   1      37.788  22.435  25.127  1.00  0.00    -0.352 N 
ATOM      4  C   UNL A   1      37.141  23.456  25.785  1.00  0.00     0.251 C 
ATOM      5  O   UNL A   1      37.847  24.306  26.332  1.00  0.00    -0.269 OA
ATOM      6  H   UNL A   1      38.769  22.511  25.167  1.00  0.00     0.163 HD
BRANCH   4   7
ATOM      7  C   UNL A   1      35.660  23.633  25.797  1.00  0.00     0.040 A 
ATOM      8  C   UNL A   1      33.635  24.890  25.200  1.00  0.00    -0.042 A 
ATOM      9  C   UNL A   1      32.936  24.157  26.166  1.00  0.00     0.004 A 
ATOM     10  C   UNL A   1      34.965  24.495  24.947  1.00  0.00     0.018 A 
ATOM     11  C   UNL A   1      33.562  23.143  26.897  1.00  0.00     0.001 A 
ATOM     12  C   UNL A   1      34.928  22.915  26.748  1.00  0.00     0.014 A 
BRANCH   8  13
ATOM     13  C   UNL A   1      33.074  26.145  24.495  1.00  0.00    -0.011 C 
ATOM     14  C   UNL A   1      31.540  26.181  24.624  1.00  0.00     0.016 C 
ATOM     15  C   UNL A   1      33.417  26.033  22.975  1.00  0.00     0.016 C 
BRANCH  13  16
ATOM     16  C   UNL A   1      33.704  27.509  24.934  1.00  0.00     0.008 C 
ATOM     17  C   UNL A   1      33.863  27.784  26.425  1.00  0.00     0.005 C 
ENDBRANCH  13  16
ENDBRANCH   8  13
ENDBRANCH   4   7
ENDBRANCH   2   3
ENDBRANCH   1   2
BRANCH   1  18
ATOM     18  C   UNL A   1      38.870  20.067  26.041  1.00  0.00     0.118 C 
BRANCH  18  19
ATOM     19  N   UNL A   1      40.096  19.292  25.891  1.00  0.00    -0.352 N 
ATOM     20  C   UNL A   1      41.417  19.642  25.991  1.00  0.00     0.251 C 
ATOM     21  H   UNL A   1      39.948  18.342  25.680  1.00  0.00     0.163 HD
ATOM     22  O   UNL A   1      42.276  18.840  25.614  1.00  0.00    -0.269 OA
BRANCH  20  23
ATOM     23  C   UNL A   1      41.840  20.956  26.523  1.00  0.00     0.039 A 
ATOM     24  C   UNL A   1      42.202  21.964  25.622  1.00  0.00     0.014 A 
ATOM     25  C   UNL A   1      41.942  21.194  27.894  1.00  0.00     0.014 A 
ATOM     26  C   UNL A   1      42.603  23.216  26.096  1.00  0.00     0.010 A 
ATOM     27  C   UNL A   1      42.233  22.472  28.363  1.00  0.00     0.010 A 
ATOM     28  C   UNL A   1      42.588  23.492  27.472  1.00  0.00    -0.014 A 
BRANCH  28  29
ATOM     29  C   UNL A   1      42.964  24.829  27.995  1.00  0.00     0.031 A 
ATOM     30  C   UNL A   1      41.908  25.872  28.252  1.00  0.00     0.074 A 
ATOM     31  C   UNL A   1      44.265  25.126  28.188  1.00  0.00     0.049 A 
ATOM     32  N   UNL A   1      42.048  27.102  28.680  1.00  0.00    -0.248 NA
ATOM     33  C   UNL A   1      40.514  25.497  27.958  1.00  0.00     0.031 C 
ATOM     34  C   UNL A   1      45.390  24.227  27.922  1.00  0.00     0.029 A 
ATOM     35  N   UNL A   1      44.858  26.270  28.658  1.00  0.00    -0.354 N 
ATOM     36  C   UNL A   1      40.769  27.648  28.683  1.00  0.00     0.074 A 
ATOM     37  C   UNL A   1      39.876  26.639  28.160  1.00  0.00     0.031 C 
ATOM     38  C   UNL A   1      46.532  24.838  28.274  1.00  0.00     0.029 A 
ATOM     39  C   UNL A   1      46.224  26.180  28.756  1.00  0.00     0.049 A 
ATOM     40  H   UNL A   1      44.352  27.079  28.902  1.00  0.00     0.167 HD
ATOM     41  C   UNL A   1      40.368  28.871  29.106  1.00  0.00     0.031 A 
ATOM     42  C   UNL A   1      47.129  27.074  29.195  1.00  0.00     0.031 A 
ATOM     43  C   UNL A   1      41.252  29.867  29.650  1.00  0.00     0.049 A 
ATOM     44  C   UNL A   1      46.657  28.413  29.687  1.00  0.00     0.074 A 
ATOM     45  C   UNL A   1      40.937  31.112  30.164  1.00  0.00     0.029 A 
ATOM     46  N   UNL A   1      42.626  29.726  29.754  1.00  0.00    -0.354 N 
ATOM     47  N   UNL A   1      45.436  28.887  29.748  1.00  0.00    -0.248 NA
ATOM     48  C   UNL A   1      47.688  29.331  30.187  1.00  0.00     0.031 C 
ATOM     49  C   UNL A   1      42.127  31.742  30.544  1.00  0.00     0.029 A 
ATOM     50  C   UNL A   1      43.177  30.867  30.311  1.00  0.00     0.049 A 
ATOM     51  H   UNL A   1      43.136  28.931  29.473  1.00  0.00     0.167 HD
ATOM     52  C   UNL A   1      45.550  30.148  30.316  1.00  0.00     0.074 A 
ATOM     53  C   UNL A   1      46.955  30.355  30.600  1.00  0.00     0.031 C 
ATOM     54  C   UNL A   1      44.578  31.057  30.579  1.00  0.00     0.031 A 
BRANCH  41  55
ATOM     55  C   UNL A   1      38.903  29.191  28.997  1.00  0.00    -0.014 A 
ATOM     56  C   UNL A   1      38.040  29.031  30.093  1.00  0.00     0.009 A 
ATOM     57  C   UNL A   1      38.380  29.680  27.789  1.00  0.00     0.009 A 
ATOM     58  C   UNL A   1      36.677  29.312  29.970  1.00  0.00     0.001 A 
ATOM     59  C   UNL A   1      37.023  29.989  27.677  1.00  0.00     0.001 A 
ATOM     60  C   UNL A   1      36.170  29.795  28.764  1.00  0.00     0.000 A 
ENDBRANCH  41  55
BRANCH  42  61
ATOM     61  C   UNL A   1      48.572  26.719  29.228  1.00  0.00    -0.014 A 
ATOM     62  C   UNL A   1      49.402  27.021  28.137  1.00  0.00     0.009 A 
ATOM     63  C   UNL A   1      49.125  26.078  30.347  1.00  0.00     0.009 A 
ATOM     64  C   UNL A   1      50.751  26.663  28.154  1.00  0.00     0.001 A 
ATOM     65  C   UNL A   1      50.483  25.746  30.371  1.00  0.00     0.001 A 
ATOM     66  C   UNL A   1      51.291  26.029  29.272  1.00  0.00     0.000 A 
ENDBRANCH  42  61
BRANCH  54  67
ATOM     67  C   UNL A   1      45.007  32.341  31.229  1.00  0.00    -0.014 A 
ATOM     68  C   UNL A   1      45.065  32.466  32.626  1.00  0.00     0.009 A 
ATOM     69  C   UNL A   1      45.372  33.435  30.430  1.00  0.00     0.009 A 
ATOM     70  C   UNL A   1      45.440  33.677  33.209  1.00  0.00     0.001 A 
ATOM     71  C   UNL A   1      45.774  34.636  31.016  1.00  0.00     0.001 A 
ATOM     72  C   UNL A   1      45.797  34.759  32.405  1.00  0.00     0.000 A 
ENDBRANCH  54  67
ENDBRANCH  28  29
ENDBRANCH  20  23
ENDBRANCH  18  19
ENDBRANCH   1  18
TORSDOF 12
ENDMDL
MODEL 3
REMARK VINA RESULT:     -10.6      3.809      8.491
REMARK SMILES CCC(C)(C)c1cccc(C(=O)NCCCNC(=O)c2ccc(-c3c4nc(c(-c5ccccc5)c5ccc([nH]5)c(-c5ccccc5)c5nc(c(-c6ccccc6)c6ccc3[nH]6)C=C5)C=C4)cc2)c1
REMARK SMILES IDX 15 1 14 2 13 3 11 4 12 5 10 7 6 8 7 9 68 10 8 11 9 12 3 13
REMARK SMILES IDX 4 14 5 15 2 16 1 17 16 18 17 19 18 20 19 22 20 23 21 24
REMARK SMILES IDX 67 25 22 26 66 27 23 28 24 29 25 30 60 31 26 32 65 33 59 34
REMARK SMILES IDX 61 35 27 36 64 37 58 38 57 39 28 41 50 42 35 43 49 44 36 45
REMARK SMILES IDX 39 46 48 47 62 48 37 49 38 50 47 52 63 53 40 54 29 55 30 56
REMARK SMILES IDX 34 57 31 58 33 59 32 60 51 61 52 62 56 63 53 64 55 65 54 66
REMARK SMILES IDX 41 67 42 68 46 69 43 70 45 71 44 72
REMARK H PARENT 13 6 17 21 61 40 39 51
REMARK Flexibility Score: inf
ROOT
ATOM      1  C   UNL A   1      33.933  28.374  25.835  1.00  0.00     0.042 C 
ENDROOT
BRANCH   1   2
ATOM      2  C   UNL A   1      33.753  26.948  25.343  1.00  0.00     0.118 C 
BRANCH   2   3
ATOM      3  N   UNL A   1      33.929  26.773  23.911  1.00  0.00    -0.352 N 
ATOM      4  C   UNL A   1      33.072  26.803  22.834  1.00  0.00     0.251 C 
ATOM      5  O   UNL A   1      33.565  26.620  21.720  1.00  0.00    -0.269 OA
ATOM      6  H   UNL A   1      34.864  26.597  23.655  1.00  0.00     0.163 HD
BRANCH   4   7
ATOM      7  C   UNL A   1      31.592  26.954  22.951  1.00  0.00     0.040 A 
ATOM      8  C   UNL A   1      29.560  28.334  22.946  1.00  0.00    -0.042 A 
ATOM      9  C   UNL A   1      28.881  27.277  23.564  1.00  0.00     0.004 A 
ATOM     10  C   UNL A   1      30.881  28.076  22.525  1.00  0.00     0.018 A 
ATOM     11  C   UNL A   1      29.520  26.060  23.823  1.00  0.00     0.001 A 
ATOM     12  C   UNL A   1      30.881  25.916  23.562  1.00  0.00     0.014 A 
BRANCH   8  13
ATOM     13  C   UNL A   1      28.988  29.762  22.804  1.00  0.00    -0.011 C 
ATOM     14  C   UNL A   1      29.570  30.674  23.901  1.00  0.00     0.016 C 
ATOM     15  C   UNL A   1      27.443  29.683  23.027  1.00  0.00     0.016 C 
BRANCH  13  16
ATOM     16  C   UNL A   1      29.142  30.418  21.392  1.00  0.00     0.008 C 
ATOM     17  C   UNL A   1      28.112  31.457  20.962  1.00  0.00     0.005 C 
ENDBRANCH  13  16
ENDBRANCH   8  13
ENDBRANCH   4   7
ENDBRANCH   2   3
ENDBRANCH   1   2
BRANCH   1  18
ATOM     18  C   UNL A   1      33.500  28.606  27.271  1.00  0.00     0.118 C 
BRANCH  18  19
ATOM     19  N   UNL A   1      33.540  30.012  27.654  1.00  0.00    -0.352 N 
ATOM     20  C   UNL A   1      34.502  30.762  28.279  1.00  0.00     0.251 C 
ATOM     21  H   UNL A   1      32.727  30.515  27.421  1.00  0.00     0.163 HD
ATOM     22  O   UNL A   1      34.208  31.892  28.679  1.00  0.00    -0.269 OA
BRANCH  20  23
ATOM     23  C   UNL A   1      35.871  30.249  28.501  1.00  0.00     0.039 A 
ATOM     24  C   UNL A   1      36.800  30.330  27.458  1.00  0.00     0.014 A 
ATOM     25  C   UNL A   1      36.240  29.637  29.700  1.00  0.00     0.014 A 
ATOM     26  C   UNL A   1      38.102  29.855  27.640  1.00  0.00     0.010 A 
ATOM     27  C   UNL A   1      37.563  29.267  29.920  1.00  0.00     0.010 A 
ATOM     28  C   UNL A   1      38.504  29.352  28.887  1.00  0.00    -0.014 A 
BRANCH  28  29
ATOM     29  C   UNL A   1      39.895  28.886  29.118  1.00  0.00     0.031 A 
ATOM     30  C   UNL A   1      40.903  29.793  29.775  1.00  0.00     0.074 A 
ATOM     31  C   UNL A   1      40.268  27.665  28.687  1.00  0.00     0.049 A 
ATOM     32  N   UNL A   1      42.168  29.572  30.034  1.00  0.00    -0.248 NA
ATOM     33  C   UNL A   1      40.440  31.136  30.162  1.00  0.00     0.031 C 
ATOM     34  C   UNL A   1      39.406  26.712  27.983  1.00  0.00     0.029 A 
ATOM     35  N   UNL A   1      41.473  27.015  28.781  1.00  0.00    -0.354 N 
ATOM     36  C   UNL A   1      42.651  30.751  30.589  1.00  0.00     0.074 A 
ATOM     37  C   UNL A   1      41.563  31.702  30.577  1.00  0.00     0.031 C 
ATOM     38  C   UNL A   1      40.097  25.585  27.750  1.00  0.00     0.029 A 
ATOM     39  C   UNL A   1      41.455  25.747  28.254  1.00  0.00     0.049 A 
ATOM     40  H   UNL A   1      42.273  27.419  29.189  1.00  0.00     0.167 HD
ATOM     41  C   UNL A   1      43.883  31.014  31.088  1.00  0.00     0.031 A 
ATOM     42  C   UNL A   1      42.424  24.814  28.192  1.00  0.00     0.031 A 
ATOM     43  C   UNL A   1      44.959  30.061  31.124  1.00  0.00     0.049 A 
ATOM     44  C   UNL A   1      43.772  25.118  28.780  1.00  0.00     0.074 A 
ATOM     45  C   UNL A   1      46.225  30.207  31.665  1.00  0.00     0.029 A 
ATOM     46  N   UNL A   1      44.892  28.780  30.602  1.00  0.00    -0.354 N 
ATOM     47  N   UNL A   1      44.191  26.215  29.364  1.00  0.00    -0.248 NA
ATOM     48  C   UNL A   1      44.775  24.048  28.714  1.00  0.00     0.031 C 
ATOM     49  C   UNL A   1      46.938  29.026  31.434  1.00  0.00     0.029 A 
ATOM     50  C   UNL A   1      46.099  28.128  30.793  1.00  0.00     0.049 A 
ATOM     51  H   UNL A   1      44.104  28.390  30.159  1.00  0.00     0.167 HD
ATOM     52  C   UNL A   1      45.497  25.957  29.758  1.00  0.00     0.074 A 
ATOM     53  C   UNL A   1      45.792  24.594  29.365  1.00  0.00     0.031 C 
ATOM     54  C   UNL A   1      46.376  26.775  30.388  1.00  0.00     0.031 A 
BRANCH  41  55
ATOM     55  C   UNL A   1      44.123  32.392  31.639  1.00  0.00    -0.014 A 
ATOM     56  C   UNL A   1      43.879  32.688  32.991  1.00  0.00     0.009 A 
ATOM     57  C   UNL A   1      44.620  33.404  30.803  1.00  0.00     0.009 A 
ATOM     58  C   UNL A   1      44.086  33.979  33.482  1.00  0.00     0.001 A 
ATOM     59  C   UNL A   1      44.856  34.687  31.305  1.00  0.00     0.001 A 
ATOM     60  C   UNL A   1      44.579  34.976  32.641  1.00  0.00     0.000 A 
ENDBRANCH  41  55
BRANCH  42  61
ATOM     61  C   UNL A   1      42.142  23.488  27.586  1.00  0.00    -0.014 A 
ATOM     62  C   UNL A   1      41.536  22.475  28.347  1.00  0.00     0.009 A 
ATOM     63  C   UNL A   1      42.475  23.225  26.249  1.00  0.00     0.009 A 
ATOM     64  C   UNL A   1      41.296  21.218  27.789  1.00  0.00     0.001 A 
ATOM     65  C   UNL A   1      42.208  21.975  25.685  1.00  0.00     0.001 A 
ATOM     66  C   UNL A   1      41.628  20.970  26.458  1.00  0.00     0.000 A 
ENDBRANCH  42  61
BRANCH  54  67
ATOM     67  C   UNL A   1      47.726  26.201  30.711  1.00  0.00    -0.014 A 
ATOM     68  C   UNL A   1      48.742  26.143  29.746  1.00  0.00     0.009 A 
ATOM     69  C   UNL A   1      47.986  25.726  32.005  1.00  0.00     0.009 A 
ATOM     70  C   UNL A   1      49.981  25.582  30.059  1.00  0.00     0.001 A 
ATOM     71  C   UNL A   1      49.234  25.191  32.324  1.00  0.00     0.001 A 
ATOM     72  C   UNL A   1      50.226  25.109  31.348  1.00  0.00     0.000 A 
ENDBRANCH  54  67
ENDBRANCH  28  29
ENDBRANCH  20  23
ENDBRANCH  18  19
ENDBRANCH   1  18
TORSDOF 12
ENDMDL
