MODEL 1
REMARK VINA RESULT:     -12.7      0.000      0.000
REMARK SMILES COc1c[nH]c(C[N@H+]2CCC[C@@H](c3ccc(C(=O)NCCCNC(=O)c4ccc(-c5c6nc(c(-c7ccccc7)c7ccc([nH]7)c(-c7ccccc7)c7nc(c(-c8ccccc8)c8ccc5[nH]8)C=C7)C=C6)cc4)cc3)C2)cc1=O
REMARK SMILES IDX 20 1 19 2 17 3 18 4 16 6 13 7 14 8 75 9 15 10 74 11 12 12
REMARK SMILES IDX 8 13 9 14 76 15 10 17 11 18 7 19 6 20 3 21 4 22 78 23 5 24
REMARK SMILES IDX 77 25 79 26 2 28 1 29 21 30 22 31 23 32 24 33 25 35 26 36
REMARK SMILES IDX 27 37 73 38 28 39 72 40 29 41 30 42 31 43 66 44 32 45 71 46
REMARK SMILES IDX 65 47 67 48 33 49 70 50 64 51 63 52 34 54 56 55 41 56 55 57
REMARK SMILES IDX 42 58 45 59 54 60 68 61 43 62 44 63 53 65 69 66 46 67 35 68
REMARK SMILES IDX 36 69 40 70 37 71 39 72 38 73 57 74 58 75 62 76 59 77 61 78
REMARK SMILES IDX 60 79 47 80 48 81 52 82 49 83 51 84 50 85
REMARK H PARENT 19 5 8 16 5 27 23 34 67 53 45 64
REMARK Flexibility Score: inf
ROOT
ATOM      1  C   UNL A   1      31.674  30.650  26.419  1.00  0.00     0.118 C 
ENDROOT
BRANCH   1   2
ATOM      2  N   UNL A   1      31.329  30.446  25.024  1.00  0.00    -0.352 N 
ATOM      3  C   UNL A   1      31.360  29.332  24.228  1.00  0.00     0.251 C 
ATOM      4  O   UNL A   1      30.948  29.444  23.073  1.00  0.00    -0.269 OA
ATOM      5  H   UNL A   1      31.016  31.260  24.566  1.00  0.00     0.163 HD
BRANCH   3   6
ATOM      6  C   UNL A   1      31.808  27.999  24.713  1.00  0.00     0.039 A 
ATOM      7  C   UNL A   1      32.825  25.486  25.515  1.00  0.00    -0.039 A 
ATOM      8  C   UNL A   1      33.676  26.475  24.997  1.00  0.00     0.005 A 
ATOM      9  C   UNL A   1      31.474  25.800  25.691  1.00  0.00     0.005 A 
ATOM     10  C   UNL A   1      33.172  27.710  24.590  1.00  0.00     0.014 A 
ATOM     11  C   UNL A   1      30.976  27.051  25.313  1.00  0.00     0.014 A 
BRANCH   7  12
ATOM     12  C   UNL A   1      33.335  24.098  25.877  1.00  0.00     0.074 C 
ATOM     13  N   UNL A   1      32.991  21.643  25.426  1.00  0.00    -0.329 N 
ATOM     14  C   UNL A   1      34.406  21.505  25.053  1.00  0.00     0.262 C 
ATOM     15  C   UNL A   1      32.506  23.004  25.170  1.00  0.00     0.270 C 
ATOM     16  H   UNL A   1      32.922  21.486  26.431  1.00  0.00     0.348 HD
ATOM     17  C   UNL A   1      35.281  22.513  25.803  1.00  0.00     0.062 C 
ATOM     18  C   UNL A   1      34.824  23.947  25.549  1.00  0.00     0.020 C 
BRANCH  13  19
ATOM     19  C   UNL A   1      32.144  20.605  24.797  1.00  0.00     0.317 C 
BRANCH  19  20
ATOM     20  C   UNL A   1      32.704  19.185  24.772  1.00  0.00     0.074 A 
ATOM     21  C   UNL A   1      33.475  16.437  24.928  1.00  0.00     0.182 A 
ATOM     22  C   UNL A   1      33.059  17.136  25.992  1.00  0.00     0.133 A 
ATOM     23  C   UNL A   1      33.601  17.204  23.636  1.00  0.00     0.223 A 
ATOM     24  N   UNL A   1      32.748  18.467  25.955  1.00  0.00    -0.357 N 
ATOM     25  C   UNL A   1      33.145  18.625  23.631  1.00  0.00     0.083 A 
ATOM     26  O   UNL A   1      34.032  16.707  22.600  1.00  0.00    -0.286 OA
ATOM     27  H   UNL A   1      32.547  18.932  26.799  1.00  0.00     0.166 HD
BRANCH  21  28
ATOM     28  O   UNL A   1      33.685  15.074  25.023  1.00  0.00    -0.491 OA
ATOM     29  C   UNL A   1      32.582  14.377  25.590  1.00  0.00     0.278 C 
ENDBRANCH  21  28
ENDBRANCH  19  20
ENDBRANCH  13  19
ENDBRANCH   7  12
ENDBRANCH   3   6
ENDBRANCH   1   2
BRANCH   1  30
ATOM     30  C   UNL A   1      31.444  32.102  26.835  1.00  0.00     0.042 C 
BRANCH  30  31
ATOM     31  C   UNL A   1      32.735  32.885  27.046  1.00  0.00     0.118 C 
BRANCH  31  32
ATOM     32  N   UNL A   1      32.490  34.192  27.634  1.00  0.00    -0.352 N 
ATOM     33  C   UNL A   1      33.086  34.795  28.713  1.00  0.00     0.251 C 
ATOM     34  H   UNL A   1      31.789  34.725  27.193  1.00  0.00     0.163 HD
ATOM     35  O   UNL A   1      32.588  35.809  29.192  1.00  0.00    -0.269 OA
BRANCH  33  36
ATOM     36  C   UNL A   1      34.317  34.229  29.309  1.00  0.00     0.039 A 
ATOM     37  C   UNL A   1      34.203  33.439  30.457  1.00  0.00     0.014 A 
ATOM     38  C   UNL A   1      35.578  34.515  28.780  1.00  0.00     0.014 A 
ATOM     39  C   UNL A   1      35.349  32.900  31.048  1.00  0.00     0.010 A 
ATOM     40  C   UNL A   1      36.714  33.923  29.330  1.00  0.00     0.010 A 
ATOM     41  C   UNL A   1      36.611  33.119  30.475  1.00  0.00    -0.014 A 
BRANCH  41  42
ATOM     42  C   UNL A   1      37.836  32.529  31.069  1.00  0.00     0.031 A 
ATOM     43  C   UNL A   1      38.480  31.327  30.435  1.00  0.00     0.074 A 
ATOM     44  C   UNL A   1      38.338  33.041  32.209  1.00  0.00     0.049 A 
ATOM     45  N   UNL A   1      39.514  30.635  30.840  1.00  0.00    -0.248 NA
ATOM     46  C   UNL A   1      37.866  30.821  29.196  1.00  0.00     0.031 C 
ATOM     47  C   UNL A   1      37.787  34.186  32.939  1.00  0.00     0.029 A 
ATOM     48  N   UNL A   1      39.420  32.658  32.958  1.00  0.00    -0.354 N 
ATOM     49  C   UNL A   1      39.662  29.604  29.921  1.00  0.00     0.074 A 
ATOM     50  C   UNL A   1      38.588  29.735  28.961  1.00  0.00     0.031 C 
ATOM     51  C   UNL A   1      38.550  34.424  34.018  1.00  0.00     0.029 A 
ATOM     52  C   UNL A   1      39.616  33.429  34.077  1.00  0.00     0.049 A 
ATOM     53  H   UNL A   1      40.002  31.901  32.718  1.00  0.00     0.167 HD
ATOM     54  C   UNL A   1      40.615  28.642  29.871  1.00  0.00     0.031 A 
ATOM     55  C   UNL A   1      40.547  33.343  35.046  1.00  0.00     0.031 A 
ATOM     56  C   UNL A   1      41.692  28.519  30.816  1.00  0.00     0.049 A 
ATOM     57  C   UNL A   1      41.589  32.264  34.970  1.00  0.00     0.074 A 
ATOM     58  C   UNL A   1      42.738  27.612  30.818  1.00  0.00     0.029 A 
ATOM     59  N   UNL A   1      41.860  29.328  31.928  1.00  0.00    -0.354 N 
ATOM     60  N   UNL A   1      41.749  31.333  34.062  1.00  0.00    -0.248 NA
ATOM     61  C   UNL A   1      42.585  32.231  36.051  1.00  0.00     0.031 C 
ATOM     62  C   UNL A   1      43.517  27.847  31.958  1.00  0.00     0.029 A 
ATOM     63  C   UNL A   1      42.981  28.929  32.636  1.00  0.00     0.049 A 
ATOM     64  H   UNL A   1      41.269  30.074  32.179  1.00  0.00     0.167 HD
ATOM     65  C   UNL A   1      42.876  30.621  34.445  1.00  0.00     0.074 A 
ATOM     66  C   UNL A   1      43.369  31.236  35.662  1.00  0.00     0.031 C 
ATOM     67  C   UNL A   1      43.455  29.552  33.844  1.00  0.00     0.031 A 
BRANCH  54  68
ATOM     68  C   UNL A   1      40.527  27.640  28.753  1.00  0.00    -0.014 A 
ATOM     69  C   UNL A   1      39.783  26.459  28.893  1.00  0.00     0.009 A 
ATOM     70  C   UNL A   1      41.172  27.896  27.533  1.00  0.00     0.009 A 
ATOM     71  C   UNL A   1      39.717  25.536  27.847  1.00  0.00     0.001 A 
ATOM     72  C   UNL A   1      41.082  26.985  26.479  1.00  0.00     0.001 A 
ATOM     73  C   UNL A   1      40.363  25.801  26.640  1.00  0.00     0.000 A 
ENDBRANCH  54  68
BRANCH  55  74
ATOM     74  C   UNL A   1      40.545  34.320  36.165  1.00  0.00    -0.014 A 
ATOM     75  C   UNL A   1      41.273  35.515  36.063  1.00  0.00     0.009 A 
ATOM     76  C   UNL A   1      39.821  34.063  37.339  1.00  0.00     0.009 A 
ATOM     77  C   UNL A   1      41.293  36.423  37.124  1.00  0.00     0.001 A 
ATOM     78  C   UNL A   1      39.822  34.985  38.388  1.00  0.00     0.001 A 
ATOM     79  C   UNL A   1      40.565  36.160  38.283  1.00  0.00     0.000 A 
ENDBRANCH  55  74
BRANCH  67  80
ATOM     80  C   UNL A   1      44.702  29.004  34.476  1.00  0.00    -0.014 A 
ATOM     81  C   UNL A   1      45.967  29.519  34.157  1.00  0.00     0.009 A 
ATOM     82  C   UNL A   1      44.603  27.981  35.433  1.00  0.00     0.009 A 
ATOM     83  C   UNL A   1      47.113  28.997  34.761  1.00  0.00     0.001 A 
ATOM     84  C   UNL A   1      45.747  27.481  36.055  1.00  0.00     0.001 A 
ATOM     85  C   UNL A   1      47.001  27.983  35.712  1.00  0.00     0.000 A 
ENDBRANCH  67  80
ENDBRANCH  41  42
ENDBRANCH  33  36
ENDBRANCH  31  32
ENDBRANCH  30  31
ENDBRANCH   1  30
TORSDOF 14
ENDMDL
MODEL 2
REMARK VINA RESULT:     -12.5      5.897     10.464
REMARK SMILES COc1c[nH]c(C[N@H+]2CCC[C@@H](c3ccc(C(=O)NCCCNC(=O)c4ccc(-c5c6nc(c(-c7ccccc7)c7ccc([nH]7)c(-c7ccccc7)c7nc(c(-c8ccccc8)c8ccc5[nH]8)C=C7)C=C6)cc4)cc3)C2)cc1=O
REMARK SMILES IDX 20 1 19 2 17 3 18 4 16 6 13 7 14 8 75 9 15 10 74 11 12 12
REMARK SMILES IDX 8 13 9 14 76 15 10 17 11 18 7 19 6 20 3 21 4 22 78 23 5 24
REMARK SMILES IDX 77 25 79 26 2 28 1 29 21 30 22 31 23 32 24 33 25 35 26 36
REMARK SMILES IDX 27 37 73 38 28 39 72 40 29 41 30 42 31 43 66 44 32 45 71 46
REMARK SMILES IDX 65 47 67 48 33 49 70 50 64 51 63 52 34 54 56 55 41 56 55 57
REMARK SMILES IDX 42 58 45 59 54 60 68 61 43 62 44 63 53 65 69 66 46 67 35 68
REMARK SMILES IDX 36 69 40 70 37 71 39 72 38 73 57 74 58 75 62 76 59 77 61 78
REMARK SMILES IDX 60 79 47 80 48 81 52 82 49 83 51 84 50 85
REMARK H PARENT 19 5 8 16 5 27 23 34 67 53 45 64
REMARK Flexibility Score: inf
ROOT
ATOM      1  C   UNL A   1      41.370  19.655  27.167  1.00  0.00     0.118 C 
ENDROOT
BRANCH   1   2
ATOM      2  N   UNL A   1      41.598  20.970  27.735  1.00  0.00    -0.352 N 
ATOM      3  C   UNL A   1      40.896  22.142  27.638  1.00  0.00     0.251 C 
ATOM      4  O   UNL A   1      41.303  23.106  28.288  1.00  0.00    -0.269 OA
ATOM      5  H   UNL A   1      42.407  21.030  28.293  1.00  0.00     0.163 HD
BRANCH   3   6
ATOM      6  C   UNL A   1      39.648  22.279  26.840  1.00  0.00     0.039 A 
ATOM      7  C   UNL A   1      37.229  22.703  25.441  1.00  0.00    -0.039 A 
ATOM      8  C   UNL A   1      37.841  23.747  26.152  1.00  0.00     0.005 A 
ATOM      9  C   UNL A   1      37.882  21.468  25.381  1.00  0.00     0.005 A 
ATOM     10  C   UNL A   1      39.028  23.534  26.853  1.00  0.00     0.014 A 
ATOM     11  C   UNL A   1      39.090  21.266  26.058  1.00  0.00     0.014 A 
BRANCH   7  12
ATOM     12  C   UNL A   1      35.886  22.885  24.747  1.00  0.00     0.074 C 
ATOM     13  N   UNL A   1      33.491  22.100  24.753  1.00  0.00    -0.329 N 
ATOM     14  C   UNL A   1      33.028  23.487  24.892  1.00  0.00     0.262 C 
ATOM     15  C   UNL A   1      34.828  21.926  25.335  1.00  0.00     0.270 C 
ATOM     16  H   UNL A   1      33.573  21.901  23.757  1.00  0.00     0.348 HD
ATOM     17  C   UNL A   1      34.006  24.468  24.238  1.00  0.00     0.062 C 
ATOM     18  C   UNL A   1      35.406  24.338  24.829  1.00  0.00     0.020 C 
BRANCH  13  19
ATOM     19  C   UNL A   1      32.507  21.128  25.279  1.00  0.00     0.317 C 
BRANCH  19  20
ATOM     20  C   UNL A   1      32.764  19.655  24.968  1.00  0.00     0.074 A 
ATOM     21  C   UNL A   1      32.999  16.826  24.633  1.00  0.00     0.182 A 
ATOM     22  C   UNL A   1      32.933  17.412  25.836  1.00  0.00     0.133 A 
ATOM     23  C   UNL A   1      33.028  17.751  23.443  1.00  0.00     0.223 A 
ATOM     24  N   UNL A   1      32.887  18.766  26.023  1.00  0.00    -0.357 N 
ATOM     25  C   UNL A   1      32.866  19.212  23.702  1.00  0.00     0.083 A 
ATOM     26  O   UNL A   1      33.153  17.355  22.288  1.00  0.00    -0.286 OA
ATOM     27  H   UNL A   1      32.942  19.121  26.938  1.00  0.00     0.166 HD
BRANCH  21  28
ATOM     28  O   UNL A   1      32.953  15.449  24.520  1.00  0.00    -0.491 OA
ATOM     29  C   UNL A   1      32.481  14.807  25.699  1.00  0.00     0.278 C 
ENDBRANCH  21  28
ENDBRANCH  19  20
ENDBRANCH  13  19
ENDBRANCH   7  12
ENDBRANCH   3   6
ENDBRANCH   1   2
BRANCH   1  30
ATOM     30  C   UNL A   1      42.142  19.479  25.861  1.00  0.00     0.042 C 
BRANCH  30  31
ATOM     31  C   UNL A   1      43.488  18.786  26.039  1.00  0.00     0.118 C 
BRANCH  31  32
ATOM     32  N   UNL A   1      44.199  18.642  24.778  1.00  0.00    -0.352 N 
ATOM     33  C   UNL A   1      44.771  19.600  23.979  1.00  0.00     0.251 C 
ATOM     34  H   UNL A   1      44.281  17.719  24.447  1.00  0.00     0.163 HD
ATOM     35  O   UNL A   1      45.130  19.306  22.844  1.00  0.00    -0.269 OA
BRANCH  33  36
ATOM     36  C   UNL A   1      44.949  20.985  24.471  1.00  0.00     0.039 A 
ATOM     37  C   UNL A   1      44.562  22.044  23.644  1.00  0.00     0.014 A 
ATOM     38  C   UNL A   1      45.543  21.246  25.709  1.00  0.00     0.014 A 
ATOM     39  C   UNL A   1      44.729  23.362  24.077  1.00  0.00     0.010 A 
ATOM     40  C   UNL A   1      45.647  22.558  26.168  1.00  0.00     0.010 A 
ATOM     41  C   UNL A   1      45.251  23.628  25.352  1.00  0.00    -0.014 A 
BRANCH  41  42
ATOM     42  C   UNL A   1      45.406  25.019  25.844  1.00  0.00     0.031 A 
ATOM     43  C   UNL A   1      46.757  25.679  25.835  1.00  0.00     0.074 A 
ATOM     44  C   UNL A   1      44.340  25.670  26.350  1.00  0.00     0.049 A 
ATOM     45  N   UNL A   1      47.102  26.861  26.279  1.00  0.00    -0.248 NA
ATOM     46  C   UNL A   1      47.873  24.899  25.274  1.00  0.00     0.031 C 
ATOM     47  C   UNL A   1      42.983  25.128  26.445  1.00  0.00     0.029 A 
ATOM     48  N   UNL A   1      44.236  26.926  26.888  1.00  0.00    -0.354 N 
ATOM     49  C   UNL A   1      48.472  26.958  26.071  1.00  0.00     0.074 A 
ATOM     50  C   UNL A   1      48.903  25.701  25.500  1.00  0.00     0.031 C 
ATOM     51  C   UNL A   1      42.179  26.057  26.987  1.00  0.00     0.029 A 
ATOM     52  C   UNL A   1      42.968  27.240  27.312  1.00  0.00     0.049 A 
ATOM     53  H   UNL A   1      44.998  27.545  26.965  1.00  0.00     0.167 HD
ATOM     54  C   UNL A   1      49.296  28.004  26.319  1.00  0.00     0.031 A 
ATOM     55  C   UNL A   1      42.494  28.354  27.901  1.00  0.00     0.031 A 
ATOM     56  C   UNL A   1      48.866  29.260  26.874  1.00  0.00     0.049 A 
ATOM     57  C   UNL A   1      43.429  29.498  28.171  1.00  0.00     0.074 A 
ATOM     58  C   UNL A   1      49.615  30.400  27.110  1.00  0.00     0.029 A 
ATOM     59  N   UNL A   1      47.571  29.540  27.278  1.00  0.00    -0.354 N 
ATOM     60  N   UNL A   1      44.711  29.595  27.914  1.00  0.00    -0.248 NA
ATOM     61  C   UNL A   1      42.848  30.690  28.804  1.00  0.00     0.031 C 
ATOM     62  C   UNL A   1      48.779  31.357  27.698  1.00  0.00     0.029 A 
ATOM     63  C   UNL A   1      47.502  30.828  27.783  1.00  0.00     0.049 A 
ATOM     64  H   UNL A   1      46.812  28.915  27.218  1.00  0.00     0.167 HD
ATOM     65  C   UNL A   1      45.084  30.865  28.329  1.00  0.00     0.074 A 
ATOM     66  C   UNL A   1      43.891  31.508  28.842  1.00  0.00     0.031 C 
ATOM     67  C   UNL A   1      46.307  31.450  28.289  1.00  0.00     0.031 A 
BRANCH  54  68
ATOM     68  C   UNL A   1      50.754  27.827  25.996  1.00  0.00    -0.014 A 
ATOM     69  C   UNL A   1      51.266  28.173  24.736  1.00  0.00     0.009 A 
ATOM     70  C   UNL A   1      51.631  27.338  26.975  1.00  0.00     0.009 A 
ATOM     71  C   UNL A   1      52.621  27.996  24.450  1.00  0.00     0.001 A 
ATOM     72  C   UNL A   1      52.991  27.187  26.696  1.00  0.00     0.001 A 
ATOM     73  C   UNL A   1      53.483  27.507  25.431  1.00  0.00     0.000 A 
ENDBRANCH  54  68
BRANCH  55  74
ATOM     74  C   UNL A   1      41.056  28.447  28.261  1.00  0.00    -0.014 A 
ATOM     75  C   UNL A   1      40.127  28.956  27.342  1.00  0.00     0.009 A 
ATOM     76  C   UNL A   1      40.606  28.032  29.524  1.00  0.00     0.009 A 
ATOM     77  C   UNL A   1      38.778  29.069  27.688  1.00  0.00     0.001 A 
ATOM     78  C   UNL A   1      39.253  28.121  29.858  1.00  0.00     0.001 A 
ATOM     79  C   UNL A   1      38.342  28.648  28.943  1.00  0.00     0.000 A 
ENDBRANCH  55  74
BRANCH  67  80
ATOM     80  C   UNL A   1      46.405  32.864  28.783  1.00  0.00    -0.014 A 
ATOM     81  C   UNL A   1      46.611  33.148  30.141  1.00  0.00     0.009 A 
ATOM     82  C   UNL A   1      46.328  33.926  27.868  1.00  0.00     0.009 A 
ATOM     83  C   UNL A   1      46.706  34.471  30.578  1.00  0.00     0.001 A 
ATOM     84  C   UNL A   1      46.451  35.246  28.303  1.00  0.00     0.001 A 
ATOM     85  C   UNL A   1      46.630  35.517  29.659  1.00  0.00     0.000 A 
ENDBRANCH  67  80
ENDBRANCH  41  42
ENDBRANCH  33  36
ENDBRANCH  31  32
ENDBRANCH  30  31
ENDBRANCH   1  30
TORSDOF 14
ENDMDL
MODEL 3
REMARK VINA RESULT:     -12.3      5.905     10.753
REMARK SMILES COc1c[nH]c(C[N@H+]2CCC[C@@H](c3ccc(C(=O)NCCCNC(=O)c4ccc(-c5c6nc(c(-c7ccccc7)c7ccc([nH]7)c(-c7ccccc7)c7nc(c(-c8ccccc8)c8ccc5[nH]8)C=C7)C=C6)cc4)cc3)C2)cc1=O
REMARK SMILES IDX 20 1 19 2 17 3 18 4 16 6 13 7 14 8 75 9 15 10 74 11 12 12
REMARK SMILES IDX 8 13 9 14 76 15 10 17 11 18 7 19 6 20 3 21 4 22 78 23 5 24
REMARK SMILES IDX 77 25 79 26 2 28 1 29 21 30 22 31 23 32 24 33 25 35 26 36
REMARK SMILES IDX 27 37 73 38 28 39 72 40 29 41 30 42 31 43 66 44 32 45 71 46
REMARK SMILES IDX 65 47 67 48 33 49 70 50 64 51 63 52 34 54 56 55 41 56 55 57
REMARK SMILES IDX 42 58 45 59 54 60 68 61 43 62 44 63 53 65 69 66 46 67 35 68
REMARK SMILES IDX 36 69 40 70 37 71 39 72 38 73 57 74 58 75 62 76 59 77 61 78
REMARK SMILES IDX 60 79 47 80 48 81 52 82 49 83 51 84 50 85
REMARK H PARENT 19 5 8 16 5 27 23 34 67 53 45 64
REMARK Flexibility Score: inf
ROOT
ATOM      1  C   UNL A   1      41.345  19.688  27.260  1.00  0.00     0.118 C 
ENDROOT
BRANCH   1   2
ATOM      2  N   UNL A   1      41.586  21.014  27.796  1.00  0.00    -0.352 N 
ATOM      3  C   UNL A   1      40.894  22.190  27.673  1.00  0.00     0.251 C 
ATOM      4  O   UNL A   1      41.311  23.166  28.299  1.00  0.00    -0.269 OA
ATOM      5  H   UNL A   1      42.397  21.081  28.351  1.00  0.00     0.163 HD
BRANCH   3   6
ATOM      6  C   UNL A   1      39.645  22.319  26.875  1.00  0.00     0.039 A 
ATOM      7  C   UNL A   1      37.225  22.729  25.473  1.00  0.00    -0.039 A 
ATOM      8  C   UNL A   1      37.837  23.779  26.175  1.00  0.00     0.005 A 
ATOM      9  C   UNL A   1      37.880  21.494  25.424  1.00  0.00     0.005 A 
ATOM     10  C   UNL A   1      39.024  23.573  26.877  1.00  0.00     0.014 A 
ATOM     11  C   UNL A   1      39.088  21.299  26.101  1.00  0.00     0.014 A 
BRANCH   7  12
ATOM     12  C   UNL A   1      35.882  22.903  24.779  1.00  0.00     0.074 C 
ATOM     13  N   UNL A   1      33.491  22.105  24.784  1.00  0.00    -0.329 N 
ATOM     14  C   UNL A   1      33.020  23.490  24.922  1.00  0.00     0.262 C 
ATOM     15  C   UNL A   1      34.828  21.939  25.366  1.00  0.00     0.270 C 
ATOM     16  H   UNL A   1      33.574  21.907  23.787  1.00  0.00     0.348 HD
ATOM     17  C   UNL A   1      33.993  24.476  24.269  1.00  0.00     0.062 C 
ATOM     18  C   UNL A   1      35.394  24.353  24.860  1.00  0.00     0.020 C 
BRANCH  13  19
ATOM     19  C   UNL A   1      32.512  21.127  25.308  1.00  0.00     0.317 C 
BRANCH  19  20
ATOM     20  C   UNL A   1      32.792  19.654  25.020  1.00  0.00     0.074 A 
ATOM     21  C   UNL A   1      33.064  16.824  24.723  1.00  0.00     0.182 A 
ATOM     22  C   UNL A   1      32.968  17.423  25.917  1.00  0.00     0.133 A 
ATOM     23  C   UNL A   1      33.106  17.736  23.523  1.00  0.00     0.223 A 
ATOM     24  N   UNL A   1      32.903  18.779  26.087  1.00  0.00    -0.357 N 
ATOM     25  C   UNL A   1      32.923  19.198  23.761  1.00  0.00     0.083 A 
ATOM     26  O   UNL A   1      33.257  17.328  22.376  1.00  0.00    -0.286 OA
ATOM     27  H   UNL A   1      32.937  19.145  27.000  1.00  0.00     0.166 HD
BRANCH  21  28
ATOM     28  O   UNL A   1      33.035  15.446  24.626  1.00  0.00    -0.491 OA
ATOM     29  C   UNL A   1      32.444  14.817  25.757  1.00  0.00     0.278 C 
ENDBRANCH  21  28
ENDBRANCH  19  20
ENDBRANCH  13  19
ENDBRANCH   7  12
ENDBRANCH   3   6
ENDBRANCH   1   2
BRANCH   1  30
ATOM     30  C   UNL A   1      42.050  19.502  25.918  1.00  0.00     0.042 C 
BRANCH  30  31
ATOM     31  C   UNL A   1      43.427  18.858  26.039  1.00  0.00     0.118 C 
BRANCH  31  32
ATOM     32  N   UNL A   1      44.086  18.734  24.748  1.00  0.00    -0.352 N 
ATOM     33  C   UNL A   1      44.667  19.698  23.964  1.00  0.00     0.251 C 
ATOM     34  H   UNL A   1      44.120  17.821  24.381  1.00  0.00     0.163 HD
ATOM     35  O   UNL A   1      44.974  19.433  22.806  1.00  0.00    -0.269 OA
BRANCH  33  36
ATOM     36  C   UNL A   1      44.917  21.056  24.497  1.00  0.00     0.039 A 
ATOM     37  C   UNL A   1      44.528  22.159  23.731  1.00  0.00     0.014 A 
ATOM     38  C   UNL A   1      45.578  21.248  25.713  1.00  0.00     0.014 A 
ATOM     39  C   UNL A   1      44.762  23.452  24.204  1.00  0.00     0.010 A 
ATOM     40  C   UNL A   1      45.750  22.537  26.216  1.00  0.00     0.010 A 
ATOM     41  C   UNL A   1      45.354  23.651  25.461  1.00  0.00    -0.014 A 
BRANCH  41  42
ATOM     42  C   UNL A   1      45.581  25.016  25.996  1.00  0.00     0.031 A 
ATOM     43  C   UNL A   1      44.437  25.801  26.576  1.00  0.00     0.074 A 
ATOM     44  C   UNL A   1      46.805  25.571  25.909  1.00  0.00     0.049 A 
ATOM     45  N   UNL A   1      44.425  27.027  27.033  1.00  0.00    -0.248 NA
ATOM     46  C   UNL A   1      43.128  25.128  26.626  1.00  0.00     0.031 C 
ATOM     47  C   UNL A   1      47.990  24.927  25.339  1.00  0.00     0.029 A 
ATOM     48  N   UNL A   1      47.251  26.810  26.293  1.00  0.00    -0.354 N 
ATOM     49  C   UNL A   1      43.110  27.279  27.406  1.00  0.00     0.074 A 
ATOM     50  C   UNL A   1      42.345  26.094  27.082  1.00  0.00     0.031 C 
ATOM     51  C   UNL A   1      49.033  25.767  25.432  1.00  0.00     0.029 A 
ATOM     52  C   UNL A   1      48.583  27.019  26.031  1.00  0.00     0.049 A 
ATOM     53  H   UNL A   1      46.673  27.484  26.716  1.00  0.00     0.167 HD
ATOM     54  C   UNL A   1      42.588  28.389  27.979  1.00  0.00     0.031 A 
ATOM     55  C   UNL A   1      49.356  28.102  26.244  1.00  0.00     0.031 A 
ATOM     56  C   UNL A   1      43.351  29.562  28.315  1.00  0.00     0.049 A 
ATOM     57  C   UNL A   1      48.752  29.323  26.876  1.00  0.00     0.074 A 
ATOM     58  C   UNL A   1      42.924  30.717  28.948  1.00  0.00     0.029 A 
ATOM     59  N   UNL A   1      44.698  29.729  28.042  1.00  0.00    -0.354 N 
ATOM     60  N   UNL A   1      47.519  29.523  27.276  1.00  0.00    -0.248 NA
ATOM     61  C   UNL A   1      49.649  30.466  27.094  1.00  0.00     0.031 C 
ATOM     62  C   UNL A   1      44.006  31.601  29.021  1.00  0.00     0.029 A 
ATOM     63  C   UNL A   1      45.116  30.977  28.476  1.00  0.00     0.049 A 
ATOM     64  H   UNL A   1      45.274  29.062  27.604  1.00  0.00     0.167 HD
ATOM     65  C   UNL A   1      47.499  30.801  27.815  1.00  0.00     0.074 A 
ATOM     66  C   UNL A   1      48.846  31.325  27.705  1.00  0.00     0.031 C 
ATOM     67  C   UNL A   1      46.459  31.481  28.357  1.00  0.00     0.031 A 
BRANCH  54  68
ATOM     68  C   UNL A   1      41.114  28.387  28.274  1.00  0.00    -0.014 A 
ATOM     69  C   UNL A   1      40.613  27.854  29.471  1.00  0.00     0.009 A 
ATOM     70  C   UNL A   1      40.217  28.953  27.355  1.00  0.00     0.009 A 
ATOM     71  C   UNL A   1      39.239  27.854  29.726  1.00  0.00     0.001 A 
ATOM     72  C   UNL A   1      38.847  28.977  27.623  1.00  0.00     0.001 A 
ATOM     73  C   UNL A   1      38.359  28.418  28.804  1.00  0.00     0.000 A 
ENDBRANCH  54  68
BRANCH  55  74
ATOM     74  C   UNL A   1      50.792  28.072  25.870  1.00  0.00    -0.014 A 
ATOM     75  C   UNL A   1      51.754  27.622  26.788  1.00  0.00     0.009 A 
ATOM     76  C   UNL A   1      51.211  28.495  24.599  1.00  0.00     0.009 A 
ATOM     77  C   UNL A   1      53.109  27.617  26.446  1.00  0.00     0.001 A 
ATOM     78  C   UNL A   1      52.563  28.464  24.252  1.00  0.00     0.001 A 
ATOM     79  C   UNL A   1      53.512  28.034  25.179  1.00  0.00     0.000 A 
ENDBRANCH  55  74
BRANCH  67  80
ATOM     80  C   UNL A   1      46.746  32.852  28.898  1.00  0.00    -0.014 A 
ATOM     81  C   UNL A   1      47.174  33.037  30.221  1.00  0.00     0.009 A 
ATOM     82  C   UNL A   1      46.621  33.970  28.059  1.00  0.00     0.009 A 
ATOM     83  C   UNL A   1      47.440  34.321  30.702  1.00  0.00     0.001 A 
ATOM     84  C   UNL A   1      46.914  35.248  28.534  1.00  0.00     0.001 A 
ATOM     85  C   UNL A   1      47.315  35.423  29.857  1.00  0.00     0.000 A 
ENDBRANCH  67  80
ENDBRANCH  41  42
ENDBRANCH  33  36
ENDBRANCH  31  32
ENDBRANCH  30  31
ENDBRANCH   1  30
TORSDOF 14
ENDMDL
