MODEL 1
REMARK VINA RESULT:     -10.7      0.000      0.000
REMARK SMILES C[C@@](NC(=O)CCOC1CC[NH2+]CC1)(C(=O)NCCCNC(=O)c1ccc(-c2c3nc(c(-c4ccccc4)c4ccc([nH]4)c(-c4ccccc4)c4nc(c(-c5ccccc5)c5ccc2[nH]5)C=C4)C=C3)cc1)C(F)(F)F
REMARK SMILES IDX 15 1 16 2 17 3 2 5 1 6 3 7 4 8 5 10 6 11 7 12 8 13 9 14
REMARK SMILES IDX 10 15 14 16 11 17 13 18 12 19 72 22 73 23 74 24 75 25 18 26
REMARK SMILES IDX 19 27 20 28 21 29 22 30 23 32 24 33 25 34 71 35 26 36 70 37
REMARK SMILES IDX 27 38 28 39 29 40 64 41 30 42 69 43 63 44 65 45 31 46 68 47
REMARK SMILES IDX 62 48 61 49 32 51 54 52 39 53 53 54 40 55 43 56 52 57 66 58
REMARK SMILES IDX 41 59 42 60 51 62 67 63 44 64 33 65 34 66 38 67 35 68 37 69
REMARK SMILES IDX 36 70 55 71 56 72 60 73 57 74 59 75 58 76 45 77 46 78 50 79
REMARK SMILES IDX 47 80 49 81 48 82
REMARK H PARENT 17 4 3 9 12 20 12 21 21 31 65 50 43 61
REMARK Flexibility Score: inf
ROOT
ATOM      1  C   UNL A   1      32.990  28.422  23.765  1.00  0.00     0.254 C 
ATOM      2  O   UNL A   1      33.059  29.325  22.925  1.00  0.00    -0.272 OA
ATOM      3  N   UNL A   1      33.856  28.571  24.814  1.00  0.00    -0.354 N 
ATOM      4  H   UNL A   1      34.492  29.312  24.694  1.00  0.00     0.163 HD
ENDROOT
BRANCH   1   5
ATOM      5  C   UNL A   1      31.973  27.261  23.651  1.00  0.00     0.212 C 
ATOM      6  C   UNL A   1      31.174  27.327  22.331  1.00  0.00     0.056 C 
BRANCH   5   7
ATOM      7  N   UNL A   1      32.790  26.036  23.607  1.00  0.00    -0.334 N 
ATOM      8  C   UNL A   1      33.399  25.529  22.488  1.00  0.00     0.223 C 
ATOM      9  H   UNL A   1      32.907  25.541  24.449  1.00  0.00     0.164 HD
ATOM     10  O   UNL A   1      33.982  26.202  21.654  1.00  0.00    -0.275 OA
BRANCH   8  11
ATOM     11  C   UNL A   1      33.074  24.055  22.283  1.00  0.00     0.128 C 
BRANCH  11  12
ATOM     12  C   UNL A   1      33.842  23.092  23.191  1.00  0.00     0.170 C 
BRANCH  12  13
ATOM     13  O   UNL A   1      35.239  23.104  22.896  1.00  0.00    -0.377 OA
BRANCH  13  14
ATOM     14  C   UNL A   1      36.207  23.329  23.928  1.00  0.00     0.129 C 
ATOM     15  C   UNL A   1      37.021  22.076  24.253  1.00  0.00     0.093 C 
ATOM     16  C   UNL A   1      35.688  24.018  25.183  1.00  0.00     0.093 C 
ATOM     17  C   UNL A   1      36.283  21.148  25.202  1.00  0.00     0.263 C 
ATOM     18  C   UNL A   1      35.103  23.050  26.211  1.00  0.00     0.263 C 
ATOM     19  N   UNL A   1      35.912  21.852  26.426  1.00  0.00    -0.346 N 
ATOM     20  H   UNL A   1      36.768  22.128  26.908  1.00  0.00     0.346 HD
ATOM     21  H   UNL A   1      35.339  21.208  26.971  1.00  0.00     0.346 HD
ENDBRANCH  13  14
ENDBRANCH  12  13
ENDBRANCH  11  12
ENDBRANCH   8  11
ENDBRANCH   5   7
BRANCH   5  22
ATOM     22  C   UNL A   1      30.947  27.421  24.797  1.00  0.00     0.420 C 
ATOM     23  F   UNL A   1      29.687  27.189  24.333  1.00  0.00    -0.168 F 
ATOM     24  F   UNL A   1      31.159  26.479  25.756  1.00  0.00    -0.168 F 
ATOM     25  F   UNL A   1      30.934  28.615  25.411  1.00  0.00    -0.168 F 
ENDBRANCH   5  22
ENDBRANCH   1   5
BRANCH   3  26
ATOM     26  C   UNL A   1      34.029  27.860  26.071  1.00  0.00     0.117 C 
BRANCH  26  27
ATOM     27  C   UNL A   1      33.717  28.708  27.291  1.00  0.00     0.042 C 
BRANCH  27  28
ATOM     28  C   UNL A   1      34.069  30.179  27.132  1.00  0.00     0.118 C 
BRANCH  28  29
ATOM     29  N   UNL A   1      34.187  30.930  28.377  1.00  0.00    -0.352 N 
ATOM     30  C   UNL A   1      35.242  30.974  29.273  1.00  0.00     0.251 C 
ATOM     31  H   UNL A   1      33.407  31.482  28.613  1.00  0.00     0.163 HD
ATOM     32  O   UNL A   1      35.159  31.644  30.290  1.00  0.00    -0.269 OA
BRANCH  30  33
ATOM     33  C   UNL A   1      36.443  30.139  29.022  1.00  0.00     0.039 A 
ATOM     34  C   UNL A   1      37.106  30.251  27.798  1.00  0.00     0.014 A 
ATOM     35  C   UNL A   1      36.981  29.347  30.034  1.00  0.00     0.014 A 
ATOM     36  C   UNL A   1      38.371  29.675  27.645  1.00  0.00     0.010 A 
ATOM     37  C   UNL A   1      38.296  28.913  29.933  1.00  0.00     0.010 A 
ATOM     38  C   UNL A   1      39.013  29.068  28.739  1.00  0.00    -0.014 A 
BRANCH  38  39
ATOM     39  C   UNL A   1      40.427  28.603  28.660  1.00  0.00     0.031 A 
ATOM     40  C   UNL A   1      40.740  27.177  28.283  1.00  0.00     0.074 A 
ATOM     41  C   UNL A   1      41.431  29.436  29.009  1.00  0.00     0.049 A 
ATOM     42  N   UNL A   1      41.903  26.577  28.212  1.00  0.00    -0.248 NA
ATOM     43  C   UNL A   1      39.598  26.292  27.999  1.00  0.00     0.031 C 
ATOM     44  C   UNL A   1      41.274  30.811  29.491  1.00  0.00     0.029 A 
ATOM     45  N   UNL A   1      42.791  29.245  29.007  1.00  0.00    -0.354 N 
ATOM     46  C   UNL A   1      41.624  25.248  27.917  1.00  0.00     0.074 A 
ATOM     47  C   UNL A   1      40.186  25.111  27.901  1.00  0.00     0.031 C 
ATOM     48  C   UNL A   1      42.487  31.359  29.672  1.00  0.00     0.029 A 
ATOM     49  C   UNL A   1      43.507  30.366  29.359  1.00  0.00     0.049 A 
ATOM     50  H   UNL A   1      43.214  28.387  28.776  1.00  0.00     0.167 HD
ATOM     51  C   UNL A   1      42.479  24.235  27.641  1.00  0.00     0.031 A 
ATOM     52  C   UNL A   1      44.837  30.577  29.405  1.00  0.00     0.031 A 
ATOM     53  C   UNL A   1      43.907  24.378  27.600  1.00  0.00     0.049 A 
ATOM     54  C   UNL A   1      45.768  29.461  29.021  1.00  0.00     0.074 A 
ATOM     55  C   UNL A   1      44.860  23.438  27.248  1.00  0.00     0.029 A 
ATOM     56  N   UNL A   1      44.588  25.545  27.908  1.00  0.00    -0.354 N 
ATOM     57  N   UNL A   1      45.482  28.234  28.658  1.00  0.00    -0.248 NA
ATOM     58  C   UNL A   1      47.205  29.768  29.033  1.00  0.00     0.031 C 
ATOM     59  C   UNL A   1      46.122  24.030  27.375  1.00  0.00     0.029 A 
ATOM     60  C   UNL A   1      45.950  25.350  27.760  1.00  0.00     0.049 A 
ATOM     61  H   UNL A   1      44.164  26.389  28.189  1.00  0.00     0.167 HD
ATOM     62  C   UNL A   1      46.700  27.632  28.372  1.00  0.00     0.074 A 
ATOM     63  C   UNL A   1      47.724  28.635  28.582  1.00  0.00     0.031 C 
ATOM     64  C   UNL A   1      46.951  26.361  27.972  1.00  0.00     0.031 A 
BRANCH  51  65
ATOM     65  C   UNL A   1      41.876  22.889  27.339  1.00  0.00    -0.014 A 
ATOM     66  C   UNL A   1      41.370  22.590  26.064  1.00  0.00     0.009 A 
ATOM     67  C   UNL A   1      41.815  21.907  28.340  1.00  0.00     0.009 A 
ATOM     68  C   UNL A   1      40.769  21.355  25.811  1.00  0.00     0.001 A 
ATOM     69  C   UNL A   1      41.244  20.661  28.074  1.00  0.00     0.001 A 
ATOM     70  C   UNL A   1      40.710  20.391  26.814  1.00  0.00     0.000 A 
ENDBRANCH  51  65
BRANCH  52  71
ATOM     71  C   UNL A   1      45.372  31.917  29.765  1.00  0.00    -0.014 A 
ATOM     72  C   UNL A   1      45.569  32.890  28.772  1.00  0.00     0.009 A 
ATOM     73  C   UNL A   1      45.699  32.229  31.093  1.00  0.00     0.009 A 
ATOM     74  C   UNL A   1      46.112  34.136  29.096  1.00  0.00     0.001 A 
ATOM     75  C   UNL A   1      46.215  33.486  31.418  1.00  0.00     0.001 A 
ATOM     76  C   UNL A   1      46.431  34.434  30.419  1.00  0.00     0.000 A 
ENDBRANCH  52  71
BRANCH  64  77
ATOM     77  C   UNL A   1      48.383  26.000  27.703  1.00  0.00    -0.014 A 
ATOM     78  C   UNL A   1      49.197  25.451  28.706  1.00  0.00     0.009 A 
ATOM     79  C   UNL A   1      48.916  26.188  26.419  1.00  0.00     0.009 A 
ATOM     80  C   UNL A   1      50.531  25.137  28.437  1.00  0.00     0.001 A 
ATOM     81  C   UNL A   1      50.240  25.846  26.145  1.00  0.00     0.001 A 
ATOM     82  C   UNL A   1      51.049  25.331  27.157  1.00  0.00     0.000 A 
ENDBRANCH  64  77
ENDBRANCH  38  39
ENDBRANCH  30  33
ENDBRANCH  28  29
ENDBRANCH  27  28
ENDBRANCH  26  27
ENDBRANCH   3  26
TORSDOF 16
ENDMDL
MODEL 2
REMARK VINA RESULT:     -10.7      2.501      7.320
REMARK SMILES C[C@@](NC(=O)CCOC1CC[NH2+]CC1)(C(=O)NCCCNC(=O)c1ccc(-c2c3nc(c(-c4ccccc4)c4ccc([nH]4)c(-c4ccccc4)c4nc(c(-c5ccccc5)c5ccc2[nH]5)C=C4)C=C3)cc1)C(F)(F)F
REMARK SMILES IDX 15 1 16 2 17 3 2 5 1 6 3 7 4 8 5 10 6 11 7 12 8 13 9 14
REMARK SMILES IDX 10 15 14 16 11 17 13 18 12 19 72 22 73 23 74 24 75 25 18 26
REMARK SMILES IDX 19 27 20 28 21 29 22 30 23 32 24 33 25 34 71 35 26 36 70 37
REMARK SMILES IDX 27 38 28 39 29 40 64 41 30 42 69 43 63 44 65 45 31 46 68 47
REMARK SMILES IDX 62 48 61 49 32 51 54 52 39 53 53 54 40 55 43 56 52 57 66 58
REMARK SMILES IDX 41 59 42 60 51 62 67 63 44 64 33 65 34 66 38 67 35 68 37 69
REMARK SMILES IDX 36 70 55 71 56 72 60 73 57 74 59 75 58 76 45 77 46 78 50 79
REMARK SMILES IDX 47 80 49 81 48 82
REMARK H PARENT 17 4 3 9 12 20 12 21 21 31 65 50 43 61
REMARK Flexibility Score: inf
ROOT
ATOM      1  C   UNL A   1      31.542  25.099  26.319  1.00  0.00     0.254 C 
ATOM      2  O   UNL A   1      31.345  24.145  27.076  1.00  0.00    -0.272 OA
ATOM      3  N   UNL A   1      31.285  26.319  26.884  1.00  0.00    -0.354 N 
ATOM      4  H   UNL A   1      30.870  26.258  27.774  1.00  0.00     0.163 HD
ENDROOT
BRANCH   1   5
ATOM      5  C   UNL A   1      32.080  24.918  24.878  1.00  0.00     0.212 C 
ATOM      6  C   UNL A   1      31.971  23.452  24.407  1.00  0.00     0.056 C 
BRANCH   5   7
ATOM      7  N   UNL A   1      31.181  25.718  24.028  1.00  0.00    -0.334 N 
ATOM      8  C   UNL A   1      31.470  26.158  22.762  1.00  0.00     0.223 C 
ATOM      9  H   UNL A   1      30.302  25.957  24.400  1.00  0.00     0.164 HD
ATOM     10  O   UNL A   1      32.027  25.487  21.908  1.00  0.00    -0.275 OA
BRANCH   8  11
ATOM     11  C   UNL A   1      31.222  27.652  22.609  1.00  0.00     0.128 C 
BRANCH  11  12
ATOM     12  C   UNL A   1      29.951  28.169  23.288  1.00  0.00     0.170 C 
BRANCH  12  13
ATOM     13  O   UNL A   1      29.816  29.582  23.127  1.00  0.00    -0.377 OA
BRANCH  13  14
ATOM     14  C   UNL A   1      28.527  30.207  23.172  1.00  0.00     0.129 C 
ATOM     15  C   UNL A   1      27.783  30.117  21.839  1.00  0.00     0.093 C 
ATOM     16  C   UNL A   1      28.495  31.613  23.754  1.00  0.00     0.093 C 
ATOM     17  C   UNL A   1      28.228  31.195  20.865  1.00  0.00     0.263 C 
ATOM     18  C   UNL A   1      28.773  32.706  22.723  1.00  0.00     0.263 C 
ATOM     19  N   UNL A   1      28.068  32.521  21.456  1.00  0.00    -0.346 N 
ATOM     20  H   UNL A   1      27.073  32.679  21.620  1.00  0.00     0.346 HD
ATOM     21  H   UNL A   1      28.473  33.185  20.797  1.00  0.00     0.346 HD
ENDBRANCH  13  14
ENDBRANCH  12  13
ENDBRANCH  11  12
ENDBRANCH   8  11
ENDBRANCH   5   7
BRANCH   5  22
ATOM     22  C   UNL A   1      33.586  25.268  24.892  1.00  0.00     0.420 C 
ATOM     23  F   UNL A   1      33.755  26.614  24.766  1.00  0.00    -0.168 F 
ATOM     24  F   UNL A   1      34.135  24.944  26.094  1.00  0.00    -0.168 F 
ATOM     25  F   UNL A   1      34.334  24.681  23.943  1.00  0.00    -0.168 F 
ENDBRANCH   5  22
ENDBRANCH   1   5
BRANCH   3  26
ATOM     26  C   UNL A   1      31.502  27.687  26.440  1.00  0.00     0.117 C 
BRANCH  26  27
ATOM     27  C   UNL A   1      32.093  28.583  27.514  1.00  0.00     0.042 C 
BRANCH  27  28
ATOM     28  C   UNL A   1      33.251  29.445  27.037  1.00  0.00     0.118 C 
BRANCH  28  29
ATOM     29  N   UNL A   1      33.427  30.704  27.752  1.00  0.00    -0.352 N 
ATOM     30  C   UNL A   1      34.544  31.182  28.418  1.00  0.00     0.251 C 
ATOM     31  H   UNL A   1      32.642  31.297  27.763  1.00  0.00     0.163 HD
ATOM     32  O   UNL A   1      34.506  32.258  28.991  1.00  0.00    -0.269 OA
BRANCH  30  33
ATOM     33  C   UNL A   1      35.761  30.335  28.491  1.00  0.00     0.039 A 
ATOM     34  C   UNL A   1      36.624  30.287  27.395  1.00  0.00     0.014 A 
ATOM     35  C   UNL A   1      36.110  29.697  29.679  1.00  0.00     0.014 A 
ATOM     36  C   UNL A   1      37.891  29.712  27.540  1.00  0.00     0.010 A 
ATOM     37  C   UNL A   1      37.419  29.270  29.864  1.00  0.00     0.010 A 
ATOM     38  C   UNL A   1      38.331  29.270  28.800  1.00  0.00    -0.014 A 
BRANCH  38  39
ATOM     39  C   UNL A   1      39.732  28.817  29.027  1.00  0.00     0.031 A 
ATOM     40  C   UNL A   1      40.738  29.741  29.666  1.00  0.00     0.074 A 
ATOM     41  C   UNL A   1      40.129  27.605  28.584  1.00  0.00     0.049 A 
ATOM     42  N   UNL A   1      42.012  29.544  29.897  1.00  0.00    -0.248 NA
ATOM     43  C   UNL A   1      40.267  31.084  30.047  1.00  0.00     0.031 C 
ATOM     44  C   UNL A   1      39.294  26.643  27.860  1.00  0.00     0.029 A 
ATOM     45  N   UNL A   1      41.343  26.970  28.685  1.00  0.00    -0.354 N 
ATOM     46  C   UNL A   1      42.493  30.743  30.410  1.00  0.00     0.074 A 
ATOM     47  C   UNL A   1      41.397  31.684  30.382  1.00  0.00     0.031 C 
ATOM     48  C   UNL A   1      39.998  25.519  27.642  1.00  0.00     0.029 A 
ATOM     49  C   UNL A   1      41.344  25.693  28.174  1.00  0.00     0.049 A 
ATOM     50  H   UNL A   1      42.138  27.390  29.085  1.00  0.00     0.167 HD
ATOM     51  C   UNL A   1      43.721  31.033  30.902  1.00  0.00     0.031 A 
ATOM     52  C   UNL A   1      42.314  24.758  28.155  1.00  0.00     0.031 A 
ATOM     53  C   UNL A   1      44.797  30.085  30.984  1.00  0.00     0.049 A 
ATOM     54  C   UNL A   1      43.646  25.074  28.775  1.00  0.00     0.074 A 
ATOM     55  C   UNL A   1      46.053  30.250  31.542  1.00  0.00     0.029 A 
ATOM     56  N   UNL A   1      44.736  28.785  30.507  1.00  0.00    -0.354 N 
ATOM     57  N   UNL A   1      44.054  26.186  29.336  1.00  0.00    -0.248 NA
ATOM     58  C   UNL A   1      44.644  23.995  28.778  1.00  0.00     0.031 C 
ATOM     59  C   UNL A   1      46.764  29.056  31.373  1.00  0.00     0.029 A 
ATOM     60  C   UNL A   1      45.933  28.137  30.753  1.00  0.00     0.049 A 
ATOM     61  H   UNL A   1      43.956  28.383  30.061  1.00  0.00     0.167 HD
ATOM     62  C   UNL A   1      45.344  25.933  29.782  1.00  0.00     0.074 A 
ATOM     63  C   UNL A   1      45.641  24.556  29.446  1.00  0.00     0.031 C 
ATOM     64  C   UNL A   1      46.208  26.766  30.412  1.00  0.00     0.031 A 
BRANCH  51  65
ATOM     65  C   UNL A   1      43.947  32.432  31.408  1.00  0.00    -0.014 A 
ATOM     66  C   UNL A   1      43.687  32.770  32.746  1.00  0.00     0.009 A 
ATOM     67  C   UNL A   1      44.426  33.423  30.540  1.00  0.00     0.009 A 
ATOM     68  C   UNL A   1      43.853  34.083  33.191  1.00  0.00     0.001 A 
ATOM     69  C   UNL A   1      44.624  34.729  30.996  1.00  0.00     0.001 A 
ATOM     70  C   UNL A   1      44.325  35.060  32.317  1.00  0.00     0.000 A 
ENDBRANCH  51  65
BRANCH  52  71
ATOM     71  C   UNL A   1      42.044  23.409  27.589  1.00  0.00    -0.014 A 
ATOM     72  C   UNL A   1      41.454  22.413  28.384  1.00  0.00     0.009 A 
ATOM     73  C   UNL A   1      42.382  23.104  26.262  1.00  0.00     0.009 A 
ATOM     74  C   UNL A   1      41.238  21.132  27.872  1.00  0.00     0.001 A 
ATOM     75  C   UNL A   1      42.139  21.829  25.745  1.00  0.00     0.001 A 
ATOM     76  C   UNL A   1      41.577  20.841  26.553  1.00  0.00     0.000 A 
ENDBRANCH  52  71
BRANCH  64  77
ATOM     77  C   UNL A   1      47.539  26.196  30.809  1.00  0.00    -0.014 A 
ATOM     78  C   UNL A   1      47.768  25.715  32.108  1.00  0.00     0.009 A 
ATOM     79  C   UNL A   1      48.570  26.116  29.861  1.00  0.00     0.009 A 
ATOM     80  C   UNL A   1      49.018  25.203  32.459  1.00  0.00     0.001 A 
ATOM     81  C   UNL A   1      49.809  25.577  30.207  1.00  0.00     0.001 A 
ATOM     82  C   UNL A   1      50.035  25.131  31.507  1.00  0.00     0.000 A 
ENDBRANCH  64  77
ENDBRANCH  38  39
ENDBRANCH  30  33
ENDBRANCH  28  29
ENDBRANCH  27  28
ENDBRANCH  26  27
ENDBRANCH   3  26
TORSDOF 16
ENDMDL
MODEL 3
REMARK VINA RESULT:     -10.6      2.276      7.490
REMARK SMILES C[C@@](NC(=O)CCOC1CC[NH2+]CC1)(C(=O)NCCCNC(=O)c1ccc(-c2c3nc(c(-c4ccccc4)c4ccc([nH]4)c(-c4ccccc4)c4nc(c(-c5ccccc5)c5ccc2[nH]5)C=C4)C=C3)cc1)C(F)(F)F
REMARK SMILES IDX 15 1 16 2 17 3 2 5 1 6 3 7 4 8 5 10 6 11 7 12 8 13 9 14
REMARK SMILES IDX 10 15 14 16 11 17 13 18 12 19 72 22 73 23 74 24 75 25 18 26
REMARK SMILES IDX 19 27 20 28 21 29 22 30 23 32 24 33 25 34 71 35 26 36 70 37
REMARK SMILES IDX 27 38 28 39 29 40 64 41 30 42 69 43 63 44 65 45 31 46 68 47
REMARK SMILES IDX 62 48 61 49 32 51 54 52 39 53 53 54 40 55 43 56 52 57 66 58
REMARK SMILES IDX 41 59 42 60 51 62 67 63 44 64 33 65 34 66 38 67 35 68 37 69
REMARK SMILES IDX 36 70 55 71 56 72 60 73 57 74 59 75 58 76 45 77 46 78 50 79
REMARK SMILES IDX 47 80 49 81 48 82
REMARK H PARENT 17 4 3 9 12 20 12 21 21 31 65 50 43 61
REMARK Flexibility Score: inf
ROOT
ATOM      1  C   UNL A   1      34.660  22.549  26.601  1.00  0.00     0.254 C 
ATOM      2  O   UNL A   1      34.326  22.725  27.776  1.00  0.00    -0.272 OA
ATOM      3  N   UNL A   1      35.539  21.516  26.421  1.00  0.00    -0.354 N 
ATOM      4  H   UNL A   1      35.871  21.134  27.265  1.00  0.00     0.163 HD
ENDROOT
BRANCH   1   5
ATOM      5  C   UNL A   1      34.086  23.398  25.440  1.00  0.00     0.212 C 
ATOM      6  C   UNL A   1      33.727  22.526  24.217  1.00  0.00     0.056 C 
BRANCH   5   7
ATOM      7  N   UNL A   1      32.829  23.962  25.959  1.00  0.00    -0.334 N 
ATOM      8  C   UNL A   1      31.583  23.416  25.785  1.00  0.00     0.223 C 
ATOM      9  H   UNL A   1      32.888  24.800  26.472  1.00  0.00     0.164 HD
ATOM     10  O   UNL A   1      31.333  22.225  25.873  1.00  0.00    -0.275 OA
BRANCH   8  11
ATOM     11  C   UNL A   1      30.587  24.434  25.248  1.00  0.00     0.128 C 
BRANCH  11  12
ATOM     12  C   UNL A   1      30.711  24.733  23.752  1.00  0.00     0.170 C 
BRANCH  12  13
ATOM     13  O   UNL A   1      31.894  25.480  23.469  1.00  0.00    -0.377 OA
BRANCH  13  14
ATOM     14  C   UNL A   1      31.944  26.388  22.362  1.00  0.00     0.129 C 
ATOM     15  C   UNL A   1      33.346  26.951  22.127  1.00  0.00     0.093 C 
ATOM     16  C   UNL A   1      30.879  27.476  22.351  1.00  0.00     0.093 C 
ATOM     17  C   UNL A   1      33.652  28.119  23.048  1.00  0.00     0.263 C 
ATOM     18  C   UNL A   1      31.274  28.723  23.141  1.00  0.00     0.263 C 
ATOM     19  N   UNL A   1      32.645  29.168  22.903  1.00  0.00    -0.346 N 
ATOM     20  H   UNL A   1      32.701  29.534  21.952  1.00  0.00     0.346 HD
ATOM     21  H   UNL A   1      32.851  29.870  23.612  1.00  0.00     0.346 HD
ENDBRANCH  13  14
ENDBRANCH  12  13
ENDBRANCH  11  12
ENDBRANCH   8  11
ENDBRANCH   5   7
BRANCH   5  22
ATOM     22  C   UNL A   1      35.195  24.372  24.978  1.00  0.00     0.420 C 
ATOM     23  F   UNL A   1      35.580  24.074  23.705  1.00  0.00    -0.168 F 
ATOM     24  F   UNL A   1      34.714  25.644  24.923  1.00  0.00    -0.168 F 
ATOM     25  F   UNL A   1      36.304  24.400  25.734  1.00  0.00    -0.168 F 
ENDBRANCH   5  22
ENDBRANCH   1   5
BRANCH   3  26
ATOM     26  C   UNL A   1      36.083  20.865  25.240  1.00  0.00     0.117 C 
BRANCH  26  27
ATOM     27  C   UNL A   1      37.374  21.493  24.747  1.00  0.00     0.042 C 
BRANCH  27  28
ATOM     28  C   UNL A   1      38.536  21.375  25.722  1.00  0.00     0.118 C 
BRANCH  28  29
ATOM     29  N   UNL A   1      39.328  20.156  25.602  1.00  0.00    -0.352 N 
ATOM     30  C   UNL A   1      40.640  19.926  25.983  1.00  0.00     0.251 C 
ATOM     31  H   UNL A   1      38.866  19.390  25.192  1.00  0.00     0.163 HD
ATOM     32  O   UNL A   1      41.160  18.841  25.781  1.00  0.00    -0.269 OA
BRANCH  30  33
ATOM     33  C   UNL A   1      41.430  21.038  26.569  1.00  0.00     0.039 A 
ATOM     34  C   UNL A   1      42.008  21.984  25.721  1.00  0.00     0.014 A 
ATOM     35  C   UNL A   1      41.491  21.213  27.950  1.00  0.00     0.014 A 
ATOM     36  C   UNL A   1      42.526  23.166  26.258  1.00  0.00     0.010 A 
ATOM     37  C   UNL A   1      41.861  22.449  28.464  1.00  0.00     0.010 A 
ATOM     38  C   UNL A   1      42.385  23.446  27.629  1.00  0.00    -0.014 A 
BRANCH  38  39
ATOM     39  C   UNL A   1      42.765  24.767  28.204  1.00  0.00     0.031 A 
ATOM     40  C   UNL A   1      41.716  25.825  28.443  1.00  0.00     0.074 A 
ATOM     41  C   UNL A   1      44.064  25.054  28.435  1.00  0.00     0.049 A 
ATOM     42  N   UNL A   1      41.863  27.049  28.885  1.00  0.00    -0.248 NA
ATOM     43  C   UNL A   1      40.328  25.484  28.088  1.00  0.00     0.031 C 
ATOM     44  C   UNL A   1      45.198  24.167  28.159  1.00  0.00     0.029 A 
ATOM     45  N   UNL A   1      44.651  26.178  28.964  1.00  0.00    -0.354 N 
ATOM     46  C   UNL A   1      40.600  27.626  28.823  1.00  0.00     0.074 A 
ATOM     47  C   UNL A   1      39.718  26.650  28.227  1.00  0.00     0.031 C 
ATOM     48  C   UNL A   1      46.332  24.752  28.581  1.00  0.00     0.029 A 
ATOM     49  C   UNL A   1      46.014  26.068  29.120  1.00  0.00     0.049 A 
ATOM     50  H   UNL A   1      44.145  26.985  29.207  1.00  0.00     0.167 HD
ATOM     51  C   UNL A   1      40.192  28.842  29.258  1.00  0.00     0.031 A 
ATOM     52  C   UNL A   1      46.905  26.924  29.658  1.00  0.00     0.031 A 
ATOM     53  C   UNL A   1      41.052  29.794  29.903  1.00  0.00     0.049 A 
ATOM     54  C   UNL A   1      46.419  28.237  30.204  1.00  0.00     0.074 A 
ATOM     55  C   UNL A   1      40.723  31.019  30.458  1.00  0.00     0.029 A 
ATOM     56  N   UNL A   1      42.414  29.619  30.092  1.00  0.00    -0.354 N 
ATOM     57  N   UNL A   1      45.204  28.729  30.216  1.00  0.00    -0.248 NA
ATOM     58  C   UNL A   1      47.427  29.103  30.831  1.00  0.00     0.031 C 
ATOM     59  C   UNL A   1      41.896  31.599  30.956  1.00  0.00     0.029 A 
ATOM     60  C   UNL A   1      42.943  30.715  30.752  1.00  0.00     0.049 A 
ATOM     61  H   UNL A   1      42.928  28.831  29.801  1.00  0.00     0.167 HD
ATOM     62  C   UNL A   1      45.296  29.948  30.875  1.00  0.00     0.074 A 
ATOM     63  C   UNL A   1      46.682  30.109  31.266  1.00  0.00     0.031 C 
ATOM     64  C   UNL A   1      44.323  30.855  31.133  1.00  0.00     0.031 A 
BRANCH  51  65
ATOM     65  C   UNL A   1      38.741  29.190  29.067  1.00  0.00    -0.014 A 
ATOM     66  C   UNL A   1      38.262  29.653  27.830  1.00  0.00     0.009 A 
ATOM     67  C   UNL A   1      37.839  29.052  30.132  1.00  0.00     0.009 A 
ATOM     68  C   UNL A   1      36.923  30.019  27.678  1.00  0.00     0.001 A 
ATOM     69  C   UNL A   1      36.493  29.387  29.969  1.00  0.00     0.001 A 
ATOM     70  C   UNL A   1      36.039  29.883  28.746  1.00  0.00     0.000 A 
ENDBRANCH  51  65
BRANCH  52  71
ATOM     71  C   UNL A   1      48.338  26.543  29.768  1.00  0.00    -0.014 A 
ATOM     72  C   UNL A   1      48.793  25.817  30.881  1.00  0.00     0.009 A 
ATOM     73  C   UNL A   1      49.259  26.908  28.775  1.00  0.00     0.009 A 
ATOM     74  C   UNL A   1      50.146  25.494  31.013  1.00  0.00     0.001 A 
ATOM     75  C   UNL A   1      50.607  26.558  28.896  1.00  0.00     0.001 A 
ATOM     76  C   UNL A   1      51.050  25.861  30.019  1.00  0.00     0.000 A 
ENDBRANCH  52  71
BRANCH  64  77
ATOM     77  C   UNL A   1      44.719  32.081  31.903  1.00  0.00    -0.014 A 
ATOM     78  C   UNL A   1      45.170  33.238  31.249  1.00  0.00     0.009 A 
ATOM     79  C   UNL A   1      44.612  32.086  33.302  1.00  0.00     0.009 A 
ATOM     80  C   UNL A   1      45.548  34.362  31.986  1.00  0.00     0.001 A 
ATOM     81  C   UNL A   1      44.962  33.221  34.034  1.00  0.00     0.001 A 
ATOM     82  C   UNL A   1      45.439  34.353  33.377  1.00  0.00     0.000 A 
ENDBRANCH  64  77
ENDBRANCH  38  39
ENDBRANCH  30  33
ENDBRANCH  28  29
ENDBRANCH  27  28
ENDBRANCH  26  27
ENDBRANCH   3  26
TORSDOF 16
ENDMDL
