MODEL 1
REMARK VINA RESULT:     -11.7      0.000      0.000
REMARK SMILES Cc1ccnc(C(=O)c2[nH]c3cc(Cl)c(F)cc3c2CC(=O)NCCCNC(=O)c2ccc(-c3c4nc(c(-c5ccccc5)c5ccc([nH]5)c(-c5ccccc5)c5nc(c(-c6ccccc6)c6ccc3[nH]6)C=C5)C=C4)cc2)c1
REMARK SMILES IDX 24 1 23 2 21 3 22 4 20 6 19 7 9 8 10 9 11 10 18 12 12 13
REMARK SMILES IDX 17 14 13 15 15 16 14 17 16 18 7 19 8 20 6 21 1 22 2 23 3 24
REMARK SMILES IDX 78 25 4 26 5 27 25 28 26 29 27 30 28 31 29 33 30 34 31 35
REMARK SMILES IDX 77 36 32 37 76 38 33 39 34 40 35 41 70 42 36 43 75 44 69 45
REMARK SMILES IDX 71 46 37 47 74 48 68 49 67 50 38 52 60 53 45 54 59 55 46 56
REMARK SMILES IDX 49 57 58 58 72 59 47 60 48 61 57 63 73 64 50 65 39 66 40 67
REMARK SMILES IDX 44 68 41 69 43 70 42 71 61 72 62 73 66 74 63 75 65 76 64 77
REMARK SMILES IDX 51 78 52 79 56 80 53 81 55 82 54 83
REMARK H PARENT 23 5 10 11 27 32 71 51 49 62
REMARK Flexibility Score: inf
ROOT
ATOM      1  C   UNL A   1      47.443  26.537  27.162  1.00  0.00     0.117 C 
ENDROOT
BRANCH   1   2
ATOM      2  N   UNL A   1      47.176  25.146  26.850  1.00  0.00    -0.356 N 
ATOM      3  C   UNL A   1      46.397  24.550  25.908  1.00  0.00     0.224 C 
ATOM      4  O   UNL A   1      46.540  23.330  25.771  1.00  0.00    -0.275 OA
ATOM      5  H   UNL A   1      47.651  24.511  27.433  1.00  0.00     0.163 HD
BRANCH   3   6
ATOM      6  C   UNL A   1      45.435  25.305  25.015  1.00  0.00     0.138 C 
BRANCH   6   7
ATOM      7  C   UNL A   1      43.973  25.219  25.353  1.00  0.00    -0.002 A 
ATOM      8  C   UNL A   1      43.111  24.116  25.331  1.00  0.00     0.093 A 
ATOM      9  N   UNL A   1      41.840  24.606  25.573  1.00  0.00    -0.351 N 
ATOM     10  C   UNL A   1      41.852  25.952  25.824  1.00  0.00     0.048 A 
ATOM     11  H   UNL A   1      41.026  24.054  25.565  1.00  0.00     0.167 HD
ATOM     12  C   UNL A   1      43.159  26.383  25.627  1.00  0.00     0.007 A 
ATOM     13  C   UNL A   1      40.803  26.817  26.175  1.00  0.00     0.050 A 
ATOM     14  C   UNL A   1      43.425  27.766  25.733  1.00  0.00     0.051 A 
ATOM     15  C   UNL A   1      41.108  28.173  26.327  1.00  0.00     0.078 A 
ATOM     16  C   UNL A   1      42.397  28.638  26.098  1.00  0.00     0.142 A 
ATOM     17  Cl  UNL A   1      39.862  29.264  26.804  1.00  0.00    -0.081 Cl
ATOM     18  F   UNL A   1      42.691  29.940  26.236  1.00  0.00    -0.205 F 
BRANCH   8  19
ATOM     19  C   UNL A   1      43.244  22.692  25.007  1.00  0.00     0.227 C 
ATOM     20  O   UNL A   1      43.777  22.372  23.944  1.00  0.00    -0.285 OA
BRANCH  19  21
ATOM     21  C   UNL A   1      42.613  21.607  25.836  1.00  0.00     0.113 A 
ATOM     22  C   UNL A   1      42.914  17.888  26.565  1.00  0.00     0.044 C 
ATOM     23  C   UNL A   1      42.497  19.327  26.617  1.00  0.00    -0.047 A 
ATOM     24  C   UNL A   1      41.507  19.726  27.508  1.00  0.00     0.023 A 
ATOM     25  C   UNL A   1      43.088  20.303  25.805  1.00  0.00     0.036 A 
ATOM     26  C   UNL A   1      41.124  21.056  27.517  1.00  0.00     0.112 A 
ATOM     27  N   UNL A   1      41.647  22.001  26.704  1.00  0.00    -0.253 NA
ENDBRANCH  19  21
ENDBRANCH   8  19
ENDBRANCH   6   7
ENDBRANCH   3   6
ENDBRANCH   1   2
BRANCH   1  28
ATOM     28  C   UNL A   1      46.529  27.164  28.215  1.00  0.00     0.042 C 
BRANCH  28  29
ATOM     29  C   UNL A   1      46.802  26.812  29.671  1.00  0.00     0.118 C 
BRANCH  29  30
ATOM     30  N   UNL A   1      46.218  25.588  30.172  1.00  0.00    -0.352 N 
ATOM     31  C   UNL A   1      44.939  25.178  30.424  1.00  0.00     0.251 C 
ATOM     32  H   UNL A   1      46.889  24.898  30.379  1.00  0.00     0.163 HD
ATOM     33  O   UNL A   1      44.765  23.995  30.721  1.00  0.00    -0.269 OA
BRANCH  31  34
ATOM     34  C   UNL A   1      43.798  26.113  30.488  1.00  0.00     0.039 A 
ATOM     35  C   UNL A   1      42.892  26.323  29.451  1.00  0.00     0.014 A 
ATOM     36  C   UNL A   1      43.680  26.862  31.664  1.00  0.00     0.014 A 
ATOM     37  C   UNL A   1      42.058  27.430  29.477  1.00  0.00     0.010 A 
ATOM     38  C   UNL A   1      42.775  27.911  31.733  1.00  0.00     0.010 A 
ATOM     39  C   UNL A   1      42.046  28.265  30.596  1.00  0.00    -0.014 A 
BRANCH  39  40
ATOM     40  C   UNL A   1      41.248  29.491  30.527  1.00  0.00     0.031 A 
ATOM     41  C   UNL A   1      41.972  30.771  30.251  1.00  0.00     0.074 A 
ATOM     42  C   UNL A   1      39.901  29.478  30.585  1.00  0.00     0.049 A 
ATOM     43  N   UNL A   1      41.870  31.912  30.859  1.00  0.00    -0.248 NA
ATOM     44  C   UNL A   1      42.961  30.758  29.161  1.00  0.00     0.031 C 
ATOM     45  C   UNL A   1      39.007  28.314  30.556  1.00  0.00     0.029 A 
ATOM     46  N   UNL A   1      39.040  30.533  30.527  1.00  0.00    -0.354 N 
ATOM     47  C   UNL A   1      42.688  32.799  30.158  1.00  0.00     0.074 A 
ATOM     48  C   UNL A   1      43.385  32.020  29.165  1.00  0.00     0.031 C 
ATOM     49  C   UNL A   1      37.772  28.721  30.197  1.00  0.00     0.029 A 
ATOM     50  C   UNL A   1      37.762  30.170  30.137  1.00  0.00     0.049 A 
ATOM     51  H   UNL A   1      39.300  31.458  30.741  1.00  0.00     0.167 HD
ATOM     52  C   UNL A   1      42.671  34.149  30.333  1.00  0.00     0.031 A 
ATOM     53  C   UNL A   1      36.792  30.996  29.685  1.00  0.00     0.031 A 
ATOM     54  C   UNL A   1      42.077  34.553  31.571  1.00  0.00     0.049 A 
ATOM     55  C   UNL A   1      37.108  32.371  30.124  1.00  0.00     0.074 A 
ATOM     56  C   UNL A   1      42.402  34.409  32.904  1.00  0.00     0.029 A 
ATOM     57  N   UNL A   1      40.789  35.022  31.550  1.00  0.00    -0.354 N 
ATOM     58  N   UNL A   1      37.109  32.757  31.367  1.00  0.00    -0.248 NA
ATOM     59  C   UNL A   1      37.766  33.271  29.191  1.00  0.00     0.031 C 
ATOM     60  C   UNL A   1      41.154  34.356  33.590  1.00  0.00     0.029 A 
ATOM     61  C   UNL A   1      40.148  34.467  32.627  1.00  0.00     0.049 A 
ATOM     62  H   UNL A   1      40.400  35.639  30.889  1.00  0.00     0.167 HD
ATOM     63  C   UNL A   1      38.095  33.729  31.440  1.00  0.00     0.074 A 
ATOM     64  C   UNL A   1      38.358  34.100  30.054  1.00  0.00     0.031 C 
ATOM     65  C   UNL A   1      38.800  33.939  32.590  1.00  0.00     0.031 A 
BRANCH  52  66
ATOM     66  C   UNL A   1      43.000  35.133  29.243  1.00  0.00    -0.014 A 
ATOM     67  C   UNL A   1      44.305  35.624  29.041  1.00  0.00     0.009 A 
ATOM     68  C   UNL A   1      42.056  35.411  28.239  1.00  0.00     0.009 A 
ATOM     69  C   UNL A   1      44.646  36.382  27.917  1.00  0.00     0.001 A 
ATOM     70  C   UNL A   1      42.405  36.136  27.091  1.00  0.00     0.001 A 
ATOM     71  C   UNL A   1      43.697  36.625  26.934  1.00  0.00     0.000 A 
ENDBRANCH  52  66
BRANCH  53  72
ATOM     72  C   UNL A   1      35.853  30.696  28.586  1.00  0.00    -0.014 A 
ATOM     73  C   UNL A   1      34.717  31.507  28.390  1.00  0.00     0.009 A 
ATOM     74  C   UNL A   1      35.925  29.487  27.885  1.00  0.00     0.009 A 
ATOM     75  C   UNL A   1      33.685  31.121  27.534  1.00  0.00     0.001 A 
ATOM     76  C   UNL A   1      34.886  29.096  27.030  1.00  0.00     0.001 A 
ATOM     77  C   UNL A   1      33.764  29.908  26.862  1.00  0.00     0.000 A 
ENDBRANCH  53  72
BRANCH  65  78
ATOM     78  C   UNL A   1      38.320  33.261  33.853  1.00  0.00    -0.014 A 
ATOM     79  C   UNL A   1      37.698  34.032  34.848  1.00  0.00     0.009 A 
ATOM     80  C   UNL A   1      38.647  31.928  34.155  1.00  0.00     0.009 A 
ATOM     81  C   UNL A   1      37.419  33.486  36.106  1.00  0.00     0.001 A 
ATOM     82  C   UNL A   1      38.349  31.376  35.404  1.00  0.00     0.001 A 
ATOM     83  C   UNL A   1      37.744  32.160  36.383  1.00  0.00     0.000 A 
ENDBRANCH  65  78
ENDBRANCH  39  40
ENDBRANCH  31  34
ENDBRANCH  29  30
ENDBRANCH  28  29
ENDBRANCH   1  28
TORSDOF 13
ENDMDL
MODEL 2
REMARK VINA RESULT:     -11.5      4.889      7.566
REMARK SMILES Cc1ccnc(C(=O)c2[nH]c3cc(Cl)c(F)cc3c2CC(=O)NCCCNC(=O)c2ccc(-c3c4nc(c(-c5ccccc5)c5ccc([nH]5)c(-c5ccccc5)c5nc(c(-c6ccccc6)c6ccc3[nH]6)C=C5)C=C4)cc2)c1
REMARK SMILES IDX 24 1 23 2 21 3 22 4 20 6 19 7 9 8 10 9 11 10 18 12 12 13
REMARK SMILES IDX 17 14 13 15 15 16 14 17 16 18 7 19 8 20 6 21 1 22 2 23 3 24
REMARK SMILES IDX 78 25 4 26 5 27 25 28 26 29 27 30 28 31 29 33 30 34 31 35
REMARK SMILES IDX 77 36 32 37 76 38 33 39 34 40 35 41 70 42 36 43 75 44 69 45
REMARK SMILES IDX 71 46 37 47 74 48 68 49 67 50 38 52 60 53 45 54 59 55 46 56
REMARK SMILES IDX 49 57 58 58 72 59 47 60 48 61 57 63 73 64 50 65 39 66 40 67
REMARK SMILES IDX 44 68 41 69 43 70 42 71 61 72 62 73 66 74 63 75 65 76 64 77
REMARK SMILES IDX 51 78 52 79 56 80 53 81 55 82 54 83
REMARK H PARENT 23 5 10 11 27 32 71 51 49 62
REMARK Flexibility Score: inf
ROOT
ATOM      1  C   UNL A   1      37.904  23.347  26.097  1.00  0.00     0.117 C 
ENDROOT
BRANCH   1   2
ATOM      2  N   UNL A   1      36.958  23.787  25.090  1.00  0.00    -0.356 N 
ATOM      3  C   UNL A   1      35.602  23.896  25.091  1.00  0.00     0.224 C 
ATOM      4  O   UNL A   1      35.101  24.501  24.136  1.00  0.00    -0.275 OA
ATOM      5  H   UNL A   1      37.377  24.059  24.243  1.00  0.00     0.163 HD
BRANCH   3   6
ATOM      6  C   UNL A   1      34.719  23.374  26.205  1.00  0.00     0.138 C 
BRANCH   6   7
ATOM      7  C   UNL A   1      33.619  22.424  25.820  1.00  0.00    -0.002 A 
ATOM      8  C   UNL A   1      32.231  22.567  25.933  1.00  0.00     0.093 A 
ATOM      9  N   UNL A   1      31.682  21.345  25.586  1.00  0.00    -0.351 N 
ATOM     10  C   UNL A   1      32.638  20.451  25.183  1.00  0.00     0.048 A 
ATOM     11  H   UNL A   1      30.720  21.143  25.624  1.00  0.00     0.167 HD
ATOM     12  C   UNL A   1      33.868  21.068  25.382  1.00  0.00     0.007 A 
ATOM     13  C   UNL A   1      32.506  19.143  24.694  1.00  0.00     0.050 A 
ATOM     14  C   UNL A   1      35.036  20.315  25.129  1.00  0.00     0.051 A 
ATOM     15  C   UNL A   1      33.679  18.441  24.400  1.00  0.00     0.078 A 
ATOM     16  C   UNL A   1      34.923  19.017  24.626  1.00  0.00     0.142 A 
ATOM     17  Cl  UNL A   1      33.563  16.848  23.752  1.00  0.00    -0.081 Cl
ATOM     18  F   UNL A   1      36.051  18.344  24.353  1.00  0.00    -0.205 F 
BRANCH   8  19
ATOM     19  C   UNL A   1      31.324  23.609  26.422  1.00  0.00     0.227 C 
ATOM     20  O   UNL A   1      30.502  23.321  27.293  1.00  0.00    -0.285 OA
BRANCH  19  21
ATOM     21  C   UNL A   1      31.238  24.973  25.794  1.00  0.00     0.113 A 
ATOM     22  C   UNL A   1      31.796  28.645  26.608  1.00  0.00     0.044 C 
ATOM     23  C   UNL A   1      31.519  27.369  25.872  1.00  0.00    -0.047 A 
ATOM     24  C   UNL A   1      31.213  27.408  24.517  1.00  0.00     0.023 A 
ATOM     25  C   UNL A   1      31.578  26.119  26.501  1.00  0.00     0.036 A 
ATOM     26  C   UNL A   1      30.936  26.216  23.868  1.00  0.00     0.112 A 
ATOM     27  N   UNL A   1      30.937  25.007  24.471  1.00  0.00    -0.253 NA
ENDBRANCH  19  21
ENDBRANCH   8  19
ENDBRANCH   6   7
ENDBRANCH   3   6
ENDBRANCH   1   2
BRANCH   1  28
ATOM     28  C   UNL A   1      38.574  21.999  25.828  1.00  0.00     0.042 C 
BRANCH  28  29
ATOM     29  C   UNL A   1      39.912  21.740  26.508  1.00  0.00     0.118 C 
BRANCH  29  30
ATOM     30  N   UNL A   1      41.095  22.242  25.845  1.00  0.00    -0.352 N 
ATOM     31  C   UNL A   1      41.840  23.381  25.962  1.00  0.00     0.251 C 
ATOM     32  H   UNL A   1      41.439  21.628  25.157  1.00  0.00     0.163 HD
ATOM     33  O   UNL A   1      42.898  23.441  25.332  1.00  0.00    -0.269 OA
BRANCH  31  34
ATOM     34  C   UNL A   1      41.367  24.574  26.692  1.00  0.00     0.039 A 
ATOM     35  C   UNL A   1      40.557  25.565  26.142  1.00  0.00     0.014 A 
ATOM     36  C   UNL A   1      41.824  24.713  28.007  1.00  0.00     0.014 A 
ATOM     37  C   UNL A   1      40.425  26.785  26.786  1.00  0.00     0.010 A 
ATOM     38  C   UNL A   1      41.609  25.898  28.696  1.00  0.00     0.010 A 
ATOM     39  C   UNL A   1      41.009  26.975  28.040  1.00  0.00    -0.014 A 
BRANCH  39  40
ATOM     40  C   UNL A   1      40.956  28.316  28.624  1.00  0.00     0.031 A 
ATOM     41  C   UNL A   1      42.068  29.260  28.289  1.00  0.00     0.074 A 
ATOM     42  C   UNL A   1      39.898  28.749  29.339  1.00  0.00     0.049 A 
ATOM     43  N   UNL A   1      42.763  30.015  29.082  1.00  0.00    -0.248 NA
ATOM     44  C   UNL A   1      42.466  29.348  26.875  1.00  0.00     0.031 C 
ATOM     45  C   UNL A   1      38.601  28.088  29.524  1.00  0.00     0.029 A 
ATOM     46  N   UNL A   1      39.713  29.965  29.929  1.00  0.00    -0.354 N 
ATOM     47  C   UNL A   1      43.606  30.765  28.263  1.00  0.00     0.074 A 
ATOM     48  C   UNL A   1      43.429  30.266  26.921  1.00  0.00     0.031 C 
ATOM     49  C   UNL A   1      37.693  29.005  29.916  1.00  0.00     0.029 A 
ATOM     50  C   UNL A   1      38.380  30.259  30.161  1.00  0.00     0.049 A 
ATOM     51  H   UNL A   1      40.452  30.570  30.167  1.00  0.00     0.167 HD
ATOM     52  C   UNL A   1      44.322  31.842  28.690  1.00  0.00     0.031 A 
ATOM     53  C   UNL A   1      37.859  31.477  30.427  1.00  0.00     0.031 A 
ATOM     54  C   UNL A   1      44.482  31.888  30.111  1.00  0.00     0.049 A 
ATOM     55  C   UNL A   1      38.943  32.352  30.916  1.00  0.00     0.074 A 
ATOM     56  C   UNL A   1      45.136  31.114  31.047  1.00  0.00     0.029 A 
ATOM     57  N   UNL A   1      43.681  32.740  30.827  1.00  0.00    -0.354 N 
ATOM     58  N   UNL A   1      39.569  32.176  32.044  1.00  0.00    -0.248 NA
ATOM     59  C   UNL A   1      39.584  33.264  29.983  1.00  0.00     0.031 C 
ATOM     60  C   UNL A   1      44.356  31.224  32.235  1.00  0.00     0.029 A 
ATOM     61  C   UNL A   1      43.274  32.057  31.944  1.00  0.00     0.049 A 
ATOM     62  H   UNL A   1      43.445  33.665  30.586  1.00  0.00     0.167 HD
ATOM     63  C   UNL A   1      40.860  32.627  31.811  1.00  0.00     0.074 A 
ATOM     64  C   UNL A   1      40.767  33.410  30.585  1.00  0.00     0.031 C 
ATOM     65  C   UNL A   1      41.927  32.093  32.475  1.00  0.00     0.031 A 
BRANCH  52  66
ATOM     66  C   UNL A   1      44.688  33.002  27.804  1.00  0.00    -0.014 A 
ATOM     67  C   UNL A   1      43.758  33.998  27.445  1.00  0.00     0.009 A 
ATOM     68  C   UNL A   1      46.036  33.255  27.500  1.00  0.00     0.009 A 
ATOM     69  C   UNL A   1      44.143  35.169  26.786  1.00  0.00     0.001 A 
ATOM     70  C   UNL A   1      46.431  34.447  26.876  1.00  0.00     0.001 A 
ATOM     71  C   UNL A   1      45.484  35.400  26.516  1.00  0.00     0.000 A 
ENDBRANCH  52  66
BRANCH  53  72
ATOM     72  C   UNL A   1      36.578  31.994  29.904  1.00  0.00    -0.014 A 
ATOM     73  C   UNL A   1      36.403  32.167  28.516  1.00  0.00     0.009 A 
ATOM     74  C   UNL A   1      35.619  32.548  30.760  1.00  0.00     0.009 A 
ATOM     75  C   UNL A   1      35.317  32.877  28.001  1.00  0.00     0.001 A 
ATOM     76  C   UNL A   1      34.532  33.265  30.244  1.00  0.00     0.001 A 
ATOM     77  C   UNL A   1      34.387  33.437  28.868  1.00  0.00     0.000 A 
ENDBRANCH  53  72
BRANCH  65  78
ATOM     78  C   UNL A   1      41.652  31.175  33.644  1.00  0.00    -0.014 A 
ATOM     79  C   UNL A   1      41.789  31.672  34.950  1.00  0.00     0.009 A 
ATOM     80  C   UNL A   1      41.458  29.792  33.477  1.00  0.00     0.009 A 
ATOM     81  C   UNL A   1      41.737  30.811  36.051  1.00  0.00     0.001 A 
ATOM     82  C   UNL A   1      41.386  28.935  34.579  1.00  0.00     0.001 A 
ATOM     83  C   UNL A   1      41.536  29.445  35.866  1.00  0.00     0.000 A 
ENDBRANCH  65  78
ENDBRANCH  39  40
ENDBRANCH  31  34
ENDBRANCH  29  30
ENDBRANCH  28  29
ENDBRANCH   1  28
TORSDOF 13
ENDMDL
MODEL 3
REMARK VINA RESULT:     -11.5      5.066      7.571
REMARK SMILES Cc1ccnc(C(=O)c2[nH]c3cc(Cl)c(F)cc3c2CC(=O)NCCCNC(=O)c2ccc(-c3c4nc(c(-c5ccccc5)c5ccc([nH]5)c(-c5ccccc5)c5nc(c(-c6ccccc6)c6ccc3[nH]6)C=C5)C=C4)cc2)c1
REMARK SMILES IDX 24 1 23 2 21 3 22 4 20 6 19 7 9 8 10 9 11 10 18 12 12 13
REMARK SMILES IDX 17 14 13 15 15 16 14 17 16 18 7 19 8 20 6 21 1 22 2 23 3 24
REMARK SMILES IDX 78 25 4 26 5 27 25 28 26 29 27 30 28 31 29 33 30 34 31 35
REMARK SMILES IDX 77 36 32 37 76 38 33 39 34 40 35 41 70 42 36 43 75 44 69 45
REMARK SMILES IDX 71 46 37 47 74 48 68 49 67 50 38 52 60 53 45 54 59 55 46 56
REMARK SMILES IDX 49 57 58 58 72 59 47 60 48 61 57 63 73 64 50 65 39 66 40 67
REMARK SMILES IDX 44 68 41 69 43 70 42 71 61 72 62 73 66 74 63 75 65 76 64 77
REMARK SMILES IDX 51 78 52 79 56 80 53 81 55 82 54 83
REMARK H PARENT 23 5 10 11 27 32 71 51 49 62
REMARK Flexibility Score: inf
ROOT
ATOM      1  C   UNL A   1      35.669  23.882  25.128  1.00  0.00     0.117 C 
ENDROOT
BRANCH   1   2
ATOM      2  N   UNL A   1      34.922  24.077  23.901  1.00  0.00    -0.356 N 
ATOM      3  C   UNL A   1      33.998  25.002  23.526  1.00  0.00     0.224 C 
ATOM      4  O   UNL A   1      33.691  25.016  22.329  1.00  0.00    -0.275 OA
ATOM      5  H   UNL A   1      35.121  23.410  23.205  1.00  0.00     0.163 HD
BRANCH   3   6
ATOM      6  C   UNL A   1      33.394  26.016  24.474  1.00  0.00     0.138 C 
BRANCH   6   7
ATOM      7  C   UNL A   1      31.894  26.056  24.571  1.00  0.00    -0.002 A 
ATOM      8  C   UNL A   1      31.013  25.174  25.208  1.00  0.00     0.093 A 
ATOM      9  N   UNL A   1      29.736  25.577  24.861  1.00  0.00    -0.351 N 
ATOM     10  C   UNL A   1      29.748  26.714  24.098  1.00  0.00     0.048 A 
ATOM     11  H   UNL A   1      28.916  25.103  25.129  1.00  0.00     0.167 HD
ATOM     12  C   UNL A   1      31.083  27.005  23.839  1.00  0.00     0.007 A 
ATOM     13  C   UNL A   1      28.685  27.480  23.597  1.00  0.00     0.050 A 
ATOM     14  C   UNL A   1      31.372  28.091  22.984  1.00  0.00     0.051 A 
ATOM     15  C   UNL A   1      29.003  28.583  22.798  1.00  0.00     0.078 A 
ATOM     16  C   UNL A   1      30.326  28.874  22.490  1.00  0.00     0.142 A 
ATOM     17  Cl  UNL A   1      27.731  29.580  22.200  1.00  0.00    -0.081 Cl
ATOM     18  F   UNL A   1      30.635  29.927  21.717  1.00  0.00    -0.205 F 
BRANCH   8  19
ATOM     19  C   UNL A   1      31.151  23.944  25.993  1.00  0.00     0.227 C 
ATOM     20  O   UNL A   1      30.834  23.961  27.184  1.00  0.00    -0.285 OA
BRANCH  19  21
ATOM     21  C   UNL A   1      31.817  22.706  25.458  1.00  0.00     0.113 A 
ATOM     22  C   UNL A   1      32.086  20.630  22.285  1.00  0.00     0.044 C 
ATOM     23  C   UNL A   1      32.303  21.161  23.669  1.00  0.00    -0.047 A 
ATOM     24  C   UNL A   1      33.205  20.528  24.516  1.00  0.00     0.023 A 
ATOM     25  C   UNL A   1      31.639  22.300  24.142  1.00  0.00     0.036 A 
ATOM     26  C   UNL A   1      33.367  21.025  25.798  1.00  0.00     0.112 A 
ATOM     27  N   UNL A   1      32.696  22.091  26.288  1.00  0.00    -0.253 NA
ENDBRANCH  19  21
ENDBRANCH   8  19
ENDBRANCH   6   7
ENDBRANCH   3   6
ENDBRANCH   1   2
BRANCH   1  28
ATOM     28  C   UNL A   1      37.165  23.622  24.956  1.00  0.00     0.042 C 
BRANCH  28  29
ATOM     29  C   UNL A   1      37.988  23.425  26.222  1.00  0.00     0.118 C 
BRANCH  29  30
ATOM     30  N   UNL A   1      39.273  22.777  26.078  1.00  0.00    -0.352 N 
ATOM     31  C   UNL A   1      40.542  23.083  26.479  1.00  0.00     0.251 C 
ATOM     32  H   UNL A   1      39.222  21.929  25.580  1.00  0.00     0.163 HD
ATOM     33  O   UNL A   1      41.416  22.229  26.316  1.00  0.00    -0.269 OA
BRANCH  31  34
ATOM     34  C   UNL A   1      40.926  24.423  26.965  1.00  0.00     0.039 A 
ATOM     35  C   UNL A   1      41.535  24.673  28.192  1.00  0.00     0.014 A 
ATOM     36  C   UNL A   1      40.594  25.498  26.133  1.00  0.00     0.014 A 
ATOM     37  C   UNL A   1      41.569  25.964  28.696  1.00  0.00     0.010 A 
ATOM     38  C   UNL A   1      40.719  26.800  26.595  1.00  0.00     0.010 A 
ATOM     39  C   UNL A   1      41.099  27.025  27.920  1.00  0.00    -0.014 A 
BRANCH  39  40
ATOM     40  C   UNL A   1      41.033  28.350  28.539  1.00  0.00     0.031 A 
ATOM     41  C   UNL A   1      42.150  29.303  28.249  1.00  0.00     0.074 A 
ATOM     42  C   UNL A   1      39.963  28.762  29.247  1.00  0.00     0.049 A 
ATOM     43  N   UNL A   1      42.831  30.037  29.075  1.00  0.00    -0.248 NA
ATOM     44  C   UNL A   1      42.573  29.431  26.845  1.00  0.00     0.031 C 
ATOM     45  C   UNL A   1      38.664  28.094  29.392  1.00  0.00     0.029 A 
ATOM     46  N   UNL A   1      39.766  29.960  29.867  1.00  0.00    -0.354 N 
ATOM     47  C   UNL A   1      43.687  30.810  28.291  1.00  0.00     0.074 A 
ATOM     48  C   UNL A   1      43.533  30.348  26.934  1.00  0.00     0.031 C 
ATOM     49  C   UNL A   1      37.748  29.000  29.793  1.00  0.00     0.029 A 
ATOM     50  C   UNL A   1      38.429  30.247  30.084  1.00  0.00     0.049 A 
ATOM     51  H   UNL A   1      40.500  30.560  30.135  1.00  0.00     0.167 HD
ATOM     52  C   UNL A   1      44.393  31.875  28.760  1.00  0.00     0.031 A 
ATOM     53  C   UNL A   1      37.901  31.457  30.374  1.00  0.00     0.031 A 
ATOM     54  C   UNL A   1      44.528  31.882  30.185  1.00  0.00     0.049 A 
ATOM     55  C   UNL A   1      38.975  32.319  30.907  1.00  0.00     0.074 A 
ATOM     56  C   UNL A   1      45.167  31.083  31.110  1.00  0.00     0.029 A 
ATOM     57  N   UNL A   1      43.715  32.714  30.910  1.00  0.00    -0.354 N 
ATOM     58  N   UNL A   1      39.583  32.113  32.039  1.00  0.00    -0.248 NA
ATOM     59  C   UNL A   1      39.632  33.257  30.010  1.00  0.00     0.031 C 
ATOM     60  C   UNL A   1      44.367  31.160  32.287  1.00  0.00     0.029 A 
ATOM     61  C   UNL A   1      43.289  31.999  32.000  1.00  0.00     0.049 A 
ATOM     62  H   UNL A   1      43.481  33.645  30.690  1.00  0.00     0.167 HD
ATOM     63  C   UNL A   1      40.876  32.571  31.842  1.00  0.00     0.074 A 
ATOM     64  C   UNL A   1      40.804  33.388  30.636  1.00  0.00     0.031 C 
ATOM     65  C   UNL A   1      41.933  32.020  32.508  1.00  0.00     0.031 A 
BRANCH  52  66
ATOM     66  C   UNL A   1      44.773  33.060  27.913  1.00  0.00    -0.014 A 
ATOM     67  C   UNL A   1      45.977  33.107  27.182  1.00  0.00     0.009 A 
ATOM     68  C   UNL A   1      43.823  34.058  27.635  1.00  0.00     0.009 A 
ATOM     69  C   UNL A   1      46.239  34.115  26.250  1.00  0.00     0.001 A 
ATOM     70  C   UNL A   1      44.066  35.047  26.671  1.00  0.00     0.001 A 
ATOM     71  C   UNL A   1      45.275  35.077  25.984  1.00  0.00     0.000 A 
ENDBRANCH  52  66
BRANCH  53  72
ATOM     72  C   UNL A   1      36.629  31.987  29.844  1.00  0.00    -0.014 A 
ATOM     73  C   UNL A   1      36.480  32.203  28.459  1.00  0.00     0.009 A 
ATOM     74  C   UNL A   1      35.653  32.511  30.699  1.00  0.00     0.009 A 
ATOM     75  C   UNL A   1      35.401  32.926  27.946  1.00  0.00     0.001 A 
ATOM     76  C   UNL A   1      34.574  33.242  30.185  1.00  0.00     0.001 A 
ATOM     77  C   UNL A   1      34.453  33.456  28.812  1.00  0.00     0.000 A 
ENDBRANCH  53  72
BRANCH  65  78
ATOM     78  C   UNL A   1      41.639  31.069  33.647  1.00  0.00    -0.014 A 
ATOM     79  C   UNL A   1      41.675  31.551  34.966  1.00  0.00     0.009 A 
ATOM     80  C   UNL A   1      41.526  29.682  33.450  1.00  0.00     0.009 A 
ATOM     81  C   UNL A   1      41.605  30.670  36.050  1.00  0.00     0.001 A 
ATOM     82  C   UNL A   1      41.435  28.804  34.534  1.00  0.00     0.001 A 
ATOM     83  C   UNL A   1      41.485  29.299  35.834  1.00  0.00     0.000 A 
ENDBRANCH  65  78
ENDBRANCH  39  40
ENDBRANCH  31  34
ENDBRANCH  29  30
ENDBRANCH  28  29
ENDBRANCH   1  28
TORSDOF 13
ENDMDL
