MODEL 1
REMARK VINA RESULT:     -10.5      0.000      0.000
REMARK SMILES C[C@H](CC(=O)NCCCNC(=O)c1ccc(-c2c3nc(c(-c4ccccc4)c4ccc([nH]4)c(-c4ccccc4)c4nc(c(-c5ccccc5)c5ccc2[nH]5)C=C4)C=C3)cc1)NC(=O)[C@H]1CC(=O)N(C2CC2)C1
REMARK SMILES IDX 7 1 6 2 4 3 5 4 3 6 2 7 1 8 61 9 62 10 63 12 64 13 65 14
REMARK SMILES IDX 72 15 66 16 68 17 67 18 69 19 70 20 71 21 8 22 9 23 10 24
REMARK SMILES IDX 11 25 12 27 13 28 14 29 60 30 15 31 59 32 16 33 17 34 18 35
REMARK SMILES IDX 53 36 19 37 58 38 52 39 54 40 20 41 57 42 51 43 50 44 21 46
REMARK SMILES IDX 43 47 28 48 42 49 29 50 32 51 41 52 55 53 30 54 31 55 40 57
REMARK SMILES IDX 56 58 33 59 22 60 23 61 27 62 24 63 26 64 25 65 44 66 45 67
REMARK SMILES IDX 49 68 46 69 48 70 47 71 34 72 35 73 39 74 36 75 38 76 37 77
REMARK H PARENT 6 5 61 11 10 26 54 45 32 56
REMARK Flexibility Score: inf
ROOT
ATOM      1  C   UNL A   1      31.701  30.639  26.671  1.00  0.00     0.117 C 
ENDROOT
BRANCH   1   2
ATOM      2  N   UNL A   1      31.706  30.290  25.262  1.00  0.00    -0.356 N 
ATOM      3  C   UNL A   1      31.533  29.086  24.654  1.00  0.00     0.222 C 
ATOM      4  O   UNL A   1      31.676  29.024  23.432  1.00  0.00    -0.275 OA
ATOM      5  H   UNL A   1      31.859  31.045  24.648  1.00  0.00     0.163 HD
BRANCH   3   6
ATOM      6  C   UNL A   1      31.173  27.852  25.454  1.00  0.00     0.124 C 
BRANCH   6   7
ATOM      7  C   UNL A   1      32.300  26.819  25.644  1.00  0.00     0.088 C 
ATOM      8  C   UNL A   1      33.647  27.418  26.037  1.00  0.00     0.031 C 
BRANCH   7   9
ATOM      9  N   UNL A   1      31.903  25.756  26.579  1.00  0.00    -0.353 N 
ATOM     10  C   UNL A   1      31.832  24.402  26.484  1.00  0.00     0.225 C 
ATOM     11  H   UNL A   1      31.629  26.097  27.461  1.00  0.00     0.163 HD
ATOM     12  O   UNL A   1      31.039  23.848  27.251  1.00  0.00    -0.275 OA
BRANCH  10  13
ATOM     13  C   UNL A   1      32.785  23.579  25.641  1.00  0.00     0.107 C 
ATOM     14  C   UNL A   1      32.651  23.877  24.144  1.00  0.00     0.115 C 
ATOM     15  C   UNL A   1      34.250  23.784  25.897  1.00  0.00     0.133 C 
ATOM     16  C   UNL A   1      34.031  23.587  23.584  1.00  0.00     0.223 C 
ATOM     17  N   UNL A   1      34.911  23.510  24.662  1.00  0.00    -0.339 N 
ATOM     18  O   UNL A   1      34.289  23.508  22.399  1.00  0.00    -0.275 OA
BRANCH  17  19
ATOM     19  C   UNL A   1      36.336  23.440  24.655  1.00  0.00     0.085 C 
ATOM     20  C   UNL A   1      37.177  22.596  25.557  1.00  0.00     0.027 C 
ATOM     21  C   UNL A   1      37.028  22.223  24.108  1.00  0.00     0.027 C 
ENDBRANCH  17  19
ENDBRANCH  10  13
ENDBRANCH   7   9
ENDBRANCH   6   7
ENDBRANCH   3   6
ENDBRANCH   1   2
BRANCH   1  22
ATOM     22  C   UNL A   1      31.417  32.123  26.872  1.00  0.00     0.042 C 
BRANCH  22  23
ATOM     23  C   UNL A   1      32.652  33.005  26.936  1.00  0.00     0.118 C 
BRANCH  23  24
ATOM     24  N   UNL A   1      32.475  34.170  27.781  1.00  0.00    -0.352 N 
ATOM     25  C   UNL A   1      33.164  34.580  28.895  1.00  0.00     0.251 C 
ATOM     26  H   UNL A   1      31.739  34.765  27.511  1.00  0.00     0.163 HD
ATOM     27  O   UNL A   1      32.727  35.526  29.547  1.00  0.00    -0.269 OA
BRANCH  25  28
ATOM     28  C   UNL A   1      34.406  33.902  29.340  1.00  0.00     0.039 A 
ATOM     29  C   UNL A   1      35.611  34.251  28.720  1.00  0.00     0.014 A 
ATOM     30  C   UNL A   1      34.402  32.890  30.304  1.00  0.00     0.014 A 
ATOM     31  C   UNL A   1      36.803  33.624  29.097  1.00  0.00     0.010 A 
ATOM     32  C   UNL A   1      35.602  32.337  30.750  1.00  0.00     0.010 A 
ATOM     33  C   UNL A   1      36.815  32.680  30.135  1.00  0.00    -0.014 A 
BRANCH  33  34
ATOM     34  C   UNL A   1      38.077  32.016  30.552  1.00  0.00     0.031 A 
ATOM     35  C   UNL A   1      38.926  32.613  31.646  1.00  0.00     0.074 A 
ATOM     36  C   UNL A   1      38.484  30.893  29.929  1.00  0.00     0.049 A 
ATOM     37  N   UNL A   1      40.066  32.189  32.132  1.00  0.00    -0.248 NA
ATOM     38  C   UNL A   1      38.446  33.866  32.253  1.00  0.00     0.031 C 
ATOM     39  C   UNL A   1      37.784  30.234  28.825  1.00  0.00     0.029 A 
ATOM     40  N   UNL A   1      39.588  30.105  30.139  1.00  0.00    -0.354 N 
ATOM     41  C   UNL A   1      40.445  33.131  33.081  1.00  0.00     0.074 A 
ATOM     42  C   UNL A   1      39.445  34.174  33.066  1.00  0.00     0.031 C 
ATOM     43  C   UNL A   1      38.454  29.121  28.482  1.00  0.00     0.029 A 
ATOM     44  C   UNL A   1      39.646  29.006  29.317  1.00  0.00     0.049 A 
ATOM     45  H   UNL A   1      40.274  30.309  30.816  1.00  0.00     0.167 HD
ATOM     46  C   UNL A   1      41.518  33.120  33.909  1.00  0.00     0.031 A 
ATOM     47  C   UNL A   1      40.552  28.014  29.247  1.00  0.00     0.031 A 
ATOM     48  C   UNL A   1      42.501  32.072  33.950  1.00  0.00     0.049 A 
ATOM     49  C   UNL A   1      41.721  28.014  30.189  1.00  0.00     0.074 A 
ATOM     50  C   UNL A   1      43.588  31.941  34.798  1.00  0.00     0.029 A 
ATOM     51  N   UNL A   1      42.512  30.971  33.110  1.00  0.00    -0.354 N 
ATOM     52  N   UNL A   1      42.030  28.880  31.123  1.00  0.00    -0.248 NA
ATOM     53  C   UNL A   1      42.661  26.888  30.075  1.00  0.00     0.031 C 
ATOM     54  C   UNL A   1      44.280  30.779  34.443  1.00  0.00     0.029 A 
ATOM     55  C   UNL A   1      43.598  30.164  33.406  1.00  0.00     0.049 A 
ATOM     56  H   UNL A   1      41.848  30.790  32.407  1.00  0.00     0.167 HD
ATOM     57  C   UNL A   1      43.184  28.393  31.723  1.00  0.00     0.074 A 
ATOM     58  C   UNL A   1      43.510  27.148  31.059  1.00  0.00     0.031 C 
ATOM     59  C   UNL A   1      43.910  28.930  32.734  1.00  0.00     0.031 A 
BRANCH  46  60
ATOM     60  C   UNL A   1      41.679  34.288  34.843  1.00  0.00    -0.014 A 
ATOM     61  C   UNL A   1      42.361  35.450  34.443  1.00  0.00     0.009 A 
ATOM     62  C   UNL A   1      41.119  34.239  36.128  1.00  0.00     0.009 A 
ATOM     63  C   UNL A   1      42.513  36.521  35.326  1.00  0.00     0.001 A 
ATOM     64  C   UNL A   1      41.249  35.322  36.999  1.00  0.00     0.001 A 
ATOM     65  C   UNL A   1      41.953  36.457  36.601  1.00  0.00     0.000 A 
ENDBRANCH  46  60
BRANCH  47  66
ATOM     66  C   UNL A   1      40.372  26.913  28.264  1.00  0.00    -0.014 A 
ATOM     67  C   UNL A   1      39.627  25.773  28.603  1.00  0.00     0.009 A 
ATOM     68  C   UNL A   1      40.947  26.995  26.986  1.00  0.00     0.009 A 
ATOM     69  C   UNL A   1      39.482  24.726  27.690  1.00  0.00     0.001 A 
ATOM     70  C   UNL A   1      40.778  25.958  26.066  1.00  0.00     0.001 A 
ATOM     71  C   UNL A   1      40.053  24.821  26.422  1.00  0.00     0.000 A 
ENDBRANCH  47  66
BRANCH  59  72
ATOM     72  C   UNL A   1      45.110  28.158  33.198  1.00  0.00    -0.014 A 
ATOM     73  C   UNL A   1      45.006  27.194  34.213  1.00  0.00     0.009 A 
ATOM     74  C   UNL A   1      46.357  28.378  32.593  1.00  0.00     0.009 A 
ATOM     75  C   UNL A   1      46.136  26.491  34.636  1.00  0.00     0.001 A 
ATOM     76  C   UNL A   1      47.479  27.656  33.000  1.00  0.00     0.001 A 
ATOM     77  C   UNL A   1      47.369  26.720  34.028  1.00  0.00     0.000 A 
ENDBRANCH  59  72
ENDBRANCH  33  34
ENDBRANCH  25  28
ENDBRANCH  23  24
ENDBRANCH  22  23
ENDBRANCH   1  22
TORSDOF 14
ENDMDL
MODEL 2
REMARK VINA RESULT:     -10.4      1.468      6.302
REMARK SMILES C[C@H](CC(=O)NCCCNC(=O)c1ccc(-c2c3nc(c(-c4ccccc4)c4ccc([nH]4)c(-c4ccccc4)c4nc(c(-c5ccccc5)c5ccc2[nH]5)C=C4)C=C3)cc1)NC(=O)[C@H]1CC(=O)N(C2CC2)C1
REMARK SMILES IDX 7 1 6 2 4 3 5 4 3 6 2 7 1 8 61 9 62 10 63 12 64 13 65 14
REMARK SMILES IDX 72 15 66 16 68 17 67 18 69 19 70 20 71 21 8 22 9 23 10 24
REMARK SMILES IDX 11 25 12 27 13 28 14 29 60 30 15 31 59 32 16 33 17 34 18 35
REMARK SMILES IDX 53 36 19 37 58 38 52 39 54 40 20 41 57 42 51 43 50 44 21 46
REMARK SMILES IDX 43 47 28 48 42 49 29 50 32 51 41 52 55 53 30 54 31 55 40 57
REMARK SMILES IDX 56 58 33 59 22 60 23 61 27 62 24 63 26 64 25 65 44 66 45 67
REMARK SMILES IDX 49 68 46 69 48 70 47 71 34 72 35 73 39 74 36 75 38 76 37 77
REMARK H PARENT 6 5 61 11 10 26 54 45 32 56
REMARK Flexibility Score: inf
ROOT
ATOM      1  C   UNL A   1      31.413  30.598  25.942  1.00  0.00     0.117 C 
ENDROOT
BRANCH   1   2
ATOM      2  N   UNL A   1      31.614  29.661  27.032  1.00  0.00    -0.356 N 
ATOM      3  C   UNL A   1      31.513  28.306  27.055  1.00  0.00     0.222 C 
ATOM      4  O   UNL A   1      31.639  27.729  28.137  1.00  0.00    -0.275 OA
ATOM      5  H   UNL A   1      31.863  30.072  27.892  1.00  0.00     0.163 HD
BRANCH   3   6
ATOM      6  C   UNL A   1      31.252  27.520  25.787  1.00  0.00     0.124 C 
BRANCH   6   7
ATOM      7  C   UNL A   1      32.096  26.245  25.598  1.00  0.00     0.088 C 
ATOM      8  C   UNL A   1      33.600  26.488  25.522  1.00  0.00     0.031 C 
BRANCH   7   9
ATOM      9  N   UNL A   1      31.777  25.233  26.615  1.00  0.00    -0.353 N 
ATOM     10  C   UNL A   1      31.631  23.882  26.580  1.00  0.00     0.225 C 
ATOM     11  H   UNL A   1      31.638  25.614  27.512  1.00  0.00     0.163 HD
ATOM     12  O   UNL A   1      30.921  23.392  27.464  1.00  0.00    -0.275 OA
BRANCH  10  13
ATOM     13  C   UNL A   1      32.424  22.985  25.651  1.00  0.00     0.107 C 
ATOM     14  C   UNL A   1      33.825  22.673  26.190  1.00  0.00     0.115 C 
ATOM     15  C   UNL A   1      31.851  21.623  25.389  1.00  0.00     0.133 C 
ATOM     16  C   UNL A   1      34.153  21.314  25.603  1.00  0.00     0.223 C 
ATOM     17  N   UNL A   1      32.964  20.769  25.121  1.00  0.00    -0.339 N 
ATOM     18  O   UNL A   1      35.255  20.803  25.627  1.00  0.00    -0.275 OA
BRANCH  17  19
ATOM     19  C   UNL A   1      32.708  19.448  24.648  1.00  0.00     0.085 C 
ATOM     20  C   UNL A   1      33.723  18.363  24.485  1.00  0.00     0.027 C 
ATOM     21  C   UNL A   1      32.722  18.289  25.605  1.00  0.00     0.027 C 
ENDBRANCH  17  19
ENDBRANCH  10  13
ENDBRANCH   7   9
ENDBRANCH   6   7
ENDBRANCH   3   6
ENDBRANCH   1   2
BRANCH   1  22
ATOM     22  C   UNL A   1      31.318  32.031  26.454  1.00  0.00     0.042 C 
BRANCH  22  23
ATOM     23  C   UNL A   1      32.620  32.604  26.989  1.00  0.00     0.118 C 
BRANCH  23  24
ATOM     24  N   UNL A   1      32.441  33.861  27.689  1.00  0.00    -0.352 N 
ATOM     25  C   UNL A   1      33.183  34.443  28.686  1.00  0.00     0.251 C 
ATOM     26  H   UNL A   1      31.659  34.384  27.400  1.00  0.00     0.163 HD
ATOM     27  O   UNL A   1      32.743  35.447  29.243  1.00  0.00    -0.269 OA
BRANCH  25  28
ATOM     28  C   UNL A   1      34.485  33.882  29.122  1.00  0.00     0.039 A 
ATOM     29  C   UNL A   1      34.500  33.027  30.230  1.00  0.00     0.014 A 
ATOM     30  C   UNL A   1      35.692  34.225  28.507  1.00  0.00     0.014 A 
ATOM     31  C   UNL A   1      35.708  32.489  30.685  1.00  0.00     0.010 A 
ATOM     32  C   UNL A   1      36.881  33.611  28.898  1.00  0.00     0.010 A 
ATOM     33  C   UNL A   1      36.908  32.754  30.006  1.00  0.00    -0.014 A 
BRANCH  33  34
ATOM     34  C   UNL A   1      38.196  32.177  30.474  1.00  0.00     0.031 A 
ATOM     35  C   UNL A   1      38.705  30.882  29.894  1.00  0.00     0.074 A 
ATOM     36  C   UNL A   1      38.896  32.796  31.444  1.00  0.00     0.049 A 
ATOM     37  N   UNL A   1      39.794  30.217  30.188  1.00  0.00    -0.248 NA
ATOM     38  C   UNL A   1      37.867  30.235  28.870  1.00  0.00     0.031 C 
ATOM     39  C   UNL A   1      38.497  34.029  32.125  1.00  0.00     0.029 A 
ATOM     40  N   UNL A   1      40.096  32.470  32.025  1.00  0.00    -0.354 N 
ATOM     41  C   UNL A   1      39.759  29.070  29.404  1.00  0.00     0.074 A 
ATOM     42  C   UNL A   1      38.519  29.102  28.662  1.00  0.00     0.031 C 
ATOM     43  C   UNL A   1      39.454  34.376  33.001  1.00  0.00     0.029 A 
ATOM     44  C   UNL A   1      40.516  33.375  32.969  1.00  0.00     0.049 A 
ATOM     45  H   UNL A   1      40.608  31.663  31.786  1.00  0.00     0.167 HD
ATOM     46  C   UNL A   1      40.686  28.087  29.292  1.00  0.00     0.031 A 
ATOM     47  C   UNL A   1      41.631  33.401  33.721  1.00  0.00     0.031 A 
ATOM     48  C   UNL A   1      41.934  28.063  30.004  1.00  0.00     0.049 A 
ATOM     49  C   UNL A   1      42.652  32.311  33.564  1.00  0.00     0.074 A 
ATOM     50  C   UNL A   1      42.964  27.143  29.910  1.00  0.00     0.029 A 
ATOM     51  N   UNL A   1      42.324  29.008  30.939  1.00  0.00    -0.354 N 
ATOM     52  N   UNL A   1      42.631  31.267  32.771  1.00  0.00    -0.248 NA
ATOM     53  C   UNL A   1      43.860  32.413  34.397  1.00  0.00     0.031 C 
ATOM     54  C   UNL A   1      43.962  27.511  30.819  1.00  0.00     0.029 A 
ATOM     55  C   UNL A   1      43.572  28.684  31.444  1.00  0.00     0.049 A 
ATOM     56  H   UNL A   1      41.792  29.792  31.206  1.00  0.00     0.167 HD
ATOM     57  C   UNL A   1      43.829  30.601  32.993  1.00  0.00     0.074 A 
ATOM     58  C   UNL A   1      44.561  31.367  33.980  1.00  0.00     0.031 C 
ATOM     59  C   UNL A   1      44.284  29.455  32.429  1.00  0.00     0.031 A 
BRANCH  46  60
ATOM     60  C   UNL A   1      40.374  26.951  28.357  1.00  0.00    -0.014 A 
ATOM     61  C   UNL A   1      39.580  25.868  28.767  1.00  0.00     0.009 A 
ATOM     62  C   UNL A   1      40.859  26.977  27.041  1.00  0.00     0.009 A 
ATOM     63  C   UNL A   1      39.311  24.815  27.890  1.00  0.00     0.001 A 
ATOM     64  C   UNL A   1      40.566  25.935  26.158  1.00  0.00     0.001 A 
ATOM     65  C   UNL A   1      39.801  24.852  26.586  1.00  0.00     0.000 A 
ENDBRANCH  46  60
BRANCH  47  66
ATOM     66  C   UNL A   1      41.860  34.520  34.672  1.00  0.00    -0.014 A 
ATOM     67  C   UNL A   1      42.488  35.699  34.244  1.00  0.00     0.009 A 
ATOM     68  C   UNL A   1      41.455  34.413  36.012  1.00  0.00     0.009 A 
ATOM     69  C   UNL A   1      42.729  36.740  35.144  1.00  0.00     0.001 A 
ATOM     70  C   UNL A   1      41.674  35.466  36.903  1.00  0.00     0.001 A 
ATOM     71  C   UNL A   1      42.318  36.624  36.470  1.00  0.00     0.000 A 
ENDBRANCH  47  66
BRANCH  59  72
ATOM     72  C   UNL A   1      45.644  28.980  32.849  1.00  0.00    -0.014 A 
ATOM     73  C   UNL A   1      45.804  28.093  33.925  1.00  0.00     0.009 A 
ATOM     74  C   UNL A   1      46.779  29.405  32.141  1.00  0.00     0.009 A 
ATOM     75  C   UNL A   1      47.079  27.668  34.304  1.00  0.00     0.001 A 
ATOM     76  C   UNL A   1      48.050  28.959  32.507  1.00  0.00     0.001 A 
ATOM     77  C   UNL A   1      48.199  28.099  33.594  1.00  0.00     0.000 A 
ENDBRANCH  59  72
ENDBRANCH  33  34
ENDBRANCH  25  28
ENDBRANCH  23  24
ENDBRANCH  22  23
ENDBRANCH   1  22
TORSDOF 14
ENDMDL
MODEL 3
REMARK VINA RESULT:     -10.4      3.396      8.933
REMARK SMILES C[C@H](CC(=O)NCCCNC(=O)c1ccc(-c2c3nc(c(-c4ccccc4)c4ccc([nH]4)c(-c4ccccc4)c4nc(c(-c5ccccc5)c5ccc2[nH]5)C=C4)C=C3)cc1)NC(=O)[C@H]1CC(=O)N(C2CC2)C1
REMARK SMILES IDX 7 1 6 2 4 3 5 4 3 6 2 7 1 8 61 9 62 10 63 12 64 13 65 14
REMARK SMILES IDX 72 15 66 16 68 17 67 18 69 19 70 20 71 21 8 22 9 23 10 24
REMARK SMILES IDX 11 25 12 27 13 28 14 29 60 30 15 31 59 32 16 33 17 34 18 35
REMARK SMILES IDX 53 36 19 37 58 38 52 39 54 40 20 41 57 42 51 43 50 44 21 46
REMARK SMILES IDX 43 47 28 48 42 49 29 50 32 51 41 52 55 53 30 54 31 55 40 57
REMARK SMILES IDX 56 58 33 59 22 60 23 61 27 62 24 63 26 64 25 65 44 66 45 67
REMARK SMILES IDX 49 68 46 69 48 70 47 71 34 72 35 73 39 74 36 75 38 76 37 77
REMARK H PARENT 6 5 61 11 10 26 54 45 32 56
REMARK Flexibility Score: inf
ROOT
ATOM      1  C   UNL A   1      36.244  19.993  25.001  1.00  0.00     0.117 C 
ENDROOT
BRANCH   1   2
ATOM      2  N   UNL A   1      36.144  21.335  25.546  1.00  0.00    -0.356 N 
ATOM      3  C   UNL A   1      35.115  21.945  26.192  1.00  0.00     0.222 C 
ATOM      4  O   UNL A   1      35.234  23.137  26.481  1.00  0.00    -0.275 OA
ATOM      5  H   UNL A   1      36.948  21.891  25.431  1.00  0.00     0.163 HD
BRANCH   3   6
ATOM      6  C   UNL A   1      33.855  21.186  26.548  1.00  0.00     0.124 C 
BRANCH   6   7
ATOM      7  C   UNL A   1      32.703  21.273  25.528  1.00  0.00     0.088 C 
ATOM      8  C   UNL A   1      32.374  19.956  24.832  1.00  0.00     0.031 C 
BRANCH   7   9
ATOM      9  N   UNL A   1      31.500  21.868  26.126  1.00  0.00    -0.353 N 
ATOM     10  C   UNL A   1      31.153  23.138  26.468  1.00  0.00     0.225 C 
ATOM     11  H   UNL A   1      30.795  21.209  26.320  1.00  0.00     0.163 HD
ATOM     12  O   UNL A   1      30.298  23.243  27.353  1.00  0.00    -0.275 OA
BRANCH  10  13
ATOM     13  C   UNL A   1      31.622  24.360  25.706  1.00  0.00     0.107 C 
ATOM     14  C   UNL A   1      30.507  24.990  24.863  1.00  0.00     0.115 C 
ATOM     15  C   UNL A   1      32.113  25.514  26.533  1.00  0.00     0.133 C 
ATOM     16  C   UNL A   1      30.881  26.458  24.793  1.00  0.00     0.223 C 
ATOM     17  N   UNL A   1      31.848  26.690  25.769  1.00  0.00    -0.339 N 
ATOM     18  O   UNL A   1      30.361  27.265  24.048  1.00  0.00    -0.275 OA
BRANCH  17  19
ATOM     19  C   UNL A   1      32.384  27.931  26.226  1.00  0.00     0.085 C 
ATOM     20  C   UNL A   1      31.696  29.257  26.169  1.00  0.00     0.027 C 
ATOM     21  C   UNL A   1      31.865  28.557  27.490  1.00  0.00     0.027 C 
ENDBRANCH  17  19
ENDBRANCH  10  13
ENDBRANCH   7   9
ENDBRANCH   6   7
ENDBRANCH   3   6
ENDBRANCH   1   2
BRANCH   1  22
ATOM     22  C   UNL A   1      37.691  19.629  24.692  1.00  0.00     0.042 C 
BRANCH  22  23
ATOM     23  C   UNL A   1      38.701  20.095  25.728  1.00  0.00     0.118 C 
BRANCH  23  24
ATOM     24  N   UNL A   1      39.878  19.250  25.794  1.00  0.00    -0.352 N 
ATOM     25  C   UNL A   1      41.176  19.548  26.125  1.00  0.00     0.251 C 
ATOM     26  H   UNL A   1      39.719  18.307  25.563  1.00  0.00     0.163 HD
ATOM     27  O   UNL A   1      42.043  18.694  25.953  1.00  0.00    -0.269 OA
BRANCH  25  28
ATOM     28  C   UNL A   1      41.560  20.875  26.664  1.00  0.00     0.039 A 
ATOM     29  C   UNL A   1      41.977  21.861  25.762  1.00  0.00     0.014 A 
ATOM     30  C   UNL A   1      41.580  21.151  28.034  1.00  0.00     0.014 A 
ATOM     31  C   UNL A   1      42.364  23.121  26.228  1.00  0.00     0.010 A 
ATOM     32  C   UNL A   1      41.870  22.436  28.489  1.00  0.00     0.010 A 
ATOM     33  C   UNL A   1      42.289  23.431  27.595  1.00  0.00    -0.014 A 
BRANCH  33  34
ATOM     34  C   UNL A   1      42.687  24.771  28.100  1.00  0.00     0.031 A 
ATOM     35  C   UNL A   1      41.647  25.838  28.326  1.00  0.00     0.074 A 
ATOM     36  C   UNL A   1      43.986  25.045  28.325  1.00  0.00     0.049 A 
ATOM     37  N   UNL A   1      41.804  27.070  28.745  1.00  0.00    -0.248 NA
ATOM     38  C   UNL A   1      40.251  25.486  28.016  1.00  0.00     0.031 C 
ATOM     39  C   UNL A   1      45.100  24.121  28.105  1.00  0.00     0.029 A 
ATOM     40  N   UNL A   1      44.589  26.185  28.795  1.00  0.00    -0.354 N 
ATOM     41  C   UNL A   1      40.536  27.640  28.726  1.00  0.00     0.074 A 
ATOM     42  C   UNL A   1      39.631  26.640  28.207  1.00  0.00     0.031 C 
ATOM     43  C   UNL A   1      46.245  24.717  28.476  1.00  0.00     0.029 A 
ATOM     44  C   UNL A   1      45.952  26.074  28.927  1.00  0.00     0.049 A 
ATOM     45  H   UNL A   1      44.091  27.006  29.016  1.00  0.00     0.167 HD
ATOM     46  C   UNL A   1      40.153  28.876  29.125  1.00  0.00     0.031 A 
ATOM     47  C   UNL A   1      46.863  26.960  29.369  1.00  0.00     0.031 A 
ATOM     48  C   UNL A   1      41.043  29.865  29.669  1.00  0.00     0.049 A 
ATOM     49  C   UNL A   1      46.411  28.318  29.825  1.00  0.00     0.074 A 
ATOM     50  C   UNL A   1      40.739  31.123  30.161  1.00  0.00     0.029 A 
ATOM     51  N   UNL A   1      42.413  29.704  29.800  1.00  0.00    -0.354 N 
ATOM     52  N   UNL A   1      45.199  28.817  29.859  1.00  0.00    -0.248 NA
ATOM     53  C   UNL A   1      47.454  29.230  30.318  1.00  0.00     0.031 C 
ATOM     54  C   UNL A   1      41.932  31.739  30.552  1.00  0.00     0.029 A 
ATOM     55  C   UNL A   1      42.972  30.847  30.346  1.00  0.00     0.049 A 
ATOM     56  H   UNL A   1      42.914  28.898  29.541  1.00  0.00     0.167 HD
ATOM     57  C   UNL A   1      45.331  30.090  30.398  1.00  0.00     0.074 A 
ATOM     58  C   UNL A   1      46.736  30.280  30.692  1.00  0.00     0.031 C 
ATOM     59  C   UNL A   1      44.372  31.021  30.629  1.00  0.00     0.031 A 
BRANCH  46  60
ATOM     60  C   UNL A   1      38.697  29.225  28.985  1.00  0.00    -0.014 A 
ATOM     61  C   UNL A   1      37.808  29.083  30.063  1.00  0.00     0.009 A 
ATOM     62  C   UNL A   1      38.213  29.727  27.768  1.00  0.00     0.009 A 
ATOM     63  C   UNL A   1      36.456  29.399  29.913  1.00  0.00     0.001 A 
ATOM     64  C   UNL A   1      36.866  30.069  27.629  1.00  0.00     0.001 A 
ATOM     65  C   UNL A   1      35.988  29.895  28.697  1.00  0.00     0.000 A 
ENDBRANCH  46  60
BRANCH  47  66
ATOM     66  C   UNL A   1      48.299  26.581  29.432  1.00  0.00    -0.014 A 
ATOM     67  C   UNL A   1      49.157  26.870  28.361  1.00  0.00     0.009 A 
ATOM     68  C   UNL A   1      48.816  25.926  30.561  1.00  0.00     0.009 A 
ATOM     69  C   UNL A   1      50.500  26.488  28.408  1.00  0.00     0.001 A 
ATOM     70  C   UNL A   1      50.165  25.569  30.616  1.00  0.00     0.001 A 
ATOM     71  C   UNL A   1      51.003  25.843  29.536  1.00  0.00     0.000 A 
ENDBRANCH  47  66
BRANCH  59  72
ATOM     72  C   UNL A   1      44.811  32.313  31.252  1.00  0.00    -0.014 A 
ATOM     73  C   UNL A   1      45.110  33.436  30.463  1.00  0.00     0.009 A 
ATOM     74  C   UNL A   1      44.902  32.418  32.649  1.00  0.00     0.009 A 
ATOM     75  C   UNL A   1      45.525  34.627  31.062  1.00  0.00     0.001 A 
ATOM     76  C   UNL A   1      45.291  33.618  33.245  1.00  0.00     0.001 A 
ATOM     77  C   UNL A   1      45.611  34.718  32.451  1.00  0.00     0.000 A 
ENDBRANCH  59  72
ENDBRANCH  33  34
ENDBRANCH  25  28
ENDBRANCH  23  24
ENDBRANCH  22  23
ENDBRANCH   1  22
TORSDOF 14
ENDMDL
