MODEL 1
REMARK VINA RESULT:      -9.7      0.000      0.000
REMARK SMILES O=C(Cc1cccnc1Cl)NCCCNC(=O)c1ccc(-c2c3nc(c(-c4ccccc4)c4ccc([nH]4)c(-c4ccccc4)c4nc(c(-c5ccccc5)c5ccc2[nH]5)C=C4)C=C3)cc1
REMARK SMILES IDX 13 1 12 2 11 3 1 4 2 5 3 7 4 8 5 9 9 10 6 11 8 12 10 13 7 14
REMARK SMILES IDX 14 15 15 16 16 17 17 19 18 20 19 21 65 22 20 23 64 24 21 25
REMARK SMILES IDX 22 26 23 27 58 28 24 29 63 30 57 31 59 32 25 33 62 34 56 35
REMARK SMILES IDX 55 36 26 38 48 39 33 40 47 41 34 42 37 43 46 44 60 45 35 46
REMARK SMILES IDX 36 47 45 49 61 50 38 51 27 52 28 53 32 54 29 55 31 56 30 57
REMARK SMILES IDX 49 58 50 59 54 60 51 61 53 62 52 63 39 64 40 65 44 66 41 67
REMARK SMILES IDX 43 68 42 69
REMARK H PARENT 11 6 15 18 59 37 37 48
REMARK Flexibility Score: inf
ROOT
ATOM      1  C   UNL A   1      44.649  18.869  24.766  1.00  0.00     0.042 C 
ENDROOT
BRANCH   1   2
ATOM      2  C   UNL A   1      46.006  19.548  24.884  1.00  0.00     0.117 C 
BRANCH   2   3
ATOM      3  N   UNL A   1      46.054  20.847  24.240  1.00  0.00    -0.356 N 
ATOM      4  O   UNL A   1      45.917  22.052  26.184  1.00  0.00    -0.275 OA
ATOM      5  C   UNL A   1      46.126  22.012  24.974  1.00  0.00     0.224 C 
ATOM      6  H   UNL A   1      46.035  20.898  23.257  1.00  0.00     0.163 HD
BRANCH   5   7
ATOM      7  C   UNL A   1      46.409  23.277  24.184  1.00  0.00     0.138 C 
BRANCH   7   8
ATOM      8  C   UNL A   1      45.982  24.594  24.790  1.00  0.00    -0.001 A 
ATOM      9  C   UNL A   1      44.607  24.864  24.897  1.00  0.00     0.009 A 
ATOM     10  C   UNL A   1      46.840  25.542  25.349  1.00  0.00     0.132 A 
ATOM     11  C   UNL A   1      44.162  26.044  25.487  1.00  0.00     0.020 A 
ATOM     12  N   UNL A   1      46.433  26.710  25.896  1.00  0.00    -0.244 NA
ATOM     13  Cl  UNL A   1      48.545  25.349  25.467  1.00  0.00    -0.062 Cl
ATOM     14  C   UNL A   1      45.107  26.937  25.954  1.00  0.00     0.113 A 
ENDBRANCH   7   8
ENDBRANCH   5   7
ENDBRANCH   2   3
ENDBRANCH   1   2
BRANCH   1  15
ATOM     15  C   UNL A   1      43.735  19.080  25.965  1.00  0.00     0.118 C 
BRANCH  15  16
ATOM     16  N   UNL A   1      42.330  18.810  25.684  1.00  0.00    -0.352 N 
ATOM     17  C   UNL A   1      41.217  19.565  25.967  1.00  0.00     0.251 C 
ATOM     18  H   UNL A   1      42.152  17.958  25.223  1.00  0.00     0.163 HD
ATOM     19  O   UNL A   1      40.094  19.119  25.744  1.00  0.00    -0.269 OA
BRANCH  17  20
ATOM     20  C   UNL A   1      41.366  20.903  26.576  1.00  0.00     0.039 A 
ATOM     21  C   UNL A   1      41.224  21.035  27.961  1.00  0.00     0.014 A 
ATOM     22  C   UNL A   1      41.667  22.017  25.791  1.00  0.00     0.014 A 
ATOM     23  C   UNL A   1      41.481  22.266  28.570  1.00  0.00     0.010 A 
ATOM     24  C   UNL A   1      41.990  23.225  26.404  1.00  0.00     0.010 A 
ATOM     25  C   UNL A   1      41.915  23.356  27.800  1.00  0.00    -0.014 A 
BRANCH  25  26
ATOM     26  C   UNL A   1      42.327  24.640  28.422  1.00  0.00     0.031 A 
ATOM     27  C   UNL A   1      41.330  25.753  28.582  1.00  0.00     0.074 A 
ATOM     28  C   UNL A   1      43.620  24.844  28.741  1.00  0.00     0.049 A 
ATOM     29  N   UNL A   1      41.529  26.994  28.947  1.00  0.00    -0.248 NA
ATOM     30  C   UNL A   1      39.930  25.435  28.260  1.00  0.00     0.031 C 
ATOM     31  C   UNL A   1      44.694  23.857  28.610  1.00  0.00     0.029 A 
ATOM     32  N   UNL A   1      44.254  25.963  29.222  1.00  0.00    -0.354 N 
ATOM     33  C   UNL A   1      40.287  27.611  28.872  1.00  0.00     0.074 A 
ATOM     34  C   UNL A   1      39.349  26.619  28.393  1.00  0.00     0.031 C 
ATOM     35  C   UNL A   1      45.851  24.410  29.012  1.00  0.00     0.029 A 
ATOM     36  C   UNL A   1      45.609  25.801  29.383  1.00  0.00     0.049 A 
ATOM     37  H   UNL A   1      43.783  26.801  29.432  1.00  0.00     0.167 HD
ATOM     38  C   UNL A   1      39.956  28.887  29.182  1.00  0.00     0.031 A 
ATOM     39  C   UNL A   1      46.557  26.678  29.764  1.00  0.00     0.031 A 
ATOM     40  C   UNL A   1      40.884  29.869  29.676  1.00  0.00     0.049 A 
ATOM     41  C   UNL A   1      46.166  28.092  30.090  1.00  0.00     0.074 A 
ATOM     42  C   UNL A   1      40.630  31.172  30.068  1.00  0.00     0.029 A 
ATOM     43  N   UNL A   1      42.241  29.655  29.848  1.00  0.00    -0.354 N 
ATOM     44  N   UNL A   1      44.980  28.648  30.055  1.00  0.00    -0.248 NA
ATOM     45  C   UNL A   1      47.244  28.997  30.514  1.00  0.00     0.031 C 
ATOM     46  C   UNL A   1      41.843  31.760  30.441  1.00  0.00     0.029 A 
ATOM     47  C   UNL A   1      42.842  30.806  30.325  1.00  0.00     0.049 A 
ATOM     48  H   UNL A   1      42.709  28.809  29.658  1.00  0.00     0.167 HD
ATOM     49  C   UNL A   1      45.163  29.957  30.484  1.00  0.00     0.074 A 
ATOM     50  C   UNL A   1      46.573  30.110  30.777  1.00  0.00     0.031 C 
ATOM     51  C   UNL A   1      44.243  30.941  30.625  1.00  0.00     0.031 A 
BRANCH  38  52
ATOM     52  C   UNL A   1      38.524  29.296  28.985  1.00  0.00    -0.014 A 
ATOM     53  C   UNL A   1      38.054  29.713  27.730  1.00  0.00     0.009 A 
ATOM     54  C   UNL A   1      37.624  29.229  30.060  1.00  0.00     0.009 A 
ATOM     55  C   UNL A   1      36.719  30.090  27.564  1.00  0.00     0.001 A 
ATOM     56  C   UNL A   1      36.285  29.579  29.885  1.00  0.00     0.001 A 
ATOM     57  C   UNL A   1      35.836  30.018  28.641  1.00  0.00     0.000 A 
ENDBRANCH  38  52
BRANCH  39  58
ATOM     58  C   UNL A   1      47.974  26.244  29.864  1.00  0.00    -0.014 A 
ATOM     59  C   UNL A   1      48.481  25.757  31.079  1.00  0.00     0.009 A 
ATOM     60  C   UNL A   1      48.827  26.315  28.752  1.00  0.00     0.009 A 
ATOM     61  C   UNL A   1      49.820  25.374  31.184  1.00  0.00     0.001 A 
ATOM     62  C   UNL A   1      50.158  25.906  28.853  1.00  0.00     0.001 A 
ATOM     63  C   UNL A   1      50.656  25.444  30.071  1.00  0.00     0.000 A 
ENDBRANCH  39  58
BRANCH  51  64
ATOM     64  C   UNL A   1      44.717  32.257  31.169  1.00  0.00    -0.014 A 
ATOM     65  C   UNL A   1      44.709  32.524  32.546  1.00  0.00     0.009 A 
ATOM     66  C   UNL A   1      45.235  33.222  30.289  1.00  0.00     0.009 A 
ATOM     67  C   UNL A   1      45.194  33.741  33.029  1.00  0.00     0.001 A 
ATOM     68  C   UNL A   1      45.740  34.427  30.777  1.00  0.00     0.001 A 
ATOM     69  C   UNL A   1      45.714  34.688  32.147  1.00  0.00     0.000 A 
ENDBRANCH  51  64
ENDBRANCH  25  26
ENDBRANCH  17  20
ENDBRANCH  15  16
ENDBRANCH   1  15
TORSDOF 11
ENDMDL
MODEL 2
REMARK VINA RESULT:      -9.3      0.975      6.487
REMARK SMILES O=C(Cc1cccnc1Cl)NCCCNC(=O)c1ccc(-c2c3nc(c(-c4ccccc4)c4ccc([nH]4)c(-c4ccccc4)c4nc(c(-c5ccccc5)c5ccc2[nH]5)C=C4)C=C3)cc1
REMARK SMILES IDX 13 1 12 2 11 3 1 4 2 5 3 7 4 8 5 9 9 10 6 11 8 12 10 13 7 14
REMARK SMILES IDX 14 15 15 16 16 17 17 19 18 20 19 21 65 22 20 23 64 24 21 25
REMARK SMILES IDX 22 26 23 27 58 28 24 29 63 30 57 31 59 32 25 33 62 34 56 35
REMARK SMILES IDX 55 36 26 38 48 39 33 40 47 41 34 42 37 43 46 44 60 45 35 46
REMARK SMILES IDX 36 47 45 49 61 50 38 51 27 52 28 53 32 54 29 55 31 56 30 57
REMARK SMILES IDX 49 58 50 59 54 60 51 61 53 62 52 63 39 64 40 65 44 66 41 67
REMARK SMILES IDX 43 68 42 69
REMARK H PARENT 11 6 15 18 59 37 37 48
REMARK Flexibility Score: inf
ROOT
ATOM      1  C   UNL A   1      44.484  19.055  24.474  1.00  0.00     0.042 C 
ENDROOT
BRANCH   1   2
ATOM      2  C   UNL A   1      45.769  19.861  24.598  1.00  0.00     0.117 C 
BRANCH   2   3
ATOM      3  N   UNL A   1      45.640  21.223  24.112  1.00  0.00    -0.356 N 
ATOM      4  O   UNL A   1      46.045  22.209  26.140  1.00  0.00    -0.275 OA
ATOM      5  C   UNL A   1      45.912  22.305  24.923  1.00  0.00     0.224 C 
ATOM      6  H   UNL A   1      45.351  21.377  23.184  1.00  0.00     0.163 HD
BRANCH   5   7
ATOM      7  C   UNL A   1      45.968  23.653  24.229  1.00  0.00     0.138 C 
BRANCH   7   8
ATOM      8  C   UNL A   1      46.451  24.838  25.035  1.00  0.00    -0.001 A 
ATOM      9  C   UNL A   1      47.818  24.915  25.352  1.00  0.00     0.009 A 
ATOM     10  C   UNL A   1      45.668  25.927  25.418  1.00  0.00     0.132 A 
ATOM     11  C   UNL A   1      48.320  26.008  26.055  1.00  0.00     0.020 A 
ATOM     12  N   UNL A   1      46.126  26.982  26.131  1.00  0.00    -0.244 NA
ATOM     13  Cl  UNL A   1      44.010  26.116  25.004  1.00  0.00    -0.062 Cl
ATOM     14  C   UNL A   1      47.438  27.001  26.433  1.00  0.00     0.113 A 
ENDBRANCH   7   8
ENDBRANCH   5   7
ENDBRANCH   2   3
ENDBRANCH   1   2
BRANCH   1  15
ATOM     15  C   UNL A   1      43.792  18.770  25.800  1.00  0.00     0.118 C 
BRANCH  15  16
ATOM     16  N   UNL A   1      42.336  18.787  25.716  1.00  0.00    -0.352 N 
ATOM     17  C   UNL A   1      41.445  19.754  26.114  1.00  0.00     0.251 C 
ATOM     18  H   UNL A   1      41.931  17.985  25.313  1.00  0.00     0.163 HD
ATOM     19  O   UNL A   1      40.236  19.542  26.056  1.00  0.00    -0.269 OA
BRANCH  17  20
ATOM     20  C   UNL A   1      41.938  21.040  26.649  1.00  0.00     0.039 A 
ATOM     21  C   UNL A   1      42.300  22.050  25.753  1.00  0.00     0.014 A 
ATOM     22  C   UNL A   1      42.022  21.257  28.026  1.00  0.00     0.014 A 
ATOM     23  C   UNL A   1      42.653  23.313  26.238  1.00  0.00     0.010 A 
ATOM     24  C   UNL A   1      42.306  22.533  28.505  1.00  0.00     0.010 A 
ATOM     25  C   UNL A   1      42.609  23.576  27.616  1.00  0.00    -0.014 A 
BRANCH  25  26
ATOM     26  C   UNL A   1      42.845  24.937  28.161  1.00  0.00     0.031 A 
ATOM     27  C   UNL A   1      44.192  25.300  28.721  1.00  0.00     0.074 A 
ATOM     28  C   UNL A   1      41.820  25.808  28.254  1.00  0.00     0.049 A 
ATOM     29  N   UNL A   1      44.549  26.371  29.384  1.00  0.00    -0.248 NA
ATOM     30  C   UNL A   1      45.270  24.317  28.535  1.00  0.00     0.031 C 
ATOM     31  C   UNL A   1      40.457  25.570  27.776  1.00  0.00     0.029 A 
ATOM     32  N   UNL A   1      41.764  27.064  28.807  1.00  0.00    -0.354 N 
ATOM     33  C   UNL A   1      45.883  26.177  29.719  1.00  0.00     0.074 A 
ATOM     34  C   UNL A   1      46.261  24.874  29.216  1.00  0.00     0.031 C 
ATOM     35  C   UNL A   1      39.703  26.649  28.044  1.00  0.00     0.029 A 
ATOM     36  C   UNL A   1      40.515  27.632  28.755  1.00  0.00     0.049 A 
ATOM     37  H   UNL A   1      42.545  27.513  29.202  1.00  0.00     0.167 HD
ATOM     38  C   UNL A   1      46.721  27.014  30.377  1.00  0.00     0.031 A 
ATOM     39  C   UNL A   1      40.065  28.803  29.243  1.00  0.00     0.031 A 
ATOM     40  C   UNL A   1      46.351  28.317  30.861  1.00  0.00     0.049 A 
ATOM     41  C   UNL A   1      41.011  29.708  29.981  1.00  0.00     0.074 A 
ATOM     42  C   UNL A   1      47.146  29.257  31.491  1.00  0.00     0.029 A 
ATOM     43  N   UNL A   1      45.082  28.863  30.763  1.00  0.00    -0.354 N 
ATOM     44  N   UNL A   1      42.280  29.529  30.251  1.00  0.00    -0.248 NA
ATOM     45  C   UNL A   1      40.461  30.978  30.477  1.00  0.00     0.031 C 
ATOM     46  C   UNL A   1      46.347  30.360  31.813  1.00  0.00     0.029 A 
ATOM     47  C   UNL A   1      45.067  30.122  31.337  1.00  0.00     0.049 A 
ATOM     48  H   UNL A   1      44.306  28.422  30.348  1.00  0.00     0.167 HD
ATOM     49  C   UNL A   1      42.690  30.677  30.918  1.00  0.00     0.074 A 
ATOM     50  C   UNL A   1      41.536  31.547  31.008  1.00  0.00     0.031 C 
ATOM     51  C   UNL A   1      43.915  30.983  31.408  1.00  0.00     0.031 A 
BRANCH  38  52
ATOM     52  C   UNL A   1      48.123  26.534  30.622  1.00  0.00    -0.014 A 
ATOM     53  C   UNL A   1      48.451  25.805  31.775  1.00  0.00     0.009 A 
ATOM     54  C   UNL A   1      49.122  26.784  29.668  1.00  0.00     0.009 A 
ATOM     55  C   UNL A   1      49.760  25.368  31.987  1.00  0.00     0.001 A 
ATOM     56  C   UNL A   1      50.423  26.321  29.869  1.00  0.00     0.001 A 
ATOM     57  C   UNL A   1      50.743  25.623  31.031  1.00  0.00     0.000 A 
ENDBRANCH  38  52
BRANCH  39  58
ATOM     58  C   UNL A   1      38.645  29.194  29.045  1.00  0.00    -0.014 A 
ATOM     59  C   UNL A   1      37.724  29.069  30.097  1.00  0.00     0.009 A 
ATOM     60  C   UNL A   1      38.202  29.691  27.809  1.00  0.00     0.009 A 
ATOM     61  C   UNL A   1      36.382  29.410  29.906  1.00  0.00     0.001 A 
ATOM     62  C   UNL A   1      36.867  30.056  27.631  1.00  0.00     0.001 A 
ATOM     63  C   UNL A   1      35.956  29.907  28.676  1.00  0.00     0.000 A 
ENDBRANCH  39  58
BRANCH  51  64
ATOM     64  C   UNL A   1      44.091  32.333  32.038  1.00  0.00    -0.014 A 
ATOM     65  C   UNL A   1      44.508  33.442  31.286  1.00  0.00     0.009 A 
ATOM     66  C   UNL A   1      43.774  32.508  33.395  1.00  0.00     0.009 A 
ATOM     67  C   UNL A   1      44.623  34.696  31.887  1.00  0.00     0.001 A 
ATOM     68  C   UNL A   1      43.867  33.768  33.987  1.00  0.00     0.001 A 
ATOM     69  C   UNL A   1      44.298  34.860  33.234  1.00  0.00     0.000 A 
ENDBRANCH  51  64
ENDBRANCH  25  26
ENDBRANCH  17  20
ENDBRANCH  15  16
ENDBRANCH   1  15
TORSDOF 11
ENDMDL
MODEL 3
REMARK VINA RESULT:      -9.0      4.193      6.422
REMARK SMILES O=C(Cc1cccnc1Cl)NCCCNC(=O)c1ccc(-c2c3nc(c(-c4ccccc4)c4ccc([nH]4)c(-c4ccccc4)c4nc(c(-c5ccccc5)c5ccc2[nH]5)C=C4)C=C3)cc1
REMARK SMILES IDX 13 1 12 2 11 3 1 4 2 5 3 7 4 8 5 9 9 10 6 11 8 12 10 13 7 14
REMARK SMILES IDX 14 15 15 16 16 17 17 19 18 20 19 21 65 22 20 23 64 24 21 25
REMARK SMILES IDX 22 26 23 27 58 28 24 29 63 30 57 31 59 32 25 33 62 34 56 35
REMARK SMILES IDX 55 36 26 38 48 39 33 40 47 41 34 42 37 43 46 44 60 45 35 46
REMARK SMILES IDX 36 47 45 49 61 50 38 51 27 52 28 53 32 54 29 55 31 56 30 57
REMARK SMILES IDX 49 58 50 59 54 60 51 61 53 62 52 63 39 64 40 65 44 66 41 67
REMARK SMILES IDX 43 68 42 69
REMARK H PARENT 11 6 15 18 59 37 37 48
REMARK Flexibility Score: inf
ROOT
ATOM      1  C   UNL A   1      36.837  20.829  25.004  1.00  0.00     0.042 C 
ENDROOT
BRANCH   1   2
ATOM      2  C   UNL A   1      35.742  21.568  25.759  1.00  0.00     0.117 C 
BRANCH   2   3
ATOM      3  N   UNL A   1      34.467  20.875  25.741  1.00  0.00    -0.356 N 
ATOM      4  O   UNL A   1      33.694  21.905  23.846  1.00  0.00    -0.275 OA
ATOM      5  C   UNL A   1      33.582  21.023  24.693  1.00  0.00     0.224 C 
ATOM      6  H   UNL A   1      34.228  20.286  26.493  1.00  0.00     0.163 HD
BRANCH   5   7
ATOM      7  C   UNL A   1      32.403  20.068  24.683  1.00  0.00     0.138 C 
BRANCH   7   8
ATOM      8  C   UNL A   1      32.698  18.588  24.612  1.00  0.00    -0.001 A 
ATOM      9  C   UNL A   1      32.770  17.864  25.814  1.00  0.00     0.009 A 
ATOM     10  C   UNL A   1      32.812  17.842  23.438  1.00  0.00     0.132 A 
ATOM     11  C   UNL A   1      32.997  16.490  25.800  1.00  0.00     0.020 A 
ATOM     12  N   UNL A   1      33.067  16.514  23.399  1.00  0.00    -0.244 NA
ATOM     13  Cl  UNL A   1      32.605  18.492  21.859  1.00  0.00    -0.062 Cl
ATOM     14  C   UNL A   1      33.153  15.867  24.577  1.00  0.00     0.113 A 
ENDBRANCH   7   8
ENDBRANCH   5   7
ENDBRANCH   2   3
ENDBRANCH   1   2
BRANCH   1  15
ATOM     15  C   UNL A   1      38.251  21.166  25.462  1.00  0.00     0.118 C 
BRANCH  15  16
ATOM     16  N   UNL A   1      39.144  20.014  25.497  1.00  0.00    -0.352 N 
ATOM     17  C   UNL A   1      40.443  19.924  25.936  1.00  0.00     0.251 C 
ATOM     18  H   UNL A   1      38.759  19.176  25.154  1.00  0.00     0.163 HD
ATOM     19  O   UNL A   1      41.074  18.881  25.788  1.00  0.00    -0.269 OA
BRANCH  17  20
ATOM     20  C   UNL A   1      41.098  21.095  26.555  1.00  0.00     0.039 A 
ATOM     21  C   UNL A   1      41.704  22.046  25.728  1.00  0.00     0.014 A 
ATOM     22  C   UNL A   1      41.094  21.268  27.940  1.00  0.00     0.014 A 
ATOM     23  C   UNL A   1      42.222  23.219  26.284  1.00  0.00     0.010 A 
ATOM     24  C   UNL A   1      41.546  22.466  28.486  1.00  0.00     0.010 A 
ATOM     25  C   UNL A   1      42.100  23.459  27.662  1.00  0.00    -0.014 A 
BRANCH  25  26
ATOM     26  C   UNL A   1      42.513  24.748  28.271  1.00  0.00     0.031 A 
ATOM     27  C   UNL A   1      41.499  25.834  28.495  1.00  0.00     0.074 A 
ATOM     28  C   UNL A   1      43.817  24.983  28.522  1.00  0.00     0.049 A 
ATOM     29  N   UNL A   1      41.687  27.077  28.860  1.00  0.00    -0.248 NA
ATOM     30  C   UNL A   1      40.092  25.484  28.247  1.00  0.00     0.031 C 
ATOM     31  C   UNL A   1      44.906  24.025  28.324  1.00  0.00     0.029 A 
ATOM     32  N   UNL A   1      44.448  26.114  28.978  1.00  0.00    -0.354 N 
ATOM     33  C   UNL A   1      40.428  27.664  28.858  1.00  0.00     0.074 A 
ATOM     34  C   UNL A   1      39.490  26.651  28.422  1.00  0.00     0.031 C 
ATOM     35  C   UNL A   1      46.069  24.604  28.668  1.00  0.00     0.029 A 
ATOM     36  C   UNL A   1      45.813  25.985  29.063  1.00  0.00     0.049 A 
ATOM     37  H   UNL A   1      43.968  26.937  29.220  1.00  0.00     0.167 HD
ATOM     38  C   UNL A   1      40.082  28.928  29.197  1.00  0.00     0.031 A 
ATOM     39  C   UNL A   1      46.758  26.883  29.400  1.00  0.00     0.031 A 
ATOM     40  C   UNL A   1      41.011  29.930  29.648  1.00  0.00     0.049 A 
ATOM     41  C   UNL A   1      46.350  28.284  29.760  1.00  0.00     0.074 A 
ATOM     42  C   UNL A   1      40.746  31.222  30.065  1.00  0.00     0.029 A 
ATOM     43  N   UNL A   1      42.381  29.749  29.744  1.00  0.00    -0.354 N 
ATOM     44  N   UNL A   1      45.151  28.810  29.794  1.00  0.00    -0.248 NA
ATOM     45  C   UNL A   1      47.428  29.213  30.132  1.00  0.00     0.031 C 
ATOM     46  C   UNL A   1      41.963  31.838  30.376  1.00  0.00     0.029 A 
ATOM     47  C   UNL A   1      42.978  30.912  30.198  1.00  0.00     0.049 A 
ATOM     48  H   UNL A   1      42.859  28.917  29.522  1.00  0.00     0.167 HD
ATOM     49  C   UNL A   1      45.325  30.120  30.224  1.00  0.00     0.074 A 
ATOM     50  C   UNL A   1      46.744  30.307  30.441  1.00  0.00     0.031 C 
ATOM     51  C   UNL A   1      44.390  31.079  30.423  1.00  0.00     0.031 A 
BRANCH  38  52
ATOM     52  C   UNL A   1      38.632  29.302  29.081  1.00  0.00    -0.014 A 
ATOM     53  C   UNL A   1      37.777  29.250  30.193  1.00  0.00     0.009 A 
ATOM     54  C   UNL A   1      38.122  29.747  27.851  1.00  0.00     0.009 A 
ATOM     55  C   UNL A   1      36.431  29.601  30.067  1.00  0.00     0.001 A 
ATOM     56  C   UNL A   1      36.784  30.124  27.735  1.00  0.00     0.001 A 
ATOM     57  C   UNL A   1      35.937  30.041  28.839  1.00  0.00     0.000 A 
ENDBRANCH  38  52
BRANCH  39  58
ATOM     58  C   UNL A   1      48.189  26.485  29.419  1.00  0.00    -0.014 A 
ATOM     59  C   UNL A   1      48.748  25.911  30.572  1.00  0.00     0.009 A 
ATOM     60  C   UNL A   1      49.003  26.676  28.292  1.00  0.00     0.009 A 
ATOM     61  C   UNL A   1      50.100  25.560  30.602  1.00  0.00     0.001 A 
ATOM     62  C   UNL A   1      50.347  26.299  28.317  1.00  0.00     0.001 A 
ATOM     63  C   UNL A   1      50.897  25.750  29.475  1.00  0.00     0.000 A 
ENDBRANCH  39  58
BRANCH  51  64
ATOM     64  C   UNL A   1      44.859  32.403  30.952  1.00  0.00    -0.014 A 
ATOM     65  C   UNL A   1      44.973  32.641  32.330  1.00  0.00     0.009 A 
ATOM     66  C   UNL A   1      45.250  33.407  30.051  1.00  0.00     0.009 A 
ATOM     67  C   UNL A   1      45.452  33.866  32.794  1.00  0.00     0.001 A 
ATOM     68  C   UNL A   1      45.751  34.622  30.519  1.00  0.00     0.001 A 
ATOM     69  C   UNL A   1      45.846  34.853  31.891  1.00  0.00     0.000 A 
ENDBRANCH  51  64
ENDBRANCH  25  26
ENDBRANCH  17  20
ENDBRANCH  15  16
ENDBRANCH   1  15
TORSDOF 11
ENDMDL
