MODEL 1
REMARK VINA RESULT:     -10.5      0.000      0.000
REMARK SMILES CC[C@@H](COC)NC(=O)N1CC[C@H](C(=O)NCCCNC(=O)c2ccc(-c3c4nc(c(-c5ccccc5)c5ccc([nH]5)c(-c5ccccc5)c5nc(c(-c6ccccc6)c6ccc3[nH]6)C=C5)C=C4)cc2)[C@@H]1C
REMARK SMILES IDX 17 1 16 2 14 3 15 4 13 6 10 7 11 8 71 9 12 10 72 11 8 12
REMARK SMILES IDX 7 13 9 15 3 16 2 17 1 18 4 19 5 20 6 21 18 22 19 23 20 24
REMARK SMILES IDX 21 25 22 27 23 28 24 29 70 30 25 31 69 32 26 33 27 34 28 35
REMARK SMILES IDX 63 36 29 37 68 38 62 39 64 40 30 41 67 42 61 43 60 44 31 46
REMARK SMILES IDX 53 47 38 48 52 49 39 50 42 51 51 52 65 53 40 54 41 55 50 57
REMARK SMILES IDX 66 58 43 59 32 60 33 61 37 62 34 63 36 64 35 65 54 66 55 67
REMARK SMILES IDX 59 68 56 69 58 70 57 71 44 72 45 73 49 74 46 75 48 76 47 77
REMARK H PARENT 16 5 7 14 20 26 64 45 42 56
REMARK Flexibility Score: inf
ROOT
ATOM      1  C   UNL A   1      36.575  20.753  25.004  1.00  0.00     0.117 C 
ENDROOT
BRANCH   1   2
ATOM      2  N   UNL A   1      35.456  19.823  25.001  1.00  0.00    -0.356 N 
ATOM      3  C   UNL A   1      34.112  20.077  24.983  1.00  0.00     0.225 C 
ATOM      4  O   UNL A   1      33.351  19.116  25.007  1.00  0.00    -0.275 OA
ATOM      5  H   UNL A   1      35.702  18.871  25.015  1.00  0.00     0.163 HD
BRANCH   3   6
ATOM      6  C   UNL A   1      33.672  21.525  24.889  1.00  0.00     0.102 C 
ATOM      7  N   UNL A   1      31.956  22.717  26.040  1.00  0.00    -0.321 N 
ATOM      8  C   UNL A   1      31.298  21.833  25.109  1.00  0.00     0.122 C 
ATOM      9  C   UNL A   1      33.365  22.321  26.182  1.00  0.00     0.096 C 
ATOM     10  C   UNL A   1      32.371  21.607  24.067  1.00  0.00     0.037 C 
ATOM     11  C   UNL A   1      33.629  21.653  27.527  1.00  0.00     0.032 C 
BRANCH   7  12
ATOM     12  C   UNL A   1      31.206  23.560  26.801  1.00  0.00     0.317 C 
ATOM     13  N   UNL A   1      31.312  24.895  26.640  1.00  0.00    -0.333 N 
ATOM     14  H   UNL A   1      31.135  25.425  27.451  1.00  0.00     0.165 HD
ATOM     15  O   UNL A   1      30.385  23.144  27.619  1.00  0.00    -0.249 OA
BRANCH  13  16
ATOM     16  C   UNL A   1      31.648  25.683  25.454  1.00  0.00     0.109 C 
BRANCH  16  17
ATOM     17  C   UNL A   1      30.528  25.574  24.406  1.00  0.00     0.024 C 
ATOM     18  C   UNL A   1      31.019  24.988  23.088  1.00  0.00     0.006 C 
ENDBRANCH  16  17
BRANCH  16  19
ATOM     19  C   UNL A   1      32.054  27.105  25.884  1.00  0.00     0.184 C 
BRANCH  19  20
ATOM     20  O   UNL A   1      31.344  28.144  25.208  1.00  0.00    -0.383 OA
ATOM     21  C   UNL A   1      31.976  29.413  25.244  1.00  0.00     0.194 C 
ENDBRANCH  19  20
ENDBRANCH  16  19
ENDBRANCH  13  16
ENDBRANCH   7  12
ENDBRANCH   3   6
ENDBRANCH   1   2
BRANCH   1  22
ATOM     22  C   UNL A   1      37.899  20.052  24.738  1.00  0.00     0.042 C 
BRANCH  22  23
ATOM     23  C   UNL A   1      38.962  20.312  25.800  1.00  0.00     0.118 C 
BRANCH  23  24
ATOM     24  N   UNL A   1      39.964  19.258  25.870  1.00  0.00    -0.352 N 
ATOM     25  C   UNL A   1      41.312  19.334  26.119  1.00  0.00     0.251 C 
ATOM     26  H   UNL A   1      39.622  18.347  25.716  1.00  0.00     0.163 HD
ATOM     27  O   UNL A   1      42.017  18.343  25.980  1.00  0.00    -0.269 OA
BRANCH  25  28
ATOM     28  C   UNL A   1      41.917  20.620  26.525  1.00  0.00     0.039 A 
ATOM     29  C   UNL A   1      42.330  21.511  25.531  1.00  0.00     0.014 A 
ATOM     30  C   UNL A   1      42.074  20.948  27.873  1.00  0.00     0.014 A 
ATOM     31  C   UNL A   1      42.834  22.762  25.892  1.00  0.00     0.010 A 
ATOM     32  C   UNL A   1      42.498  22.224  28.228  1.00  0.00     0.010 A 
ATOM     33  C   UNL A   1      42.882  23.145  27.242  1.00  0.00    -0.014 A 
BRANCH  33  34
ATOM     34  C   UNL A   1      43.324  24.504  27.646  1.00  0.00     0.031 A 
ATOM     35  C   UNL A   1      42.310  25.547  28.023  1.00  0.00     0.074 A 
ATOM     36  C   UNL A   1      44.633  24.819  27.606  1.00  0.00     0.049 A 
ATOM     37  N   UNL A   1      42.495  26.808  28.323  1.00  0.00    -0.248 NA
ATOM     38  C   UNL A   1      40.899  25.126  28.042  1.00  0.00     0.031 C 
ATOM     39  C   UNL A   1      45.717  23.907  27.230  1.00  0.00     0.029 A 
ATOM     40  N   UNL A   1      45.276  26.001  27.877  1.00  0.00    -0.354 N 
ATOM     41  C   UNL A   1      41.228  27.331  28.550  1.00  0.00     0.074 A 
ATOM     42  C   UNL A   1      40.280  26.268  28.302  1.00  0.00     0.031 C 
ATOM     43  C   UNL A   1      46.889  24.554  27.322  1.00  0.00     0.029 A 
ATOM     44  C   UNL A   1      46.639  25.938  27.713  1.00  0.00     0.049 A 
ATOM     45  H   UNL A   1      44.805  26.818  28.163  1.00  0.00     0.167 HD
ATOM     46  C   UNL A   1      40.885  28.579  28.949  1.00  0.00     0.031 A 
ATOM     47  C   UNL A   1      47.582  26.890  27.849  1.00  0.00     0.031 A 
ATOM     48  C   UNL A   1      41.828  29.637  29.198  1.00  0.00     0.049 A 
ATOM     49  C   UNL A   1      47.169  28.279  28.251  1.00  0.00     0.074 A 
ATOM     50  C   UNL A   1      41.581  30.922  29.649  1.00  0.00     0.029 A 
ATOM     51  N   UNL A   1      43.198  29.532  29.015  1.00  0.00    -0.354 N 
ATOM     52  N   UNL A   1      45.973  28.742  28.521  1.00  0.00    -0.248 NA
ATOM     53  C   UNL A   1      48.242  29.277  28.376  1.00  0.00     0.031 C 
ATOM     54  C   UNL A   1      42.796  31.614  29.681  1.00  0.00     0.029 A 
ATOM     55  C   UNL A   1      43.807  30.739  29.317  1.00  0.00     0.049 A 
ATOM     56  H   UNL A   1      43.668  28.721  28.714  1.00  0.00     0.167 HD
ATOM     57  C   UNL A   1      46.153  30.072  28.882  1.00  0.00     0.074 A 
ATOM     58  C   UNL A   1      47.574  30.337  28.808  1.00  0.00     0.031 C 
ATOM     59  C   UNL A   1      45.224  30.988  29.244  1.00  0.00     0.031 A 
BRANCH  46  60
ATOM     60  C   UNL A   1      39.421  28.870  29.130  1.00  0.00    -0.014 A 
ATOM     61  C   UNL A   1      38.788  28.685  30.371  1.00  0.00     0.009 A 
ATOM     62  C   UNL A   1      38.669  29.371  28.055  1.00  0.00     0.009 A 
ATOM     63  C   UNL A   1      37.427  28.958  30.520  1.00  0.00     0.001 A 
ATOM     64  C   UNL A   1      37.315  29.673  28.215  1.00  0.00     0.001 A 
ATOM     65  C   UNL A   1      36.693  29.456  29.444  1.00  0.00     0.000 A 
ENDBRANCH  46  60
BRANCH  47  66
ATOM     66  C   UNL A   1      49.013  26.566  27.608  1.00  0.00    -0.014 A 
ATOM     67  C   UNL A   1      49.555  26.655  26.317  1.00  0.00     0.009 A 
ATOM     68  C   UNL A   1      49.841  26.151  28.663  1.00  0.00     0.009 A 
ATOM     69  C   UNL A   1      50.886  26.302  26.081  1.00  0.00     0.001 A 
ATOM     70  C   UNL A   1      51.180  25.831  28.430  1.00  0.00     0.001 A 
ATOM     71  C   UNL A   1      51.698  25.895  27.137  1.00  0.00     0.000 A 
ENDBRANCH  47  66
BRANCH  59  72
ATOM     72  C   UNL A   1      45.716  32.354  29.636  1.00  0.00    -0.014 A 
ATOM     73  C   UNL A   1      46.104  32.644  30.952  1.00  0.00     0.009 A 
ATOM     74  C   UNL A   1      45.838  33.352  28.655  1.00  0.00     0.009 A 
ATOM     75  C   UNL A   1      46.575  33.917  31.285  1.00  0.00     0.001 A 
ATOM     76  C   UNL A   1      46.340  34.612  28.984  1.00  0.00     0.001 A 
ATOM     77  C   UNL A   1      46.698  34.896  30.300  1.00  0.00     0.000 A 
ENDBRANCH  59  72
ENDBRANCH  33  34
ENDBRANCH  25  28
ENDBRANCH  23  24
ENDBRANCH  22  23
ENDBRANCH   1  22
TORSDOF 15
ENDMDL
MODEL 2
REMARK VINA RESULT:     -10.2      1.131      6.129
REMARK SMILES CC[C@@H](COC)NC(=O)N1CC[C@H](C(=O)NCCCNC(=O)c2ccc(-c3c4nc(c(-c5ccccc5)c5ccc([nH]5)c(-c5ccccc5)c5nc(c(-c6ccccc6)c6ccc3[nH]6)C=C5)C=C4)cc2)[C@@H]1C
REMARK SMILES IDX 17 1 16 2 14 3 15 4 13 6 10 7 11 8 71 9 12 10 72 11 8 12
REMARK SMILES IDX 7 13 9 15 3 16 2 17 1 18 4 19 5 20 6 21 18 22 19 23 20 24
REMARK SMILES IDX 21 25 22 27 23 28 24 29 70 30 25 31 69 32 26 33 27 34 28 35
REMARK SMILES IDX 63 36 29 37 68 38 62 39 64 40 30 41 67 42 61 43 60 44 31 46
REMARK SMILES IDX 53 47 38 48 52 49 39 50 42 51 51 52 65 53 40 54 41 55 50 57
REMARK SMILES IDX 66 58 43 59 32 60 33 61 37 62 34 63 36 64 35 65 54 66 55 67
REMARK SMILES IDX 59 68 56 69 58 70 57 71 44 72 45 73 49 74 46 75 48 76 47 77
REMARK H PARENT 16 5 7 14 20 26 64 45 42 56
REMARK Flexibility Score: inf
ROOT
ATOM      1  C   UNL A   1      36.539  20.720  24.974  1.00  0.00     0.117 C 
ENDROOT
BRANCH   1   2
ATOM      2  N   UNL A   1      35.400  19.815  24.991  1.00  0.00    -0.356 N 
ATOM      3  C   UNL A   1      34.062  20.099  25.016  1.00  0.00     0.225 C 
ATOM      4  O   UNL A   1      33.281  19.154  25.050  1.00  0.00    -0.275 OA
ATOM      5  H   UNL A   1      35.625  18.858  24.984  1.00  0.00     0.163 HD
BRANCH   3   6
ATOM      6  C   UNL A   1      33.652  21.558  24.956  1.00  0.00     0.102 C 
ATOM      7  N   UNL A   1      31.898  22.737  26.061  1.00  0.00    -0.321 N 
ATOM      8  C   UNL A   1      31.275  21.901  25.064  1.00  0.00     0.122 C 
ATOM      9  C   UNL A   1      33.291  22.309  26.261  1.00  0.00     0.096 C 
ATOM     10  C   UNL A   1      32.397  21.695  24.072  1.00  0.00     0.037 C 
ATOM     11  C   UNL A   1      33.473  21.587  27.591  1.00  0.00     0.032 C 
BRANCH   7  12
ATOM     12  C   UNL A   1      31.124  23.564  26.815  1.00  0.00     0.317 C 
ATOM     13  N   UNL A   1      31.221  24.902  26.671  1.00  0.00    -0.333 N 
ATOM     14  H   UNL A   1      31.021  25.421  27.483  1.00  0.00     0.165 HD
ATOM     15  O   UNL A   1      30.288  23.132  27.610  1.00  0.00    -0.249 OA
BRANCH  13  16
ATOM     16  C   UNL A   1      31.575  25.706  25.501  1.00  0.00     0.109 C 
BRANCH  16  17
ATOM     17  C   UNL A   1      30.681  25.334  24.306  1.00  0.00     0.024 C 
ATOM     18  C   UNL A   1      29.397  26.152  24.262  1.00  0.00     0.006 C 
ENDBRANCH  16  17
BRANCH  16  19
ATOM     19  C   UNL A   1      31.612  27.194  25.897  1.00  0.00     0.184 C 
BRANCH  19  20
ATOM     20  O   UNL A   1      32.786  27.884  25.465  1.00  0.00    -0.383 OA
ATOM     21  C   UNL A   1      34.007  27.271  25.844  1.00  0.00     0.194 C 
ENDBRANCH  19  20
ENDBRANCH  16  19
ENDBRANCH  13  16
ENDBRANCH   7  12
ENDBRANCH   3   6
ENDBRANCH   1   2
BRANCH   1  22
ATOM     22  C   UNL A   1      37.855  19.976  24.793  1.00  0.00     0.042 C 
BRANCH  22  23
ATOM     23  C   UNL A   1      38.923  20.351  25.813  1.00  0.00     0.118 C 
BRANCH  23  24
ATOM     24  N   UNL A   1      40.029  19.404  25.850  1.00  0.00    -0.352 N 
ATOM     25  C   UNL A   1      41.355  19.604  26.144  1.00  0.00     0.251 C 
ATOM     26  H   UNL A   1      39.788  18.474  25.631  1.00  0.00     0.163 HD
ATOM     27  O   UNL A   1      42.164  18.702  25.967  1.00  0.00    -0.269 OA
BRANCH  25  28
ATOM     28  C   UNL A   1      41.811  20.918  26.644  1.00  0.00     0.039 A 
ATOM     29  C   UNL A   1      42.296  21.854  25.728  1.00  0.00     0.014 A 
ATOM     30  C   UNL A   1      41.760  21.227  28.005  1.00  0.00     0.014 A 
ATOM     31  C   UNL A   1      42.661  23.127  26.169  1.00  0.00     0.010 A 
ATOM     32  C   UNL A   1      42.045  22.520  28.430  1.00  0.00     0.010 A 
ATOM     33  C   UNL A   1      42.498  23.484  27.517  1.00  0.00    -0.014 A 
BRANCH  33  34
ATOM     34  C   UNL A   1      42.788  24.860  27.994  1.00  0.00     0.031 A 
ATOM     35  C   UNL A   1      44.189  25.250  28.371  1.00  0.00     0.074 A 
ATOM     36  C   UNL A   1      41.778  25.737  28.153  1.00  0.00     0.049 A 
ATOM     37  N   UNL A   1      44.625  26.373  28.884  1.00  0.00    -0.248 NA
ATOM     38  C   UNL A   1      45.238  24.236  28.169  1.00  0.00     0.031 C 
ATOM     39  C   UNL A   1      40.368  25.476  27.851  1.00  0.00     0.029 A 
ATOM     40  N   UNL A   1      41.781  27.028  28.620  1.00  0.00    -0.354 N 
ATOM     41  C   UNL A   1      45.989  26.194  29.079  1.00  0.00     0.074 A 
ATOM     42  C   UNL A   1      46.300  24.840  28.681  1.00  0.00     0.031 C 
ATOM     43  C   UNL A   1      39.650  26.579  28.112  1.00  0.00     0.029 A 
ATOM     44  C   UNL A   1      40.536  27.608  28.648  1.00  0.00     0.049 A 
ATOM     45  H   UNL A   1      42.600  27.495  28.907  1.00  0.00     0.167 HD
ATOM     46  C   UNL A   1      46.904  27.085  29.530  1.00  0.00     0.031 A 
ATOM     47  C   UNL A   1      40.147  28.827  29.069  1.00  0.00     0.031 A 
ATOM     48  C   UNL A   1      46.596  28.433  29.925  1.00  0.00     0.049 A 
ATOM     49  C   UNL A   1      41.178  29.781  29.606  1.00  0.00     0.074 A 
ATOM     50  C   UNL A   1      47.461  29.425  30.353  1.00  0.00     0.029 A 
ATOM     51  N   UNL A   1      45.321  28.978  29.943  1.00  0.00    -0.354 N 
ATOM     52  N   UNL A   1      42.473  29.618  29.727  1.00  0.00    -0.248 NA
ATOM     53  C   UNL A   1      40.693  31.093  30.057  1.00  0.00     0.031 C 
ATOM     54  C   UNL A   1      46.703  30.552  30.687  1.00  0.00     0.029 A 
ATOM     55  C   UNL A   1      45.374  30.284  30.401  1.00  0.00     0.049 A 
ATOM     56  H   UNL A   1      44.501  28.507  29.671  1.00  0.00     0.167 HD
ATOM     57  C   UNL A   1      42.961  30.817  30.233  1.00  0.00     0.074 A 
ATOM     58  C   UNL A   1      41.824  31.701  30.385  1.00  0.00     0.031 C 
ATOM     59  C   UNL A   1      44.235  31.155  30.543  1.00  0.00     0.031 A 
BRANCH  46  60
ATOM     60  C   UNL A   1      48.331  26.619  29.631  1.00  0.00    -0.014 A 
ATOM     61  C   UNL A   1      48.810  25.977  30.786  1.00  0.00     0.009 A 
ATOM     62  C   UNL A   1      49.201  26.790  28.542  1.00  0.00     0.009 A 
ATOM     63  C   UNL A   1      50.137  25.554  30.862  1.00  0.00     0.001 A 
ATOM     64  C   UNL A   1      50.519  26.336  28.609  1.00  0.00     0.001 A 
ATOM     65  C   UNL A   1      50.990  25.729  29.772  1.00  0.00     0.000 A 
ENDBRANCH  46  60
BRANCH  47  66
ATOM     66  C   UNL A   1      38.716  29.222  28.997  1.00  0.00    -0.014 A 
ATOM     67  C   UNL A   1      37.875  29.059  30.109  1.00  0.00     0.009 A 
ATOM     68  C   UNL A   1      38.176  29.749  27.813  1.00  0.00     0.009 A 
ATOM     69  C   UNL A   1      36.519  29.383  30.027  1.00  0.00     0.001 A 
ATOM     70  C   UNL A   1      36.827  30.103  27.744  1.00  0.00     0.001 A 
ATOM     71  C   UNL A   1      35.997  29.908  28.847  1.00  0.00     0.000 A 
ENDBRANCH  47  66
BRANCH  59  72
ATOM     72  C   UNL A   1      44.481  32.555  31.031  1.00  0.00    -0.014 A 
ATOM     73  C   UNL A   1      44.725  33.611  30.140  1.00  0.00     0.009 A 
ATOM     74  C   UNL A   1      44.416  32.829  32.407  1.00  0.00     0.009 A 
ATOM     75  C   UNL A   1      44.932  34.906  30.620  1.00  0.00     0.001 A 
ATOM     76  C   UNL A   1      44.590  34.129  32.881  1.00  0.00     0.001 A 
ATOM     77  C   UNL A   1      44.858  35.165  31.988  1.00  0.00     0.000 A 
ENDBRANCH  59  72
ENDBRANCH  33  34
ENDBRANCH  25  28
ENDBRANCH  23  24
ENDBRANCH  22  23
ENDBRANCH   1  22
TORSDOF 15
ENDMDL
MODEL 3
REMARK VINA RESULT:     -10.2      4.687      9.896
REMARK SMILES CC[C@@H](COC)NC(=O)N1CC[C@H](C(=O)NCCCNC(=O)c2ccc(-c3c4nc(c(-c5ccccc5)c5ccc([nH]5)c(-c5ccccc5)c5nc(c(-c6ccccc6)c6ccc3[nH]6)C=C5)C=C4)cc2)[C@@H]1C
REMARK SMILES IDX 17 1 16 2 14 3 15 4 13 6 10 7 11 8 71 9 12 10 72 11 8 12
REMARK SMILES IDX 7 13 9 15 3 16 2 17 1 18 4 19 5 20 6 21 18 22 19 23 20 24
REMARK SMILES IDX 21 25 22 27 23 28 24 29 70 30 25 31 69 32 26 33 27 34 28 35
REMARK SMILES IDX 63 36 29 37 68 38 62 39 64 40 30 41 67 42 61 43 60 44 31 46
REMARK SMILES IDX 53 47 38 48 52 49 39 50 42 51 51 52 65 53 40 54 41 55 50 57
REMARK SMILES IDX 66 58 43 59 32 60 33 61 37 62 34 63 36 64 35 65 54 66 55 67
REMARK SMILES IDX 59 68 56 69 58 70 57 71 44 72 45 73 49 74 46 75 48 76 47 77
REMARK H PARENT 16 5 7 14 20 26 64 45 42 56
REMARK Flexibility Score: inf
ROOT
ATOM      1  C   UNL A   1      31.789  30.236  25.911  1.00  0.00     0.117 C 
ENDROOT
BRANCH   1   2
ATOM      2  N   UNL A   1      31.145  30.096  24.615  1.00  0.00    -0.356 N 
ATOM      3  C   UNL A   1      30.896  28.967  23.883  1.00  0.00     0.225 C 
ATOM      4  O   UNL A   1      30.351  29.104  22.793  1.00  0.00    -0.275 OA
ATOM      5  H   UNL A   1      30.844  30.937  24.203  1.00  0.00     0.163 HD
BRANCH   3   6
ATOM      6  C   UNL A   1      31.272  27.633  24.499  1.00  0.00     0.102 C 
ATOM      7  N   UNL A   1      32.410  25.750  23.579  1.00  0.00    -0.321 N 
ATOM      8  C   UNL A   1      31.099  25.780  22.978  1.00  0.00     0.122 C 
ATOM      9  C   UNL A   1      32.677  27.036  24.240  1.00  0.00     0.096 C 
ATOM     10  C   UNL A   1      30.295  26.551  24.000  1.00  0.00     0.037 C 
ATOM     11  C   UNL A   1      33.690  27.870  23.463  1.00  0.00     0.032 C 
BRANCH   7  12
ATOM     12  C   UNL A   1      33.263  24.737  23.265  1.00  0.00     0.317 C 
ATOM     13  N   UNL A   1      33.423  23.699  24.111  1.00  0.00    -0.333 N 
ATOM     14  H   UNL A   1      34.311  23.275  24.082  1.00  0.00     0.165 HD
ATOM     15  O   UNL A   1      33.876  24.708  22.197  1.00  0.00    -0.249 OA
BRANCH  13  16
ATOM     16  C   UNL A   1      32.489  23.101  25.065  1.00  0.00     0.109 C 
BRANCH  16  17
ATOM     17  C   UNL A   1      32.494  21.569  24.929  1.00  0.00     0.024 C 
ATOM     18  C   UNL A   1      33.903  20.997  24.832  1.00  0.00     0.006 C 
ENDBRANCH  16  17
BRANCH  16  19
ATOM     19  C   UNL A   1      32.761  23.669  26.470  1.00  0.00     0.184 C 
BRANCH  19  20
ATOM     20  O   UNL A   1      31.581  23.961  27.221  1.00  0.00    -0.383 OA
ATOM     21  C   UNL A   1      30.380  23.939  26.469  1.00  0.00     0.194 C 
ENDBRANCH  19  20
ENDBRANCH  16  19
ENDBRANCH  13  16
ENDBRANCH   7  12
ENDBRANCH   3   6
ENDBRANCH   1   2
BRANCH   1  22
ATOM     22  C   UNL A   1      31.458  31.567  26.571  1.00  0.00     0.042 C 
BRANCH  22  23
ATOM     23  C   UNL A   1      32.669  32.290  27.150  1.00  0.00     0.118 C 
BRANCH  23  24
ATOM     24  N   UNL A   1      32.398  33.685  27.469  1.00  0.00    -0.352 N 
ATOM     25  C   UNL A   1      33.024  34.527  28.354  1.00  0.00     0.251 C 
ATOM     26  H   UNL A   1      31.649  34.087  26.972  1.00  0.00     0.163 HD
ATOM     27  O   UNL A   1      32.545  35.627  28.595  1.00  0.00    -0.269 OA
BRANCH  25  28
ATOM     28  C   UNL A   1      34.259  34.092  29.039  1.00  0.00     0.039 A 
ATOM     29  C   UNL A   1      34.149  33.318  30.197  1.00  0.00     0.014 A 
ATOM     30  C   UNL A   1      35.518  34.443  28.546  1.00  0.00     0.014 A 
ATOM     31  C   UNL A   1      35.302  32.834  30.817  1.00  0.00     0.010 A 
ATOM     32  C   UNL A   1      36.661  33.893  29.115  1.00  0.00     0.010 A 
ATOM     33  C   UNL A   1      36.566  33.082  30.257  1.00  0.00    -0.014 A 
BRANCH  33  34
ATOM     34  C   UNL A   1      37.799  32.499  30.842  1.00  0.00     0.031 A 
ATOM     35  C   UNL A   1      38.414  31.268  30.239  1.00  0.00     0.074 A 
ATOM     36  C   UNL A   1      38.327  33.039  31.958  1.00  0.00     0.049 A 
ATOM     37  N   UNL A   1      39.439  30.568  30.655  1.00  0.00    -0.248 NA
ATOM     38  C   UNL A   1      37.779  30.737  29.021  1.00  0.00     0.031 C 
ATOM     39  C   UNL A   1      37.812  34.218  32.659  1.00  0.00     0.029 A 
ATOM     40  N   UNL A   1      39.414  32.659  32.707  1.00  0.00    -0.354 N 
ATOM     41  C   UNL A   1      39.560  29.510  29.762  1.00  0.00     0.074 A 
ATOM     42  C   UNL A   1      38.475  29.629  28.814  1.00  0.00     0.031 C 
ATOM     43  C   UNL A   1      38.596  34.480  33.716  1.00  0.00     0.029 A 
ATOM     44  C   UNL A   1      39.639  33.462  33.799  1.00  0.00     0.049 A 
ATOM     45  H   UNL A   1      39.979  31.884  32.481  1.00  0.00     0.167 HD
ATOM     46  C   UNL A   1      40.503  28.538  29.722  1.00  0.00     0.031 A 
ATOM     47  C   UNL A   1      40.572  33.381  34.766  1.00  0.00     0.031 A 
ATOM     48  C   UNL A   1      41.584  28.420  30.663  1.00  0.00     0.049 A 
ATOM     49  C   UNL A   1      41.581  32.267  34.722  1.00  0.00     0.074 A 
ATOM     50  C   UNL A   1      42.615  27.496  30.680  1.00  0.00     0.029 A 
ATOM     51  N   UNL A   1      41.772  29.250  31.757  1.00  0.00    -0.354 N 
ATOM     52  N   UNL A   1      41.719  31.310  33.837  1.00  0.00    -0.248 NA
ATOM     53  C   UNL A   1      42.569  32.227  35.809  1.00  0.00     0.031 C 
ATOM     54  C   UNL A   1      43.393  27.731  31.818  1.00  0.00     0.029 A 
ATOM     55  C   UNL A   1      42.887  28.843  32.471  1.00  0.00     0.049 A 
ATOM     56  H   UNL A   1      41.199  30.015  31.992  1.00  0.00     0.167 HD
ATOM     57  C   UNL A   1      42.829  30.578  34.239  1.00  0.00     0.074 A 
ATOM     58  C   UNL A   1      43.333  31.208  35.441  1.00  0.00     0.031 C 
ATOM     59  C   UNL A   1      43.381  29.483  33.664  1.00  0.00     0.031 A 
BRANCH  46  60
ATOM     60  C   UNL A   1      40.396  27.515  28.624  1.00  0.00    -0.014 A 
ATOM     61  C   UNL A   1      39.645  26.340  28.792  1.00  0.00     0.009 A 
ATOM     62  C   UNL A   1      41.023  27.746  27.390  1.00  0.00     0.009 A 
ATOM     63  C   UNL A   1      39.558  25.401  27.763  1.00  0.00     0.001 A 
ATOM     64  C   UNL A   1      40.909  26.821  26.351  1.00  0.00     0.001 A 
ATOM     65  C   UNL A   1      40.186  25.644  26.542  1.00  0.00     0.000 A 
ENDBRANCH  46  60
BRANCH  47  66
ATOM     66  C   UNL A   1      40.605  34.387  35.860  1.00  0.00    -0.014 A 
ATOM     67  C   UNL A   1      39.856  34.191  37.031  1.00  0.00     0.009 A 
ATOM     68  C   UNL A   1      41.370  35.558  35.735  1.00  0.00     0.009 A 
ATOM     69  C   UNL A   1      39.847  35.159  38.038  1.00  0.00     0.001 A 
ATOM     70  C   UNL A   1      41.384  36.509  36.758  1.00  0.00     0.001 A 
ATOM     71  C   UNL A   1      40.613  36.314  37.903  1.00  0.00     0.000 A 
ENDBRANCH  47  66
BRANCH  59  72
ATOM     72  C   UNL A   1      44.624  28.922  34.296  1.00  0.00    -0.014 A 
ATOM     73  C   UNL A   1      45.899  29.392  33.950  1.00  0.00     0.009 A 
ATOM     74  C   UNL A   1      44.509  27.938  35.292  1.00  0.00     0.009 A 
ATOM     75  C   UNL A   1      47.037  28.865  34.566  1.00  0.00     0.001 A 
ATOM     76  C   UNL A   1      45.645  27.438  35.929  1.00  0.00     0.001 A 
ATOM     77  C   UNL A   1      46.909  27.894  35.559  1.00  0.00     0.000 A 
ENDBRANCH  59  72
ENDBRANCH  33  34
ENDBRANCH  25  28
ENDBRANCH  23  24
ENDBRANCH  22  23
ENDBRANCH   1  22
TORSDOF 15
ENDMDL
