MODEL 1
REMARK VINA RESULT:     -11.8      0.000      0.000
REMARK SMILES C[C@H](CC(=O)NCCCNC(=O)c1ccc(-c2c3nc(c(-c4ccccc4)c4ccc([nH]4)c(-c4ccccc4)c4nc(c(-c5ccccc5)c5ccc2[nH]5)C=C4)C=C3)cc1)N1C(=O)S/C(=C\c2ccc(Cl)cc2)C1=O
REMARK SMILES IDX 7 1 6 2 4 3 5 4 3 6 2 7 1 8 61 9 62 10 74 11 63 12 64 13
REMARK SMILES IDX 65 14 75 15 66 16 67 17 68 18 73 19 69 20 72 21 70 22 71 23
REMARK SMILES IDX 8 24 9 25 10 26 11 27 12 29 13 30 14 31 60 32 15 33 59 34
REMARK SMILES IDX 16 35 17 36 18 37 53 38 19 39 58 40 52 41 54 42 20 43 57 44
REMARK SMILES IDX 51 45 50 46 21 48 43 49 28 50 42 51 29 52 32 53 41 54 55 55
REMARK SMILES IDX 30 56 31 57 40 59 56 60 33 61 22 62 23 63 27 64 24 65 26 66
REMARK SMILES IDX 25 67 44 68 45 69 49 70 46 71 48 72 47 73 34 74 35 75 39 76
REMARK SMILES IDX 36 77 38 78 37 79
REMARK H PARENT 6 5 10 28 54 47 32 58
REMARK Flexibility Score: inf
ROOT
ATOM      1  C   UNL A   1      35.738  20.489  24.823  1.00  0.00     0.117 C 
ENDROOT
BRANCH   1   2
ATOM      2  N   UNL A   1      34.533  19.690  24.957  1.00  0.00    -0.356 N 
ATOM      3  C   UNL A   1      33.259  20.061  25.261  1.00  0.00     0.222 C 
ATOM      4  O   UNL A   1      32.441  19.173  25.512  1.00  0.00    -0.275 OA
ATOM      5  H   UNL A   1      34.657  18.725  24.803  1.00  0.00     0.163 HD
BRANCH   3   6
ATOM      6  C   UNL A   1      32.837  21.517  25.244  1.00  0.00     0.125 C 
BRANCH   6   7
ATOM      7  C   UNL A   1      32.590  22.208  26.605  1.00  0.00     0.101 C 
ATOM      8  C   UNL A   1      33.798  22.223  27.542  1.00  0.00     0.032 C 
BRANCH   7   9
ATOM      9  N   UNL A   1      31.935  23.518  26.409  1.00  0.00    -0.265 N 
ATOM     10  C   UNL A   1      30.642  23.725  26.834  1.00  0.00     0.293 C 
ATOM     11  C   UNL A   1      32.503  24.563  25.730  1.00  0.00     0.268 C 
ATOM     12  O   UNL A   1      29.958  22.962  27.498  1.00  0.00    -0.261 OA
ATOM     13  S   UNL A   1      30.034  25.267  26.236  1.00  0.00    -0.022 SA
ATOM     14  C   UNL A   1      31.466  25.559  25.354  1.00  0.00     0.083 C 
ATOM     15  O   UNL A   1      33.682  24.695  25.443  1.00  0.00    -0.268 OA
ATOM     16  C   UNL A   1      31.714  26.441  24.380  1.00  0.00     0.029 C 
BRANCH  16  17
ATOM     17  C   UNL A   1      30.867  27.504  23.845  1.00  0.00    -0.024 A 
ATOM     18  C   UNL A   1      31.203  28.852  24.029  1.00  0.00     0.009 A 
ATOM     19  C   UNL A   1      29.613  27.165  23.329  1.00  0.00     0.009 A 
ATOM     20  C   UNL A   1      30.270  29.851  23.732  1.00  0.00     0.021 A 
ATOM     21  C   UNL A   1      28.679  28.162  23.044  1.00  0.00     0.021 A 
ATOM     22  C   UNL A   1      29.006  29.499  23.259  1.00  0.00     0.041 A 
ATOM     23  Cl  UNL A   1      27.824  30.717  22.980  1.00  0.00    -0.084 Cl
ENDBRANCH  16  17
ENDBRANCH   7   9
ENDBRANCH   6   7
ENDBRANCH   3   6
ENDBRANCH   1   2
BRANCH   1  24
ATOM     24  C   UNL A   1      36.980  19.606  24.950  1.00  0.00     0.042 C 
BRANCH  24  25
ATOM     25  C   UNL A   1      38.272  20.374  25.184  1.00  0.00     0.118 C 
BRANCH  25  26
ATOM     26  N   UNL A   1      39.372  19.479  25.520  1.00  0.00    -0.352 N 
ATOM     27  C   UNL A   1      40.662  19.681  25.953  1.00  0.00     0.251 C 
ATOM     28  H   UNL A   1      39.144  18.527  25.414  1.00  0.00     0.163 HD
ATOM     29  O   UNL A   1      41.433  18.723  25.864  1.00  0.00    -0.269 OA
BRANCH  27  30
ATOM     30  C   UNL A   1      41.182  20.968  26.500  1.00  0.00     0.039 A 
ATOM     31  C   UNL A   1      41.092  21.174  27.888  1.00  0.00     0.014 A 
ATOM     32  C   UNL A   1      41.644  22.022  25.713  1.00  0.00     0.014 A 
ATOM     33  C   UNL A   1      41.471  22.396  28.467  1.00  0.00     0.010 A 
ATOM     34  C   UNL A   1      42.117  23.203  26.299  1.00  0.00     0.010 A 
ATOM     35  C   UNL A   1      42.015  23.420  27.680  1.00  0.00    -0.014 A 
BRANCH  35  36
ATOM     36  C   UNL A   1      42.443  24.727  28.258  1.00  0.00     0.031 A 
ATOM     37  C   UNL A   1      41.438  25.835  28.479  1.00  0.00     0.074 A 
ATOM     38  C   UNL A   1      43.744  24.961  28.523  1.00  0.00     0.049 A 
ATOM     39  N   UNL A   1      41.638  27.080  28.836  1.00  0.00    -0.248 NA
ATOM     40  C   UNL A   1      40.024  25.506  28.236  1.00  0.00     0.031 C 
ATOM     41  C   UNL A   1      44.835  24.003  28.341  1.00  0.00     0.029 A 
ATOM     42  N   UNL A   1      44.371  26.092  28.991  1.00  0.00    -0.354 N 
ATOM     43  C   UNL A   1      40.387  27.690  28.815  1.00  0.00     0.074 A 
ATOM     44  C   UNL A   1      39.440  26.687  28.376  1.00  0.00     0.031 C 
ATOM     45  C   UNL A   1      45.991  24.576  28.714  1.00  0.00     0.029 A 
ATOM     46  C   UNL A   1      45.733  25.955  29.114  1.00  0.00     0.049 A 
ATOM     47  H   UNL A   1      43.890  26.921  29.217  1.00  0.00     0.167 HD
ATOM     48  C   UNL A   1      40.048  28.960  29.146  1.00  0.00     0.031 A 
ATOM     49  C   UNL A   1      46.676  26.841  29.490  1.00  0.00     0.031 A 
ATOM     50  C   UNL A   1      40.974  29.952  29.626  1.00  0.00     0.049 A 
ATOM     51  C   UNL A   1      46.277  28.242  29.859  1.00  0.00     0.074 A 
ATOM     52  C   UNL A   1      40.711  31.244  30.049  1.00  0.00     0.029 A 
ATOM     53  N   UNL A   1      42.340  29.759  29.755  1.00  0.00    -0.354 N 
ATOM     54  N   UNL A   1      45.084  28.786  29.871  1.00  0.00    -0.248 NA
ATOM     55  C   UNL A   1      47.357  29.150  30.274  1.00  0.00     0.031 C 
ATOM     56  C   UNL A   1      41.925  31.847  30.396  1.00  0.00     0.029 A 
ATOM     57  C   UNL A   1      42.936  30.914  30.235  1.00  0.00     0.049 A 
ATOM     58  H   UNL A   1      42.816  28.925  29.537  1.00  0.00     0.167 HD
ATOM     59  C   UNL A   1      45.268  30.088  30.319  1.00  0.00     0.074 A 
ATOM     60  C   UNL A   1      46.682  30.250  30.581  1.00  0.00     0.031 C 
ATOM     61  C   UNL A   1      44.343  31.062  30.496  1.00  0.00     0.031 A 
BRANCH  48  62
ATOM     62  C   UNL A   1      38.604  29.356  28.995  1.00  0.00    -0.014 A 
ATOM     63  C   UNL A   1      38.094  29.804  27.766  1.00  0.00     0.009 A 
ATOM     64  C   UNL A   1      37.731  29.243  30.089  1.00  0.00     0.009 A 
ATOM     65  C   UNL A   1      36.752  30.170  27.647  1.00  0.00     0.001 A 
ATOM     66  C   UNL A   1      36.382  29.580  29.960  1.00  0.00     0.001 A 
ATOM     67  C   UNL A   1      35.896  30.054  28.743  1.00  0.00     0.000 A 
ENDBRANCH  48  62
BRANCH  49  68
ATOM     68  C   UNL A   1      48.102  26.425  29.550  1.00  0.00    -0.014 A 
ATOM     69  C   UNL A   1      48.939  26.608  28.438  1.00  0.00     0.009 A 
ATOM     70  C   UNL A   1      48.631  25.841  30.711  1.00  0.00     0.009 A 
ATOM     71  C   UNL A   1      50.272  26.194  28.481  1.00  0.00     0.001 A 
ATOM     72  C   UNL A   1      49.972  25.453  30.759  1.00  0.00     0.001 A 
ATOM     73  C   UNL A   1      50.788  25.622  29.642  1.00  0.00     0.000 A 
ENDBRANCH  49  68
BRANCH  61  74
ATOM     74  C   UNL A   1      44.824  32.379  31.036  1.00  0.00    -0.014 A 
ATOM     75  C   UNL A   1      44.966  32.595  32.415  1.00  0.00     0.009 A 
ATOM     76  C   UNL A   1      45.178  33.405  30.145  1.00  0.00     0.009 A 
ATOM     77  C   UNL A   1      45.427  33.824  32.892  1.00  0.00     0.001 A 
ATOM     78  C   UNL A   1      45.662  34.623  30.625  1.00  0.00     0.001 A 
ATOM     79  C   UNL A   1      45.778  34.834  31.998  1.00  0.00     0.000 A 
ENDBRANCH  61  74
ENDBRANCH  35  36
ENDBRANCH  27  30
ENDBRANCH  25  26
ENDBRANCH  24  25
ENDBRANCH   1  24
TORSDOF 13
ENDMDL
MODEL 2
REMARK VINA RESULT:     -11.8      1.403      2.043
REMARK SMILES C[C@H](CC(=O)NCCCNC(=O)c1ccc(-c2c3nc(c(-c4ccccc4)c4ccc([nH]4)c(-c4ccccc4)c4nc(c(-c5ccccc5)c5ccc2[nH]5)C=C4)C=C3)cc1)N1C(=O)S/C(=C\c2ccc(Cl)cc2)C1=O
REMARK SMILES IDX 7 1 6 2 4 3 5 4 3 6 2 7 1 8 61 9 62 10 74 11 63 12 64 13
REMARK SMILES IDX 65 14 75 15 66 16 67 17 68 18 73 19 69 20 72 21 70 22 71 23
REMARK SMILES IDX 8 24 9 25 10 26 11 27 12 29 13 30 14 31 60 32 15 33 59 34
REMARK SMILES IDX 16 35 17 36 18 37 53 38 19 39 58 40 52 41 54 42 20 43 57 44
REMARK SMILES IDX 51 45 50 46 21 48 43 49 28 50 42 51 29 52 32 53 41 54 55 55
REMARK SMILES IDX 30 56 31 57 40 59 56 60 33 61 22 62 23 63 27 64 24 65 26 66
REMARK SMILES IDX 25 67 44 68 45 69 49 70 46 71 48 72 47 73 34 74 35 75 39 76
REMARK SMILES IDX 36 77 38 78 37 79
REMARK H PARENT 6 5 10 28 54 47 32 58
REMARK Flexibility Score: inf
ROOT
ATOM      1  C   UNL A   1      35.873  20.264  24.938  1.00  0.00     0.117 C 
ENDROOT
BRANCH   1   2
ATOM      2  N   UNL A   1      34.732  19.367  24.955  1.00  0.00    -0.356 N 
ATOM      3  C   UNL A   1      33.399  19.638  25.014  1.00  0.00     0.222 C 
ATOM      4  O   UNL A   1      32.625  18.701  25.217  1.00  0.00    -0.275 OA
ATOM      5  H   UNL A   1      34.957  18.409  24.918  1.00  0.00     0.163 HD
BRANCH   3   6
ATOM      6  C   UNL A   1      32.870  21.041  24.787  1.00  0.00     0.125 C 
BRANCH   6   7
ATOM      7  C   UNL A   1      32.913  21.600  23.346  1.00  0.00     0.101 C 
ATOM      8  C   UNL A   1      31.880  20.993  22.395  1.00  0.00     0.032 C 
BRANCH   7   9
ATOM      9  N   UNL A   1      32.953  23.076  23.364  1.00  0.00    -0.265 N 
ATOM     10  C   UNL A   1      34.129  23.748  23.116  1.00  0.00     0.293 C 
ATOM     11  C   UNL A   1      31.890  23.867  23.711  1.00  0.00     0.268 C 
ATOM     12  O   UNL A   1      35.186  23.262  22.744  1.00  0.00    -0.261 OA
ATOM     13  S   UNL A   1      33.947  25.466  23.466  1.00  0.00    -0.022 SA
ATOM     14  C   UNL A   1      32.351  25.243  24.029  1.00  0.00     0.083 C 
ATOM     15  O   UNL A   1      30.718  23.531  23.773  1.00  0.00    -0.268 OA
ATOM     16  C   UNL A   1      31.568  26.057  24.745  1.00  0.00     0.029 C 
BRANCH  16  17
ATOM     17  C   UNL A   1      31.797  27.436  25.173  1.00  0.00    -0.024 A 
ATOM     18  C   UNL A   1      32.385  27.715  26.413  1.00  0.00     0.009 A 
ATOM     19  C   UNL A   1      31.236  28.471  24.420  1.00  0.00     0.009 A 
ATOM     20  C   UNL A   1      32.373  29.023  26.912  1.00  0.00     0.021 A 
ATOM     21  C   UNL A   1      31.216  29.772  24.923  1.00  0.00     0.021 A 
ATOM     22  C   UNL A   1      31.771  30.040  26.173  1.00  0.00     0.041 A 
ATOM     23  Cl  UNL A   1      31.673  31.630  26.822  1.00  0.00    -0.084 Cl
ENDBRANCH  16  17
ENDBRANCH   7   9
ENDBRANCH   6   7
ENDBRANCH   3   6
ENDBRANCH   1   2
BRANCH   1  24
ATOM     24  C   UNL A   1      37.178  19.466  24.926  1.00  0.00     0.042 C 
BRANCH  24  25
ATOM     25  C   UNL A   1      38.408  20.271  25.315  1.00  0.00     0.118 C 
BRANCH  25  26
ATOM     26  N   UNL A   1      39.543  19.406  25.611  1.00  0.00    -0.352 N 
ATOM     27  C   UNL A   1      40.838  19.641  26.008  1.00  0.00     0.251 C 
ATOM     28  H   UNL A   1      39.338  18.449  25.503  1.00  0.00     0.163 HD
ATOM     29  O   UNL A   1      41.633  18.706  25.888  1.00  0.00    -0.269 OA
BRANCH  27  30
ATOM     30  C   UNL A   1      41.338  20.938  26.550  1.00  0.00     0.039 A 
ATOM     31  C   UNL A   1      41.299  21.124  27.944  1.00  0.00     0.014 A 
ATOM     32  C   UNL A   1      41.730  22.017  25.760  1.00  0.00     0.014 A 
ATOM     33  C   UNL A   1      41.661  22.351  28.523  1.00  0.00     0.010 A 
ATOM     34  C   UNL A   1      42.188  23.206  26.342  1.00  0.00     0.010 A 
ATOM     35  C   UNL A   1      42.137  23.402  27.729  1.00  0.00    -0.014 A 
BRANCH  35  36
ATOM     36  C   UNL A   1      42.545  24.716  28.307  1.00  0.00     0.031 A 
ATOM     37  C   UNL A   1      41.526  25.813  28.514  1.00  0.00     0.074 A 
ATOM     38  C   UNL A   1      43.841  24.965  28.583  1.00  0.00     0.049 A 
ATOM     39  N   UNL A   1      41.708  27.062  28.869  1.00  0.00    -0.248 NA
ATOM     40  C   UNL A   1      40.118  25.468  28.259  1.00  0.00     0.031 C 
ATOM     41  C   UNL A   1      44.944  24.019  28.414  1.00  0.00     0.029 A 
ATOM     42  N   UNL A   1      44.451  26.105  29.053  1.00  0.00    -0.354 N 
ATOM     43  C   UNL A   1      40.451  27.657  28.835  1.00  0.00     0.074 A 
ATOM     44  C   UNL A   1      39.520  26.643  28.390  1.00  0.00     0.031 C 
ATOM     45  C   UNL A   1      46.090  24.605  28.796  1.00  0.00     0.029 A 
ATOM     46  C   UNL A   1      45.813  25.983  29.189  1.00  0.00     0.049 A 
ATOM     47  H   UNL A   1      43.959  26.929  29.271  1.00  0.00     0.167 HD
ATOM     48  C   UNL A   1      40.095  28.925  29.158  1.00  0.00     0.031 A 
ATOM     49  C   UNL A   1      46.742  26.880  29.572  1.00  0.00     0.031 A 
ATOM     50  C   UNL A   1      41.005  29.928  29.643  1.00  0.00     0.049 A 
ATOM     51  C   UNL A   1      46.324  28.279  29.932  1.00  0.00     0.074 A 
ATOM     52  C   UNL A   1      40.724  31.219  30.059  1.00  0.00     0.029 A 
ATOM     53  N   UNL A   1      42.372  29.751  29.786  1.00  0.00    -0.354 N 
ATOM     54  N   UNL A   1      45.126  28.809  29.931  1.00  0.00    -0.248 NA
ATOM     55  C   UNL A   1      47.390  29.200  30.354  1.00  0.00     0.031 C 
ATOM     56  C   UNL A   1      41.928  31.837  30.416  1.00  0.00     0.029 A 
ATOM     57  C   UNL A   1      42.950  30.914  30.268  1.00  0.00     0.049 A 
ATOM     58  H   UNL A   1      42.860  28.922  29.575  1.00  0.00     0.167 HD
ATOM     59  C   UNL A   1      45.291  30.114  30.376  1.00  0.00     0.074 A 
ATOM     60  C   UNL A   1      46.700  30.293  30.651  1.00  0.00     0.031 C 
ATOM     61  C   UNL A   1      44.353  31.079  30.542  1.00  0.00     0.031 A 
BRANCH  48  62
ATOM     62  C   UNL A   1      38.648  29.305  28.992  1.00  0.00    -0.014 A 
ATOM     63  C   UNL A   1      38.154  29.779  27.767  1.00  0.00     0.009 A 
ATOM     64  C   UNL A   1      37.758  29.148  30.067  1.00  0.00     0.009 A 
ATOM     65  C   UNL A   1      36.808  30.129  27.634  1.00  0.00     0.001 A 
ATOM     66  C   UNL A   1      36.407  29.469  29.923  1.00  0.00     0.001 A 
ATOM     67  C   UNL A   1      35.935  29.970  28.710  1.00  0.00     0.000 A 
ENDBRANCH  48  62
BRANCH  49  68
ATOM     68  C   UNL A   1      48.172  26.481  29.646  1.00  0.00    -0.014 A 
ATOM     69  C   UNL A   1      48.695  25.937  30.830  1.00  0.00     0.009 A 
ATOM     70  C   UNL A   1      49.021  26.644  28.540  1.00  0.00     0.009 A 
ATOM     71  C   UNL A   1      50.044  25.585  30.911  1.00  0.00     0.001 A 
ATOM     72  C   UNL A   1      50.363  26.266  28.617  1.00  0.00     0.001 A 
ATOM     73  C   UNL A   1      50.875  25.745  29.804  1.00  0.00     0.000 A 
ENDBRANCH  49  68
BRANCH  61  74
ATOM     74  C   UNL A   1      44.815  32.403  31.081  1.00  0.00    -0.014 A 
ATOM     75  C   UNL A   1      45.201  33.445  30.224  1.00  0.00     0.009 A 
ATOM     76  C   UNL A   1      44.825  32.621  32.467  1.00  0.00     0.009 A 
ATOM     77  C   UNL A   1      45.615  34.671  30.748  1.00  0.00     0.001 A 
ATOM     78  C   UNL A   1      45.216  33.857  32.987  1.00  0.00     0.001 A 
ATOM     79  C   UNL A   1      45.618  34.877  32.127  1.00  0.00     0.000 A 
ENDBRANCH  61  74
ENDBRANCH  35  36
ENDBRANCH  27  30
ENDBRANCH  25  26
ENDBRANCH  24  25
ENDBRANCH   1  24
TORSDOF 13
ENDMDL
MODEL 3
REMARK VINA RESULT:     -11.8      3.101      7.787
REMARK SMILES C[C@H](CC(=O)NCCCNC(=O)c1ccc(-c2c3nc(c(-c4ccccc4)c4ccc([nH]4)c(-c4ccccc4)c4nc(c(-c5ccccc5)c5ccc2[nH]5)C=C4)C=C3)cc1)N1C(=O)S/C(=C\c2ccc(Cl)cc2)C1=O
REMARK SMILES IDX 7 1 6 2 4 3 5 4 3 6 2 7 1 8 61 9 62 10 74 11 63 12 64 13
REMARK SMILES IDX 65 14 75 15 66 16 67 17 68 18 73 19 69 20 72 21 70 22 71 23
REMARK SMILES IDX 8 24 9 25 10 26 11 27 12 29 13 30 14 31 60 32 15 33 59 34
REMARK SMILES IDX 16 35 17 36 18 37 53 38 19 39 58 40 52 41 54 42 20 43 57 44
REMARK SMILES IDX 51 45 50 46 21 48 43 49 28 50 42 51 29 52 32 53 41 54 55 55
REMARK SMILES IDX 30 56 31 57 40 59 56 60 33 61 22 62 23 63 27 64 24 65 26 66
REMARK SMILES IDX 25 67 44 68 45 69 49 70 46 71 48 72 47 73 34 74 35 75 39 76
REMARK SMILES IDX 36 77 38 78 37 79
REMARK H PARENT 6 5 10 28 54 47 32 58
REMARK Flexibility Score: inf
ROOT
ATOM      1  C   UNL A   1      34.663  24.704  25.174  1.00  0.00     0.117 C 
ENDROOT
BRANCH   1   2
ATOM      2  N   UNL A   1      34.310  25.878  25.953  1.00  0.00    -0.356 N 
ATOM      3  C   UNL A   1      33.541  26.953  25.628  1.00  0.00     0.222 C 
ATOM      4  O   UNL A   1      33.549  27.923  26.389  1.00  0.00    -0.275 OA
ATOM      5  H   UNL A   1      34.688  25.900  26.863  1.00  0.00     0.163 HD
BRANCH   3   6
ATOM      6  C   UNL A   1      32.659  26.946  24.394  1.00  0.00     0.125 C 
BRANCH   6   7
ATOM      7  C   UNL A   1      31.188  26.505  24.566  1.00  0.00     0.101 C 
ATOM      8  C   UNL A   1      30.202  27.182  23.612  1.00  0.00     0.032 C 
BRANCH   7   9
ATOM      9  N   UNL A   1      31.092  25.032  24.620  1.00  0.00    -0.265 N 
ATOM     10  C   UNL A   1      30.702  24.398  25.778  1.00  0.00     0.293 C 
ATOM     11  C   UNL A   1      31.462  24.203  23.595  1.00  0.00     0.268 C 
ATOM     12  O   UNL A   1      30.284  24.925  26.797  1.00  0.00    -0.261 OA
ATOM     13  S   UNL A   1      30.935  22.656  25.639  1.00  0.00    -0.022 SA
ATOM     14  C   UNL A   1      31.639  22.814  24.091  1.00  0.00     0.083 C 
ATOM     15  O   UNL A   1      31.642  24.517  22.428  1.00  0.00    -0.268 OA
ATOM     16  C   UNL A   1      32.352  21.937  23.375  1.00  0.00     0.029 C 
BRANCH  16  17
ATOM     17  C   UNL A   1      32.655  20.535  23.649  1.00  0.00    -0.024 A 
ATOM     18  C   UNL A   1      33.635  20.181  24.586  1.00  0.00     0.009 A 
ATOM     19  C   UNL A   1      32.102  19.556  22.818  1.00  0.00     0.009 A 
ATOM     20  C   UNL A   1      34.084  18.858  24.660  1.00  0.00     0.021 A 
ATOM     21  C   UNL A   1      32.559  18.240  22.886  1.00  0.00     0.021 A 
ATOM     22  C   UNL A   1      33.558  17.899  23.796  1.00  0.00     0.041 A 
ATOM     23  Cl  UNL A   1      34.173  16.293  23.819  1.00  0.00    -0.084 Cl
ENDBRANCH  16  17
ENDBRANCH   7   9
ENDBRANCH   6   7
ENDBRANCH   3   6
ENDBRANCH   1   2
BRANCH   1  24
ATOM     24  C   UNL A   1      35.884  24.010  25.778  1.00  0.00     0.042 C 
BRANCH  24  25
ATOM     25  C   UNL A   1      36.960  23.645  24.768  1.00  0.00     0.118 C 
BRANCH  25  26
ATOM     26  N   UNL A   1      37.921  22.702  25.326  1.00  0.00    -0.352 N 
ATOM     27  C   UNL A   1      39.092  22.846  26.032  1.00  0.00     0.251 C 
ATOM     28  H   UNL A   1      37.680  21.761  25.162  1.00  0.00     0.163 HD
ATOM     29  O   UNL A   1      39.821  21.855  26.104  1.00  0.00    -0.269 OA
BRANCH  27  30
ATOM     30  C   UNL A   1      39.535  24.108  26.694  1.00  0.00     0.039 A 
ATOM     31  C   UNL A   1      39.146  24.320  28.028  1.00  0.00     0.014 A 
ATOM     32  C   UNL A   1      40.209  25.138  26.040  1.00  0.00     0.014 A 
ATOM     33  C   UNL A   1      39.442  25.523  28.689  1.00  0.00     0.010 A 
ATOM     34  C   UNL A   1      40.592  26.297  26.727  1.00  0.00     0.010 A 
ATOM     35  C   UNL A   1      40.193  26.520  28.053  1.00  0.00    -0.014 A 
BRANCH  35  36
ATOM     36  C   UNL A   1      40.541  27.807  28.724  1.00  0.00     0.031 A 
ATOM     37  C   UNL A   1      41.893  27.993  29.373  1.00  0.00     0.074 A 
ATOM     38  C   UNL A   1      39.625  28.791  28.823  1.00  0.00     0.049 A 
ATOM     39  N   UNL A   1      42.328  28.978  30.120  1.00  0.00    -0.248 NA
ATOM     40  C   UNL A   1      42.876  26.915  29.179  1.00  0.00     0.031 C 
ATOM     41  C   UNL A   1      38.271  28.753  28.271  1.00  0.00     0.029 A 
ATOM     42  N   UNL A   1      39.696  30.018  29.441  1.00  0.00    -0.354 N 
ATOM     43  C   UNL A   1      43.611  28.617  30.521  1.00  0.00     0.074 A 
ATOM     44  C   UNL A   1      43.870  27.307  29.963  1.00  0.00     0.031 C 
ATOM     45  C   UNL A   1      37.647  29.908  28.553  1.00  0.00     0.029 A 
ATOM     46  C   UNL A   1      38.535  30.749  29.347  1.00  0.00     0.049 A 
ATOM     47  H   UNL A   1      40.501  30.342  29.906  1.00  0.00     0.167 HD
ATOM     48  C   UNL A   1      44.502  29.313  31.270  1.00  0.00     0.031 A 
ATOM     49  C   UNL A   1      38.213  31.954  29.854  1.00  0.00     0.031 A 
ATOM     50  C   UNL A   1      44.271  30.633  31.792  1.00  0.00     0.049 A 
ATOM     51  C   UNL A   1      39.218  32.712  30.676  1.00  0.00     0.074 A 
ATOM     52  C   UNL A   1      45.140  31.443  32.504  1.00  0.00     0.029 A 
ATOM     53  N   UNL A   1      43.089  31.342  31.652  1.00  0.00    -0.354 N 
ATOM     54  N   UNL A   1      40.439  32.369  31.009  1.00  0.00    -0.248 NA
ATOM     55  C   UNL A   1      38.801  34.026  31.185  1.00  0.00     0.031 C 
ATOM     56  C   UNL A   1      44.469  32.627  32.831  1.00  0.00     0.029 A 
ATOM     57  C   UNL A   1      43.200  32.573  32.279  1.00  0.00     0.049 A 
ATOM     58  H   UNL A   1      42.289  31.019  31.179  1.00  0.00     0.167 HD
ATOM     59  C   UNL A   1      40.943  33.436  31.743  1.00  0.00     0.074 A 
ATOM     60  C   UNL A   1      39.903  34.441  31.795  1.00  0.00     0.031 C 
ATOM     61  C   UNL A   1      42.161  33.567  32.321  1.00  0.00     0.031 A 
BRANCH  48  62
ATOM     62  C   UNL A   1      45.819  28.652  31.576  1.00  0.00    -0.014 A 
ATOM     63  C   UNL A   1      46.919  28.782  30.714  1.00  0.00     0.009 A 
ATOM     64  C   UNL A   1      45.973  27.920  32.764  1.00  0.00     0.009 A 
ATOM     65  C   UNL A   1      48.132  28.158  31.014  1.00  0.00     0.001 A 
ATOM     66  C   UNL A   1      47.195  27.322  33.078  1.00  0.00     0.001 A 
ATOM     67  C   UNL A   1      48.270  27.432  32.197  1.00  0.00     0.000 A 
ENDBRANCH  48  62
BRANCH  49  68
ATOM     68  C   UNL A   1      36.869  32.533  29.590  1.00  0.00    -0.014 A 
ATOM     69  C   UNL A   1      35.827  32.353  30.513  1.00  0.00     0.009 A 
ATOM     70  C   UNL A   1      36.619  33.262  28.417  1.00  0.00     0.009 A 
ATOM     71  C   UNL A   1      34.556  32.872  30.256  1.00  0.00     0.001 A 
ATOM     72  C   UNL A   1      35.355  33.803  28.176  1.00  0.00     0.001 A 
ATOM     73  C   UNL A   1      34.323  33.601  29.091  1.00  0.00     0.000 A 
ENDBRANCH  49  68
BRANCH  61  74
ATOM     74  C   UNL A   1      42.452  34.861  33.028  1.00  0.00    -0.014 A 
ATOM     75  C   UNL A   1      43.131  35.907  32.384  1.00  0.00     0.009 A 
ATOM     76  C   UNL A   1      42.004  35.047  34.345  1.00  0.00     0.009 A 
ATOM     77  C   UNL A   1      43.381  37.104  33.058  1.00  0.00     0.001 A 
ATOM     78  C   UNL A   1      42.233  36.255  35.006  1.00  0.00     0.001 A 
ATOM     79  C   UNL A   1      42.928  37.279  34.365  1.00  0.00     0.000 A 
ENDBRANCH  61  74
ENDBRANCH  35  36
ENDBRANCH  27  30
ENDBRANCH  25  26
ENDBRANCH  24  25
ENDBRANCH   1  24
TORSDOF 13
ENDMDL
