MODEL 1
REMARK VINA RESULT:     -11.7      0.000      0.000
REMARK SMILES CCn1cnc(S(=O)(=O)N2CCC(C)(C(=O)NCCCNC(=O)c3ccc(-c4c5nc(c(-c6ccccc6)c6ccc([nH]6)c(-c6ccccc6)c6nc(c(-c7ccccc7)c7ccc4[nH]7)C=C6)C=C5)cc3)CC2)c1
REMARK SMILES IDX 18 1 17 2 15 3 16 4 13 6 10 7 11 8 73 9 12 10 72 11 14 12
REMARK SMILES IDX 7 13 8 14 9 15 6 16 3 17 4 18 74 19 5 20 2 21 1 22 19 23
REMARK SMILES IDX 20 24 21 25 22 26 23 28 24 29 25 30 71 31 26 32 70 33 27 34
REMARK SMILES IDX 28 35 29 36 64 37 30 38 69 39 63 40 65 41 31 42 68 43 62 44
REMARK SMILES IDX 61 45 32 47 54 48 39 49 53 50 40 51 43 52 52 53 66 54 41 55
REMARK SMILES IDX 42 56 51 58 67 59 44 60 33 61 34 62 38 63 35 64 37 65 36 66
REMARK SMILES IDX 55 67 56 68 60 69 57 70 59 71 58 72 45 73 46 74 50 75 47 76
REMARK SMILES IDX 49 77 48 78
REMARK H PARENT 17 5 21 27 65 46 43 57
REMARK Flexibility Score: inf
ROOT
ATOM      1  C   UNL A   1      33.357  29.913  26.138  1.00  0.00     0.117 C 
ENDROOT
BRANCH   1   2
ATOM      2  N   UNL A   1      32.296  29.929  25.125  1.00  0.00    -0.356 N 
ATOM      3  C   UNL A   1      31.703  28.915  24.410  1.00  0.00     0.226 C 
ATOM      4  O   UNL A   1      30.797  29.219  23.634  1.00  0.00    -0.275 OA
ATOM      5  H   UNL A   1      31.946  30.826  24.920  1.00  0.00     0.163 HD
BRANCH   3   6
ATOM      6  C   UNL A   1      32.183  27.456  24.571  1.00  0.00     0.049 C 
ATOM      7  N   UNL A   1      30.633  25.555  26.169  1.00  0.00    -0.196 NA
ATOM      8  C   UNL A   1      29.985  26.186  25.031  1.00  0.00     0.103 C 
ATOM      9  C   UNL A   1      31.472  26.472  26.936  1.00  0.00     0.103 C 
ATOM     10  C   UNL A   1      31.048  26.550  24.009  1.00  0.00     0.033 C 
ATOM     11  C   UNL A   1      32.545  27.115  26.063  1.00  0.00     0.033 C 
ATOM     12  C   UNL A   1      33.513  27.330  23.768  1.00  0.00     0.022 C 
BRANCH   7  13
ATOM     13  S   UNL A   1      30.766  23.868  26.261  1.00  0.00     0.262 S 
ATOM     14  O   UNL A   1      30.611  23.364  24.906  1.00  0.00    -0.205 OA
ATOM     15  O   UNL A   1      29.953  23.397  27.354  1.00  0.00    -0.205 OA
BRANCH  13  16
ATOM     16  C   UNL A   1      32.403  23.384  26.701  1.00  0.00     0.188 A 
ATOM     17  N   UNL A   1      34.508  22.790  26.556  1.00  0.00    -0.336 N 
ATOM     18  C   UNL A   1      34.010  22.427  27.776  1.00  0.00     0.201 A 
ATOM     19  C   UNL A   1      33.536  23.515  25.925  1.00  0.00     0.129 A 
ATOM     20  N   UNL A   1      32.738  22.742  27.886  1.00  0.00    -0.224 NA
BRANCH  17  21
ATOM     21  C   UNL A   1      35.713  22.262  25.946  1.00  0.00     0.120 C 
ATOM     22  C   UNL A   1      35.612  21.941  24.463  1.00  0.00     0.027 C 
ENDBRANCH  17  21
ENDBRANCH  13  16
ENDBRANCH   7  13
ENDBRANCH   3   6
ENDBRANCH   1   2
BRANCH   1  23
ATOM     23  C   UNL A   1      33.109  30.867  27.309  1.00  0.00     0.042 C 
BRANCH  23  24
ATOM     24  C   UNL A   1      34.152  31.959  27.431  1.00  0.00     0.118 C 
BRANCH  24  25
ATOM     25  N   UNL A   1      34.168  32.570  28.758  1.00  0.00    -0.352 N 
ATOM     26  C   UNL A   1      35.015  32.275  29.806  1.00  0.00     0.251 C 
ATOM     27  H   UNL A   1      33.499  33.273  28.924  1.00  0.00     0.163 HD
ATOM     28  O   UNL A   1      34.753  32.605  30.955  1.00  0.00    -0.269 OA
BRANCH  26  29
ATOM     29  C   UNL A   1      36.240  31.527  29.497  1.00  0.00     0.039 A 
ATOM     30  C   UNL A   1      37.473  32.179  29.461  1.00  0.00     0.014 A 
ATOM     31  C   UNL A   1      36.147  30.139  29.406  1.00  0.00     0.014 A 
ATOM     32  C   UNL A   1      38.632  31.411  29.436  1.00  0.00     0.010 A 
ATOM     33  C   UNL A   1      37.297  29.386  29.509  1.00  0.00     0.010 A 
ATOM     34  C   UNL A   1      38.546  30.010  29.498  1.00  0.00    -0.014 A 
BRANCH  34  35
ATOM     35  C   UNL A   1      39.764  29.213  29.657  1.00  0.00     0.031 A 
ATOM     36  C   UNL A   1      40.099  28.765  31.043  1.00  0.00     0.074 A 
ATOM     37  C   UNL A   1      40.477  28.711  28.626  1.00  0.00     0.049 A 
ATOM     38  N   UNL A   1      41.128  29.095  31.754  1.00  0.00    -0.248 NA
ATOM     39  C   UNL A   1      39.149  27.887  31.742  1.00  0.00     0.031 C 
ATOM     40  C   UNL A   1      40.166  28.747  27.193  1.00  0.00     0.029 A 
ATOM     41  N   UNL A   1      41.599  27.940  28.673  1.00  0.00    -0.354 N 
ATOM     42  C   UNL A   1      41.055  28.344  32.926  1.00  0.00     0.074 A 
ATOM     43  C   UNL A   1      39.758  27.714  32.919  1.00  0.00     0.031 C 
ATOM     44  C   UNL A   1      40.922  27.835  26.545  1.00  0.00     0.029 A 
ATOM     45  C   UNL A   1      41.896  27.303  27.478  1.00  0.00     0.049 A 
ATOM     46  H   UNL A   1      42.152  27.845  29.482  1.00  0.00     0.167 HD
ATOM     47  C   UNL A   1      42.146  28.135  33.719  1.00  0.00     0.031 A 
ATOM     48  C   UNL A   1      42.870  26.391  27.261  1.00  0.00     0.031 A 
ATOM     49  C   UNL A   1      43.225  29.035  33.401  1.00  0.00     0.049 A 
ATOM     50  C   UNL A   1      43.875  26.543  28.333  1.00  0.00     0.074 A 
ATOM     51  C   UNL A   1      43.388  30.405  33.377  1.00  0.00     0.029 A 
ATOM     52  N   UNL A   1      44.279  28.525  32.681  1.00  0.00    -0.354 N 
ATOM     53  N   UNL A   1      44.644  27.586  28.453  1.00  0.00    -0.248 NA
ATOM     54  C   UNL A   1      43.768  25.707  29.517  1.00  0.00     0.031 C 
ATOM     55  C   UNL A   1      44.217  30.654  32.242  1.00  0.00     0.029 A 
ATOM     56  C   UNL A   1      44.550  29.420  31.680  1.00  0.00     0.049 A 
ATOM     57  H   UNL A   1      44.748  27.677  32.851  1.00  0.00     0.167 HD
ATOM     58  C   UNL A   1      44.758  27.784  29.820  1.00  0.00     0.074 A 
ATOM     59  C   UNL A   1      44.316  26.527  30.418  1.00  0.00     0.031 C 
ATOM     60  C   UNL A   1      44.928  29.038  30.338  1.00  0.00     0.031 A 
BRANCH  47  61
ATOM     61  C   UNL A   1      42.387  26.876  34.520  1.00  0.00    -0.014 A 
ATOM     62  C   UNL A   1      43.437  26.017  34.136  1.00  0.00     0.009 A 
ATOM     63  C   UNL A   1      41.459  26.359  35.441  1.00  0.00     0.009 A 
ATOM     64  C   UNL A   1      43.501  24.691  34.586  1.00  0.00     0.001 A 
ATOM     65  C   UNL A   1      41.545  25.050  35.927  1.00  0.00     0.001 A 
ATOM     66  C   UNL A   1      42.549  24.206  35.475  1.00  0.00     0.000 A 
ENDBRANCH  47  61
BRANCH  48  67
ATOM     67  C   UNL A   1      42.897  25.282  26.292  1.00  0.00    -0.014 A 
ATOM     68  C   UNL A   1      43.923  25.184  25.344  1.00  0.00     0.009 A 
ATOM     69  C   UNL A   1      42.054  24.169  26.473  1.00  0.00     0.009 A 
ATOM     70  C   UNL A   1      44.129  23.996  24.631  1.00  0.00     0.001 A 
ATOM     71  C   UNL A   1      42.256  22.985  25.760  1.00  0.00     0.001 A 
ATOM     72  C   UNL A   1      43.305  22.893  24.852  1.00  0.00     0.000 A 
ENDBRANCH  48  67
BRANCH  60  73
ATOM     73  C   UNL A   1      45.253  30.161  29.382  1.00  0.00    -0.014 A 
ATOM     74  C   UNL A   1      44.273  30.845  28.643  1.00  0.00     0.009 A 
ATOM     75  C   UNL A   1      46.572  30.636  29.329  1.00  0.00     0.009 A 
ATOM     76  C   UNL A   1      44.609  31.941  27.841  1.00  0.00     0.001 A 
ATOM     77  C   UNL A   1      46.905  31.745  28.549  1.00  0.00     0.001 A 
ATOM     78  C   UNL A   1      45.925  32.392  27.798  1.00  0.00     0.000 A 
ENDBRANCH  60  73
ENDBRANCH  34  35
ENDBRANCH  26  29
ENDBRANCH  24  25
ENDBRANCH  23  24
ENDBRANCH   1  23
TORSDOF 13
ENDMDL
MODEL 2
REMARK VINA RESULT:     -11.7      2.882      7.743
REMARK SMILES CCn1cnc(S(=O)(=O)N2CCC(C)(C(=O)NCCCNC(=O)c3ccc(-c4c5nc(c(-c6ccccc6)c6ccc([nH]6)c(-c6ccccc6)c6nc(c(-c7ccccc7)c7ccc4[nH]7)C=C6)C=C5)cc3)CC2)c1
REMARK SMILES IDX 18 1 17 2 15 3 16 4 13 6 10 7 11 8 73 9 12 10 72 11 14 12
REMARK SMILES IDX 7 13 8 14 9 15 6 16 3 17 4 18 74 19 5 20 2 21 1 22 19 23
REMARK SMILES IDX 20 24 21 25 22 26 23 28 24 29 25 30 71 31 26 32 70 33 27 34
REMARK SMILES IDX 28 35 29 36 64 37 30 38 69 39 63 40 65 41 31 42 68 43 62 44
REMARK SMILES IDX 61 45 32 47 54 48 39 49 53 50 40 51 43 52 52 53 66 54 41 55
REMARK SMILES IDX 42 56 51 58 67 59 44 60 33 61 34 62 38 63 35 64 37 65 36 66
REMARK SMILES IDX 55 67 56 68 60 69 57 70 59 71 58 72 45 73 46 74 50 75 47 76
REMARK SMILES IDX 49 77 48 78
REMARK H PARENT 17 5 21 27 65 46 43 57
REMARK Flexibility Score: inf
ROOT
ATOM      1  C   UNL A   1      36.804  20.894  25.198  1.00  0.00     0.117 C 
ENDROOT
BRANCH   1   2
ATOM      2  N   UNL A   1      35.570  20.112  25.065  1.00  0.00    -0.356 N 
ATOM      3  C   UNL A   1      34.251  20.495  24.993  1.00  0.00     0.226 C 
ATOM      4  O   UNL A   1      33.407  19.610  24.848  1.00  0.00    -0.275 OA
ATOM      5  H   UNL A   1      35.711  19.139  25.021  1.00  0.00     0.163 HD
BRANCH   3   6
ATOM      6  C   UNL A   1      33.859  21.984  25.109  1.00  0.00     0.049 C 
ATOM      7  N   UNL A   1      33.596  23.641  22.711  1.00  0.00    -0.196 NA
ATOM      8  C   UNL A   1      32.758  22.460  22.826  1.00  0.00     0.103 C 
ATOM      9  C   UNL A   1      34.966  23.421  23.168  1.00  0.00     0.103 C 
ATOM     10  C   UNL A   1      32.541  22.162  24.299  1.00  0.00     0.033 C 
ATOM     11  C   UNL A   1      35.005  22.938  24.615  1.00  0.00     0.033 C 
ATOM     12  C   UNL A   1      33.680  22.283  26.630  1.00  0.00     0.022 C 
BRANCH   7  13
ATOM     13  S   UNL A   1      32.906  25.179  22.536  1.00  0.00     0.262 S 
ATOM     14  O   UNL A   1      31.505  24.969  22.206  1.00  0.00    -0.205 OA
ATOM     15  O   UNL A   1      33.775  25.988  21.719  1.00  0.00    -0.205 OA
BRANCH  13  16
ATOM     16  C   UNL A   1      32.848  26.028  24.079  1.00  0.00     0.188 A 
ATOM     17  N   UNL A   1      33.231  27.492  25.665  1.00  0.00    -0.336 N 
ATOM     18  C   UNL A   1      32.714  26.350  26.208  1.00  0.00     0.201 A 
ATOM     19  C   UNL A   1      33.191  27.345  24.306  1.00  0.00     0.129 A 
ATOM     20  N   UNL A   1      32.501  25.436  25.287  1.00  0.00    -0.224 NA
BRANCH  17  21
ATOM     21  C   UNL A   1      33.943  28.526  26.393  1.00  0.00     0.120 C 
ATOM     22  C   UNL A   1      33.073  29.609  27.014  1.00  0.00     0.027 C 
ENDBRANCH  17  21
ENDBRANCH  13  16
ENDBRANCH   7  13
ENDBRANCH   3   6
ENDBRANCH   1   2
BRANCH   1  23
ATOM     23  C   UNL A   1      38.073  20.113  24.847  1.00  0.00     0.042 C 
BRANCH  23  24
ATOM     24  C   UNL A   1      39.175  20.258  25.877  1.00  0.00     0.118 C 
BRANCH  24  25
ATOM     25  N   UNL A   1      40.179  19.201  25.772  1.00  0.00    -0.352 N 
ATOM     26  C   UNL A   1      41.545  19.327  25.917  1.00  0.00     0.251 C 
ATOM     27  H   UNL A   1      39.843  18.297  25.576  1.00  0.00     0.163 HD
ATOM     28  O   UNL A   1      42.315  18.469  25.506  1.00  0.00    -0.269 OA
BRANCH  26  29
ATOM     29  C   UNL A   1      42.049  20.543  26.568  1.00  0.00     0.039 A 
ATOM     30  C   UNL A   1      42.452  21.636  25.802  1.00  0.00     0.014 A 
ATOM     31  C   UNL A   1      41.955  20.622  27.956  1.00  0.00     0.014 A 
ATOM     32  C   UNL A   1      42.664  22.855  26.438  1.00  0.00     0.010 A 
ATOM     33  C   UNL A   1      42.043  21.857  28.561  1.00  0.00     0.010 A 
ATOM     34  C   UNL A   1      42.423  22.976  27.817  1.00  0.00    -0.014 A 
BRANCH  34  35
ATOM     35  C   UNL A   1      42.468  24.295  28.450  1.00  0.00     0.031 A 
ATOM     36  C   UNL A   1      41.341  25.227  28.144  1.00  0.00     0.074 A 
ATOM     37  C   UNL A   1      43.345  24.638  29.417  1.00  0.00     0.049 A 
ATOM     38  N   UNL A   1      41.396  26.359  27.523  1.00  0.00    -0.248 NA
ATOM     39  C   UNL A   1      39.979  24.827  28.530  1.00  0.00     0.031 C 
ATOM     40  C   UNL A   1      44.330  23.794  30.103  1.00  0.00     0.029 A 
ATOM     41  N   UNL A   1      43.448  25.823  30.082  1.00  0.00    -0.354 N 
ATOM     42  C   UNL A   1      40.115  26.905  27.578  1.00  0.00     0.074 A 
ATOM     43  C   UNL A   1      39.260  25.867  28.099  1.00  0.00     0.031 C 
ATOM     44  C   UNL A   1      44.742  24.408  31.232  1.00  0.00     0.029 A 
ATOM     45  C   UNL A   1      44.206  25.756  31.241  1.00  0.00     0.049 A 
ATOM     46  H   UNL A   1      43.023  26.653  29.767  1.00  0.00     0.167 HD
ATOM     47  C   UNL A   1      39.887  28.236  27.381  1.00  0.00     0.031 A 
ATOM     48  C   UNL A   1      44.381  26.734  32.157  1.00  0.00     0.031 A 
ATOM     49  C   UNL A   1      41.020  28.896  26.786  1.00  0.00     0.049 A 
ATOM     50  C   UNL A   1      44.066  28.021  31.506  1.00  0.00     0.074 A 
ATOM     51  C   UNL A   1      41.742  28.751  25.619  1.00  0.00     0.029 A 
ATOM     52  N   UNL A   1      41.804  29.667  27.612  1.00  0.00    -0.354 N 
ATOM     53  N   UNL A   1      44.792  28.544  30.561  1.00  0.00    -0.248 NA
ATOM     54  C   UNL A   1      42.721  28.558  31.629  1.00  0.00     0.031 C 
ATOM     55  C   UNL A   1      43.096  29.002  25.993  1.00  0.00     0.029 A 
ATOM     56  C   UNL A   1      43.107  29.337  27.348  1.00  0.00     0.049 A 
ATOM     57  H   UNL A   1      41.489  30.329  28.267  1.00  0.00     0.167 HD
ATOM     58  C   UNL A   1      43.879  29.137  29.703  1.00  0.00     0.074 A 
ATOM     59  C   UNL A   1      42.645  29.231  30.478  1.00  0.00     0.031 C 
ATOM     60  C   UNL A   1      44.132  29.234  28.363  1.00  0.00     0.031 A 
BRANCH  47  61
ATOM     61  C   UNL A   1      38.795  29.022  28.069  1.00  0.00    -0.014 A 
ATOM     62  C   UNL A   1      38.605  28.852  29.456  1.00  0.00     0.009 A 
ATOM     63  C   UNL A   1      37.772  29.692  27.374  1.00  0.00     0.009 A 
ATOM     64  C   UNL A   1      37.422  29.255  30.090  1.00  0.00     0.001 A 
ATOM     65  C   UNL A   1      36.608  30.135  28.011  1.00  0.00     0.001 A 
ATOM     66  C   UNL A   1      36.420  29.889  29.364  1.00  0.00     0.000 A 
ENDBRANCH  47  61
BRANCH  48  67
ATOM     67  C   UNL A   1      44.629  26.609  33.604  1.00  0.00    -0.014 A 
ATOM     68  C   UNL A   1      45.437  27.537  34.274  1.00  0.00     0.009 A 
ATOM     69  C   UNL A   1      43.852  25.726  34.378  1.00  0.00     0.009 A 
ATOM     70  C   UNL A   1      45.434  27.609  35.673  1.00  0.00     0.001 A 
ATOM     71  C   UNL A   1      43.852  25.796  35.773  1.00  0.00     0.001 A 
ATOM     72  C   UNL A   1      44.630  26.750  36.420  1.00  0.00     0.000 A 
ENDBRANCH  48  67
BRANCH  60  73
ATOM     73  C   UNL A   1      45.529  28.923  27.882  1.00  0.00    -0.014 A 
ATOM     74  C   UNL A   1      45.971  27.617  27.603  1.00  0.00     0.009 A 
ATOM     75  C   UNL A   1      46.384  29.990  27.568  1.00  0.00     0.009 A 
ATOM     76  C   UNL A   1      47.243  27.385  27.070  1.00  0.00     0.001 A 
ATOM     77  C   UNL A   1      47.644  29.761  27.012  1.00  0.00     0.001 A 
ATOM     78  C   UNL A   1      48.077  28.458  26.771  1.00  0.00     0.000 A 
ENDBRANCH  60  73
ENDBRANCH  34  35
ENDBRANCH  26  29
ENDBRANCH  24  25
ENDBRANCH  23  24
ENDBRANCH   1  23
TORSDOF 13
ENDMDL
MODEL 3
REMARK VINA RESULT:     -11.7      1.577      2.117
REMARK SMILES CCn1cnc(S(=O)(=O)N2CCC(C)(C(=O)NCCCNC(=O)c3ccc(-c4c5nc(c(-c6ccccc6)c6ccc([nH]6)c(-c6ccccc6)c6nc(c(-c7ccccc7)c7ccc4[nH]7)C=C6)C=C5)cc3)CC2)c1
REMARK SMILES IDX 18 1 17 2 15 3 16 4 13 6 10 7 11 8 73 9 12 10 72 11 14 12
REMARK SMILES IDX 7 13 8 14 9 15 6 16 3 17 4 18 74 19 5 20 2 21 1 22 19 23
REMARK SMILES IDX 20 24 21 25 22 26 23 28 24 29 25 30 71 31 26 32 70 33 27 34
REMARK SMILES IDX 28 35 29 36 64 37 30 38 69 39 63 40 65 41 31 42 68 43 62 44
REMARK SMILES IDX 61 45 32 47 54 48 39 49 53 50 40 51 43 52 52 53 66 54 41 55
REMARK SMILES IDX 42 56 51 58 67 59 44 60 33 61 34 62 38 63 35 64 37 65 36 66
REMARK SMILES IDX 55 67 56 68 60 69 57 70 59 71 58 72 45 73 46 74 50 75 47 76
REMARK SMILES IDX 49 77 48 78
REMARK H PARENT 17 5 21 27 65 46 43 57
REMARK Flexibility Score: inf
ROOT
ATOM      1  C   UNL A   1      34.362  29.215  26.097  1.00  0.00     0.117 C 
ENDROOT
BRANCH   1   2
ATOM      2  N   UNL A   1      33.273  29.524  25.163  1.00  0.00    -0.356 N 
ATOM      3  C   UNL A   1      32.199  28.779  24.737  1.00  0.00     0.226 C 
ATOM      4  O   UNL A   1      31.408  29.311  23.958  1.00  0.00    -0.275 OA
ATOM      5  H   UNL A   1      33.321  30.425  24.771  1.00  0.00     0.163 HD
BRANCH   3   6
ATOM      6  C   UNL A   1      32.016  27.321  25.214  1.00  0.00     0.049 C 
ATOM      7  N   UNL A   1      32.714  25.087  23.456  1.00  0.00    -0.196 NA
ATOM      8  C   UNL A   1      33.754  26.041  23.802  1.00  0.00     0.103 C 
ATOM      9  C   UNL A   1      31.425  25.716  23.180  1.00  0.00     0.103 C 
ATOM     10  C   UNL A   1      33.420  26.652  25.152  1.00  0.00     0.033 C 
ATOM     11  C   UNL A   1      30.942  26.551  24.362  1.00  0.00     0.033 C 
ATOM     12  C   UNL A   1      31.441  27.392  26.662  1.00  0.00     0.022 C 
BRANCH   7  13
ATOM     13  S   UNL A   1      32.891  23.443  23.826  1.00  0.00     0.262 S 
ATOM     14  O   UNL A   1      32.358  22.703  22.692  1.00  0.00    -0.205 OA
ATOM     15  O   UNL A   1      32.432  23.218  25.174  1.00  0.00    -0.205 OA
BRANCH  13  16
ATOM     16  C   UNL A   1      34.590  22.980  23.864  1.00  0.00     0.188 A 
ATOM     17  N   UNL A   1      36.592  22.467  24.596  1.00  0.00    -0.336 N 
ATOM     18  C   UNL A   1      36.663  22.838  23.283  1.00  0.00     0.201 A 
ATOM     19  C   UNL A   1      35.267  22.424  24.931  1.00  0.00     0.129 A 
ATOM     20  N   UNL A   1      35.482  23.182  22.818  1.00  0.00    -0.224 NA
BRANCH  17  21
ATOM     21  C   UNL A   1      37.710  22.414  25.520  1.00  0.00     0.120 C 
ATOM     22  C   UNL A   1      38.121  23.746  26.129  1.00  0.00     0.027 C 
ENDBRANCH  17  21
ENDBRANCH  13  16
ENDBRANCH   7  13
ENDBRANCH   3   6
ENDBRANCH   1   2
BRANCH   1  23
ATOM     23  C   UNL A   1      34.211  29.882  27.466  1.00  0.00     0.042 C 
BRANCH  23  24
ATOM     24  C   UNL A   1      35.205  31.001  27.706  1.00  0.00     0.118 C 
BRANCH  24  25
ATOM     25  N   UNL A   1      34.748  31.944  28.725  1.00  0.00    -0.352 N 
ATOM     26  C   UNL A   1      35.121  31.989  30.052  1.00  0.00     0.251 C 
ATOM     27  H   UNL A   1      34.102  32.625  28.430  1.00  0.00     0.163 HD
ATOM     28  O   UNL A   1      34.461  32.599  30.883  1.00  0.00    -0.269 OA
BRANCH  26  29
ATOM     29  C   UNL A   1      36.334  31.259  30.440  1.00  0.00     0.039 A 
ATOM     30  C   UNL A   1      36.266  29.906  30.772  1.00  0.00     0.014 A 
ATOM     31  C   UNL A   1      37.557  31.915  30.307  1.00  0.00     0.014 A 
ATOM     32  C   UNL A   1      37.450  29.183  30.870  1.00  0.00     0.010 A 
ATOM     33  C   UNL A   1      38.714  31.168  30.282  1.00  0.00     0.010 A 
ATOM     34  C   UNL A   1      38.677  29.806  30.587  1.00  0.00    -0.014 A 
BRANCH  34  35
ATOM     35  C   UNL A   1      39.899  29.004  30.511  1.00  0.00     0.031 A 
ATOM     36  C   UNL A   1      40.647  28.796  31.788  1.00  0.00     0.074 A 
ATOM     37  C   UNL A   1      40.274  28.302  29.422  1.00  0.00     0.049 A 
ATOM     38  N   UNL A   1      41.837  29.207  32.084  1.00  0.00    -0.248 NA
ATOM     39  C   UNL A   1      39.971  28.092  32.888  1.00  0.00     0.031 C 
ATOM     40  C   UNL A   1      39.543  28.095  28.167  1.00  0.00     0.029 A 
ATOM     41  N   UNL A   1      41.372  27.510  29.265  1.00  0.00    -0.354 N 
ATOM     42  C   UNL A   1      42.137  28.679  33.339  1.00  0.00     0.074 A 
ATOM     43  C   UNL A   1      40.911  28.107  33.836  1.00  0.00     0.031 C 
ATOM     44  C   UNL A   1      40.083  27.055  27.496  1.00  0.00     0.029 A 
ATOM     45  C   UNL A   1      41.304  26.661  28.171  1.00  0.00     0.049 A 
ATOM     46  H   UNL A   1      42.145  27.539  29.873  1.00  0.00     0.167 HD
ATOM     47  C   UNL A   1      43.421  28.572  33.789  1.00  0.00     0.031 A 
ATOM     48  C   UNL A   1      42.182  25.689  27.838  1.00  0.00     0.031 A 
ATOM     49  C   UNL A   1      44.336  29.361  33.005  1.00  0.00     0.049 A 
ATOM     50  C   UNL A   1      43.462  25.990  28.511  1.00  0.00     0.074 A 
ATOM     51  C   UNL A   1      44.459  30.698  32.687  1.00  0.00     0.029 A 
ATOM     52  N   UNL A   1      45.130  28.692  32.104  1.00  0.00    -0.354 N 
ATOM     53  N   UNL A   1      44.212  27.008  28.204  1.00  0.00    -0.248 NA
ATOM     54  C   UNL A   1      43.735  25.381  29.802  1.00  0.00     0.031 C 
ATOM     55  C   UNL A   1      44.900  30.712  31.329  1.00  0.00     0.029 A 
ATOM     56  C   UNL A   1      45.068  29.386  30.924  1.00  0.00     0.049 A 
ATOM     57  H   UNL A   1      45.645  27.871  32.274  1.00  0.00     0.167 HD
ATOM     58  C   UNL A   1      44.732  27.440  29.414  1.00  0.00     0.074 A 
ATOM     59  C   UNL A   1      44.515  26.326  30.333  1.00  0.00     0.031 C 
ATOM     60  C   UNL A   1      45.029  28.758  29.622  1.00  0.00     0.031 A 
BRANCH  47  61
ATOM     61  C   UNL A   1      43.916  27.466  34.693  1.00  0.00    -0.014 A 
ATOM     62  C   UNL A   1      43.858  26.135  34.232  1.00  0.00     0.009 A 
ATOM     63  C   UNL A   1      44.162  27.644  36.066  1.00  0.00     0.009 A 
ATOM     64  C   UNL A   1      43.956  25.049  35.113  1.00  0.00     0.001 A 
ATOM     65  C   UNL A   1      44.305  26.563  36.941  1.00  0.00     0.001 A 
ATOM     66  C   UNL A   1      44.170  25.265  36.470  1.00  0.00     0.000 A 
ENDBRANCH  47  61
BRANCH  48  67
ATOM     67  C   UNL A   1      41.934  24.426  27.122  1.00  0.00    -0.014 A 
ATOM     68  C   UNL A   1      42.553  24.166  25.893  1.00  0.00     0.009 A 
ATOM     69  C   UNL A   1      41.291  23.359  27.779  1.00  0.00     0.009 A 
ATOM     70  C   UNL A   1      42.569  22.871  25.359  1.00  0.00     0.001 A 
ATOM     71  C   UNL A   1      41.302  22.068  27.245  1.00  0.00     0.001 A 
ATOM     72  C   UNL A   1      41.958  21.821  26.044  1.00  0.00     0.000 A 
ENDBRANCH  48  67
BRANCH  60  73
ATOM     73  C   UNL A   1      45.028  29.682  28.427  1.00  0.00    -0.014 A 
ATOM     74  C   UNL A   1      43.868  30.320  27.954  1.00  0.00     0.009 A 
ATOM     75  C   UNL A   1      46.257  30.027  27.846  1.00  0.00     0.009 A 
ATOM     76  C   UNL A   1      43.931  31.241  26.902  1.00  0.00     0.001 A 
ATOM     77  C   UNL A   1      46.324  30.965  26.813  1.00  0.00     0.001 A 
ATOM     78  C   UNL A   1      45.160  31.565  26.335  1.00  0.00     0.000 A 
ENDBRANCH  60  73
ENDBRANCH  34  35
ENDBRANCH  26  29
ENDBRANCH  24  25
ENDBRANCH  23  24
ENDBRANCH   1  23
TORSDOF 13
ENDMDL
