MODEL 1
REMARK VINA RESULT:     -11.8      0.000      0.000
REMARK SMILES Cc1ccc2cc(C[N@H+]3CC[NH2+][C@H](C(=O)NCCCNC(=O)c4ccc(-c5c6nc(c(-c7ccccc7)c7ccc([nH]7)c(-c7ccccc7)c7nc(c(-c8ccccc8)c8ccc5[nH]8)C=C7)C=C6)cc4)C3)c(N3CCOCC3)nc2c1
REMARK SMILES IDX 17 1 16 2 14 3 15 4 13 6 9 7 10 8 71 9 11 11 12 12 8 15 7 16
REMARK SMILES IDX 1 17 2 18 3 19 81 20 4 21 80 22 5 23 79 24 6 25 72 26 73 27
REMARK SMILES IDX 74 28 78 29 75 30 77 31 76 32 18 33 19 34 20 35 21 36 22 38
REMARK SMILES IDX 23 39 24 40 70 41 25 42 69 43 26 44 27 45 28 46 63 47 29 48
REMARK SMILES IDX 68 49 62 50 64 51 30 52 67 53 61 54 60 55 31 57 53 58 38 59
REMARK SMILES IDX 52 60 39 61 42 62 51 63 65 64 40 65 41 66 50 68 66 69 43 70
REMARK SMILES IDX 32 71 33 72 37 73 34 74 36 75 35 76 54 77 55 78 59 79 56 80
REMARK SMILES IDX 58 81 57 82 44 83 45 84 49 85 46 86 48 87 47 88
REMARK H PARENT 16 5 9 10 12 13 12 14 20 37 64 56 42 67
REMARK Flexibility Score: inf
ROOT
ATOM      1  C   UNL A   1      36.369  19.554  24.980  1.00  0.00     0.118 C 
ENDROOT
BRANCH   1   2
ATOM      2  N   UNL A   1      35.252  18.649  24.771  1.00  0.00    -0.351 N 
ATOM      3  C   UNL A   1      33.944  18.927  24.488  1.00  0.00     0.284 C 
ATOM      4  O   UNL A   1      33.194  17.967  24.289  1.00  0.00    -0.268 OA
ATOM      5  H   UNL A   1      35.469  17.691  24.844  1.00  0.00     0.163 HD
BRANCH   3   6
ATOM      6  C   UNL A   1      33.423  20.371  24.547  1.00  0.00     0.328 C 
ATOM      7  N   UNL A   1      32.228  22.012  26.101  1.00  0.00    -0.321 N 
ATOM      8  C   UNL A   1      31.569  22.536  24.893  1.00  0.00     0.324 C 
ATOM      9  C   UNL A   1      32.744  20.645  25.916  1.00  0.00     0.339 C 
ATOM     10  H   UNL A   1      31.480  21.928  26.790  1.00  0.00     0.348 HD
ATOM     11  C   UNL A   1      32.185  22.129  23.533  1.00  0.00     0.323 C 
ATOM     12  N   UNL A   1      32.474  20.685  23.445  1.00  0.00    -0.327 N 
ATOM     13  H   UNL A   1      32.897  20.464  22.544  1.00  0.00     0.347 HD
ATOM     14  H   UNL A   1      31.621  20.133  23.529  1.00  0.00     0.347 HD
BRANCH   7  15
ATOM     15  C   UNL A   1      33.144  22.944  26.781  1.00  0.00     0.303 C 
BRANCH  15  16
ATOM     16  C   UNL A   1      33.117  24.390  26.333  1.00  0.00     0.049 A 
ATOM     17  C   UNL A   1      32.830  30.824  26.887  1.00  0.00     0.044 C 
ATOM     18  C   UNL A   1      32.565  29.352  26.773  1.00  0.00    -0.049 A 
ATOM     19  C   UNL A   1      31.397  28.800  27.299  1.00  0.00     0.004 A 
ATOM     20  C   UNL A   1      33.501  28.504  26.149  1.00  0.00     0.032 A 
ATOM     21  C   UNL A   1      31.201  27.424  27.252  1.00  0.00     0.010 A 
ATOM     22  C   UNL A   1      33.339  27.120  26.096  1.00  0.00     0.073 A 
ATOM     23  C   UNL A   1      32.177  26.591  26.680  1.00  0.00     0.001 A 
ATOM     24  N   UNL A   1      34.289  26.331  25.544  1.00  0.00    -0.230 NA
ATOM     25  C   UNL A   1      32.062  25.206  26.757  1.00  0.00     0.023 A 
ATOM     26  C   UNL A   1      34.172  24.983  25.626  1.00  0.00     0.138 A 
BRANCH  26  27
ATOM     27  N   UNL A   1      35.137  24.188  25.034  1.00  0.00    -0.352 N 
ATOM     28  C   UNL A   1      35.138  24.099  23.565  1.00  0.00     0.146 C 
ATOM     29  C   UNL A   1      36.482  24.120  25.606  1.00  0.00     0.146 C 
ATOM     30  C   UNL A   1      35.794  22.766  23.172  1.00  0.00     0.181 C 
ATOM     31  C   UNL A   1      37.127  22.798  25.134  1.00  0.00     0.181 C 
ATOM     32  O   UNL A   1      37.131  22.673  23.697  1.00  0.00    -0.378 OA
ENDBRANCH  26  27
ENDBRANCH  15  16
ENDBRANCH   7  15
ENDBRANCH   3   6
ENDBRANCH   1   2
BRANCH   1  33
ATOM     33  C   UNL A   1      37.721  18.860  24.938  1.00  0.00     0.042 C 
BRANCH  33  34
ATOM     34  C   UNL A   1      38.852  19.658  25.571  1.00  0.00     0.118 C 
BRANCH  34  35
ATOM     35  N   UNL A   1      40.091  18.895  25.672  1.00  0.00    -0.352 N 
ATOM     36  C   UNL A   1      41.359  19.310  26.002  1.00  0.00     0.251 C 
ATOM     37  H   UNL A   1      40.006  17.935  25.473  1.00  0.00     0.163 HD
ATOM     38  O   UNL A   1      42.313  18.558  25.844  1.00  0.00    -0.269 OA
BRANCH  36  39
ATOM     39  C   UNL A   1      41.575  20.673  26.534  1.00  0.00     0.039 A 
ATOM     40  C   UNL A   1      41.962  21.712  25.688  1.00  0.00     0.014 A 
ATOM     41  C   UNL A   1      41.376  20.917  27.896  1.00  0.00     0.014 A 
ATOM     42  C   UNL A   1      42.311  22.946  26.225  1.00  0.00     0.010 A 
ATOM     43  C   UNL A   1      41.634  22.188  28.420  1.00  0.00     0.010 A 
ATOM     44  C   UNL A   1      42.147  23.201  27.597  1.00  0.00    -0.014 A 
BRANCH  44  45
ATOM     45  C   UNL A   1      42.502  24.543  28.132  1.00  0.00     0.031 A 
ATOM     46  C   UNL A   1      43.936  24.920  28.389  1.00  0.00     0.074 A 
ATOM     47  C   UNL A   1      41.523  25.449  28.325  1.00  0.00     0.049 A 
ATOM     48  N   UNL A   1      44.421  26.069  28.788  1.00  0.00    -0.248 NA
ATOM     49  C   UNL A   1      44.958  23.883  28.176  1.00  0.00     0.031 C 
ATOM     50  C   UNL A   1      40.097  25.205  28.100  1.00  0.00     0.029 A 
ATOM     51  N   UNL A   1      41.577  26.764  28.716  1.00  0.00    -0.354 N 
ATOM     52  C   UNL A   1      45.796  25.890  28.886  1.00  0.00     0.074 A 
ATOM     53  C   UNL A   1      46.068  24.514  28.539  1.00  0.00     0.031 C 
ATOM     54  C   UNL A   1      39.422  26.348  28.285  1.00  0.00     0.029 A 
ATOM     55  C   UNL A   1      40.352  27.387  28.716  1.00  0.00     0.049 A 
ATOM     56  H   UNL A   1      42.412  27.218  28.973  1.00  0.00     0.167 HD
ATOM     57  C   UNL A   1      46.744  26.797  29.220  1.00  0.00     0.031 A 
ATOM     58  C   UNL A   1      40.004  28.650  29.031  1.00  0.00     0.031 A 
ATOM     59  C   UNL A   1      46.470  28.170  29.559  1.00  0.00     0.049 A 
ATOM     60  C   UNL A   1      41.071  29.621  29.446  1.00  0.00     0.074 A 
ATOM     61  C   UNL A   1      47.372  29.166  29.890  1.00  0.00     0.029 A 
ATOM     62  N   UNL A   1      45.208  28.740  29.610  1.00  0.00    -0.354 N 
ATOM     63  N   UNL A   1      42.368  29.440  29.507  1.00  0.00    -0.248 NA
ATOM     64  C   UNL A   1      40.632  30.970  29.832  1.00  0.00     0.031 C 
ATOM     65  C   UNL A   1      46.653  30.317  30.212  1.00  0.00     0.029 A 
ATOM     66  C   UNL A   1      45.307  30.066  29.997  1.00  0.00     0.049 A 
ATOM     67  H   UNL A   1      44.366  28.273  29.403  1.00  0.00     0.167 HD
ATOM     68  C   UNL A   1      42.902  30.655  29.916  1.00  0.00     0.074 A 
ATOM     69  C   UNL A   1      41.791  31.571  30.071  1.00  0.00     0.031 C 
ATOM     70  C   UNL A   1      44.198  30.974  30.144  1.00  0.00     0.031 A 
BRANCH  57  71
ATOM     71  C   UNL A   1      48.182  26.350  29.247  1.00  0.00    -0.014 A 
ATOM     72  C   UNL A   1      48.752  25.909  30.453  1.00  0.00     0.009 A 
ATOM     73  C   UNL A   1      49.002  26.473  28.115  1.00  0.00     0.009 A 
ATOM     74  C   UNL A   1      50.116  25.622  30.531  1.00  0.00     0.001 A 
ATOM     75  C   UNL A   1      50.360  26.154  28.188  1.00  0.00     0.001 A 
ATOM     76  C   UNL A   1      50.919  25.742  29.398  1.00  0.00     0.000 A 
ENDBRANCH  57  71
BRANCH  58  77
ATOM     77  C   UNL A   1      38.574  29.056  28.943  1.00  0.00    -0.014 A 
ATOM     78  C   UNL A   1      38.053  29.581  27.749  1.00  0.00     0.009 A 
ATOM     79  C   UNL A   1      37.739  28.978  30.068  1.00  0.00     0.009 A 
ATOM     80  C   UNL A   1      36.740  30.054  27.692  1.00  0.00     0.001 A 
ATOM     81  C   UNL A   1      36.414  29.417  29.998  1.00  0.00     0.001 A 
ATOM     82  C   UNL A   1      35.921  29.966  28.815  1.00  0.00     0.000 A 
ENDBRANCH  58  77
BRANCH  70  83
ATOM     83  C   UNL A   1      44.517  32.383  30.568  1.00  0.00    -0.014 A 
ATOM     84  C   UNL A   1      44.360  32.755  31.914  1.00  0.00     0.009 A 
ATOM     85  C   UNL A   1      44.851  33.368  29.627  1.00  0.00     0.009 A 
ATOM     86  C   UNL A   1      44.504  34.087  32.304  1.00  0.00     0.001 A 
ATOM     87  C   UNL A   1      45.029  34.695  30.026  1.00  0.00     0.001 A 
ATOM     88  C   UNL A   1      44.843  35.055  31.361  1.00  0.00     0.000 A 
ENDBRANCH  70  83
ENDBRANCH  44  45
ENDBRANCH  36  39
ENDBRANCH  34  35
ENDBRANCH  33  34
ENDBRANCH   1  33
TORSDOF 13
ENDMDL
MODEL 2
REMARK VINA RESULT:     -11.7      2.031      6.983
REMARK SMILES Cc1ccc2cc(C[N@H+]3CC[NH2+][C@H](C(=O)NCCCNC(=O)c4ccc(-c5c6nc(c(-c7ccccc7)c7ccc([nH]7)c(-c7ccccc7)c7nc(c(-c8ccccc8)c8ccc5[nH]8)C=C7)C=C6)cc4)C3)c(N3CCOCC3)nc2c1
REMARK SMILES IDX 17 1 16 2 14 3 15 4 13 6 9 7 10 8 71 9 11 11 12 12 8 15 7 16
REMARK SMILES IDX 1 17 2 18 3 19 81 20 4 21 80 22 5 23 79 24 6 25 72 26 73 27
REMARK SMILES IDX 74 28 78 29 75 30 77 31 76 32 18 33 19 34 20 35 21 36 22 38
REMARK SMILES IDX 23 39 24 40 70 41 25 42 69 43 26 44 27 45 28 46 63 47 29 48
REMARK SMILES IDX 68 49 62 50 64 51 30 52 67 53 61 54 60 55 31 57 53 58 38 59
REMARK SMILES IDX 52 60 39 61 42 62 51 63 65 64 40 65 41 66 50 68 66 69 43 70
REMARK SMILES IDX 32 71 33 72 37 73 34 74 36 75 35 76 54 77 55 78 59 79 56 80
REMARK SMILES IDX 58 81 57 82 44 83 45 84 49 85 46 86 48 87 47 88
REMARK H PARENT 16 5 9 10 12 13 12 14 20 37 64 56 42 67
REMARK Flexibility Score: inf
ROOT
ATOM      1  C   UNL A   1      32.598  26.392  26.792  1.00  0.00     0.118 C 
ENDROOT
BRANCH   1   2
ATOM      2  N   UNL A   1      31.348  25.654  26.858  1.00  0.00    -0.351 N 
ATOM      3  C   UNL A   1      31.131  24.304  26.870  1.00  0.00     0.284 C 
ATOM      4  O   UNL A   1      29.963  23.923  26.997  1.00  0.00    -0.268 OA
ATOM      5  H   UNL A   1      30.536  26.209  26.900  1.00  0.00     0.163 HD
BRANCH   3   6
ATOM      6  C   UNL A   1      32.285  23.327  26.604  1.00  0.00     0.328 C 
ATOM      7  N   UNL A   1      32.852  21.191  25.317  1.00  0.00    -0.321 N 
ATOM      8  C   UNL A   1      33.702  20.833  26.464  1.00  0.00     0.324 C 
ATOM      9  C   UNL A   1      31.818  22.180  25.667  1.00  0.00     0.339 C 
ATOM     10  H   UNL A   1      32.343  20.336  25.093  1.00  0.00     0.348 HD
ATOM     11  C   UNL A   1      34.037  21.967  27.463  1.00  0.00     0.323 C 
ATOM     12  N   UNL A   1      32.850  22.752  27.855  1.00  0.00    -0.327 N 
ATOM     13  H   UNL A   1      33.117  23.499  28.495  1.00  0.00     0.347 HD
ATOM     14  H   UNL A   1      32.163  22.167  28.331  1.00  0.00     0.347 HD
BRANCH   7  15
ATOM     15  C   UNL A   1      33.563  21.444  24.052  1.00  0.00     0.303 C 
BRANCH  15  16
ATOM     16  C   UNL A   1      33.697  22.886  23.611  1.00  0.00     0.049 A 
ATOM     17  C   UNL A   1      32.103  29.114  22.939  1.00  0.00     0.044 C 
ATOM     18  C   UNL A   1      32.277  27.628  22.829  1.00  0.00    -0.049 A 
ATOM     19  C   UNL A   1      31.292  26.843  22.231  1.00  0.00     0.004 A 
ATOM     20  C   UNL A   1      33.431  27.005  23.344  1.00  0.00     0.032 A 
ATOM     21  C   UNL A   1      31.435  25.459  22.204  1.00  0.00     0.010 A 
ATOM     22  C   UNL A   1      33.597  25.621  23.342  1.00  0.00     0.073 A 
ATOM     23  C   UNL A   1      32.565  24.854  22.779  1.00  0.00     0.001 A 
ATOM     24  N   UNL A   1      34.690  25.053  23.903  1.00  0.00    -0.230 NA
ATOM     25  C   UNL A   1      32.649  23.469  22.889  1.00  0.00     0.023 A 
ATOM     26  C   UNL A   1      34.764  23.704  24.009  1.00  0.00     0.138 A 
BRANCH  26  27
ATOM     27  N   UNL A   1      35.899  23.135  24.561  1.00  0.00    -0.352 N 
ATOM     28  C   UNL A   1      36.699  22.247  23.704  1.00  0.00     0.146 C 
ATOM     29  C   UNL A   1      36.715  23.897  25.506  1.00  0.00     0.146 C 
ATOM     30  C   UNL A   1      37.468  21.276  24.615  1.00  0.00     0.181 C 
ATOM     31  C   UNL A   1      37.517  22.887  26.356  1.00  0.00     0.181 C 
ATOM     32  O   UNL A   1      38.303  21.991  25.544  1.00  0.00    -0.378 OA
ENDBRANCH  26  27
ENDBRANCH  15  16
ENDBRANCH   7  15
ENDBRANCH   3   6
ENDBRANCH   1   2
BRANCH   1  33
ATOM     33  C   UNL A   1      32.411  27.899  26.875  1.00  0.00     0.042 C 
BRANCH  33  34
ATOM     34  C   UNL A   1      33.695  28.698  26.701  1.00  0.00     0.118 C 
BRANCH  34  35
ATOM     35  N   UNL A   1      33.623  30.020  27.313  1.00  0.00    -0.352 N 
ATOM     36  C   UNL A   1      34.513  30.658  28.143  1.00  0.00     0.251 C 
ATOM     37  H   UNL A   1      32.811  30.534  27.098  1.00  0.00     0.163 HD
ATOM     38  O   UNL A   1      34.188  31.691  28.715  1.00  0.00    -0.269 OA
BRANCH  36  39
ATOM     39  C   UNL A   1      35.859  30.087  28.360  1.00  0.00     0.039 A 
ATOM     40  C   UNL A   1      36.179  29.459  29.564  1.00  0.00     0.014 A 
ATOM     41  C   UNL A   1      36.812  30.170  27.340  1.00  0.00     0.014 A 
ATOM     42  C   UNL A   1      37.490  29.069  29.811  1.00  0.00     0.010 A 
ATOM     43  C   UNL A   1      38.107  29.687  27.556  1.00  0.00     0.010 A 
ATOM     44  C   UNL A   1      38.469  29.172  28.810  1.00  0.00    -0.014 A 
BRANCH  44  45
ATOM     45  C   UNL A   1      39.855  28.715  29.100  1.00  0.00     0.031 A 
ATOM     46  C   UNL A   1      40.326  27.351  28.676  1.00  0.00     0.074 A 
ATOM     47  C   UNL A   1      40.712  29.568  29.697  1.00  0.00     0.049 A 
ATOM     48  N   UNL A   1      41.521  26.825  28.790  1.00  0.00    -0.248 NA
ATOM     49  C   UNL A   1      39.340  26.459  28.045  1.00  0.00     0.031 C 
ATOM     50  C   UNL A   1      40.375  30.921  30.144  1.00  0.00     0.029 A 
ATOM     51  N   UNL A   1      42.046  29.443  29.996  1.00  0.00    -0.354 N 
ATOM     52  C   UNL A   1      41.426  25.544  28.261  1.00  0.00     0.074 A 
ATOM     53  C   UNL A   1      40.052  25.355  27.856  1.00  0.00     0.031 C 
ATOM     54  C   UNL A   1      41.485  31.525  30.591  1.00  0.00     0.029 A 
ATOM     55  C   UNL A   1      42.596  30.581  30.536  1.00  0.00     0.049 A 
ATOM     56  H   UNL A   1      42.559  28.618  29.839  1.00  0.00     0.167 HD
ATOM     57  C   UNL A   1      42.402  24.618  28.113  1.00  0.00     0.031 A 
ATOM     58  C   UNL A   1      43.851  30.843  30.949  1.00  0.00     0.031 A 
ATOM     59  C   UNL A   1      43.772  24.812  28.512  1.00  0.00     0.049 A 
ATOM     60  C   UNL A   1      44.902  29.779  30.818  1.00  0.00     0.074 A 
ATOM     61  C   UNL A   1      44.834  23.934  28.381  1.00  0.00     0.029 A 
ATOM     62  N   UNL A   1      44.270  25.956  29.116  1.00  0.00    -0.354 N 
ATOM     63  N   UNL A   1      44.800  28.583  30.291  1.00  0.00    -0.248 NA
ATOM     64  C   UNL A   1      46.241  30.097  31.334  1.00  0.00     0.031 C 
ATOM     65  C   UNL A   1      45.957  24.516  28.970  1.00  0.00     0.029 A 
ATOM     66  C   UNL A   1      45.618  25.792  29.390  1.00  0.00     0.049 A 
ATOM     67  H   UNL A   1      43.746  26.764  29.320  1.00  0.00     0.167 HD
ATOM     68  C   UNL A   1      46.062  28.015  30.391  1.00  0.00     0.074 A 
ATOM     69  C   UNL A   1      46.920  29.003  31.012  1.00  0.00     0.031 C 
ATOM     70  C   UNL A   1      46.468  26.781  30.004  1.00  0.00     0.031 A 
BRANCH  57  71
ATOM     71  C   UNL A   1      42.041  23.292  27.497  1.00  0.00    -0.014 A 
ATOM     72  C   UNL A   1      41.467  22.286  28.294  1.00  0.00     0.009 A 
ATOM     73  C   UNL A   1      42.370  22.996  26.166  1.00  0.00     0.009 A 
ATOM     74  C   UNL A   1      41.253  21.007  27.778  1.00  0.00     0.001 A 
ATOM     75  C   UNL A   1      42.125  21.723  25.643  1.00  0.00     0.001 A 
ATOM     76  C   UNL A   1      41.578  20.727  26.453  1.00  0.00     0.000 A 
ENDBRANCH  57  71
BRANCH  58  77
ATOM     77  C   UNL A   1      44.169  32.186  31.508  1.00  0.00    -0.014 A 
ATOM     78  C   UNL A   1      44.007  32.446  32.879  1.00  0.00     0.009 A 
ATOM     79  C   UNL A   1      44.577  33.231  30.666  1.00  0.00     0.009 A 
ATOM     80  C   UNL A   1      44.210  33.729  33.390  1.00  0.00     0.001 A 
ATOM     81  C   UNL A   1      44.815  34.507  31.186  1.00  0.00     0.001 A 
ATOM     82  C   UNL A   1      44.619  34.757  32.543  1.00  0.00     0.000 A 
ENDBRANCH  58  77
BRANCH  70  83
ATOM     83  C   UNL A   1      47.912  26.412  30.210  1.00  0.00    -0.014 A 
ATOM     84  C   UNL A   1      48.819  26.536  29.144  1.00  0.00     0.009 A 
ATOM     85  C   UNL A   1      48.350  25.830  31.408  1.00  0.00     0.009 A 
ATOM     86  C   UNL A   1      50.126  26.061  29.264  1.00  0.00     0.001 A 
ATOM     87  C   UNL A   1      49.669  25.388  31.538  1.00  0.00     0.001 A 
ATOM     88  C   UNL A   1      50.551  25.491  30.462  1.00  0.00     0.000 A 
ENDBRANCH  70  83
ENDBRANCH  44  45
ENDBRANCH  36  39
ENDBRANCH  34  35
ENDBRANCH  33  34
ENDBRANCH   1  33
TORSDOF 13
ENDMDL
MODEL 3
REMARK VINA RESULT:     -11.4      2.114      7.039
REMARK SMILES Cc1ccc2cc(C[N@H+]3CC[NH2+][C@H](C(=O)NCCCNC(=O)c4ccc(-c5c6nc(c(-c7ccccc7)c7ccc([nH]7)c(-c7ccccc7)c7nc(c(-c8ccccc8)c8ccc5[nH]8)C=C7)C=C6)cc4)C3)c(N3CCOCC3)nc2c1
REMARK SMILES IDX 17 1 16 2 14 3 15 4 13 6 9 7 10 8 71 9 11 11 12 12 8 15 7 16
REMARK SMILES IDX 1 17 2 18 3 19 81 20 4 21 80 22 5 23 79 24 6 25 72 26 73 27
REMARK SMILES IDX 74 28 78 29 75 30 77 31 76 32 18 33 19 34 20 35 21 36 22 38
REMARK SMILES IDX 23 39 24 40 70 41 25 42 69 43 26 44 27 45 28 46 63 47 29 48
REMARK SMILES IDX 68 49 62 50 64 51 30 52 67 53 61 54 60 55 31 57 53 58 38 59
REMARK SMILES IDX 52 60 39 61 42 62 51 63 65 64 40 65 41 66 50 68 66 69 43 70
REMARK SMILES IDX 32 71 33 72 37 73 34 74 36 75 35 76 54 77 55 78 59 79 56 80
REMARK SMILES IDX 58 81 57 82 44 83 45 84 49 85 46 86 48 87 47 88
REMARK H PARENT 16 5 9 10 12 13 12 14 20 37 64 56 42 67
REMARK Flexibility Score: inf
ROOT
ATOM      1  C   UNL A   1      32.531  26.333  26.704  1.00  0.00     0.118 C 
ENDROOT
BRANCH   1   2
ATOM      2  N   UNL A   1      31.268  25.625  26.828  1.00  0.00    -0.351 N 
ATOM      3  C   UNL A   1      31.021  24.281  26.874  1.00  0.00     0.284 C 
ATOM      4  O   UNL A   1      29.851  23.929  27.049  1.00  0.00    -0.268 OA
ATOM      5  H   UNL A   1      30.470  26.199  26.887  1.00  0.00     0.163 HD
BRANCH   3   6
ATOM      6  C   UNL A   1      32.143  23.272  26.588  1.00  0.00     0.328 C 
ATOM      7  N   UNL A   1      32.663  21.186  25.204  1.00  0.00    -0.321 N 
ATOM      8  C   UNL A   1      33.464  20.733  26.353  1.00  0.00     0.324 C 
ATOM      9  C   UNL A   1      31.659  22.197  25.577  1.00  0.00     0.339 C 
ATOM     10  H   UNL A   1      32.128  20.366  24.919  1.00  0.00     0.348 HD
ATOM     11  C   UNL A   1      33.813  21.798  27.421  1.00  0.00     0.323 C 
ATOM     12  N   UNL A   1      32.647  22.610  27.821  1.00  0.00    -0.327 N 
ATOM     13  H   UNL A   1      32.924  23.310  28.508  1.00  0.00     0.347 HD
ATOM     14  H   UNL A   1      31.923  22.029  28.246  1.00  0.00     0.347 HD
BRANCH   7  15
ATOM     15  C   UNL A   1      33.422  21.477  23.974  1.00  0.00     0.303 C 
BRANCH  15  16
ATOM     16  C   UNL A   1      33.555  22.929  23.571  1.00  0.00     0.049 A 
ATOM     17  C   UNL A   1      31.968  29.176  23.082  1.00  0.00     0.044 C 
ATOM     18  C   UNL A   1      32.138  27.693  22.930  1.00  0.00    -0.049 A 
ATOM     19  C   UNL A   1      31.147  26.926  22.319  1.00  0.00     0.004 A 
ATOM     20  C   UNL A   1      33.295  27.054  23.418  1.00  0.00     0.032 A 
ATOM     21  C   UNL A   1      31.286  25.544  22.253  1.00  0.00     0.010 A 
ATOM     22  C   UNL A   1      33.459  25.670  23.377  1.00  0.00     0.073 A 
ATOM     23  C   UNL A   1      32.420  24.921  22.802  1.00  0.00     0.001 A 
ATOM     24  N   UNL A   1      34.555  25.086  23.913  1.00  0.00    -0.230 NA
ATOM     25  C   UNL A   1      32.503  23.534  22.875  1.00  0.00     0.023 A 
ATOM     26  C   UNL A   1      34.627  23.734  23.983  1.00  0.00     0.138 A 
BRANCH  26  27
ATOM     27  N   UNL A   1      35.765  23.149  24.509  1.00  0.00    -0.352 N 
ATOM     28  C   UNL A   1      36.679  22.476  23.573  1.00  0.00     0.146 C 
ATOM     29  C   UNL A   1      36.465  23.782  25.627  1.00  0.00     0.146 C 
ATOM     30  C   UNL A   1      37.460  21.410  24.358  1.00  0.00     0.181 C 
ATOM     31  C   UNL A   1      37.287  22.690  26.347  1.00  0.00     0.181 C 
ATOM     32  O   UNL A   1      38.183  22.001  25.453  1.00  0.00    -0.378 OA
ENDBRANCH  26  27
ENDBRANCH  15  16
ENDBRANCH   7  15
ENDBRANCH   3   6
ENDBRANCH   1   2
BRANCH   1  33
ATOM     33  C   UNL A   1      32.394  27.839  26.858  1.00  0.00     0.042 C 
BRANCH  33  34
ATOM     34  C   UNL A   1      33.715  28.594  26.826  1.00  0.00     0.118 C 
BRANCH  34  35
ATOM     35  N   UNL A   1      33.618  29.925  27.412  1.00  0.00    -0.352 N 
ATOM     36  C   UNL A   1      34.514  30.613  28.194  1.00  0.00     0.251 C 
ATOM     37  H   UNL A   1      32.781  30.406  27.218  1.00  0.00     0.163 HD
ATOM     38  O   UNL A   1      34.174  31.647  28.756  1.00  0.00    -0.269 OA
BRANCH  36  39
ATOM     39  C   UNL A   1      35.888  30.096  28.372  1.00  0.00     0.039 A 
ATOM     40  C   UNL A   1      36.262  29.464  29.559  1.00  0.00     0.014 A 
ATOM     41  C   UNL A   1      36.813  30.232  27.332  1.00  0.00     0.014 A 
ATOM     42  C   UNL A   1      37.593  29.124  29.770  1.00  0.00     0.010 A 
ATOM     43  C   UNL A   1      38.131  29.800  27.511  1.00  0.00     0.010 A 
ATOM     44  C   UNL A   1      38.543  29.283  28.748  1.00  0.00    -0.014 A 
BRANCH  44  45
ATOM     45  C   UNL A   1      39.953  28.880  29.000  1.00  0.00     0.031 A 
ATOM     46  C   UNL A   1      40.890  29.775  29.762  1.00  0.00     0.074 A 
ATOM     47  C   UNL A   1      40.367  27.664  28.590  1.00  0.00     0.049 A 
ATOM     48  N   UNL A   1      42.128  29.545  30.127  1.00  0.00    -0.248 NA
ATOM     49  C   UNL A   1      40.386  31.097  30.169  1.00  0.00     0.031 C 
ATOM     50  C   UNL A   1      39.547  26.701  27.852  1.00  0.00     0.029 A 
ATOM     51  N   UNL A   1      41.564  27.013  28.766  1.00  0.00    -0.354 N 
ATOM     52  C   UNL A   1      42.550  30.691  30.790  1.00  0.00     0.074 A 
ATOM     53  C   UNL A   1      41.453  31.631  30.749  1.00  0.00     0.031 C 
ATOM     54  C   UNL A   1      40.235  25.562  27.703  1.00  0.00     0.029 A 
ATOM     55  C   UNL A   1      41.571  25.734  28.264  1.00  0.00     0.049 A 
ATOM     56  H   UNL A   1      42.342  27.423  29.208  1.00  0.00     0.167 HD
ATOM     57  C   UNL A   1      43.740  30.929  31.390  1.00  0.00     0.031 A 
ATOM     58  C   UNL A   1      42.541  24.799  28.247  1.00  0.00     0.031 A 
ATOM     59  C   UNL A   1      44.829  29.987  31.434  1.00  0.00     0.049 A 
ATOM     60  C   UNL A   1      43.868  25.109  28.877  1.00  0.00     0.074 A 
ATOM     61  C   UNL A   1      46.065  30.137  32.040  1.00  0.00     0.029 A 
ATOM     62  N   UNL A   1      44.816  28.729  30.855  1.00  0.00    -0.354 N 
ATOM     63  N   UNL A   1      44.240  26.188  29.522  1.00  0.00    -0.248 NA
ATOM     64  C   UNL A   1      44.909  24.076  28.783  1.00  0.00     0.031 C 
ATOM     65  C   UNL A   1      46.825  29.000  31.766  1.00  0.00     0.029 A 
ATOM     66  C   UNL A   1      46.034  28.104  31.064  1.00  0.00     0.049 A 
ATOM     67  H   UNL A   1      44.055  28.336  30.368  1.00  0.00     0.167 HD
ATOM     68  C   UNL A   1      45.546  25.956  29.929  1.00  0.00     0.074 A 
ATOM     69  C   UNL A   1      45.898  24.627  29.475  1.00  0.00     0.031 C 
ATOM     70  C   UNL A   1      46.377  26.778  30.615  1.00  0.00     0.031 A 
BRANCH  57  71
ATOM     71  C   UNL A   1      43.950  32.264  32.054  1.00  0.00    -0.014 A 
ATOM     72  C   UNL A   1      43.553  32.450  33.389  1.00  0.00     0.009 A 
ATOM     73  C   UNL A   1      44.430  33.367  31.332  1.00  0.00     0.009 A 
ATOM     74  C   UNL A   1      43.611  33.713  33.980  1.00  0.00     0.001 A 
ATOM     75  C   UNL A   1      44.518  34.624  31.934  1.00  0.00     0.001 A 
ATOM     76  C   UNL A   1      44.096  34.799  33.253  1.00  0.00     0.000 A 
ENDBRANCH  57  71
BRANCH  58  77
ATOM     77  C   UNL A   1      42.267  23.477  27.620  1.00  0.00    -0.014 A 
ATOM     78  C   UNL A   1      42.607  23.239  26.277  1.00  0.00     0.009 A 
ATOM     79  C   UNL A   1      41.612  22.467  28.339  1.00  0.00     0.009 A 
ATOM     80  C   UNL A   1      42.263  22.035  25.658  1.00  0.00     0.001 A 
ATOM     81  C   UNL A   1      41.303  21.248  27.728  1.00  0.00     0.001 A 
ATOM     82  C   UNL A   1      41.617  21.039  26.386  1.00  0.00     0.000 A 
ENDBRANCH  58  77
BRANCH  70  83
ATOM     83  C   UNL A   1      47.755  26.274  30.951  1.00  0.00    -0.014 A 
ATOM     84  C   UNL A   1      47.999  25.714  32.215  1.00  0.00     0.009 A 
ATOM     85  C   UNL A   1      48.833  26.464  30.074  1.00  0.00     0.009 A 
ATOM     86  C   UNL A   1      49.296  25.378  32.605  1.00  0.00     0.001 A 
ATOM     87  C   UNL A   1      50.125  26.095  30.453  1.00  0.00     0.001 A 
ATOM     88  C   UNL A   1      50.357  25.565  31.722  1.00  0.00     0.000 A 
ENDBRANCH  70  83
ENDBRANCH  44  45
ENDBRANCH  36  39
ENDBRANCH  34  35
ENDBRANCH  33  34
ENDBRANCH   1  33
TORSDOF 13
ENDMDL
