MODEL 1
REMARK VINA RESULT:     -12.1      0.000      0.000
REMARK SMILES O=C(NCCCNC(=O)c1cc(NC(=O)c2ccccc2Cl)ccc1N1CCC[C@H](C[NH+]2CCCC2)C1)c1ccc(-c2c3nc(c(-c4ccccc4)c4ccc([nH]4)c(-c4ccccc4)c4nc(c(-c5ccccc5)c5ccc2[nH]5)C=C4)C=C3)cc1
REMARK SMILES IDX 5 1 4 2 3 3 1 4 2 5 38 7 39 8 85 9 40 10 84 11 41 12 42 13
REMARK SMILES IDX 43 14 78 15 44 16 83 17 77 18 79 19 45 20 82 21 76 22 75 23
REMARK SMILES IDX 46 25 68 26 53 27 67 28 54 29 57 30 66 31 80 32 55 33 56 34
REMARK SMILES IDX 65 36 81 37 58 38 47 39 48 40 52 41 49 42 51 43 50 44 69 45
REMARK SMILES IDX 70 46 74 47 71 48 73 49 72 50 59 51 60 52 64 53 61 54 63 55
REMARK SMILES IDX 62 56 6 57 7 58 8 59 9 61 10 62 11 63 25 64 12 65 24 66
REMARK SMILES IDX 23 67 26 68 27 69 37 70 28 71 30 72 29 73 31 74 32 75 33 76
REMARK SMILES IDX 36 77 34 79 35 80 13 81 14 82 15 84 16 85 17 86 21 87 18 88
REMARK SMILES IDX 20 89 22 90 19 91
REMARK H PARENT 3 6 79 24 57 35 7 60 32 78 13 83
REMARK Flexibility Score: inf
ROOT
ATOM      1  C   UNL A   1      32.541  28.404  27.626  1.00  0.00     0.042 C 
ENDROOT
BRANCH   1   2
ATOM      2  C   UNL A   1      33.520  29.445  27.101  1.00  0.00     0.118 C 
BRANCH   2   3
ATOM      3  N   UNL A   1      33.725  30.587  27.988  1.00  0.00    -0.352 N 
ATOM      4  O   UNL A   1      34.689  31.953  29.494  1.00  0.00    -0.269 OA
ATOM      5  C   UNL A   1      34.802  30.987  28.751  1.00  0.00     0.251 C 
ATOM      6  H   UNL A   1      32.945  31.186  28.055  1.00  0.00     0.163 HD
BRANCH   5   7
ATOM      7  C   UNL A   1      36.074  30.226  28.727  1.00  0.00     0.039 A 
ATOM      8  C   UNL A   1      36.479  29.471  29.820  1.00  0.00     0.014 A 
ATOM      9  C   UNL A   1      36.892  30.286  27.594  1.00  0.00     0.014 A 
ATOM     10  C   UNL A   1      37.793  29.033  29.902  1.00  0.00     0.010 A 
ATOM     11  C   UNL A   1      38.164  29.699  27.617  1.00  0.00     0.010 A 
ATOM     12  C   UNL A   1      38.657  29.134  28.801  1.00  0.00    -0.014 A 
BRANCH  12  13
ATOM     13  C   UNL A   1      40.053  28.632  28.940  1.00  0.00     0.031 A 
ATOM     14  C   UNL A   1      40.435  27.241  28.499  1.00  0.00     0.074 A 
ATOM     15  C   UNL A   1      41.007  29.478  29.380  1.00  0.00     0.049 A 
ATOM     16  N   UNL A   1      41.623  26.686  28.470  1.00  0.00    -0.248 NA
ATOM     17  C   UNL A   1      39.355  26.353  28.042  1.00  0.00     0.031 C 
ATOM     18  C   UNL A   1      40.772  30.850  29.841  1.00  0.00     0.029 A 
ATOM     19  N   UNL A   1      42.369  29.335  29.458  1.00  0.00    -0.354 N 
ATOM     20  C   UNL A   1      41.425  25.379  28.041  1.00  0.00     0.074 A 
ATOM     21  C   UNL A   1      40.004  25.216  27.830  1.00  0.00     0.031 C 
ATOM     22  C   UNL A   1      41.950  31.454  30.047  1.00  0.00     0.029 A 
ATOM     23  C   UNL A   1      43.020  30.489  29.823  1.00  0.00     0.049 A 
ATOM     24  H   UNL A   1      42.835  28.488  29.271  1.00  0.00     0.167 HD
ATOM     25  C   UNL A   1      42.342  24.403  27.838  1.00  0.00     0.031 A 
ATOM     26  C   UNL A   1      44.331  30.752  29.965  1.00  0.00     0.031 A 
ATOM     27  C   UNL A   1      43.761  24.569  28.012  1.00  0.00     0.049 A 
ATOM     28  C   UNL A   1      45.324  29.656  29.724  1.00  0.00     0.074 A 
ATOM     29  C   UNL A   1      44.771  23.647  27.796  1.00  0.00     0.029 A 
ATOM     30  N   UNL A   1      44.373  25.738  28.436  1.00  0.00    -0.354 N 
ATOM     31  N   UNL A   1      45.114  28.431  29.310  1.00  0.00    -0.248 NA
ATOM     32  C   UNL A   1      46.734  29.979  29.979  1.00  0.00     0.031 C 
ATOM     33  C   UNL A   1      45.991  24.246  28.131  1.00  0.00     0.029 A 
ATOM     34  C   UNL A   1      45.744  25.556  28.508  1.00  0.00     0.049 A 
ATOM     35  H   UNL A   1      43.902  26.575  28.655  1.00  0.00     0.167 HD
ATOM     36  C   UNL A   1      46.367  27.837  29.249  1.00  0.00     0.074 A 
ATOM     37  C   UNL A   1      47.330  28.845  29.640  1.00  0.00     0.031 C 
ATOM     38  C   UNL A   1      46.687  26.566  28.905  1.00  0.00     0.031 A 
BRANCH  25  39
ATOM     39  C   UNL A   1      41.835  23.044  27.437  1.00  0.00    -0.014 A 
ATOM     40  C   UNL A   1      41.639  22.699  26.091  1.00  0.00     0.009 A 
ATOM     41  C   UNL A   1      41.589  22.078  28.427  1.00  0.00     0.009 A 
ATOM     42  C   UNL A   1      41.178  21.425  25.748  1.00  0.00     0.001 A 
ATOM     43  C   UNL A   1      41.153  20.799  28.080  1.00  0.00     0.001 A 
ATOM     44  C   UNL A   1      40.940  20.476  26.742  1.00  0.00     0.000 A 
ENDBRANCH  25  39
BRANCH  26  45
ATOM     45  C   UNL A   1      44.773  32.112  30.365  1.00  0.00    -0.014 A 
ATOM     46  C   UNL A   1      44.986  32.424  31.716  1.00  0.00     0.009 A 
ATOM     47  C   UNL A   1      45.005  33.099  29.394  1.00  0.00     0.009 A 
ATOM     48  C   UNL A   1      45.409  33.704  32.086  1.00  0.00     0.001 A 
ATOM     49  C   UNL A   1      45.457  34.366  29.764  1.00  0.00     0.001 A 
ATOM     50  C   UNL A   1      45.651  34.669  31.110  1.00  0.00     0.000 A 
ENDBRANCH  26  45
BRANCH  38  51
ATOM     51  C   UNL A   1      48.145  26.212  28.916  1.00  0.00    -0.014 A 
ATOM     52  C   UNL A   1      48.760  25.708  30.073  1.00  0.00     0.009 A 
ATOM     53  C   UNL A   1      48.909  26.375  27.752  1.00  0.00     0.009 A 
ATOM     54  C   UNL A   1      50.125  25.410  30.072  1.00  0.00     0.001 A 
ATOM     55  C   UNL A   1      50.267  26.053  27.747  1.00  0.00     0.001 A 
ATOM     56  C   UNL A   1      50.875  25.581  28.909  1.00  0.00     0.000 A 
ENDBRANCH  38  51
ENDBRANCH  12  13
ENDBRANCH   5   7
ENDBRANCH   2   3
ENDBRANCH   1   2
BRANCH   1  57
ATOM     57  C   UNL A   1      32.360  27.213  26.706  1.00  0.00     0.118 C 
BRANCH  57  58
ATOM     58  N   UNL A   1      30.979  26.864  26.444  1.00  0.00    -0.352 N 
ATOM     59  C   UNL A   1      30.490  25.787  25.747  1.00  0.00     0.253 C 
ATOM     60  H   UNL A   1      30.304  27.478  26.814  1.00  0.00     0.163 HD
ATOM     61  O   UNL A   1      29.278  25.579  25.750  1.00  0.00    -0.269 OA
BRANCH  59  62
ATOM     62  C   UNL A   1      31.379  24.950  24.906  1.00  0.00     0.065 A 
ATOM     63  C   UNL A   1      31.548  23.654  25.425  1.00  0.00     0.042 A 
ATOM     64  C   UNL A   1      31.994  25.340  23.701  1.00  0.00     0.050 A 
ATOM     65  C   UNL A   1      32.216  22.666  24.715  1.00  0.00     0.042 A 
ATOM     66  C   UNL A   1      32.710  24.336  23.021  1.00  0.00     0.029 A 
ATOM     67  C   UNL A   1      32.819  23.025  23.512  1.00  0.00     0.028 A 
BRANCH  64  68
ATOM     68  N   UNL A   1      32.023  26.636  23.190  1.00  0.00    -0.370 N 
ATOM     69  C   UNL A   1      33.205  27.480  23.410  1.00  0.00     0.116 C 
ATOM     70  C   UNL A   1      31.074  27.000  22.135  1.00  0.00     0.126 C 
ATOM     71  C   UNL A   1      32.863  28.966  23.387  1.00  0.00     0.022 C 
ATOM     72  C   UNL A   1      30.648  28.465  22.265  1.00  0.00     0.064 C 
ATOM     73  C   UNL A   1      31.918  29.325  22.244  1.00  0.00     0.013 C 
BRANCH  72  74
ATOM     74  C   UNL A   1      29.737  28.621  23.510  1.00  0.00     0.267 C 
BRANCH  74  75
ATOM     75  N   UNL A   1      28.647  29.599  23.489  1.00  0.00    -0.335 N 
ATOM     76  C   UNL A   1      27.677  29.414  22.413  1.00  0.00     0.262 C 
ATOM     77  C   UNL A   1      29.036  31.004  23.507  1.00  0.00     0.262 C 
ATOM     78  H   UNL A   1      28.210  29.385  24.385  1.00  0.00     0.348 HD
ATOM     79  C   UNL A   1      28.030  30.455  21.370  1.00  0.00     0.067 C 
ATOM     80  C   UNL A   1      28.602  31.607  22.175  1.00  0.00     0.067 C 
ENDBRANCH  74  75
ENDBRANCH  72  74
ENDBRANCH  64  68
BRANCH  65  81
ATOM     81  N   UNL A   1      32.331  21.327  25.137  1.00  0.00    -0.322 N 
ATOM     82  C   UNL A   1      33.431  20.552  25.449  1.00  0.00     0.257 C 
ATOM     83  H   UNL A   1      31.470  20.858  25.226  1.00  0.00     0.170 HD
ATOM     84  O   UNL A   1      33.306  19.345  25.646  1.00  0.00    -0.269 OA
BRANCH  82  85
ATOM     85  C   UNL A   1      34.774  21.143  25.572  1.00  0.00     0.058 A 
ATOM     86  C   UNL A   1      35.734  20.756  24.626  1.00  0.00     0.015 A 
ATOM     87  C   UNL A   1      35.087  22.105  26.541  1.00  0.00     0.053 A 
ATOM     88  C   UNL A   1      36.976  21.392  24.597  1.00  0.00     0.001 A 
ATOM     89  C   UNL A   1      36.332  22.742  26.500  1.00  0.00     0.021 A 
ATOM     90  Cl  UNL A   1      33.984  22.575  27.784  1.00  0.00    -0.083 Cl
ATOM     91  C   UNL A   1      37.268  22.395  25.521  1.00  0.00     0.002 A 
ENDBRANCH  82  85
ENDBRANCH  65  81
ENDBRANCH  59  62
ENDBRANCH  57  58
ENDBRANCH   1  57
TORSDOF 15
ENDMDL
MODEL 2
REMARK VINA RESULT:     -12.0      2.304      8.452
REMARK SMILES O=C(NCCCNC(=O)c1cc(NC(=O)c2ccccc2Cl)ccc1N1CCC[C@H](C[NH+]2CCCC2)C1)c1ccc(-c2c3nc(c(-c4ccccc4)c4ccc([nH]4)c(-c4ccccc4)c4nc(c(-c5ccccc5)c5ccc2[nH]5)C=C4)C=C3)cc1
REMARK SMILES IDX 5 1 4 2 3 3 1 4 2 5 38 7 39 8 85 9 40 10 84 11 41 12 42 13
REMARK SMILES IDX 43 14 78 15 44 16 83 17 77 18 79 19 45 20 82 21 76 22 75 23
REMARK SMILES IDX 46 25 68 26 53 27 67 28 54 29 57 30 66 31 80 32 55 33 56 34
REMARK SMILES IDX 65 36 81 37 58 38 47 39 48 40 52 41 49 42 51 43 50 44 69 45
REMARK SMILES IDX 70 46 74 47 71 48 73 49 72 50 59 51 60 52 64 53 61 54 63 55
REMARK SMILES IDX 62 56 6 57 7 58 8 59 9 61 10 62 11 63 25 64 12 65 24 66
REMARK SMILES IDX 23 67 26 68 27 69 37 70 28 71 30 72 29 73 31 74 32 75 33 76
REMARK SMILES IDX 36 77 34 79 35 80 13 81 14 82 15 84 16 85 17 86 21 87 18 88
REMARK SMILES IDX 20 89 22 90 19 91
REMARK H PARENT 3 6 79 24 57 35 7 60 32 78 13 83
REMARK Flexibility Score: inf
ROOT
ATOM      1  C   UNL A   1      37.458  21.648  24.523  1.00  0.00     0.042 C 
ENDROOT
BRANCH   1   2
ATOM      2  C   UNL A   1      38.035  21.102  25.822  1.00  0.00     0.118 C 
BRANCH   2   3
ATOM      3  N   UNL A   1      39.038  20.054  25.648  1.00  0.00    -0.352 N 
ATOM      4  O   UNL A   1      41.040  19.029  25.587  1.00  0.00    -0.269 OA
ATOM      5  C   UNL A   1      40.391  20.015  25.913  1.00  0.00     0.251 C 
ATOM      6  H   UNL A   1      38.681  19.219  25.268  1.00  0.00     0.163 HD
BRANCH   5   7
ATOM      7  C   UNL A   1      41.079  21.172  26.532  1.00  0.00     0.039 A 
ATOM      8  C   UNL A   1      41.170  21.298  27.912  1.00  0.00     0.014 A 
ATOM      9  C   UNL A   1      41.627  22.167  25.716  1.00  0.00     0.014 A 
ATOM     10  C   UNL A   1      41.527  22.517  28.468  1.00  0.00     0.010 A 
ATOM     11  C   UNL A   1      42.142  23.337  26.287  1.00  0.00     0.010 A 
ATOM     12  C   UNL A   1      42.025  23.557  27.666  1.00  0.00    -0.014 A 
BRANCH  12  13
ATOM     13  C   UNL A   1      42.409  24.840  28.319  1.00  0.00     0.031 A 
ATOM     14  C   UNL A   1      43.852  25.178  28.599  1.00  0.00     0.074 A 
ATOM     15  C   UNL A   1      41.449  25.754  28.572  1.00  0.00     0.049 A 
ATOM     16  N   UNL A   1      44.357  26.289  29.077  1.00  0.00    -0.248 NA
ATOM     17  C   UNL A   1      44.858  24.142  28.319  1.00  0.00     0.031 C 
ATOM     18  C   UNL A   1      40.013  25.554  28.352  1.00  0.00     0.029 A 
ATOM     19  N   UNL A   1      41.535  27.050  29.013  1.00  0.00    -0.354 N 
ATOM     20  C   UNL A   1      45.724  26.068  29.200  1.00  0.00     0.074 A 
ATOM     21  C   UNL A   1      45.972  24.714  28.756  1.00  0.00     0.031 C 
ATOM     22  C   UNL A   1      39.370  26.712  28.552  1.00  0.00     0.029 A 
ATOM     23  C   UNL A   1      40.331  27.712  29.002  1.00  0.00     0.049 A 
ATOM     24  H   UNL A   1      42.377  27.465  29.309  1.00  0.00     0.167 HD
ATOM     25  C   UNL A   1      46.687  26.914  29.639  1.00  0.00     0.031 A 
ATOM     26  C   UNL A   1      40.023  28.982  29.319  1.00  0.00     0.031 A 
ATOM     27  C   UNL A   1      46.452  28.273  30.049  1.00  0.00     0.049 A 
ATOM     28  C   UNL A   1      41.109  29.899  29.791  1.00  0.00     0.074 A 
ATOM     29  C   UNL A   1      47.370  29.217  30.476  1.00  0.00     0.029 A 
ATOM     30  N   UNL A   1      45.209  28.886  30.075  1.00  0.00    -0.354 N 
ATOM     31  N   UNL A   1      42.395  29.670  29.891  1.00  0.00    -0.248 NA
ATOM     32  C   UNL A   1      40.698  31.247  30.205  1.00  0.00     0.031 C 
ATOM     33  C   UNL A   1      46.677  30.389  30.800  1.00  0.00     0.029 A 
ATOM     34  C   UNL A   1      45.333  30.189  30.529  1.00  0.00     0.049 A 
ATOM     35  H   UNL A   1      44.362  28.458  29.810  1.00  0.00     0.167 HD
ATOM     36  C   UNL A   1      42.949  30.847  30.372  1.00  0.00     0.074 A 
ATOM     37  C   UNL A   1      41.863  31.795  30.517  1.00  0.00     0.031 C 
ATOM     38  C   UNL A   1      44.243  31.115  30.673  1.00  0.00     0.031 A 
BRANCH  25  39
ATOM     39  C   UNL A   1      48.090  26.380  29.737  1.00  0.00    -0.014 A 
ATOM     40  C   UNL A   1      48.994  26.483  28.668  1.00  0.00     0.009 A 
ATOM     41  C   UNL A   1      48.527  25.801  30.940  1.00  0.00     0.009 A 
ATOM     42  C   UNL A   1      50.295  25.990  28.791  1.00  0.00     0.001 A 
ATOM     43  C   UNL A   1      49.835  25.330  31.069  1.00  0.00     0.001 A 
ATOM     44  C   UNL A   1      50.715  25.417  29.992  1.00  0.00     0.000 A 
ENDBRANCH  25  39
BRANCH  26  45
ATOM     45  C   UNL A   1      38.619  29.453  29.205  1.00  0.00    -0.014 A 
ATOM     46  C   UNL A   1      38.139  29.983  27.998  1.00  0.00     0.009 A 
ATOM     47  C   UNL A   1      37.745  29.355  30.300  1.00  0.00     0.009 A 
ATOM     48  C   UNL A   1      36.815  30.418  27.896  1.00  0.00     0.001 A 
ATOM     49  C   UNL A   1      36.415  29.762  30.185  1.00  0.00     0.001 A 
ATOM     50  C   UNL A   1      35.954  30.301  28.986  1.00  0.00     0.000 A 
ENDBRANCH  26  45
BRANCH  38  51
ATOM     51  C   UNL A   1      44.548  32.499  31.166  1.00  0.00    -0.014 A 
ATOM     52  C   UNL A   1      44.873  33.532  30.273  1.00  0.00     0.009 A 
ATOM     53  C   UNL A   1      44.499  32.775  32.540  1.00  0.00     0.009 A 
ATOM     54  C   UNL A   1      45.181  34.807  30.752  1.00  0.00     0.001 A 
ATOM     55  C   UNL A   1      44.782  34.056  33.015  1.00  0.00     0.001 A 
ATOM     56  C   UNL A   1      45.133  35.068  32.122  1.00  0.00     0.000 A 
ENDBRANCH  38  51
ENDBRANCH  12  13
ENDBRANCH   5   7
ENDBRANCH   2   3
ENDBRANCH   1   2
BRANCH   1  57
ATOM     57  C   UNL A   1      36.309  22.615  24.721  1.00  0.00     0.118 C 
BRANCH  57  58
ATOM     58  N   UNL A   1      35.638  23.004  23.497  1.00  0.00    -0.352 N 
ATOM     59  C   UNL A   1      34.324  23.364  23.324  1.00  0.00     0.253 C 
ATOM     60  H   UNL A   1      36.195  23.011  22.686  1.00  0.00     0.163 HD
ATOM     61  O   UNL A   1      33.968  23.801  22.230  1.00  0.00    -0.269 OA
BRANCH  59  62
ATOM     62  C   UNL A   1      33.317  23.127  24.386  1.00  0.00     0.065 A 
ATOM     63  C   UNL A   1      33.100  24.263  25.185  1.00  0.00     0.042 A 
ATOM     64  C   UNL A   1      32.605  21.932  24.606  1.00  0.00     0.050 A 
ATOM     65  C   UNL A   1      32.089  24.303  26.137  1.00  0.00     0.042 A 
ATOM     66  C   UNL A   1      31.619  21.979  25.610  1.00  0.00     0.029 A 
ATOM     67  C   UNL A   1      31.362  23.137  26.360  1.00  0.00     0.028 A 
BRANCH  64  68
ATOM     68  N   UNL A   1      32.860  20.712  23.983  1.00  0.00    -0.370 N 
ATOM     69  C   UNL A   1      32.207  20.397  22.705  1.00  0.00     0.116 C 
ATOM     70  C   UNL A   1      34.039  19.945  24.390  1.00  0.00     0.126 C 
ATOM     71  C   UNL A   1      32.058  18.894  22.492  1.00  0.00     0.022 C 
ATOM     72  C   UNL A   1      33.769  18.440  24.304  1.00  0.00     0.064 C 
ATOM     73  C   UNL A   1      33.322  18.126  22.870  1.00  0.00     0.013 C 
BRANCH  72  74
ATOM     74  C   UNL A   1      32.784  18.036  25.432  1.00  0.00     0.267 C 
BRANCH  74  75
ATOM     75  N   UNL A   1      33.024  16.807  26.193  1.00  0.00    -0.335 N 
ATOM     76  C   UNL A   1      34.301  16.153  25.917  1.00  0.00     0.262 C 
ATOM     77  C   UNL A   1      31.977  15.793  26.134  1.00  0.00     0.262 C 
ATOM     78  H   UNL A   1      33.033  17.192  27.137  1.00  0.00     0.348 HD
ATOM     79  C   UNL A   1      33.967  14.990  25.005  1.00  0.00     0.067 C 
ATOM     80  C   UNL A   1      32.567  14.580  25.423  1.00  0.00     0.067 C 
ENDBRANCH  74  75
ENDBRANCH  72  74
ENDBRANCH  64  68
BRANCH  65  81
ATOM     81  N   UNL A   1      31.760  25.443  26.895  1.00  0.00    -0.322 N 
ATOM     82  C   UNL A   1      31.397  26.722  26.522  1.00  0.00     0.257 C 
ATOM     83  H   UNL A   1      31.796  25.303  27.869  1.00  0.00     0.170 HD
ATOM     84  O   UNL A   1      31.306  27.614  27.364  1.00  0.00    -0.269 OA
BRANCH  82  85
ATOM     85  C   UNL A   1      31.092  27.054  25.120  1.00  0.00     0.058 A 
ATOM     86  C   UNL A   1      29.822  26.701  24.640  1.00  0.00     0.015 A 
ATOM     87  C   UNL A   1      31.985  27.755  24.301  1.00  0.00     0.053 A 
ATOM     88  C   UNL A   1      29.418  27.121  23.372  1.00  0.00     0.001 A 
ATOM     89  C   UNL A   1      31.570  28.178  23.034  1.00  0.00     0.021 A 
ATOM     90  Cl  UNL A   1      33.591  28.157  24.796  1.00  0.00    -0.083 Cl
ATOM     91  C   UNL A   1      30.283  27.874  22.578  1.00  0.00     0.002 A 
ENDBRANCH  82  85
ENDBRANCH  65  81
ENDBRANCH  59  62
ENDBRANCH  57  58
ENDBRANCH   1  57
TORSDOF 15
ENDMDL
MODEL 3
REMARK VINA RESULT:     -12.0      0.936      5.630
REMARK SMILES O=C(NCCCNC(=O)c1cc(NC(=O)c2ccccc2Cl)ccc1N1CCC[C@H](C[NH+]2CCCC2)C1)c1ccc(-c2c3nc(c(-c4ccccc4)c4ccc([nH]4)c(-c4ccccc4)c4nc(c(-c5ccccc5)c5ccc2[nH]5)C=C4)C=C3)cc1
REMARK SMILES IDX 5 1 4 2 3 3 1 4 2 5 38 7 39 8 85 9 40 10 84 11 41 12 42 13
REMARK SMILES IDX 43 14 78 15 44 16 83 17 77 18 79 19 45 20 82 21 76 22 75 23
REMARK SMILES IDX 46 25 68 26 53 27 67 28 54 29 57 30 66 31 80 32 55 33 56 34
REMARK SMILES IDX 65 36 81 37 58 38 47 39 48 40 52 41 49 42 51 43 50 44 69 45
REMARK SMILES IDX 70 46 74 47 71 48 73 49 72 50 59 51 60 52 64 53 61 54 63 55
REMARK SMILES IDX 62 56 6 57 7 58 8 59 9 61 10 62 11 63 25 64 12 65 24 66
REMARK SMILES IDX 23 67 26 68 27 69 37 70 28 71 30 72 29 73 31 74 32 75 33 76
REMARK SMILES IDX 36 77 34 79 35 80 13 81 14 82 15 84 16 85 17 86 21 87 18 88
REMARK SMILES IDX 20 89 22 90 19 91
REMARK H PARENT 3 6 79 24 57 35 7 60 32 78 13 83
REMARK Flexibility Score: inf
ROOT
ATOM      1  C   UNL A   1      32.223  28.259  27.645  1.00  0.00     0.042 C 
ENDROOT
BRANCH   1   2
ATOM      2  C   UNL A   1      33.400  29.093  27.158  1.00  0.00     0.118 C 
BRANCH   2   3
ATOM      3  N   UNL A   1      33.555  30.378  27.835  1.00  0.00    -0.352 N 
ATOM      4  O   UNL A   1      34.471  32.033  29.055  1.00  0.00    -0.269 OA
ATOM      5  C   UNL A   1      34.626  30.963  28.479  1.00  0.00     0.251 C 
ATOM      6  H   UNL A   1      32.741  30.932  27.831  1.00  0.00     0.163 HD
BRANCH   5   7
ATOM      7  C   UNL A   1      35.942  30.286  28.533  1.00  0.00     0.039 A 
ATOM      8  C   UNL A   1      36.356  29.610  29.674  1.00  0.00     0.014 A 
ATOM      9  C   UNL A   1      36.795  30.345  27.426  1.00  0.00     0.014 A 
ATOM     10  C   UNL A   1      37.690  29.262  29.820  1.00  0.00     0.010 A 
ATOM     11  C   UNL A   1      38.099  29.843  27.518  1.00  0.00     0.010 A 
ATOM     12  C   UNL A   1      38.585  29.367  28.743  1.00  0.00    -0.014 A 
BRANCH  12  13
ATOM     13  C   UNL A   1      40.004  28.963  28.951  1.00  0.00     0.031 A 
ATOM     14  C   UNL A   1      40.959  29.825  29.738  1.00  0.00     0.074 A 
ATOM     15  C   UNL A   1      40.408  27.755  28.505  1.00  0.00     0.049 A 
ATOM     16  N   UNL A   1      42.198  29.572  30.084  1.00  0.00    -0.248 NA
ATOM     17  C   UNL A   1      40.474  31.139  30.187  1.00  0.00     0.031 C 
ATOM     18  C   UNL A   1      39.585  26.823  27.727  1.00  0.00     0.029 A 
ATOM     19  N   UNL A   1      41.586  27.077  28.690  1.00  0.00    -0.354 N 
ATOM     20  C   UNL A   1      42.651  30.708  30.744  1.00  0.00     0.074 A 
ATOM     21  C   UNL A   1      41.560  31.657  30.744  1.00  0.00     0.031 C 
ATOM     22  C   UNL A   1      40.238  25.661  27.597  1.00  0.00     0.029 A 
ATOM     23  C   UNL A   1      41.559  25.793  28.200  1.00  0.00     0.049 A 
ATOM     24  H   UNL A   1      42.373  27.471  29.129  1.00  0.00     0.167 HD
ATOM     25  C   UNL A   1      43.863  30.940  31.303  1.00  0.00     0.031 A 
ATOM     26  C   UNL A   1      42.489  24.823  28.226  1.00  0.00     0.031 A 
ATOM     27  C   UNL A   1      44.941  29.987  31.338  1.00  0.00     0.049 A 
ATOM     28  C   UNL A   1      43.817  25.103  28.860  1.00  0.00     0.074 A 
ATOM     29  C   UNL A   1      46.193  30.120  31.913  1.00  0.00     0.029 A 
ATOM     30  N   UNL A   1      44.891  28.719  30.781  1.00  0.00    -0.354 N 
ATOM     31  N   UNL A   1      44.220  26.181  29.486  1.00  0.00    -0.248 NA
ATOM     32  C   UNL A   1      44.822  24.035  28.781  1.00  0.00     0.031 C 
ATOM     33  C   UNL A   1      46.916  28.947  31.667  1.00  0.00     0.029 A 
ATOM     34  C   UNL A   1      46.096  28.066  30.981  1.00  0.00     0.049 A 
ATOM     35  H   UNL A   1      44.112  28.338  30.312  1.00  0.00     0.167 HD
ATOM     36  C   UNL A   1      45.523  25.920  29.882  1.00  0.00     0.074 A 
ATOM     37  C   UNL A   1      45.832  24.572  29.451  1.00  0.00     0.031 C 
ATOM     38  C   UNL A   1      46.389  26.729  30.540  1.00  0.00     0.031 A 
BRANCH  25  39
ATOM     39  C   UNL A   1      44.107  32.302  31.896  1.00  0.00    -0.014 A 
ATOM     40  C   UNL A   1      43.846  32.574  33.248  1.00  0.00     0.009 A 
ATOM     41  C   UNL A   1      44.647  33.319  31.092  1.00  0.00     0.009 A 
ATOM     42  C   UNL A   1      44.094  33.845  33.773  1.00  0.00     0.001 A 
ATOM     43  C   UNL A   1      44.917  34.580  31.625  1.00  0.00     0.001 A 
ATOM     44  C   UNL A   1      44.632  34.845  32.963  1.00  0.00     0.000 A 
ENDBRANCH  25  39
BRANCH  26  45
ATOM     45  C   UNL A   1      42.194  23.498  27.623  1.00  0.00    -0.014 A 
ATOM     46  C   UNL A   1      41.536  22.506  28.365  1.00  0.00     0.009 A 
ATOM     47  C   UNL A   1      42.551  23.226  26.292  1.00  0.00     0.009 A 
ATOM     48  C   UNL A   1      41.255  21.264  27.790  1.00  0.00     0.001 A 
ATOM     49  C   UNL A   1      42.242  21.996  25.711  1.00  0.00     0.001 A 
ATOM     50  C   UNL A   1      41.601  21.014  26.463  1.00  0.00     0.000 A 
ENDBRANCH  26  45
BRANCH  38  51
ATOM     51  C   UNL A   1      47.742  26.160  30.849  1.00  0.00    -0.014 A 
ATOM     52  C   UNL A   1      48.745  26.099  29.869  1.00  0.00     0.009 A 
ATOM     53  C   UNL A   1      48.019  25.687  32.141  1.00  0.00     0.009 A 
ATOM     54  C   UNL A   1      49.989  25.540  30.169  1.00  0.00     0.001 A 
ATOM     55  C   UNL A   1      49.271  25.152  32.444  1.00  0.00     0.001 A 
ATOM     56  C   UNL A   1      50.251  25.069  31.456  1.00  0.00     0.000 A 
ENDBRANCH  38  51
ENDBRANCH  12  13
ENDBRANCH   5   7
ENDBRANCH   2   3
ENDBRANCH   1   2
BRANCH   1  57
ATOM     57  C   UNL A   1      32.002  26.987  26.852  1.00  0.00     0.118 C 
BRANCH  57  58
ATOM     58  N   UNL A   1      30.629  26.768  26.445  1.00  0.00    -0.352 N 
ATOM     59  C   UNL A   1      30.123  25.755  25.667  1.00  0.00     0.253 C 
ATOM     60  H   UNL A   1      29.975  27.430  26.767  1.00  0.00     0.163 HD
ATOM     61  O   UNL A   1      28.903  25.655  25.544  1.00  0.00    -0.269 OA
BRANCH  59  62
ATOM     62  C   UNL A   1      31.018  24.865  24.890  1.00  0.00     0.065 A 
ATOM     63  C   UNL A   1      31.061  23.558  25.408  1.00  0.00     0.042 A 
ATOM     64  C   UNL A   1      31.748  25.218  23.738  1.00  0.00     0.050 A 
ATOM     65  C   UNL A   1      31.716  22.531  24.742  1.00  0.00     0.042 A 
ATOM     66  C   UNL A   1      32.447  24.172  23.107  1.00  0.00     0.029 A 
ATOM     67  C   UNL A   1      32.431  22.855  23.593  1.00  0.00     0.028 A 
BRANCH  64  68
ATOM     68  N   UNL A   1      31.902  26.512  23.243  1.00  0.00    -0.370 N 
ATOM     69  C   UNL A   1      33.142  27.251  23.509  1.00  0.00     0.116 C 
ATOM     70  C   UNL A   1      31.020  26.962  22.163  1.00  0.00     0.126 C 
ATOM     71  C   UNL A   1      32.925  28.762  23.492  1.00  0.00     0.022 C 
ATOM     72  C   UNL A   1      30.713  28.457  22.295  1.00  0.00     0.064 C 
ATOM     73  C   UNL A   1      32.051  29.208  22.323  1.00  0.00     0.013 C 
BRANCH  72  74
ATOM     74  C   UNL A   1      29.779  28.678  23.513  1.00  0.00     0.267 C 
BRANCH  74  75
ATOM     75  N   UNL A   1      28.719  29.685  23.435  1.00  0.00    -0.335 N 
ATOM     76  C   UNL A   1      27.776  29.500  22.335  1.00  0.00     0.262 C 
ATOM     77  C   UNL A   1      29.146  31.079  23.432  1.00  0.00     0.262 C 
ATOM     78  H   UNL A   1      28.249  29.505  24.323  1.00  0.00     0.348 HD
ATOM     79  C   UNL A   1      28.190  30.505  21.279  1.00  0.00     0.067 C 
ATOM     80  C   UNL A   1      28.770  31.661  22.074  1.00  0.00     0.067 C 
ENDBRANCH  74  75
ENDBRANCH  72  74
ENDBRANCH  64  68
BRANCH  65  81
ATOM     81  N   UNL A   1      31.710  21.186  25.160  1.00  0.00    -0.322 N 
ATOM     82  C   UNL A   1      32.733  20.328  25.512  1.00  0.00     0.257 C 
ATOM     83  H   UNL A   1      30.812  20.784  25.211  1.00  0.00     0.170 HD
ATOM     84  O   UNL A   1      32.508  19.133  25.696  1.00  0.00    -0.269 OA
BRANCH  82  85
ATOM     85  C   UNL A   1      34.112  20.813  25.695  1.00  0.00     0.058 A 
ATOM     86  C   UNL A   1      35.074  20.371  24.775  1.00  0.00     0.015 A 
ATOM     87  C   UNL A   1      34.460  21.732  26.693  1.00  0.00     0.053 A 
ATOM     88  C   UNL A   1      36.360  20.912  24.802  1.00  0.00     0.001 A 
ATOM     89  C   UNL A   1      35.750  22.273  26.709  1.00  0.00     0.021 A 
ATOM     90  Cl  UNL A   1      33.351  22.263  27.905  1.00  0.00    -0.083 Cl
ATOM     91  C   UNL A   1      36.692  21.874  25.756  1.00  0.00     0.002 A 
ENDBRANCH  82  85
ENDBRANCH  65  81
ENDBRANCH  59  62
ENDBRANCH  57  58
ENDBRANCH   1  57
TORSDOF 15
ENDMDL
