MODEL 1
REMARK VINA RESULT:     -12.1      0.000      0.000
REMARK SMILES Cc1ccc(Nc2c(C)cccc2Cl)c(CC(=O)NCCCNC(=O)c2ccc(-c3c4nc(c(-c5ccccc5)c5ccc([nH]5)c(-c5ccccc5)c5nc(c(-c6ccccc6)c6ccc3[nH]6)C=C5)C=C4)cc2)c1
REMARK SMILES IDX 20 1 19 2 17 3 18 4 16 6 15 7 1 8 2 9 3 10 74 11 4 12 5 13
REMARK SMILES IDX 6 14 7 16 8 17 13 18 9 19 10 20 12 21 14 22 11 23 21 24
REMARK SMILES IDX 22 25 23 26 24 27 25 29 26 30 27 31 73 32 28 33 72 34 29 35
REMARK SMILES IDX 30 36 31 37 66 38 32 39 71 40 65 41 67 42 33 43 70 44 64 45
REMARK SMILES IDX 63 46 34 48 56 49 41 50 55 51 42 52 45 53 54 54 68 55 43 56
REMARK SMILES IDX 44 57 53 59 69 60 46 61 35 62 36 63 40 64 37 65 39 66 38 67
REMARK SMILES IDX 57 68 58 69 62 70 59 71 61 72 60 73 47 74 48 75 52 76 49 77
REMARK SMILES IDX 51 78 50 79
REMARK H PARENT 19 5 6 15 23 28 67 47 45 58
REMARK Flexibility Score: inf
ROOT
ATOM      1  C   UNL A   1      31.874  30.135  25.780  1.00  0.00     0.117 C 
ENDROOT
BRANCH   1   2
ATOM      2  N   UNL A   1      32.951  29.893  24.831  1.00  0.00    -0.356 N 
ATOM      3  C   UNL A   1      33.229  28.767  24.110  1.00  0.00     0.224 C 
ATOM      4  O   UNL A   1      34.249  28.750  23.416  1.00  0.00    -0.275 OA
ATOM      5  H   UNL A   1      33.566  30.649  24.689  1.00  0.00     0.163 HD
BRANCH   3   6
ATOM      6  C   UNL A   1      32.326  27.544  24.178  1.00  0.00     0.137 C 
BRANCH   6   7
ATOM      7  C   UNL A   1      32.790  26.411  23.286  1.00  0.00    -0.015 A 
ATOM      8  C   UNL A   1      32.289  25.456  19.615  1.00  0.00     0.044 C 
ATOM      9  C   UNL A   1      32.724  25.415  21.048  1.00  0.00    -0.051 A 
ATOM     10  C   UNL A   1      33.358  24.282  21.553  1.00  0.00     0.005 A 
ATOM     11  C   UNL A   1      32.476  26.486  21.910  1.00  0.00     0.009 A 
ATOM     12  C   UNL A   1      33.728  24.221  22.898  1.00  0.00     0.026 A 
ATOM     13  C   UNL A   1      33.450  25.269  23.791  1.00  0.00     0.042 A 
BRANCH  13  14
ATOM     14  N   UNL A   1      33.867  25.200  25.139  1.00  0.00    -0.354 N 
ATOM     15  H   UNL A   1      34.232  26.035  25.513  1.00  0.00     0.167 HD
BRANCH  14  16
ATOM     16  C   UNL A   1      33.832  24.098  26.031  1.00  0.00     0.060 A 
ATOM     17  C   UNL A   1      34.967  23.289  26.268  1.00  0.00    -0.026 A 
ATOM     18  C   UNL A   1      32.612  23.739  26.648  1.00  0.00     0.064 A 
ATOM     19  C   UNL A   1      36.328  23.606  25.708  1.00  0.00     0.046 C 
ATOM     20  C   UNL A   1      34.841  22.133  27.063  1.00  0.00     0.005 A 
ATOM     21  C   UNL A   1      32.511  22.603  27.453  1.00  0.00     0.023 A 
ATOM     22  Cl  UNL A   1      31.175  24.675  26.394  1.00  0.00    -0.082 Cl
ATOM     23  C   UNL A   1      33.624  21.793  27.651  1.00  0.00     0.002 A 
ENDBRANCH  14  16
ENDBRANCH  13  14
ENDBRANCH   6   7
ENDBRANCH   3   6
ENDBRANCH   1   2
BRANCH   1  24
ATOM     24  C   UNL A   1      32.376  30.709  27.101  1.00  0.00     0.042 C 
BRANCH  24  25
ATOM     25  C   UNL A   1      33.864  30.532  27.346  1.00  0.00     0.118 C 
BRANCH  25  26
ATOM     26  N   UNL A   1      34.417  31.459  28.330  1.00  0.00    -0.352 N 
ATOM     27  C   UNL A   1      35.585  31.338  29.067  1.00  0.00     0.251 C 
ATOM     28  H   UNL A   1      33.892  32.276  28.489  1.00  0.00     0.163 HD
ATOM     29  O   UNL A   1      35.940  32.224  29.826  1.00  0.00    -0.269 OA
BRANCH  27  30
ATOM     30  C   UNL A   1      36.459  30.169  28.814  1.00  0.00     0.039 A 
ATOM     31  C   UNL A   1      36.685  29.288  29.875  1.00  0.00     0.014 A 
ATOM     32  C   UNL A   1      37.226  30.098  27.654  1.00  0.00     0.014 A 
ATOM     33  C   UNL A   1      37.844  28.520  29.878  1.00  0.00     0.010 A 
ATOM     34  C   UNL A   1      38.425  29.413  27.698  1.00  0.00     0.010 A 
ATOM     35  C   UNL A   1      38.765  28.687  28.844  1.00  0.00    -0.014 A 
BRANCH  35  36
ATOM     36  C   UNL A   1      40.159  28.274  28.962  1.00  0.00     0.031 A 
ATOM     37  C   UNL A   1      40.617  26.980  28.431  1.00  0.00     0.074 A 
ATOM     38  C   UNL A   1      41.056  29.111  29.526  1.00  0.00     0.049 A 
ATOM     39  N   UNL A   1      41.657  26.351  28.867  1.00  0.00    -0.248 NA
ATOM     40  C   UNL A   1      39.895  26.260  27.391  1.00  0.00     0.031 C 
ATOM     41  C   UNL A   1      42.512  29.008  29.504  1.00  0.00     0.029 A 
ATOM     42  N   UNL A   1      40.794  30.125  30.449  1.00  0.00    -0.354 N 
ATOM     43  C   UNL A   1      41.922  25.342  27.975  1.00  0.00     0.074 A 
ATOM     44  C   UNL A   1      40.743  25.257  27.143  1.00  0.00     0.031 C 
ATOM     45  C   UNL A   1      43.009  29.707  30.536  1.00  0.00     0.029 A 
ATOM     46  C   UNL A   1      41.884  30.152  31.341  1.00  0.00     0.049 A 
ATOM     47  H   UNL A   1      40.001  30.708  30.472  1.00  0.00     0.167 HD
ATOM     48  C   UNL A   1      43.169  24.792  27.938  1.00  0.00     0.031 A 
ATOM     49  C   UNL A   1      41.706  29.876  32.666  1.00  0.00     0.031 A 
ATOM     50  C   UNL A   1      44.047  25.311  28.990  1.00  0.00     0.049 A 
ATOM     51  C   UNL A   1      42.469  28.666  33.171  1.00  0.00     0.074 A 
ATOM     52  C   UNL A   1      45.136  26.169  29.013  1.00  0.00     0.029 A 
ATOM     53  N   UNL A   1      43.674  25.142  30.314  1.00  0.00    -0.354 N 
ATOM     54  N   UNL A   1      43.198  27.882  32.425  1.00  0.00    -0.248 NA
ATOM     55  C   UNL A   1      42.369  28.179  34.549  1.00  0.00     0.031 C 
ATOM     56  C   UNL A   1      45.424  26.493  30.370  1.00  0.00     0.029 A 
ATOM     57  C   UNL A   1      44.515  25.827  31.169  1.00  0.00     0.049 A 
ATOM     58  H   UNL A   1      42.906  24.601  30.609  1.00  0.00     0.167 HD
ATOM     59  C   UNL A   1      43.590  26.791  33.155  1.00  0.00     0.074 A 
ATOM     60  C   UNL A   1      43.056  27.026  34.484  1.00  0.00     0.031 C 
ATOM     61  C   UNL A   1      44.272  25.747  32.599  1.00  0.00     0.031 A 
BRANCH  48  62
ATOM     62  C   UNL A   1      43.669  23.965  26.774  1.00  0.00    -0.014 A 
ATOM     63  C   UNL A   1      44.479  24.562  25.791  1.00  0.00     0.009 A 
ATOM     64  C   UNL A   1      43.342  22.616  26.557  1.00  0.00     0.009 A 
ATOM     65  C   UNL A   1      44.839  23.891  24.614  1.00  0.00     0.001 A 
ATOM     66  C   UNL A   1      43.661  21.950  25.366  1.00  0.00     0.001 A 
ATOM     67  C   UNL A   1      44.400  22.595  24.386  1.00  0.00     0.000 A 
ENDBRANCH  48  62
BRANCH  49  68
ATOM     68  C   UNL A   1      40.375  30.306  33.183  1.00  0.00    -0.014 A 
ATOM     69  C   UNL A   1      40.108  31.687  33.290  1.00  0.00     0.009 A 
ATOM     70  C   UNL A   1      39.298  29.411  33.229  1.00  0.00     0.009 A 
ATOM     71  C   UNL A   1      38.795  32.162  33.325  1.00  0.00     0.001 A 
ATOM     72  C   UNL A   1      37.984  29.891  33.284  1.00  0.00     0.001 A 
ATOM     73  C   UNL A   1      37.732  31.263  33.294  1.00  0.00     0.000 A 
ENDBRANCH  49  68
BRANCH  61  74
ATOM     74  C   UNL A   1      44.729  24.521  33.348  1.00  0.00    -0.014 A 
ATOM     75  C   UNL A   1      43.871  23.475  33.711  1.00  0.00     0.009 A 
ATOM     76  C   UNL A   1      46.057  24.446  33.821  1.00  0.00     0.009 A 
ATOM     77  C   UNL A   1      44.336  22.376  34.448  1.00  0.00     0.001 A 
ATOM     78  C   UNL A   1      46.520  23.365  34.574  1.00  0.00     0.001 A 
ATOM     79  C   UNL A   1      45.661  22.320  34.877  1.00  0.00     0.000 A 
ENDBRANCH  61  74
ENDBRANCH  35  36
ENDBRANCH  27  30
ENDBRANCH  25  26
ENDBRANCH  24  25
ENDBRANCH   1  24
TORSDOF 13
ENDMDL
MODEL 2
REMARK VINA RESULT:     -12.0      1.246      2.099
REMARK SMILES Cc1ccc(Nc2c(C)cccc2Cl)c(CC(=O)NCCCNC(=O)c2ccc(-c3c4nc(c(-c5ccccc5)c5ccc([nH]5)c(-c5ccccc5)c5nc(c(-c6ccccc6)c6ccc3[nH]6)C=C5)C=C4)cc2)c1
REMARK SMILES IDX 20 1 19 2 17 3 18 4 16 6 15 7 1 8 2 9 3 10 74 11 4 12 5 13
REMARK SMILES IDX 6 14 7 16 8 17 13 18 9 19 10 20 12 21 14 22 11 23 21 24
REMARK SMILES IDX 22 25 23 26 24 27 25 29 26 30 27 31 73 32 28 33 72 34 29 35
REMARK SMILES IDX 30 36 31 37 66 38 32 39 71 40 65 41 67 42 33 43 70 44 64 45
REMARK SMILES IDX 63 46 34 48 56 49 41 50 55 51 42 52 45 53 54 54 68 55 43 56
REMARK SMILES IDX 44 57 53 59 69 60 46 61 35 62 36 63 40 64 37 65 39 66 38 67
REMARK SMILES IDX 57 68 58 69 62 70 59 71 61 72 60 73 47 74 48 75 52 76 49 77
REMARK SMILES IDX 51 78 50 79
REMARK H PARENT 19 5 6 15 23 28 67 47 45 58
REMARK Flexibility Score: inf
ROOT
ATOM      1  C   UNL A   1      32.138  30.264  25.487  1.00  0.00     0.117 C 
ENDROOT
BRANCH   1   2
ATOM      2  N   UNL A   1      33.216  29.405  25.021  1.00  0.00    -0.356 N 
ATOM      3  C   UNL A   1      33.326  28.723  23.843  1.00  0.00     0.224 C 
ATOM      4  O   UNL A   1      34.299  27.981  23.682  1.00  0.00    -0.275 OA
ATOM      5  H   UNL A   1      33.972  29.301  25.642  1.00  0.00     0.163 HD
BRANCH   3   6
ATOM      6  C   UNL A   1      32.265  28.842  22.758  1.00  0.00     0.137 C 
BRANCH   6   7
ATOM      7  C   UNL A   1      30.984  28.108  23.095  1.00  0.00    -0.015 A 
ATOM      8  C   UNL A   1      27.252  28.945  22.968  1.00  0.00     0.044 C 
ATOM      9  C   UNL A   1      28.539  28.213  23.202  1.00  0.00    -0.051 A 
ATOM     10  C   UNL A   1      28.534  26.994  23.877  1.00  0.00     0.005 A 
ATOM     11  C   UNL A   1      29.761  28.744  22.784  1.00  0.00     0.009 A 
ATOM     12  C   UNL A   1      29.732  26.326  24.136  1.00  0.00     0.026 A 
ATOM     13  C   UNL A   1      30.975  26.863  23.762  1.00  0.00     0.042 A 
BRANCH  13  14
ATOM     14  N   UNL A   1      32.173  26.152  24.001  1.00  0.00    -0.354 N 
ATOM     15  H   UNL A   1      32.889  26.665  24.441  1.00  0.00     0.167 HD
BRANCH  14  16
ATOM     16  C   UNL A   1      32.487  24.803  23.699  1.00  0.00     0.060 A 
ATOM     17  C   UNL A   1      32.768  24.375  22.381  1.00  0.00    -0.026 A 
ATOM     18  C   UNL A   1      32.445  23.831  24.725  1.00  0.00     0.064 A 
ATOM     19  C   UNL A   1      32.892  25.328  21.222  1.00  0.00     0.046 C 
ATOM     20  C   UNL A   1      32.947  23.003  22.121  1.00  0.00     0.005 A 
ATOM     21  C   UNL A   1      32.649  22.477  24.452  1.00  0.00     0.023 A 
ATOM     22  Cl  UNL A   1      32.092  24.277  26.362  1.00  0.00    -0.082 Cl
ATOM     23  C   UNL A   1      32.889  22.062  23.147  1.00  0.00     0.002 A 
ENDBRANCH  14  16
ENDBRANCH  13  14
ENDBRANCH   6   7
ENDBRANCH   3   6
ENDBRANCH   1   2
BRANCH   1  24
ATOM     24  C   UNL A   1      32.294  30.657  26.953  1.00  0.00     0.042 C 
BRANCH  24  25
ATOM     25  C   UNL A   1      33.621  30.262  27.578  1.00  0.00     0.118 C 
BRANCH  25  26
ATOM     26  N   UNL A   1      34.255  31.329  28.347  1.00  0.00    -0.352 N 
ATOM     27  C   UNL A   1      35.511  31.341  28.931  1.00  0.00     0.251 C 
ATOM     28  H   UNL A   1      33.719  32.147  28.466  1.00  0.00     0.163 HD
ATOM     29  O   UNL A   1      35.922  32.331  29.512  1.00  0.00    -0.269 OA
BRANCH  27  30
ATOM     30  C   UNL A   1      36.396  30.172  28.721  1.00  0.00     0.039 A 
ATOM     31  C   UNL A   1      36.628  29.330  29.812  1.00  0.00     0.014 A 
ATOM     32  C   UNL A   1      37.166  30.067  27.565  1.00  0.00     0.014 A 
ATOM     33  C   UNL A   1      37.794  28.573  29.844  1.00  0.00     0.010 A 
ATOM     34  C   UNL A   1      38.371  29.395  27.635  1.00  0.00     0.010 A 
ATOM     35  C   UNL A   1      38.716  28.712  28.806  1.00  0.00    -0.014 A 
BRANCH  35  36
ATOM     36  C   UNL A   1      40.113  28.316  28.940  1.00  0.00     0.031 A 
ATOM     37  C   UNL A   1      40.589  27.020  28.429  1.00  0.00     0.074 A 
ATOM     38  C   UNL A   1      40.997  29.169  29.501  1.00  0.00     0.049 A 
ATOM     39  N   UNL A   1      41.632  26.408  28.882  1.00  0.00    -0.248 NA
ATOM     40  C   UNL A   1      39.884  26.280  27.393  1.00  0.00     0.031 C 
ATOM     41  C   UNL A   1      42.453  29.082  29.491  1.00  0.00     0.029 A 
ATOM     42  N   UNL A   1      40.716  30.192  30.409  1.00  0.00    -0.354 N 
ATOM     43  C   UNL A   1      41.916  25.391  28.004  1.00  0.00     0.074 A 
ATOM     44  C   UNL A   1      40.744  25.283  27.165  1.00  0.00     0.031 C 
ATOM     45  C   UNL A   1      42.934  29.800  30.519  1.00  0.00     0.029 A 
ATOM     46  C   UNL A   1      41.798  30.242  31.309  1.00  0.00     0.049 A 
ATOM     47  H   UNL A   1      39.916  30.766  30.418  1.00  0.00     0.167 HD
ATOM     48  C   UNL A   1      43.169  24.854  27.984  1.00  0.00     0.031 A 
ATOM     49  C   UNL A   1      41.613  29.981  32.636  1.00  0.00     0.031 A 
ATOM     50  C   UNL A   1      44.032  25.397  29.037  1.00  0.00     0.049 A 
ATOM     51  C   UNL A   1      42.385  28.786  33.162  1.00  0.00     0.074 A 
ATOM     52  C   UNL A   1      45.112  26.267  29.058  1.00  0.00     0.029 A 
ATOM     53  N   UNL A   1      43.651  25.240  30.360  1.00  0.00    -0.354 N 
ATOM     54  N   UNL A   1      43.128  28.001  32.433  1.00  0.00    -0.248 NA
ATOM     55  C   UNL A   1      42.279  28.315  34.546  1.00  0.00     0.031 C 
ATOM     56  C   UNL A   1      45.386  26.610  30.412  1.00  0.00     0.029 A 
ATOM     57  C   UNL A   1      44.477  25.945  31.212  1.00  0.00     0.049 A 
ATOM     58  H   UNL A   1      42.887  24.694  30.656  1.00  0.00     0.167 HD
ATOM     59  C   UNL A   1      43.526  26.923  33.179  1.00  0.00     0.074 A 
ATOM     60  C   UNL A   1      42.979  27.169  34.500  1.00  0.00     0.031 C 
ATOM     61  C   UNL A   1      44.223  25.880  32.642  1.00  0.00     0.031 A 
BRANCH  48  62
ATOM     62  C   UNL A   1      43.687  24.018  26.835  1.00  0.00    -0.014 A 
ATOM     63  C   UNL A   1      44.418  24.631  25.801  1.00  0.00     0.009 A 
ATOM     64  C   UNL A   1      43.451  22.642  26.681  1.00  0.00     0.009 A 
ATOM     65  C   UNL A   1      44.786  23.940  24.638  1.00  0.00     0.001 A 
ATOM     66  C   UNL A   1      43.776  21.953  25.506  1.00  0.00     0.001 A 
ATOM     67  C   UNL A   1      44.434  22.608  24.476  1.00  0.00     0.000 A 
ENDBRANCH  48  62
BRANCH  49  68
ATOM     68  C   UNL A   1      40.272  30.403  33.137  1.00  0.00    -0.014 A 
ATOM     69  C   UNL A   1      39.985  31.782  33.212  1.00  0.00     0.009 A 
ATOM     70  C   UNL A   1      39.209  29.493  33.198  1.00  0.00     0.009 A 
ATOM     71  C   UNL A   1      38.665  32.238  33.230  1.00  0.00     0.001 A 
ATOM     72  C   UNL A   1      37.888  29.955  33.236  1.00  0.00     0.001 A 
ATOM     73  C   UNL A   1      37.616  31.323  33.214  1.00  0.00     0.000 A 
ENDBRANCH  49  68
BRANCH  61  74
ATOM     74  C   UNL A   1      44.688  24.669  33.410  1.00  0.00    -0.014 A 
ATOM     75  C   UNL A   1      46.022  24.454  33.776  1.00  0.00     0.009 A 
ATOM     76  C   UNL A   1      43.777  23.626  33.689  1.00  0.00     0.009 A 
ATOM     77  C   UNL A   1      46.412  23.287  34.451  1.00  0.00     0.001 A 
ATOM     78  C   UNL A   1      44.163  22.454  34.340  1.00  0.00     0.001 A 
ATOM     79  C   UNL A   1      45.482  22.289  34.735  1.00  0.00     0.000 A 
ENDBRANCH  61  74
ENDBRANCH  35  36
ENDBRANCH  27  30
ENDBRANCH  25  26
ENDBRANCH  24  25
ENDBRANCH   1  24
TORSDOF 13
ENDMDL
MODEL 3
REMARK VINA RESULT:     -11.9      1.420      2.837
REMARK SMILES Cc1ccc(Nc2c(C)cccc2Cl)c(CC(=O)NCCCNC(=O)c2ccc(-c3c4nc(c(-c5ccccc5)c5ccc([nH]5)c(-c5ccccc5)c5nc(c(-c6ccccc6)c6ccc3[nH]6)C=C5)C=C4)cc2)c1
REMARK SMILES IDX 20 1 19 2 17 3 18 4 16 6 15 7 1 8 2 9 3 10 74 11 4 12 5 13
REMARK SMILES IDX 6 14 7 16 8 17 13 18 9 19 10 20 12 21 14 22 11 23 21 24
REMARK SMILES IDX 22 25 23 26 24 27 25 29 26 30 27 31 73 32 28 33 72 34 29 35
REMARK SMILES IDX 30 36 31 37 66 38 32 39 71 40 65 41 67 42 33 43 70 44 64 45
REMARK SMILES IDX 63 46 34 48 56 49 41 50 55 51 42 52 45 53 54 54 68 55 43 56
REMARK SMILES IDX 44 57 53 59 69 60 46 61 35 62 36 63 40 64 37 65 39 66 38 67
REMARK SMILES IDX 57 68 58 69 62 70 59 71 61 72 60 73 47 74 48 75 52 76 49 77
REMARK SMILES IDX 51 78 50 79
REMARK H PARENT 19 5 6 15 23 28 67 47 45 58
REMARK Flexibility Score: inf
ROOT
ATOM      1  C   UNL A   1      31.964  28.985  26.654  1.00  0.00     0.117 C 
ENDROOT
BRANCH   1   2
ATOM      2  N   UNL A   1      31.569  27.609  26.916  1.00  0.00    -0.356 N 
ATOM      3  C   UNL A   1      32.178  26.450  26.529  1.00  0.00     0.224 C 
ATOM      4  O   UNL A   1      31.625  25.378  26.794  1.00  0.00    -0.275 OA
ATOM      5  H   UNL A   1      30.748  27.499  27.447  1.00  0.00     0.163 HD
BRANCH   3   6
ATOM      6  C   UNL A   1      33.491  26.465  25.761  1.00  0.00     0.137 C 
BRANCH   6   7
ATOM      7  C   UNL A   1      33.793  25.152  25.070  1.00  0.00    -0.015 A 
ATOM      8  C   UNL A   1      35.404  21.838  26.104  1.00  0.00     0.044 C 
ATOM      9  C   UNL A   1      34.760  22.910  25.277  1.00  0.00    -0.051 A 
ATOM     10  C   UNL A   1      34.634  22.747  23.899  1.00  0.00     0.005 A 
ATOM     11  C   UNL A   1      34.306  24.097  25.858  1.00  0.00     0.009 A 
ATOM     12  C   UNL A   1      34.073  23.759  23.118  1.00  0.00     0.026 A 
ATOM     13  C   UNL A   1      33.649  24.977  23.676  1.00  0.00     0.042 A 
BRANCH  13  14
ATOM     14  N   UNL A   1      33.051  25.972  22.870  1.00  0.00    -0.354 N 
ATOM     15  H   UNL A   1      33.497  26.146  22.010  1.00  0.00     0.167 HD
BRANCH  14  16
ATOM     16  C   UNL A   1      31.896  26.755  23.127  1.00  0.00     0.060 A 
ATOM     17  C   UNL A   1      30.631  26.170  23.362  1.00  0.00    -0.026 A 
ATOM     18  C   UNL A   1      31.984  28.164  23.073  1.00  0.00     0.064 A 
ATOM     19  C   UNL A   1      30.429  24.684  23.494  1.00  0.00     0.046 C 
ATOM     20  C   UNL A   1      29.497  26.996  23.484  1.00  0.00     0.005 A 
ATOM     21  C   UNL A   1      30.853  28.969  23.220  1.00  0.00     0.023 A 
ATOM     22  Cl  UNL A   1      33.499  28.953  22.775  1.00  0.00    -0.082 Cl
ATOM     23  C   UNL A   1      29.607  28.384  23.414  1.00  0.00     0.002 A 
ENDBRANCH  14  16
ENDBRANCH  13  14
ENDBRANCH   6   7
ENDBRANCH   3   6
ENDBRANCH   1   2
BRANCH   1  24
ATOM     24  C   UNL A   1      33.034  29.482  27.622  1.00  0.00     0.042 C 
BRANCH  24  25
ATOM     25  C   UNL A   1      33.887  30.623  27.095  1.00  0.00     0.118 C 
BRANCH  25  26
ATOM     26  N   UNL A   1      34.391  31.516  28.135  1.00  0.00    -0.352 N 
ATOM     27  C   UNL A   1      35.508  31.359  28.938  1.00  0.00     0.251 C 
ATOM     28  H   UNL A   1      33.868  32.337  28.284  1.00  0.00     0.163 HD
ATOM     29  O   UNL A   1      35.828  32.219  29.741  1.00  0.00    -0.269 OA
BRANCH  27  30
ATOM     30  C   UNL A   1      36.381  30.184  28.708  1.00  0.00     0.039 A 
ATOM     31  C   UNL A   1      36.614  29.328  29.789  1.00  0.00     0.014 A 
ATOM     32  C   UNL A   1      37.140  30.084  27.545  1.00  0.00     0.014 A 
ATOM     33  C   UNL A   1      37.773  28.561  29.803  1.00  0.00     0.010 A 
ATOM     34  C   UNL A   1      38.339  29.400  27.598  1.00  0.00     0.010 A 
ATOM     35  C   UNL A   1      38.687  28.702  28.759  1.00  0.00    -0.014 A 
BRANCH  35  36
ATOM     36  C   UNL A   1      40.082  28.292  28.878  1.00  0.00     0.031 A 
ATOM     37  C   UNL A   1      40.544  27.002  28.341  1.00  0.00     0.074 A 
ATOM     38  C   UNL A   1      40.976  29.128  29.448  1.00  0.00     0.049 A 
ATOM     39  N   UNL A   1      41.584  26.372  28.776  1.00  0.00    -0.248 NA
ATOM     40  C   UNL A   1      39.826  26.285  27.296  1.00  0.00     0.031 C 
ATOM     41  C   UNL A   1      42.432  29.028  29.428  1.00  0.00     0.029 A 
ATOM     42  N   UNL A   1      40.709  30.136  30.375  1.00  0.00    -0.354 N 
ATOM     43  C   UNL A   1      41.854  25.369  27.879  1.00  0.00     0.074 A 
ATOM     44  C   UNL A   1      40.676  25.285  27.045  1.00  0.00     0.031 C 
ATOM     45  C   UNL A   1      42.925  29.723  30.465  1.00  0.00     0.029 A 
ATOM     46  C   UNL A   1      41.798  30.161  31.269  1.00  0.00     0.049 A 
ATOM     47  H   UNL A   1      39.915  30.717  30.400  1.00  0.00     0.167 HD
ATOM     48  C   UNL A   1      43.102  24.821  27.842  1.00  0.00     0.031 A 
ATOM     49  C   UNL A   1      41.618  29.879  32.593  1.00  0.00     0.031 A 
ATOM     50  C   UNL A   1      43.976  25.338  28.898  1.00  0.00     0.049 A 
ATOM     51  C   UNL A   1      42.382  28.667  33.093  1.00  0.00     0.074 A 
ATOM     52  C   UNL A   1      45.063  26.198  28.928  1.00  0.00     0.029 A 
ATOM     53  N   UNL A   1      43.601  25.161  30.221  1.00  0.00    -0.354 N 
ATOM     54  N   UNL A   1      43.114  27.889  32.345  1.00  0.00    -0.248 NA
ATOM     55  C   UNL A   1      42.281  28.173  34.469  1.00  0.00     0.031 C 
ATOM     56  C   UNL A   1      45.349  26.515  30.287  1.00  0.00     0.029 A 
ATOM     57  C   UNL A   1      44.439  25.844  31.081  1.00  0.00     0.049 A 
ATOM     58  H   UNL A   1      42.834  24.617  30.511  1.00  0.00     0.167 HD
ATOM     59  C   UNL A   1      43.508  26.795  33.070  1.00  0.00     0.074 A 
ATOM     60  C   UNL A   1      42.970  27.022  34.399  1.00  0.00     0.031 C 
ATOM     61  C   UNL A   1      44.193  25.755  32.510  1.00  0.00     0.031 A 
BRANCH  48  62
ATOM     62  C   UNL A   1      43.606  24.002  26.675  1.00  0.00    -0.014 A 
ATOM     63  C   UNL A   1      43.420  22.607  26.670  1.00  0.00     0.009 A 
ATOM     64  C   UNL A   1      44.313  24.525  25.580  1.00  0.00     0.009 A 
ATOM     65  C   UNL A   1      44.001  21.781  25.698  1.00  0.00     0.001 A 
ATOM     66  C   UNL A   1      44.933  23.706  24.628  1.00  0.00     0.001 A 
ATOM     67  C   UNL A   1      44.788  22.329  24.696  1.00  0.00     0.000 A 
ENDBRANCH  48  62
BRANCH  49  68
ATOM     68  C   UNL A   1      40.284  30.303  33.109  1.00  0.00    -0.014 A 
ATOM     69  C   UNL A   1      40.003  31.682  33.193  1.00  0.00     0.009 A 
ATOM     70  C   UNL A   1      39.218  29.396  33.178  1.00  0.00     0.009 A 
ATOM     71  C   UNL A   1      38.684  32.143  33.226  1.00  0.00     0.001 A 
ATOM     72  C   UNL A   1      37.899  29.862  33.232  1.00  0.00     0.001 A 
ATOM     73  C   UNL A   1      37.632  31.231  33.218  1.00  0.00     0.000 A 
ENDBRANCH  49  68
BRANCH  61  74
ATOM     74  C   UNL A   1      44.651  24.527  33.254  1.00  0.00    -0.014 A 
ATOM     75  C   UNL A   1      43.793  23.483  33.620  1.00  0.00     0.009 A 
ATOM     76  C   UNL A   1      45.983  24.447  33.718  1.00  0.00     0.009 A 
ATOM     77  C   UNL A   1      44.260  22.381  34.352  1.00  0.00     0.001 A 
ATOM     78  C   UNL A   1      46.447  23.363  34.466  1.00  0.00     0.001 A 
ATOM     79  C   UNL A   1      45.587  22.321  34.772  1.00  0.00     0.000 A 
ENDBRANCH  61  74
ENDBRANCH  35  36
ENDBRANCH  27  30
ENDBRANCH  25  26
ENDBRANCH  24  25
ENDBRANCH   1  24
TORSDOF 13
ENDMDL
