MODEL 1
REMARK VINA RESULT:     -10.8      0.000      0.000
REMARK SMILES Cc1n[nH]c(C(=O)N[C@@H](CC(C)C)C(=O)NCCCNC(=O)c2ccc(-c3c4nc(c(-c5ccccc5)c5ccc([nH]5)c(-c5ccccc5)c5nc(c(-c6ccccc6)c6ccc3[nH]6)C=C5)C=C4)cc2)n1
REMARK SMILES IDX 18 1 17 2 16 3 14 4 15 5 9 7 8 8 6 9 7 10 5 12 1 13 2 14
REMARK SMILES IDX 3 15 71 16 4 17 10 19 11 20 12 21 13 22 19 23 20 24 21 25
REMARK SMILES IDX 22 27 23 28 24 29 70 30 25 31 69 32 26 33 27 34 28 35 63 36
REMARK SMILES IDX 29 37 68 38 62 39 64 40 30 41 67 42 61 43 60 44 31 46 53 47
REMARK SMILES IDX 38 48 52 49 39 50 42 51 51 52 65 53 40 54 41 55 50 57 66 58
REMARK SMILES IDX 43 59 32 60 33 61 37 62 34 63 36 64 35 65 54 66 55 67 59 68
REMARK SMILES IDX 56 69 58 70 57 71 44 72 45 73 49 74 46 75 48 76 47 77
REMARK H PARENT 16 6 8 11 4 18 20 26 64 45 42 56
REMARK Flexibility Score: inf
ROOT
ATOM      1  C   UNL A   1      33.288  30.622  27.570  1.00  0.00     0.042 C 
ENDROOT
BRANCH   1   2
ATOM      2  C   UNL A   1      32.733  30.423  26.166  1.00  0.00     0.117 C 
BRANCH   2   3
ATOM      3  N   UNL A   1      33.575  29.658  25.261  1.00  0.00    -0.354 N 
ATOM      4  C   UNL A   1      33.281  28.549  24.519  1.00  0.00     0.242 C 
ATOM      5  O   UNL A   1      34.013  28.309  23.552  1.00  0.00    -0.273 OA
ATOM      6  H   UNL A   1      34.497  29.989  25.170  1.00  0.00     0.163 HD
BRANCH   4   7
ATOM      7  C   UNL A   1      32.069  27.627  24.798  1.00  0.00     0.172 C 
BRANCH   7   8
ATOM      8  N   UNL A   1      31.607  26.994  23.563  1.00  0.00    -0.338 N 
ATOM      9  C   UNL A   1      31.007  27.466  22.419  1.00  0.00     0.289 C 
ATOM     10  O   UNL A   1      31.137  26.701  21.456  1.00  0.00    -0.266 OA
ATOM     11  H   UNL A   1      31.757  26.021  23.548  1.00  0.00     0.164 HD
BRANCH   9  12
ATOM     12  C   UNL A   1      30.238  28.698  22.335  1.00  0.00     0.214 A 
ATOM     13  C   UNL A   1      27.653  30.836  23.501  1.00  0.00     0.092 C 
ATOM     14  C   UNL A   1      28.787  30.184  22.816  1.00  0.00     0.148 A 
ATOM     15  N   UNL A   1      29.578  30.816  21.947  1.00  0.00    -0.159 NA
ATOM     16  N   UNL A   1      29.144  28.889  23.061  1.00  0.00    -0.207 NA
ATOM     17  N   UNL A   1      30.475  29.859  21.656  1.00  0.00    -0.255 N 
ATOM     18  H   UNL A   1      31.219  29.979  21.024  1.00  0.00     0.192 HD
ENDBRANCH   9  12
ENDBRANCH   7   8
BRANCH   7  19
ATOM     19  C   UNL A   1      32.123  26.639  25.989  1.00  0.00     0.038 C 
BRANCH  19  20
ATOM     20  C   UNL A   1      32.505  25.166  25.756  1.00  0.00    -0.015 C 
ATOM     21  C   UNL A   1      34.022  24.954  25.751  1.00  0.00     0.007 C 
ATOM     22  C   UNL A   1      31.895  24.256  26.829  1.00  0.00     0.007 C 
ENDBRANCH  19  20
ENDBRANCH   7  19
ENDBRANCH   4   7
ENDBRANCH   2   3
ENDBRANCH   1   2
BRANCH   1  23
ATOM     23  C   UNL A   1      34.311  31.741  27.641  1.00  0.00     0.118 C 
BRANCH  23  24
ATOM     24  N   UNL A   1      34.465  32.324  28.977  1.00  0.00    -0.352 N 
ATOM     25  C   UNL A   1      35.388  31.960  29.947  1.00  0.00     0.251 C 
ATOM     26  H   UNL A   1      33.846  33.053  29.213  1.00  0.00     0.163 HD
ATOM     27  O   UNL A   1      35.293  32.320  31.105  1.00  0.00    -0.269 OA
BRANCH  25  28
ATOM     28  C   UNL A   1      36.492  31.090  29.507  1.00  0.00     0.039 A 
ATOM     29  C   UNL A   1      37.748  31.628  29.220  1.00  0.00     0.014 A 
ATOM     30  C   UNL A   1      36.298  29.722  29.649  1.00  0.00     0.014 A 
ATOM     31  C   UNL A   1      38.850  30.777  29.211  1.00  0.00     0.010 A 
ATOM     32  C   UNL A   1      37.406  28.918  29.793  1.00  0.00     0.010 A 
ATOM     33  C   UNL A   1      38.687  29.425  29.556  1.00  0.00    -0.014 A 
BRANCH  33  34
ATOM     34  C   UNL A   1      39.856  28.570  29.785  1.00  0.00     0.031 A 
ATOM     35  C   UNL A   1      40.344  28.437  31.193  1.00  0.00     0.074 A 
ATOM     36  C   UNL A   1      40.364  27.743  28.847  1.00  0.00     0.049 A 
ATOM     37  N   UNL A   1      41.495  28.791  31.668  1.00  0.00    -0.248 NA
ATOM     38  C   UNL A   1      39.434  27.878  32.205  1.00  0.00     0.031 C 
ATOM     39  C   UNL A   1      39.862  27.474  27.494  1.00  0.00     0.029 A 
ATOM     40  N   UNL A   1      41.391  26.856  28.968  1.00  0.00    -0.354 N 
ATOM     41  C   UNL A   1      41.529  28.362  32.995  1.00  0.00     0.074 A 
ATOM     42  C   UNL A   1      40.193  27.913  33.304  1.00  0.00     0.031 C 
ATOM     43  C   UNL A   1      40.406  26.329  27.030  1.00  0.00     0.029 A 
ATOM     44  C   UNL A   1      41.441  25.914  27.953  1.00  0.00     0.049 A 
ATOM     45  H   UNL A   1      42.038  26.882  29.710  1.00  0.00     0.167 HD
ATOM     46  C   UNL A   1      42.700  28.229  33.684  1.00  0.00     0.031 A 
ATOM     47  C   UNL A   1      42.277  24.858  27.858  1.00  0.00     0.031 A 
ATOM     48  C   UNL A   1      43.796  28.872  33.011  1.00  0.00     0.049 A 
ATOM     49  C   UNL A   1      43.455  25.148  28.700  1.00  0.00     0.074 A 
ATOM     50  C   UNL A   1      44.095  30.162  32.624  1.00  0.00     0.029 A 
ATOM     51  N   UNL A   1      44.659  28.063  32.313  1.00  0.00    -0.354 N 
ATOM     52  N   UNL A   1      44.296  26.110  28.446  1.00  0.00    -0.248 NA
ATOM     53  C   UNL A   1      43.494  24.631  30.058  1.00  0.00     0.031 C 
ATOM     54  C   UNL A   1      44.761  30.021  31.370  1.00  0.00     0.029 A 
ATOM     55  C   UNL A   1      44.870  28.655  31.096  1.00  0.00     0.049 A 
ATOM     56  H   UNL A   1      45.053  27.218  32.629  1.00  0.00     0.167 HD
ATOM     57  C   UNL A   1      44.650  26.610  29.690  1.00  0.00     0.074 A 
ATOM     58  C   UNL A   1      44.239  25.577  30.637  1.00  0.00     0.031 C 
ATOM     59  C   UNL A   1      44.983  27.926  29.851  1.00  0.00     0.031 A 
BRANCH  46  60
ATOM     60  C   UNL A   1      42.950  27.209  34.772  1.00  0.00    -0.014 A 
ATOM     61  C   UNL A   1      43.353  27.660  36.047  1.00  0.00     0.009 A 
ATOM     62  C   UNL A   1      43.087  25.832  34.522  1.00  0.00     0.009 A 
ATOM     63  C   UNL A   1      43.934  26.794  36.982  1.00  0.00     0.001 A 
ATOM     64  C   UNL A   1      43.628  24.957  35.471  1.00  0.00     0.001 A 
ATOM     65  C   UNL A   1      44.079  25.443  36.689  1.00  0.00     0.000 A 
ENDBRANCH  46  60
BRANCH  47  66
ATOM     66  C   UNL A   1      42.014  23.552  27.229  1.00  0.00    -0.014 A 
ATOM     67  C   UNL A   1      42.797  23.087  26.166  1.00  0.00     0.009 A 
ATOM     68  C   UNL A   1      41.126  22.647  27.842  1.00  0.00     0.009 A 
ATOM     69  C   UNL A   1      42.716  21.751  25.751  1.00  0.00     0.001 A 
ATOM     70  C   UNL A   1      41.043  21.316  27.427  1.00  0.00     0.001 A 
ATOM     71  C   UNL A   1      41.850  20.864  26.390  1.00  0.00     0.000 A 
ENDBRANCH  47  66
BRANCH  59  72
ATOM     72  C   UNL A   1      45.190  28.761  28.610  1.00  0.00    -0.014 A 
ATOM     73  C   UNL A   1      44.139  29.441  27.971  1.00  0.00     0.009 A 
ATOM     74  C   UNL A   1      46.500  29.010  28.177  1.00  0.00     0.009 A 
ATOM     75  C   UNL A   1      44.388  30.323  26.914  1.00  0.00     0.001 A 
ATOM     76  C   UNL A   1      46.752  29.906  27.135  1.00  0.00     0.001 A 
ATOM     77  C   UNL A   1      45.697  30.559  26.502  1.00  0.00     0.000 A 
ENDBRANCH  59  72
ENDBRANCH  33  34
ENDBRANCH  25  28
ENDBRANCH  23  24
ENDBRANCH   1  23
TORSDOF 14
ENDMDL
MODEL 2
REMARK VINA RESULT:     -10.8      3.521      8.048
REMARK SMILES Cc1n[nH]c(C(=O)N[C@@H](CC(C)C)C(=O)NCCCNC(=O)c2ccc(-c3c4nc(c(-c5ccccc5)c5ccc([nH]5)c(-c5ccccc5)c5nc(c(-c6ccccc6)c6ccc3[nH]6)C=C5)C=C4)cc2)n1
REMARK SMILES IDX 18 1 17 2 16 3 14 4 15 5 9 7 8 8 6 9 7 10 5 12 1 13 2 14
REMARK SMILES IDX 3 15 71 16 4 17 10 19 11 20 12 21 13 22 19 23 20 24 21 25
REMARK SMILES IDX 22 27 23 28 24 29 70 30 25 31 69 32 26 33 27 34 28 35 63 36
REMARK SMILES IDX 29 37 68 38 62 39 64 40 30 41 67 42 61 43 60 44 31 46 53 47
REMARK SMILES IDX 38 48 52 49 39 50 42 51 51 52 65 53 40 54 41 55 50 57 66 58
REMARK SMILES IDX 43 59 32 60 33 61 37 62 34 63 36 64 35 65 54 66 55 67 59 68
REMARK SMILES IDX 56 69 58 70 57 71 44 72 45 73 49 74 46 75 48 76 47 77
REMARK H PARENT 16 6 8 11 4 18 20 26 64 45 42 56
REMARK Flexibility Score: inf
ROOT
ATOM      1  C   UNL A   1      37.942  20.734  25.109  1.00  0.00     0.042 C 
ENDROOT
BRANCH   1   2
ATOM      2  C   UNL A   1      37.212  22.071  25.094  1.00  0.00     0.117 C 
BRANCH   2   3
ATOM      3  N   UNL A   1      36.328  22.316  26.221  1.00  0.00    -0.354 N 
ATOM      4  C   UNL A   1      34.996  22.619  26.239  1.00  0.00     0.242 C 
ATOM      5  O   UNL A   1      34.384  22.404  27.292  1.00  0.00    -0.273 OA
ATOM      6  H   UNL A   1      36.754  22.254  27.106  1.00  0.00     0.163 HD
BRANCH   4   7
ATOM      7  C   UNL A   1      34.224  23.163  25.013  1.00  0.00     0.172 C 
BRANCH   7   8
ATOM      8  N   UNL A   1      32.784  22.964  25.179  1.00  0.00    -0.338 N 
ATOM      9  C   UNL A   1      32.000  21.865  25.444  1.00  0.00     0.289 C 
ATOM     10  O   UNL A   1      30.891  22.164  25.902  1.00  0.00    -0.266 OA
ATOM     11  H   UNL A   1      32.264  23.794  25.080  1.00  0.00     0.164 HD
BRANCH   9  12
ATOM     12  C   UNL A   1      32.381  20.489  25.164  1.00  0.00     0.214 A 
ATOM     13  C   UNL A   1      32.840  17.788  22.904  1.00  0.00     0.092 C 
ATOM     14  C   UNL A   1      32.770  18.710  24.055  1.00  0.00     0.148 A 
ATOM     15  N   UNL A   1      33.324  18.446  25.240  1.00  0.00    -0.159 NA
ATOM     16  N   UNL A   1      32.168  19.933  23.977  1.00  0.00    -0.207 NA
ATOM     17  N   UNL A   1      33.060  19.575  25.917  1.00  0.00    -0.255 N 
ATOM     18  H   UNL A   1      33.325  19.727  26.853  1.00  0.00     0.192 HD
ENDBRANCH   9  12
ENDBRANCH   7   8
BRANCH   7  19
ATOM     19  C   UNL A   1      34.570  24.565  24.455  1.00  0.00     0.038 C 
BRANCH  19  20
ATOM     20  C   UNL A   1      33.569  25.725  24.604  1.00  0.00    -0.015 C 
ATOM     21  C   UNL A   1      33.830  26.559  25.863  1.00  0.00     0.007 C 
ATOM     22  C   UNL A   1      33.615  26.660  23.389  1.00  0.00     0.007 C 
ENDBRANCH  19  20
ENDBRANCH   7  19
ENDBRANCH   4   7
ENDBRANCH   2   3
ENDBRANCH   1   2
BRANCH   1  23
ATOM     23  C   UNL A   1      39.219  20.774  25.929  1.00  0.00     0.118 C 
BRANCH  23  24
ATOM     24  N   UNL A   1      40.056  19.579  25.786  1.00  0.00    -0.352 N 
ATOM     25  C   UNL A   1      41.435  19.503  25.922  1.00  0.00     0.251 C 
ATOM     26  H   UNL A   1      39.590  18.738  25.572  1.00  0.00     0.163 HD
ATOM     27  O   UNL A   1      42.073  18.536  25.552  1.00  0.00    -0.269 OA
BRANCH  25  28
ATOM     28  C   UNL A   1      42.100  20.670  26.524  1.00  0.00     0.039 A 
ATOM     29  C   UNL A   1      42.437  21.776  25.742  1.00  0.00     0.014 A 
ATOM     30  C   UNL A   1      42.129  20.720  27.912  1.00  0.00     0.014 A 
ATOM     31  C   UNL A   1      42.675  22.993  26.377  1.00  0.00     0.010 A 
ATOM     32  C   UNL A   1      42.212  21.952  28.518  1.00  0.00     0.010 A 
ATOM     33  C   UNL A   1      42.506  23.095  27.768  1.00  0.00    -0.014 A 
BRANCH  33  34
ATOM     34  C   UNL A   1      42.517  24.406  28.423  1.00  0.00     0.031 A 
ATOM     35  C   UNL A   1      41.370  25.325  28.143  1.00  0.00     0.074 A 
ATOM     36  C   UNL A   1      43.374  24.732  29.415  1.00  0.00     0.049 A 
ATOM     37  N   UNL A   1      41.408  26.487  27.574  1.00  0.00    -0.248 NA
ATOM     38  C   UNL A   1      40.013  24.887  28.502  1.00  0.00     0.031 C 
ATOM     39  C   UNL A   1      44.381  23.887  30.069  1.00  0.00     0.029 A 
ATOM     40  N   UNL A   1      43.429  25.882  30.142  1.00  0.00    -0.354 N 
ATOM     41  C   UNL A   1      40.115  27.007  27.640  1.00  0.00     0.074 A 
ATOM     42  C   UNL A   1      39.277  25.933  28.115  1.00  0.00     0.031 C 
ATOM     43  C   UNL A   1      44.749  24.448  31.240  1.00  0.00     0.029 A 
ATOM     44  C   UNL A   1      44.173  25.775  31.305  1.00  0.00     0.049 A 
ATOM     45  H   UNL A   1      42.979  26.713  29.866  1.00  0.00     0.167 HD
ATOM     46  C   UNL A   1      39.861  28.339  27.482  1.00  0.00     0.031 A 
ATOM     47  C   UNL A   1      44.324  26.709  32.269  1.00  0.00     0.031 A 
ATOM     48  C   UNL A   1      40.991  29.042  26.937  1.00  0.00     0.049 A 
ATOM     49  C   UNL A   1      44.021  28.022  31.664  1.00  0.00     0.074 A 
ATOM     50  C   UNL A   1      41.723  28.976  25.770  1.00  0.00     0.029 A 
ATOM     51  N   UNL A   1      41.754  29.770  27.817  1.00  0.00    -0.354 N 
ATOM     52  N   UNL A   1      44.749  28.562  30.728  1.00  0.00    -0.248 NA
ATOM     53  C   UNL A   1      42.683  28.571  31.807  1.00  0.00     0.031 C 
ATOM     54  C   UNL A   1      43.069  29.232  26.168  1.00  0.00     0.029 A 
ATOM     55  C   UNL A   1      43.066  29.485  27.543  1.00  0.00     0.049 A 
ATOM     56  H   UNL A   1      41.422  30.383  28.511  1.00  0.00     0.167 HD
ATOM     57  C   UNL A   1      43.840  29.195  29.893  1.00  0.00     0.074 A 
ATOM     58  C   UNL A   1      42.613  29.285  30.679  1.00  0.00     0.031 C 
ATOM     59  C   UNL A   1      44.087  29.328  28.555  1.00  0.00     0.031 A 
BRANCH  46  60
ATOM     60  C   UNL A   1      38.735  29.088  28.159  1.00  0.00    -0.014 A 
ATOM     61  C   UNL A   1      38.605  28.998  29.561  1.00  0.00     0.009 A 
ATOM     62  C   UNL A   1      37.642  29.633  27.462  1.00  0.00     0.009 A 
ATOM     63  C   UNL A   1      37.419  29.357  30.213  1.00  0.00     0.001 A 
ATOM     64  C   UNL A   1      36.471  30.033  28.116  1.00  0.00     0.001 A 
ATOM     65  C   UNL A   1      36.348  29.867  29.488  1.00  0.00     0.000 A 
ENDBRANCH  46  60
BRANCH  47  66
ATOM     66  C   UNL A   1      44.530  26.493  33.711  1.00  0.00    -0.014 A 
ATOM     67  C   UNL A   1      43.526  25.942  34.515  1.00  0.00     0.009 A 
ATOM     68  C   UNL A   1      45.823  26.615  34.259  1.00  0.00     0.009 A 
ATOM     69  C   UNL A   1      43.812  25.497  35.812  1.00  0.00     0.001 A 
ATOM     70  C   UNL A   1      46.109  26.175  35.553  1.00  0.00     0.001 A 
ATOM     71  C   UNL A   1      45.105  25.601  36.325  1.00  0.00     0.000 A 
ENDBRANCH  47  66
BRANCH  59  72
ATOM     72  C   UNL A   1      45.471  28.990  28.054  1.00  0.00    -0.014 A 
ATOM     73  C   UNL A   1      45.862  27.678  27.735  1.00  0.00     0.009 A 
ATOM     74  C   UNL A   1      46.345  30.038  27.730  1.00  0.00     0.009 A 
ATOM     75  C   UNL A   1      47.098  27.419  27.134  1.00  0.00     0.001 A 
ATOM     76  C   UNL A   1      47.571  29.783  27.113  1.00  0.00     0.001 A 
ATOM     77  C   UNL A   1      47.950  28.475  26.818  1.00  0.00     0.000 A 
ENDBRANCH  59  72
ENDBRANCH  33  34
ENDBRANCH  25  28
ENDBRANCH  23  24
ENDBRANCH   1  23
TORSDOF 14
ENDMDL
MODEL 3
REMARK VINA RESULT:     -10.7      2.548      6.478
REMARK SMILES Cc1n[nH]c(C(=O)N[C@@H](CC(C)C)C(=O)NCCCNC(=O)c2ccc(-c3c4nc(c(-c5ccccc5)c5ccc([nH]5)c(-c5ccccc5)c5nc(c(-c6ccccc6)c6ccc3[nH]6)C=C5)C=C4)cc2)n1
REMARK SMILES IDX 18 1 17 2 16 3 14 4 15 5 9 7 8 8 6 9 7 10 5 12 1 13 2 14
REMARK SMILES IDX 3 15 71 16 4 17 10 19 11 20 12 21 13 22 19 23 20 24 21 25
REMARK SMILES IDX 22 27 23 28 24 29 70 30 25 31 69 32 26 33 27 34 28 35 63 36
REMARK SMILES IDX 29 37 68 38 62 39 64 40 30 41 67 42 61 43 60 44 31 46 53 47
REMARK SMILES IDX 38 48 52 49 39 50 42 51 51 52 65 53 40 54 41 55 50 57 66 58
REMARK SMILES IDX 43 59 32 60 33 61 37 62 34 63 36 64 35 65 54 66 55 67 59 68
REMARK SMILES IDX 56 69 58 70 57 71 44 72 45 73 49 74 46 75 48 76 47 77
REMARK H PARENT 16 6 8 11 4 18 20 26 64 45 42 56
REMARK Flexibility Score: inf
ROOT
ATOM      1  C   UNL A   1      32.223  30.770  27.191  1.00  0.00     0.042 C 
ENDROOT
BRANCH   1   2
ATOM      2  C   UNL A   1      31.971  30.445  25.724  1.00  0.00     0.117 C 
BRANCH   2   3
ATOM      3  N   UNL A   1      33.101  29.881  25.004  1.00  0.00    -0.354 N 
ATOM      4  C   UNL A   1      33.239  28.657  24.412  1.00  0.00     0.242 C 
ATOM      5  O   UNL A   1      34.115  28.547  23.546  1.00  0.00    -0.273 OA
ATOM      6  H   UNL A   1      33.885  30.471  24.932  1.00  0.00     0.163 HD
BRANCH   4   7
ATOM      7  C   UNL A   1      32.337  27.441  24.736  1.00  0.00     0.172 C 
BRANCH   7   8
ATOM      8  N   UNL A   1      31.867  26.805  23.505  1.00  0.00    -0.338 N 
ATOM      9  C   UNL A   1      31.225  27.268  22.380  1.00  0.00     0.289 C 
ATOM     10  O   UNL A   1      31.358  26.517  21.407  1.00  0.00    -0.266 OA
ATOM     11  H   UNL A   1      32.050  25.838  23.475  1.00  0.00     0.164 HD
BRANCH   9  12
ATOM     12  C   UNL A   1      30.412  28.473  22.327  1.00  0.00     0.214 A 
ATOM     13  C   UNL A   1      27.577  30.359  23.337  1.00  0.00     0.092 C 
ATOM     14  C   UNL A   1      28.831  29.837  22.758  1.00  0.00     0.148 A 
ATOM     15  N   UNL A   1      29.704  30.598  22.096  1.00  0.00    -0.159 NA
ATOM     16  N   UNL A   1      29.216  28.534  22.900  1.00  0.00    -0.207 NA
ATOM     17  N   UNL A   1      30.683  29.716  21.833  1.00  0.00    -0.255 N 
ATOM     18  H   UNL A   1      31.503  29.941  21.337  1.00  0.00     0.192 HD
ENDBRANCH   9  12
ENDBRANCH   7   8
BRANCH   7  19
ATOM     19  C   UNL A   1      32.795  26.414  25.799  1.00  0.00     0.038 C 
BRANCH  19  20
ATOM     20  C   UNL A   1      33.159  24.978  25.381  1.00  0.00    -0.015 C 
ATOM     21  C   UNL A   1      34.672  24.778  25.243  1.00  0.00     0.007 C 
ATOM     22  C   UNL A   1      32.627  23.953  26.390  1.00  0.00     0.007 C 
ENDBRANCH  19  20
ENDBRANCH   7  19
ENDBRANCH   4   7
ENDBRANCH   2   3
ENDBRANCH   1   2
BRANCH   1  23
ATOM     23  C   UNL A   1      33.241  31.882  27.376  1.00  0.00     0.118 C 
BRANCH  23  24
ATOM     24  N   UNL A   1      32.645  33.207  27.575  1.00  0.00    -0.352 N 
ATOM     25  C   UNL A   1      33.071  34.190  28.456  1.00  0.00     0.251 C 
ATOM     26  H   UNL A   1      31.858  33.422  27.025  1.00  0.00     0.163 HD
ATOM     27  O   UNL A   1      32.386  35.156  28.735  1.00  0.00    -0.269 OA
BRANCH  25  28
ATOM     28  C   UNL A   1      34.400  33.999  29.061  1.00  0.00     0.039 A 
ATOM     29  C   UNL A   1      34.558  33.183  30.183  1.00  0.00     0.014 A 
ATOM     30  C   UNL A   1      35.488  34.442  28.320  1.00  0.00     0.014 A 
ATOM     31  C   UNL A   1      35.830  32.698  30.478  1.00  0.00     0.010 A 
ATOM     32  C   UNL A   1      36.706  33.836  28.524  1.00  0.00     0.010 A 
ATOM     33  C   UNL A   1      36.899  32.979  29.612  1.00  0.00    -0.014 A 
BRANCH  33  34
ATOM     34  C   UNL A   1      38.183  32.288  29.768  1.00  0.00     0.031 A 
ATOM     35  C   UNL A   1      38.234  30.840  29.400  1.00  0.00     0.074 A 
ATOM     36  C   UNL A   1      39.345  32.932  30.010  1.00  0.00     0.049 A 
ATOM     37  N   UNL A   1      38.497  29.835  30.173  1.00  0.00    -0.248 NA
ATOM     38  C   UNL A   1      37.919  30.453  28.016  1.00  0.00     0.031 C 
ATOM     39  C   UNL A   1      39.591  34.377  30.102  1.00  0.00     0.029 A 
ATOM     40  N   UNL A   1      40.599  32.408  30.100  1.00  0.00    -0.354 N 
ATOM     41  C   UNL A   1      38.542  28.704  29.358  1.00  0.00     0.074 A 
ATOM     42  C   UNL A   1      38.064  29.126  28.063  1.00  0.00     0.031 C 
ATOM     43  C   UNL A   1      40.912  34.619  29.968  1.00  0.00     0.029 A 
ATOM     44  C   UNL A   1      41.609  33.351  30.002  1.00  0.00     0.049 A 
ATOM     45  H   UNL A   1      40.771  31.446  30.224  1.00  0.00     0.167 HD
ATOM     46  C   UNL A   1      39.149  27.548  29.755  1.00  0.00     0.031 A 
ATOM     47  C   UNL A   1      42.940  33.122  29.957  1.00  0.00     0.031 A 
ATOM     48  C   UNL A   1      39.423  27.542  31.167  1.00  0.00     0.049 A 
ATOM     49  C   UNL A   1      43.181  31.792  30.549  1.00  0.00     0.074 A 
ATOM     50  C   UNL A   1      38.667  27.617  32.318  1.00  0.00     0.029 A 
ATOM     51  N   UNL A   1      40.716  27.802  31.551  1.00  0.00    -0.354 N 
ATOM     52  N   UNL A   1      42.961  31.517  31.803  1.00  0.00    -0.248 NA
ATOM     53  C   UNL A   1      43.292  30.639  29.670  1.00  0.00     0.031 C 
ATOM     54  C   UNL A   1      39.452  28.395  33.220  1.00  0.00     0.029 A 
ATOM     55  C   UNL A   1      40.656  28.704  32.580  1.00  0.00     0.049 A 
ATOM     56  H   UNL A   1      41.532  27.413  31.161  1.00  0.00     0.167 HD
ATOM     57  C   UNL A   1      42.475  30.219  31.802  1.00  0.00     0.074 A 
ATOM     58  C   UNL A   1      42.833  29.688  30.489  1.00  0.00     0.031 C 
ATOM     59  C   UNL A   1      41.588  29.797  32.753  1.00  0.00     0.031 A 
BRANCH  46  60
ATOM     60  C   UNL A   1      39.839  26.573  28.828  1.00  0.00    -0.014 A 
ATOM     61  C   UNL A   1      40.988  26.998  28.128  1.00  0.00     0.009 A 
ATOM     62  C   UNL A   1      39.252  25.371  28.396  1.00  0.00     0.009 A 
ATOM     63  C   UNL A   1      41.469  26.301  27.012  1.00  0.00     0.001 A 
ATOM     64  C   UNL A   1      39.755  24.649  27.308  1.00  0.00     0.001 A 
ATOM     65  C   UNL A   1      40.845  25.130  26.597  1.00  0.00     0.000 A 
ENDBRANCH  46  60
BRANCH  47  66
ATOM     66  C   UNL A   1      43.968  33.915  29.261  1.00  0.00    -0.014 A 
ATOM     67  C   UNL A   1      44.011  33.985  27.864  1.00  0.00     0.009 A 
ATOM     68  C   UNL A   1      44.777  34.807  29.993  1.00  0.00     0.009 A 
ATOM     69  C   UNL A   1      44.812  34.937  27.220  1.00  0.00     0.001 A 
ATOM     70  C   UNL A   1      45.578  35.755  29.352  1.00  0.00     0.001 A 
ATOM     71  C   UNL A   1      45.584  35.829  27.964  1.00  0.00     0.000 A 
ENDBRANCH  47  66
BRANCH  59  72
ATOM     72  C   UNL A   1      41.339  30.699  33.938  1.00  0.00    -0.014 A 
ATOM     73  C   UNL A   1      40.380  31.727  33.920  1.00  0.00     0.009 A 
ATOM     74  C   UNL A   1      41.962  30.396  35.157  1.00  0.00     0.009 A 
ATOM     75  C   UNL A   1      40.072  32.446  35.079  1.00  0.00     0.001 A 
ATOM     76  C   UNL A   1      41.640  31.100  36.320  1.00  0.00     0.001 A 
ATOM     77  C   UNL A   1      40.699  32.126  36.281  1.00  0.00     0.000 A 
ENDBRANCH  59  72
ENDBRANCH  33  34
ENDBRANCH  25  28
ENDBRANCH  23  24
ENDBRANCH   1  23
TORSDOF 14
ENDMDL
