MODEL 1
REMARK VINA RESULT:     -13.8      0.000      0.000
REMARK SMILES Cc1ccccc1[C@@H]1[NH2+][C@@H](C(=O)NCCCNC(=O)c2ccc(-c3c4nc(c(-c5ccccc5)c5ccc([nH]5)c(-c5ccccc5)c5nc(c(-c6ccccc6)c6ccc3[nH]6)C=C5)C=C4)cc2)CC2=c3ccccc3=N[C@H]21
REMARK SMILES IDX 15 1 14 2 13 3 11 4 12 5 10 7 8 8 9 9 77 10 69 13 76 14
REMARK SMILES IDX 68 15 70 16 75 17 71 18 74 19 72 20 73 21 7 22 1 23 2 24
REMARK SMILES IDX 3 25 4 26 6 27 5 28 16 29 17 30 18 31 19 33 20 34 21 35
REMARK SMILES IDX 67 36 22 37 66 38 23 39 24 40 25 41 60 42 26 43 65 44 59 45
REMARK SMILES IDX 61 46 27 47 64 48 58 49 57 50 28 52 50 53 35 54 49 55 36 56
REMARK SMILES IDX 39 57 48 58 62 59 37 60 38 61 47 63 63 64 40 65 29 66 30 67
REMARK SMILES IDX 34 68 31 69 33 70 32 71 51 72 52 73 56 74 53 75 55 76 54 77
REMARK SMILES IDX 41 78 42 79 46 80 43 81 45 82 44 83
REMARK H PARENT 13 6 9 11 9 12 17 32 61 51 39 62
REMARK Flexibility Score: inf
ROOT
ATOM      1  C   UNL A   1      34.827  31.639  27.981  1.00  0.00     0.042 C 
ENDROOT
BRANCH   1   2
ATOM      2  C   UNL A   1      33.568  31.133  27.277  1.00  0.00     0.118 C 
BRANCH   2   3
ATOM      3  N   UNL A   1      33.350  29.688  27.297  1.00  0.00    -0.351 N 
ATOM      4  C   UNL A   1      33.592  28.723  26.350  1.00  0.00     0.278 C 
ATOM      5  O   UNL A   1      33.958  27.621  26.781  1.00  0.00    -0.268 OA
ATOM      6  H   UNL A   1      32.961  29.346  28.135  1.00  0.00     0.163 HD
BRANCH   4   7
ATOM      7  C   UNL A   1      33.218  28.896  24.846  1.00  0.00     0.277 C 
ATOM      8  C   UNL A   1      31.058  27.918  23.822  1.00  0.00     0.243 C 
ATOM      9  N   UNL A   1      31.735  28.923  24.684  1.00  0.00    -0.327 N 
ATOM     10  C   UNL A   1      31.917  27.108  22.801  1.00  0.00     0.196 C 
ATOM     11  H   UNL A   1      31.335  28.826  25.617  1.00  0.00     0.347 HD
ATOM     12  H   UNL A   1      31.571  29.800  24.189  1.00  0.00     0.347 HD
ATOM     13  C   UNL A   1      33.255  26.867  23.396  1.00  0.00    -0.024 C 
ATOM     14  N   UNL A   1      31.389  25.731  22.529  1.00  0.00    -0.270 NA
ATOM     15  C   UNL A   1      33.991  28.058  23.834  1.00  0.00     0.109 C 
ATOM     16  C   UNL A   1      33.549  25.581  23.500  1.00  0.00     0.002 A 
ATOM     17  C   UNL A   1      32.364  24.953  22.901  1.00  0.00     0.066 A 
ATOM     18  C   UNL A   1      34.628  24.830  24.048  1.00  0.00     0.010 A 
ATOM     19  C   UNL A   1      32.414  23.479  22.787  1.00  0.00     0.028 A 
ATOM     20  C   UNL A   1      34.580  23.493  23.958  1.00  0.00     0.001 A 
ATOM     21  C   UNL A   1      33.477  22.822  23.287  1.00  0.00     0.002 A 
BRANCH   8  22
ATOM     22  C   UNL A   1      29.888  28.575  23.071  1.00  0.00     0.015 A 
ATOM     23  C   UNL A   1      28.099  26.913  23.918  1.00  0.00     0.045 C 
ATOM     24  C   UNL A   1      28.543  28.127  23.148  1.00  0.00    -0.042 A 
ATOM     25  C   UNL A   1      27.529  28.888  22.535  1.00  0.00     0.004 A 
ATOM     26  C   UNL A   1      27.824  30.048  21.822  1.00  0.00     0.000 A 
ATOM     27  C   UNL A   1      30.161  29.742  22.327  1.00  0.00     0.010 A 
ATOM     28  C   UNL A   1      29.142  30.467  21.707  1.00  0.00     0.001 A 
ENDBRANCH   8  22
ENDBRANCH   4   7
ENDBRANCH   2   3
ENDBRANCH   1   2
BRANCH   1  29
ATOM     29  C   UNL A   1      34.983  33.150  28.010  1.00  0.00     0.118 C 
BRANCH  29  30
ATOM     30  N   UNL A   1      33.888  33.832  28.707  1.00  0.00    -0.352 N 
ATOM     31  C   UNL A   1      33.807  34.193  30.044  1.00  0.00     0.251 C 
ATOM     32  H   UNL A   1      33.108  34.063  28.153  1.00  0.00     0.163 HD
ATOM     33  O   UNL A   1      32.887  34.877  30.460  1.00  0.00    -0.269 OA
BRANCH  31  34
ATOM     34  C   UNL A   1      34.939  33.830  30.924  1.00  0.00     0.039 A 
ATOM     35  C   UNL A   1      36.081  34.629  30.865  1.00  0.00     0.014 A 
ATOM     36  C   UNL A   1      34.972  32.563  31.501  1.00  0.00     0.014 A 
ATOM     37  C   UNL A   1      37.315  34.046  31.127  1.00  0.00     0.010 A 
ATOM     38  C   UNL A   1      36.203  31.954  31.650  1.00  0.00     0.010 A 
ATOM     39  C   UNL A   1      37.373  32.675  31.384  1.00  0.00    -0.014 A 
BRANCH  39  40
ATOM     40  C   UNL A   1      38.600  31.905  31.207  1.00  0.00     0.031 A 
ATOM     41  C   UNL A   1      38.591  30.614  30.498  1.00  0.00     0.074 A 
ATOM     42  C   UNL A   1      39.775  32.377  31.681  1.00  0.00     0.049 A 
ATOM     43  N   UNL A   1      39.436  29.665  30.730  1.00  0.00    -0.248 NA
ATOM     44  C   UNL A   1      37.592  30.274  29.494  1.00  0.00     0.031 C 
ATOM     45  C   UNL A   1      41.118  31.874  31.397  1.00  0.00     0.029 A 
ATOM     46  N   UNL A   1      39.959  33.285  32.725  1.00  0.00    -0.354 N 
ATOM     47  C   UNL A   1      39.298  28.747  29.720  1.00  0.00     0.074 A 
ATOM     48  C   UNL A   1      38.080  29.118  29.032  1.00  0.00     0.031 C 
ATOM     49  C   UNL A   1      41.938  32.252  32.390  1.00  0.00     0.029 A 
ATOM     50  C   UNL A   1      41.121  32.882  33.412  1.00  0.00     0.049 A 
ATOM     51  H   UNL A   1      39.388  34.057  32.939  1.00  0.00     0.167 HD
ATOM     52  C   UNL A   1      40.300  27.860  29.464  1.00  0.00     0.031 A 
ATOM     53  C   UNL A   1      41.072  32.509  34.724  1.00  0.00     0.031 A 
ATOM     54  C   UNL A   1      41.421  27.982  30.395  1.00  0.00     0.049 A 
ATOM     55  C   UNL A   1      41.546  31.096  35.005  1.00  0.00     0.074 A 
ATOM     56  C   UNL A   1      42.704  28.496  30.296  1.00  0.00     0.029 A 
ATOM     57  N   UNL A   1      41.203  27.767  31.748  1.00  0.00    -0.354 N 
ATOM     58  N   UNL A   1      41.869  30.223  34.092  1.00  0.00    -0.248 NA
ATOM     59  C   UNL A   1      41.568  30.523  36.349  1.00  0.00     0.031 C 
ATOM     60  C   UNL A   1      43.268  28.556  31.601  1.00  0.00     0.029 A 
ATOM     61  C   UNL A   1      42.326  28.078  32.491  1.00  0.00     0.049 A 
ATOM     62  H   UNL A   1      40.358  27.435  32.129  1.00  0.00     0.167 HD
ATOM     63  C   UNL A   1      42.057  28.993  34.676  1.00  0.00     0.074 A 
ATOM     64  C   UNL A   1      41.860  29.236  36.093  1.00  0.00     0.031 C 
ATOM     65  C   UNL A   1      42.298  27.872  33.932  1.00  0.00     0.031 A 
BRANCH  52  66
ATOM     66  C   UNL A   1      40.359  27.078  28.176  1.00  0.00    -0.014 A 
ATOM     67  C   UNL A   1      39.772  25.803  28.102  1.00  0.00     0.009 A 
ATOM     68  C   UNL A   1      41.025  27.520  27.019  1.00  0.00     0.009 A 
ATOM     69  C   UNL A   1      39.947  24.969  26.991  1.00  0.00     0.001 A 
ATOM     70  C   UNL A   1      41.247  26.675  25.924  1.00  0.00     0.001 A 
ATOM     71  C   UNL A   1      40.719  25.392  25.917  1.00  0.00     0.000 A 
ENDBRANCH  52  66
BRANCH  53  72
ATOM     72  C   UNL A   1      39.999  33.193  35.502  1.00  0.00    -0.014 A 
ATOM     73  C   UNL A   1      38.748  32.557  35.636  1.00  0.00     0.009 A 
ATOM     74  C   UNL A   1      40.299  34.267  36.351  1.00  0.00     0.009 A 
ATOM     75  C   UNL A   1      37.871  32.915  36.664  1.00  0.00     0.001 A 
ATOM     76  C   UNL A   1      39.409  34.634  37.367  1.00  0.00     0.001 A 
ATOM     77  C   UNL A   1      38.214  33.937  37.543  1.00  0.00     0.000 A 
ENDBRANCH  53  72
BRANCH  65  78
ATOM     78  C   UNL A   1      42.478  26.461  34.454  1.00  0.00    -0.014 A 
ATOM     79  C   UNL A   1      41.588  25.802  35.311  1.00  0.00     0.009 A 
ATOM     80  C   UNL A   1      43.661  25.753  34.129  1.00  0.00     0.009 A 
ATOM     81  C   UNL A   1      41.818  24.484  35.739  1.00  0.00     0.001 A 
ATOM     82  C   UNL A   1      43.908  24.449  34.569  1.00  0.00     0.001 A 
ATOM     83  C   UNL A   1      42.973  23.806  35.362  1.00  0.00     0.000 A 
ENDBRANCH  65  78
ENDBRANCH  39  40
ENDBRANCH  31  34
ENDBRANCH  29  30
ENDBRANCH   1  29
TORSDOF 11
ENDMDL
MODEL 2
REMARK VINA RESULT:     -13.3      2.367      3.995
REMARK SMILES Cc1ccccc1[C@@H]1[NH2+][C@@H](C(=O)NCCCNC(=O)c2ccc(-c3c4nc(c(-c5ccccc5)c5ccc([nH]5)c(-c5ccccc5)c5nc(c(-c6ccccc6)c6ccc3[nH]6)C=C5)C=C4)cc2)CC2=c3ccccc3=N[C@H]21
REMARK SMILES IDX 15 1 14 2 13 3 11 4 12 5 10 7 8 8 9 9 77 10 69 13 76 14
REMARK SMILES IDX 68 15 70 16 75 17 71 18 74 19 72 20 73 21 7 22 1 23 2 24
REMARK SMILES IDX 3 25 4 26 6 27 5 28 16 29 17 30 18 31 19 33 20 34 21 35
REMARK SMILES IDX 67 36 22 37 66 38 23 39 24 40 25 41 60 42 26 43 65 44 59 45
REMARK SMILES IDX 61 46 27 47 64 48 58 49 57 50 28 52 50 53 35 54 49 55 36 56
REMARK SMILES IDX 39 57 48 58 62 59 37 60 38 61 47 63 63 64 40 65 29 66 30 67
REMARK SMILES IDX 34 68 31 69 33 70 32 71 51 72 52 73 56 74 53 75 55 76 54 77
REMARK SMILES IDX 41 78 42 79 46 80 43 81 45 82 44 83
REMARK H PARENT 13 6 9 11 9 12 17 32 61 51 39 62
REMARK Flexibility Score: inf
ROOT
ATOM      1  C   UNL A   1      33.519  31.888  27.612  1.00  0.00     0.042 C 
ENDROOT
BRANCH   1   2
ATOM      2  C   UNL A   1      32.492  30.808  27.278  1.00  0.00     0.118 C 
BRANCH   2   3
ATOM      3  N   UNL A   1      32.997  29.439  27.187  1.00  0.00    -0.351 N 
ATOM      4  C   UNL A   1      33.672  28.789  26.183  1.00  0.00     0.278 C 
ATOM      5  O   UNL A   1      34.524  27.967  26.547  1.00  0.00    -0.268 OA
ATOM      6  H   UNL A   1      32.822  28.886  27.982  1.00  0.00     0.163 HD
BRANCH   4   7
ATOM      7  C   UNL A   1      33.259  28.882  24.682  1.00  0.00     0.277 C 
ATOM      8  C   UNL A   1      31.042  27.911  23.780  1.00  0.00     0.243 C 
ATOM      9  N   UNL A   1      31.773  28.946  24.559  1.00  0.00    -0.327 N 
ATOM     10  C   UNL A   1      31.846  27.014  22.788  1.00  0.00     0.196 C 
ATOM     11  H   UNL A   1      31.399  28.918  25.507  1.00  0.00     0.347 HD
ATOM     12  H   UNL A   1      31.620  29.796  24.016  1.00  0.00     0.347 HD
ATOM     13  C   UNL A   1      33.194  26.769  23.359  1.00  0.00    -0.024 C 
ATOM     14  N   UNL A   1      31.271  25.641  22.616  1.00  0.00    -0.270 NA
ATOM     15  C   UNL A   1      33.976  27.961  23.702  1.00  0.00     0.109 C 
ATOM     16  C   UNL A   1      33.453  25.483  23.534  1.00  0.00     0.002 A 
ATOM     17  C   UNL A   1      32.233  24.857  23.008  1.00  0.00     0.066 A 
ATOM     18  C   UNL A   1      34.525  24.734  24.097  1.00  0.00     0.010 A 
ATOM     19  C   UNL A   1      32.237  23.378  22.983  1.00  0.00     0.028 A 
ATOM     20  C   UNL A   1      34.436  23.395  24.090  1.00  0.00     0.001 A 
ATOM     21  C   UNL A   1      33.294  22.720  23.493  1.00  0.00     0.002 A 
BRANCH   8  22
ATOM     22  C   UNL A   1      29.869  28.558  23.023  1.00  0.00     0.015 A 
ATOM     23  C   UNL A   1      28.080  26.916  23.909  1.00  0.00     0.045 C 
ATOM     24  C   UNL A   1      28.525  28.114  23.114  1.00  0.00    -0.042 A 
ATOM     25  C   UNL A   1      27.509  28.867  22.493  1.00  0.00     0.004 A 
ATOM     26  C   UNL A   1      27.803  30.013  21.758  1.00  0.00     0.000 A 
ATOM     27  C   UNL A   1      30.142  29.710  22.256  1.00  0.00     0.010 A 
ATOM     28  C   UNL A   1      29.122  30.427  21.628  1.00  0.00     0.001 A 
ENDBRANCH   8  22
ENDBRANCH   4   7
ENDBRANCH   2   3
ENDBRANCH   1   2
BRANCH   1  29
ATOM     29  C   UNL A   1      34.960  31.408  27.675  1.00  0.00     0.118 C 
BRANCH  29  30
ATOM     30  N   UNL A   1      35.709  31.970  28.803  1.00  0.00    -0.352 N 
ATOM     31  C   UNL A   1      36.806  31.436  29.464  1.00  0.00     0.251 C 
ATOM     32  H   UNL A   1      35.392  32.841  29.134  1.00  0.00     0.163 HD
ATOM     33  O   UNL A   1      37.413  32.078  30.304  1.00  0.00    -0.269 OA
BRANCH  31  34
ATOM     34  C   UNL A   1      37.292  30.110  29.026  1.00  0.00     0.039 A 
ATOM     35  C   UNL A   1      37.392  29.110  29.994  1.00  0.00     0.014 A 
ATOM     36  C   UNL A   1      37.936  29.993  27.798  1.00  0.00     0.014 A 
ATOM     37  C   UNL A   1      38.365  28.131  29.841  1.00  0.00     0.010 A 
ATOM     38  C   UNL A   1      38.978  29.091  27.698  1.00  0.00     0.010 A 
ATOM     39  C   UNL A   1      39.241  28.213  28.757  1.00  0.00    -0.014 A 
BRANCH  39  40
ATOM     40  C   UNL A   1      40.541  27.548  28.758  1.00  0.00     0.031 A 
ATOM     41  C   UNL A   1      40.655  26.102  28.506  1.00  0.00     0.074 A 
ATOM     42  C   UNL A   1      41.670  28.260  28.976  1.00  0.00     0.049 A 
ATOM     43  N   UNL A   1      41.607  25.367  28.976  1.00  0.00    -0.248 NA
ATOM     44  C   UNL A   1      39.669  25.357  27.734  1.00  0.00     0.031 C 
ATOM     45  C   UNL A   1      43.051  27.824  28.783  1.00  0.00     0.029 A 
ATOM     46  N   UNL A   1      41.783  29.474  29.657  1.00  0.00    -0.354 N 
ATOM     47  C   UNL A   1      41.542  24.160  28.328  1.00  0.00     0.074 A 
ATOM     48  C   UNL A   1      40.270  24.166  27.639  1.00  0.00     0.031 C 
ATOM     49  C   UNL A   1      43.854  28.583  29.545  1.00  0.00     0.029 A 
ATOM     50  C   UNL A   1      43.003  29.432  30.359  1.00  0.00     0.049 A 
ATOM     51  H   UNL A   1      41.136  30.215  29.647  1.00  0.00     0.167 HD
ATOM     52  C   UNL A   1      42.628  23.339  28.308  1.00  0.00     0.031 A 
ATOM     53  C   UNL A   1      43.037  29.507  31.722  1.00  0.00     0.031 A 
ATOM     54  C   UNL A   1      43.757  23.866  29.074  1.00  0.00     0.049 A 
ATOM     55  C   UNL A   1      43.674  28.317  32.412  1.00  0.00     0.074 A 
ATOM     56  C   UNL A   1      44.971  24.439  28.730  1.00  0.00     0.029 A 
ATOM     57  N   UNL A   1      43.606  24.087  30.434  1.00  0.00    -0.354 N 
ATOM     58  N   UNL A   1      44.065  27.228  31.811  1.00  0.00    -0.248 NA
ATOM     59  C   UNL A   1      43.801  28.221  33.865  1.00  0.00     0.031 C 
ATOM     60  C   UNL A   1      45.564  24.977  29.906  1.00  0.00     0.029 A 
ATOM     61  C   UNL A   1      44.709  24.730  30.962  1.00  0.00     0.049 A 
ATOM     62  H   UNL A   1      42.815  23.818  30.957  1.00  0.00     0.167 HD
ATOM     63  C   UNL A   1      44.407  26.281  32.748  1.00  0.00     0.074 A 
ATOM     64  C   UNL A   1      44.227  26.956  34.020  1.00  0.00     0.031 C 
ATOM     65  C   UNL A   1      44.749  25.006  32.392  1.00  0.00     0.031 A 
BRANCH  52  66
ATOM     66  C   UNL A   1      42.735  22.186  27.340  1.00  0.00    -0.014 A 
ATOM     67  C   UNL A   1      41.998  21.011  27.565  1.00  0.00     0.009 A 
ATOM     68  C   UNL A   1      43.584  22.178  26.220  1.00  0.00     0.009 A 
ATOM     69  C   UNL A   1      42.192  19.856  26.798  1.00  0.00     0.001 A 
ATOM     70  C   UNL A   1      43.820  21.014  25.477  1.00  0.00     0.001 A 
ATOM     71  C   UNL A   1      43.133  19.847  25.777  1.00  0.00     0.000 A 
ENDBRANCH  52  66
BRANCH  53  72
ATOM     72  C   UNL A   1      41.918  30.302  32.305  1.00  0.00    -0.014 A 
ATOM     73  C   UNL A   1      40.693  29.657  32.572  1.00  0.00     0.009 A 
ATOM     74  C   UNL A   1      42.153  31.558  32.882  1.00  0.00     0.009 A 
ATOM     75  C   UNL A   1      39.780  30.203  33.478  1.00  0.00     0.001 A 
ATOM     76  C   UNL A   1      41.226  32.110  33.774  1.00  0.00     0.001 A 
ATOM     77  C   UNL A   1      40.059  31.418  34.096  1.00  0.00     0.000 A 
ENDBRANCH  53  72
BRANCH  65  78
ATOM     78  C   UNL A   1      45.102  23.869  33.328  1.00  0.00    -0.014 A 
ATOM     79  C   UNL A   1      44.219  22.862  33.736  1.00  0.00     0.009 A 
ATOM     80  C   UNL A   1      46.392  23.833  33.910  1.00  0.00     0.009 A 
ATOM     81  C   UNL A   1      44.628  21.830  34.597  1.00  0.00     0.001 A 
ATOM     82  C   UNL A   1      46.800  22.821  34.784  1.00  0.00     0.001 A 
ATOM     83  C   UNL A   1      45.919  21.805  35.114  1.00  0.00     0.000 A 
ENDBRANCH  65  78
ENDBRANCH  39  40
ENDBRANCH  31  34
ENDBRANCH  29  30
ENDBRANCH   1  29
TORSDOF 11
ENDMDL
MODEL 3
REMARK VINA RESULT:     -13.2      4.380      9.513
REMARK SMILES Cc1ccccc1[C@@H]1[NH2+][C@@H](C(=O)NCCCNC(=O)c2ccc(-c3c4nc(c(-c5ccccc5)c5ccc([nH]5)c(-c5ccccc5)c5nc(c(-c6ccccc6)c6ccc3[nH]6)C=C5)C=C4)cc2)CC2=c3ccccc3=N[C@H]21
REMARK SMILES IDX 15 1 14 2 13 3 11 4 12 5 10 7 8 8 9 9 77 10 69 13 76 14
REMARK SMILES IDX 68 15 70 16 75 17 71 18 74 19 72 20 73 21 7 22 1 23 2 24
REMARK SMILES IDX 3 25 4 26 6 27 5 28 16 29 17 30 18 31 19 33 20 34 21 35
REMARK SMILES IDX 67 36 22 37 66 38 23 39 24 40 25 41 60 42 26 43 65 44 59 45
REMARK SMILES IDX 61 46 27 47 64 48 58 49 57 50 28 52 50 53 35 54 49 55 36 56
REMARK SMILES IDX 39 57 48 58 62 59 37 60 38 61 47 63 63 64 40 65 29 66 30 67
REMARK SMILES IDX 34 68 31 69 33 70 32 71 51 72 52 73 56 74 53 75 55 76 54 77
REMARK SMILES IDX 41 78 42 79 46 80 43 81 45 82 44 83
REMARK H PARENT 13 6 9 11 9 12 17 32 61 51 39 62
REMARK Flexibility Score: inf
ROOT
ATOM      1  C   UNL A   1      39.651  22.203  26.582  1.00  0.00     0.042 C 
ENDROOT
BRANCH   1   2
ATOM      2  C   UNL A   1      38.452  21.785  25.732  1.00  0.00     0.118 C 
BRANCH   2   3
ATOM      3  N   UNL A   1      37.582  22.862  25.263  1.00  0.00    -0.351 N 
ATOM      4  C   UNL A   1      36.406  23.359  25.768  1.00  0.00     0.278 C 
ATOM      5  O   UNL A   1      36.235  24.579  25.642  1.00  0.00    -0.268 OA
ATOM      6  H   UNL A   1      37.893  23.308  24.443  1.00  0.00     0.163 HD
BRANCH   4   7
ATOM      7  C   UNL A   1      35.240  22.447  26.260  1.00  0.00     0.277 C 
ATOM      8  C   UNL A   1      33.369  21.602  24.693  1.00  0.00     0.243 C 
ATOM      9  N   UNL A   1      34.782  21.555  25.156  1.00  0.00    -0.327 N 
ATOM     10  C   UNL A   1      32.304  22.281  25.610  1.00  0.00     0.196 C 
ATOM     11  H   UNL A   1      35.363  21.768  24.346  1.00  0.00     0.347 HD
ATOM     12  H   UNL A   1      34.862  20.622  25.562  1.00  0.00     0.347 HD
ATOM     13  C   UNL A   1      32.944  23.420  26.314  1.00  0.00    -0.024 C 
ATOM     14  N   UNL A   1      31.174  22.913  24.853  1.00  0.00    -0.270 NA
ATOM     15  C   UNL A   1      34.145  23.103  27.094  1.00  0.00     0.109 C 
ATOM     16  C   UNL A   1      32.353  24.577  26.066  1.00  0.00     0.002 A 
ATOM     17  C   UNL A   1      31.246  24.167  25.193  1.00  0.00     0.066 A 
ATOM     18  C   UNL A   1      32.602  25.936  26.412  1.00  0.00     0.010 A 
ATOM     19  C   UNL A   1      30.318  25.249  24.792  1.00  0.00     0.028 A 
ATOM     20  C   UNL A   1      31.750  26.871  25.967  1.00  0.00     0.001 A 
ATOM     21  C   UNL A   1      30.580  26.510  25.181  1.00  0.00     0.002 A 
BRANCH   8  22
ATOM     22  C   UNL A   1      32.886  20.185  24.340  1.00  0.00     0.015 A 
ATOM     23  C   UNL A   1      32.026  20.807  21.984  1.00  0.00     0.045 C 
ATOM     24  C   UNL A   1      32.306  19.831  23.095  1.00  0.00    -0.042 A 
ATOM     25  C   UNL A   1      32.032  18.476  22.824  1.00  0.00     0.004 A 
ATOM     26  C   UNL A   1      32.281  17.484  23.769  1.00  0.00     0.000 A 
ATOM     27  C   UNL A   1      33.110  19.163  25.287  1.00  0.00     0.010 A 
ATOM     28  C   UNL A   1      32.808  17.830  25.006  1.00  0.00     0.001 A 
ENDBRANCH   8  22
ENDBRANCH   4   7
ENDBRANCH   2   3
ENDBRANCH   1   2
BRANCH   1  29
ATOM     29  C   UNL A   1      40.914  22.522  25.800  1.00  0.00     0.118 C 
BRANCH  29  30
ATOM     30  N   UNL A   1      41.730  21.339  25.510  1.00  0.00    -0.352 N 
ATOM     31  C   UNL A   1      42.911  20.934  26.116  1.00  0.00     0.251 C 
ATOM     32  H   UNL A   1      41.396  20.756  24.790  1.00  0.00     0.163 HD
ATOM     33  O   UNL A   1      43.414  19.853  25.862  1.00  0.00    -0.269 OA
BRANCH  31  34
ATOM     34  C   UNL A   1      43.470  21.800  27.176  1.00  0.00     0.039 A 
ATOM     35  C   UNL A   1      42.858  21.761  28.429  1.00  0.00     0.014 A 
ATOM     36  C   UNL A   1      44.327  22.839  26.823  1.00  0.00     0.014 A 
ATOM     37  C   UNL A   1      42.882  22.905  29.217  1.00  0.00     0.010 A 
ATOM     38  C   UNL A   1      44.255  24.012  27.551  1.00  0.00     0.010 A 
ATOM     39  C   UNL A   1      43.465  24.065  28.705  1.00  0.00    -0.014 A 
BRANCH  39  40
ATOM     40  C   UNL A   1      43.139  25.391  29.222  1.00  0.00     0.031 A 
ATOM     41  C   UNL A   1      41.959  26.127  28.736  1.00  0.00     0.074 A 
ATOM     42  C   UNL A   1      43.912  25.960  30.175  1.00  0.00     0.049 A 
ATOM     43  N   UNL A   1      41.878  27.415  28.720  1.00  0.00    -0.248 NA
ATOM     44  C   UNL A   1      40.787  25.460  28.184  1.00  0.00     0.031 C 
ATOM     45  C   UNL A   1      43.617  27.150  30.970  1.00  0.00     0.029 A 
ATOM     46  N   UNL A   1      45.254  25.689  30.444  1.00  0.00    -0.354 N 
ATOM     47  C   UNL A   1      40.567  27.733  28.466  1.00  0.00     0.074 A 
ATOM     48  C   UNL A   1      39.950  26.493  28.047  1.00  0.00     0.031 C 
ATOM     49  C   UNL A   1      44.772  27.668  31.416  1.00  0.00     0.029 A 
ATOM     50  C   UNL A   1      45.851  26.913  30.804  1.00  0.00     0.049 A 
ATOM     51  H   UNL A   1      45.698  24.811  30.392  1.00  0.00     0.167 HD
ATOM     52  C   UNL A   1      40.093  28.970  28.781  1.00  0.00     0.031 A 
ATOM     53  C   UNL A   1      46.868  27.447  30.067  1.00  0.00     0.031 A 
ATOM     54  C   UNL A   1      41.123  29.855  29.323  1.00  0.00     0.049 A 
ATOM     55  C   UNL A   1      46.588  28.823  29.495  1.00  0.00     0.074 A 
ATOM     56  C   UNL A   1      41.413  30.334  30.591  1.00  0.00     0.029 A 
ATOM     57  N   UNL A   1      42.222  30.174  28.538  1.00  0.00    -0.354 N 
ATOM     58  N   UNL A   1      45.443  29.442  29.567  1.00  0.00    -0.248 NA
ATOM     59  C   UNL A   1      47.559  29.553  28.683  1.00  0.00     0.031 C 
ATOM     60  C   UNL A   1      42.682  30.975  30.551  1.00  0.00     0.029 A 
ATOM     61  C   UNL A   1      43.162  30.884  29.260  1.00  0.00     0.049 A 
ATOM     62  H   UNL A   1      42.318  29.927  27.590  1.00  0.00     0.167 HD
ATOM     63  C   UNL A   1      45.477  30.568  28.779  1.00  0.00     0.074 A 
ATOM     64  C   UNL A   1      46.827  30.594  28.250  1.00  0.00     0.031 C 
ATOM     65  C   UNL A   1      44.368  31.345  28.586  1.00  0.00     0.031 A 
BRANCH  52  66
ATOM     66  C   UNL A   1      38.614  29.260  28.852  1.00  0.00    -0.014 A 
ATOM     67  C   UNL A   1      37.934  29.717  27.710  1.00  0.00     0.009 A 
ATOM     68  C   UNL A   1      37.850  29.155  30.027  1.00  0.00     0.009 A 
ATOM     69  C   UNL A   1      36.608  30.162  27.766  1.00  0.00     0.001 A 
ATOM     70  C   UNL A   1      36.539  29.643  30.103  1.00  0.00     0.001 A 
ATOM     71  C   UNL A   1      35.922  30.161  28.973  1.00  0.00     0.000 A 
ENDBRANCH  52  66
BRANCH  53  72
ATOM     72  C   UNL A   1      47.717  26.425  29.390  1.00  0.00    -0.014 A 
ATOM     73  C   UNL A   1      47.451  26.106  28.042  1.00  0.00     0.009 A 
ATOM     74  C   UNL A   1      48.942  26.027  29.943  1.00  0.00     0.009 A 
ATOM     75  C   UNL A   1      48.428  25.505  27.244  1.00  0.00     0.001 A 
ATOM     76  C   UNL A   1      49.910  25.407  29.144  1.00  0.00     0.001 A 
ATOM     77  C   UNL A   1      49.666  25.178  27.790  1.00  0.00     0.000 A 
ENDBRANCH  53  72
BRANCH  65  78
ATOM     78  C   UNL A   1      44.269  32.579  27.712  1.00  0.00    -0.014 A 
ATOM     79  C   UNL A   1      44.050  33.879  28.182  1.00  0.00     0.009 A 
ATOM     80  C   UNL A   1      44.325  32.431  26.305  1.00  0.00     0.009 A 
ATOM     81  C   UNL A   1      43.986  34.976  27.306  1.00  0.00     0.001 A 
ATOM     82  C   UNL A   1      44.240  33.515  25.426  1.00  0.00     0.001 A 
ATOM     83  C   UNL A   1      44.089  34.795  25.931  1.00  0.00     0.000 A 
ENDBRANCH  65  78
ENDBRANCH  39  40
ENDBRANCH  31  34
ENDBRANCH  29  30
ENDBRANCH   1  29
TORSDOF 11
ENDMDL
