MODEL 1
REMARK VINA RESULT:     -10.7      0.000      0.000
REMARK SMILES CC[NH+](CC)[C@](C)(C(=O)NCCCNC(=O)c1ccc(-c2c3nc(c(-c4ccccc4)c4ccc([nH]4)c(-c4ccccc4)c4nc(c(-c5ccccc5)c5ccc2[nH]5)C=C4)C=C3)cc1)c1cc(F)c(C)cc1F
REMARK SMILES IDX 12 1 11 2 10 3 8 4 9 5 6 7 7 8 3 9 2 11 1 12 4 13 5 14 65 15
REMARK SMILES IDX 66 16 72 17 67 18 71 19 73 20 68 21 69 22 70 23 13 24 14 25
REMARK SMILES IDX 15 26 16 28 17 29 18 30 64 31 19 32 63 33 20 34 21 35 22 36
REMARK SMILES IDX 57 37 23 38 62 39 56 40 58 41 24 42 61 43 55 44 54 45 25 47
REMARK SMILES IDX 47 48 32 49 46 50 33 51 36 52 45 53 59 54 34 55 35 56 44 58
REMARK SMILES IDX 60 59 37 60 26 61 27 62 31 63 28 64 30 65 29 66 48 67 49 68
REMARK SMILES IDX 53 69 50 70 52 71 51 72 38 73 39 74 43 75 40 76 42 77 41 78
REMARK H PARENT 10 6 3 10 14 27 58 46 36 57
REMARK Flexibility Score: inf
ROOT
ATOM      1  C   UNL A   1      37.398  21.100  24.621  1.00  0.00     0.042 C 
ENDROOT
BRANCH   1   2
ATOM      2  C   UNL A   1      35.947  21.007  25.047  1.00  0.00     0.118 C 
BRANCH   2   3
ATOM      3  N   UNL A   1      35.622  21.903  26.142  1.00  0.00    -0.350 N 
ATOM      4  C   UNL A   1      34.565  22.739  26.378  1.00  0.00     0.286 C 
ATOM      5  O   UNL A   1      34.337  22.820  27.592  1.00  0.00    -0.267 OA
ATOM      6  H   UNL A   1      36.298  21.912  26.859  1.00  0.00     0.163 HD
BRANCH   4   7
ATOM      7  C   UNL A   1      33.704  23.492  25.239  1.00  0.00     0.202 C 
ATOM      8  C   UNL A   1      34.704  23.684  24.054  1.00  0.00     0.096 C 
BRANCH   7   9
ATOM      9  N   UNL A   1      32.433  22.688  24.906  1.00  0.00    -0.319 N 
ATOM     10  H   UNL A   1      31.772  23.069  25.583  1.00  0.00     0.349 HD
BRANCH   9  11
ATOM     11  C   UNL A   1      32.407  21.254  25.226  1.00  0.00     0.259 C 
ATOM     12  C   UNL A   1      32.461  20.288  24.043  1.00  0.00     0.071 C 
ENDBRANCH   9  11
BRANCH   9  13
ATOM     13  C   UNL A   1      31.952  22.950  23.524  1.00  0.00     0.259 C 
ATOM     14  C   UNL A   1      30.684  23.783  23.313  1.00  0.00     0.071 C 
ENDBRANCH   9  13
ENDBRANCH   7   9
BRANCH   7  15
ATOM     15  C   UNL A   1      33.282  24.960  25.713  1.00  0.00     0.060 A 
ATOM     16  C   UNL A   1      34.084  26.107  25.545  1.00  0.00     0.053 A 
ATOM     17  C   UNL A   1      32.058  25.205  26.383  1.00  0.00     0.133 A 
ATOM     18  C   UNL A   1      33.687  27.376  25.991  1.00  0.00     0.126 A 
ATOM     19  C   UNL A   1      31.673  26.466  26.859  1.00  0.00     0.046 A 
ATOM     20  F   UNL A   1      31.186  24.218  26.636  1.00  0.00    -0.206 F 
ATOM     21  F   UNL A   1      34.490  28.423  25.753  1.00  0.00    -0.207 F 
ATOM     22  C   UNL A   1      32.494  27.571  26.675  1.00  0.00    -0.012 A 
ATOM     23  C   UNL A   1      32.099  28.928  27.165  1.00  0.00     0.047 C 
ENDBRANCH   7  15
ENDBRANCH   4   7
ENDBRANCH   2   3
ENDBRANCH   1   2
BRANCH   1  24
ATOM     24  C   UNL A   1      38.366  21.068  25.796  1.00  0.00     0.118 C 
BRANCH  24  25
ATOM     25  N   UNL A   1      39.318  19.963  25.725  1.00  0.00    -0.352 N 
ATOM     26  C   UNL A   1      40.673  19.929  25.976  1.00  0.00     0.251 C 
ATOM     27  H   UNL A   1      38.929  19.100  25.455  1.00  0.00     0.163 HD
ATOM     28  O   UNL A   1      41.331  18.943  25.685  1.00  0.00    -0.269 OA
BRANCH  26  29
ATOM     29  C   UNL A   1      41.332  21.113  26.567  1.00  0.00     0.039 A 
ATOM     30  C   UNL A   1      41.872  22.090  25.728  1.00  0.00     0.014 A 
ATOM     31  C   UNL A   1      41.383  21.273  27.951  1.00  0.00     0.014 A 
ATOM     32  C   UNL A   1      42.361  23.276  26.278  1.00  0.00     0.010 A 
ATOM     33  C   UNL A   1      41.748  22.500  28.485  1.00  0.00     0.010 A 
ATOM     34  C   UNL A   1      42.246  23.516  27.656  1.00  0.00    -0.014 A 
BRANCH  34  35
ATOM     35  C   UNL A   1      42.636  24.810  28.271  1.00  0.00     0.031 A 
ATOM     36  C   UNL A   1      41.596  25.874  28.499  1.00  0.00     0.074 A 
ATOM     37  C   UNL A   1      43.935  25.071  28.519  1.00  0.00     0.049 A 
ATOM     38  N   UNL A   1      41.753  27.114  28.885  1.00  0.00    -0.248 NA
ATOM     39  C   UNL A   1      40.199  25.510  28.208  1.00  0.00     0.031 C 
ATOM     40  C   UNL A   1      45.052  24.152  28.283  1.00  0.00     0.029 A 
ATOM     41  N   UNL A   1      44.537  26.199  29.018  1.00  0.00    -0.354 N 
ATOM     42  C   UNL A   1      40.488  27.686  28.836  1.00  0.00     0.074 A 
ATOM     43  C   UNL A   1      39.583  26.676  28.335  1.00  0.00     0.031 C 
ATOM     44  C   UNL A   1      46.196  24.740  28.670  1.00  0.00     0.029 A 
ATOM     45  C   UNL A   1      45.901  26.088  29.139  1.00  0.00     0.049 A 
ATOM     46  H   UNL A   1      44.039  27.012  29.265  1.00  0.00     0.167 HD
ATOM     47  C   UNL A   1      40.105  28.932  29.199  1.00  0.00     0.031 A 
ATOM     48  C   UNL A   1      46.814  26.976  29.576  1.00  0.00     0.031 A 
ATOM     49  C   UNL A   1      40.992  29.919  29.748  1.00  0.00     0.049 A 
ATOM     50  C   UNL A   1      46.357  28.337  30.021  1.00  0.00     0.074 A 
ATOM     51  C   UNL A   1      40.689  31.180  30.228  1.00  0.00     0.029 A 
ATOM     52  N   UNL A   1      42.359  29.747  29.903  1.00  0.00    -0.354 N 
ATOM     53  N   UNL A   1      45.146  28.838  30.030  1.00  0.00    -0.248 NA
ATOM     54  C   UNL A   1      47.393  29.248  30.527  1.00  0.00     0.031 C 
ATOM     55  C   UNL A   1      41.879  31.786  30.643  1.00  0.00     0.029 A 
ATOM     56  C   UNL A   1      42.915  30.884  30.461  1.00  0.00     0.049 A 
ATOM     57  H   UNL A   1      42.858  28.936  29.653  1.00  0.00     0.167 HD
ATOM     58  C   UNL A   1      45.271  30.115  30.563  1.00  0.00     0.074 A 
ATOM     59  C   UNL A   1      46.672  30.303  30.881  1.00  0.00     0.031 C 
ATOM     60  C   UNL A   1      44.311  31.048  30.772  1.00  0.00     0.031 A 
BRANCH  47  61
ATOM     61  C   UNL A   1      38.655  29.287  29.019  1.00  0.00    -0.014 A 
ATOM     62  C   UNL A   1      37.747  29.207  30.087  1.00  0.00     0.009 A 
ATOM     63  C   UNL A   1      38.193  29.723  27.767  1.00  0.00     0.009 A 
ATOM     64  C   UNL A   1      36.399  29.512  29.895  1.00  0.00     0.001 A 
ATOM     65  C   UNL A   1      36.850  30.056  27.585  1.00  0.00     0.001 A 
ATOM     66  C   UNL A   1      35.952  29.940  28.645  1.00  0.00     0.000 A 
ENDBRANCH  47  61
BRANCH  48  67
ATOM     67  C   UNL A   1      48.248  26.597  29.644  1.00  0.00    -0.014 A 
ATOM     68  C   UNL A   1      48.749  25.930  30.772  1.00  0.00     0.009 A 
ATOM     69  C   UNL A   1      49.122  26.897  28.588  1.00  0.00     0.009 A 
ATOM     70  C   UNL A   1      50.102  25.594  30.854  1.00  0.00     0.001 A 
ATOM     71  C   UNL A   1      50.470  26.536  28.661  1.00  0.00     0.001 A 
ATOM     72  C   UNL A   1      50.961  25.894  29.798  1.00  0.00     0.000 A 
ENDBRANCH  48  67
BRANCH  60  73
ATOM     73  C   UNL A   1      44.739  32.341  31.402  1.00  0.00    -0.014 A 
ATOM     74  C   UNL A   1      45.123  33.438  30.617  1.00  0.00     0.009 A 
ATOM     75  C   UNL A   1      44.712  32.474  32.799  1.00  0.00     0.009 A 
ATOM     76  C   UNL A   1      45.501  34.638  31.222  1.00  0.00     0.001 A 
ATOM     77  C   UNL A   1      45.065  33.682  33.400  1.00  0.00     0.001 A 
ATOM     78  C   UNL A   1      45.466  34.760  32.612  1.00  0.00     0.000 A 
ENDBRANCH  60  73
ENDBRANCH  34  35
ENDBRANCH  26  29
ENDBRANCH  24  25
ENDBRANCH   1  24
TORSDOF 14
ENDMDL
MODEL 2
REMARK VINA RESULT:     -10.6      0.426      6.017
REMARK SMILES CC[NH+](CC)[C@](C)(C(=O)NCCCNC(=O)c1ccc(-c2c3nc(c(-c4ccccc4)c4ccc([nH]4)c(-c4ccccc4)c4nc(c(-c5ccccc5)c5ccc2[nH]5)C=C4)C=C3)cc1)c1cc(F)c(C)cc1F
REMARK SMILES IDX 12 1 11 2 10 3 8 4 9 5 6 7 7 8 3 9 2 11 1 12 4 13 5 14 65 15
REMARK SMILES IDX 66 16 72 17 67 18 71 19 73 20 68 21 69 22 70 23 13 24 14 25
REMARK SMILES IDX 15 26 16 28 17 29 18 30 64 31 19 32 63 33 20 34 21 35 22 36
REMARK SMILES IDX 57 37 23 38 62 39 56 40 58 41 24 42 61 43 55 44 54 45 25 47
REMARK SMILES IDX 47 48 32 49 46 50 33 51 36 52 45 53 59 54 34 55 35 56 44 58
REMARK SMILES IDX 60 59 37 60 26 61 27 62 31 63 28 64 30 65 29 66 48 67 49 68
REMARK SMILES IDX 53 69 50 70 52 71 51 72 38 73 39 74 43 75 40 76 42 77 41 78
REMARK H PARENT 10 6 3 10 14 27 58 46 36 57
REMARK Flexibility Score: inf
ROOT
ATOM      1  C   UNL A   1      37.179  20.325  24.975  1.00  0.00     0.042 C 
ENDROOT
BRANCH   1   2
ATOM      2  C   UNL A   1      36.245  21.470  24.637  1.00  0.00     0.118 C 
BRANCH   2   3
ATOM      3  N   UNL A   1      35.895  22.273  25.794  1.00  0.00    -0.350 N 
ATOM      4  C   UNL A   1      34.781  22.997  26.122  1.00  0.00     0.286 C 
ATOM      5  O   UNL A   1      34.605  22.992  27.348  1.00  0.00    -0.267 OA
ATOM      6  H   UNL A   1      36.601  22.305  26.480  1.00  0.00     0.163 HD
BRANCH   4   7
ATOM      7  C   UNL A   1      33.805  23.729  25.065  1.00  0.00     0.202 C 
ATOM      8  C   UNL A   1      34.711  24.014  23.826  1.00  0.00     0.096 C 
BRANCH   7   9
ATOM      9  N   UNL A   1      32.563  22.860  24.790  1.00  0.00    -0.319 N 
ATOM     10  H   UNL A   1      31.901  23.236  25.467  1.00  0.00     0.349 HD
BRANCH   9  11
ATOM     11  C   UNL A   1      32.607  21.438  25.160  1.00  0.00     0.259 C 
ATOM     12  C   UNL A   1      32.686  20.434  24.011  1.00  0.00     0.071 C 
ENDBRANCH   9  11
BRANCH   9  13
ATOM     13  C   UNL A   1      32.042  23.050  23.411  1.00  0.00     0.259 C 
ATOM     14  C   UNL A   1      30.813  23.935  23.186  1.00  0.00     0.071 C 
ENDBRANCH   9  13
ENDBRANCH   7   9
BRANCH   7  15
ATOM     15  C   UNL A   1      33.330  25.154  25.613  1.00  0.00     0.060 A 
ATOM     16  C   UNL A   1      34.073  26.344  25.471  1.00  0.00     0.053 A 
ATOM     17  C   UNL A   1      32.117  25.314  26.327  1.00  0.00     0.133 A 
ATOM     18  C   UNL A   1      33.632  27.574  25.981  1.00  0.00     0.126 A 
ATOM     19  C   UNL A   1      31.689  26.535  26.867  1.00  0.00     0.046 A 
ATOM     20  F   UNL A   1      31.300  24.277  26.563  1.00  0.00    -0.206 F 
ATOM     21  F   UNL A   1      34.379  28.666  25.764  1.00  0.00    -0.207 F 
ATOM     22  C   UNL A   1      32.453  27.684  26.707  1.00  0.00    -0.012 A 
ATOM     23  C   UNL A   1      32.011  28.999  27.264  1.00  0.00     0.047 C 
ENDBRANCH   7  15
ENDBRANCH   4   7
ENDBRANCH   2   3
ENDBRANCH   1   2
BRANCH   1  24
ATOM     24  C   UNL A   1      38.522  20.794  25.515  1.00  0.00     0.118 C 
BRANCH  24  25
ATOM     25  N   UNL A   1      39.503  19.718  25.630  1.00  0.00    -0.352 N 
ATOM     26  C   UNL A   1      40.829  19.749  26.003  1.00  0.00     0.251 C 
ATOM     27  H   UNL A   1      39.161  18.823  25.404  1.00  0.00     0.163 HD
ATOM     28  O   UNL A   1      41.534  18.763  25.862  1.00  0.00    -0.269 OA
BRANCH  26  29
ATOM     29  C   UNL A   1      41.403  20.999  26.544  1.00  0.00     0.039 A 
ATOM     30  C   UNL A   1      41.995  21.916  25.674  1.00  0.00     0.014 A 
ATOM     31  C   UNL A   1      41.320  21.280  27.907  1.00  0.00     0.014 A 
ATOM     32  C   UNL A   1      42.403  23.161  26.159  1.00  0.00     0.010 A 
ATOM     33  C   UNL A   1      41.605  22.559  28.361  1.00  0.00     0.010 A 
ATOM     34  C   UNL A   1      42.154  23.515  27.494  1.00  0.00    -0.014 A 
BRANCH  34  35
ATOM     35  C   UNL A   1      42.456  24.869  28.023  1.00  0.00     0.031 A 
ATOM     36  C   UNL A   1      43.850  25.200  28.482  1.00  0.00     0.074 A 
ATOM     37  C   UNL A   1      41.459  25.761  28.194  1.00  0.00     0.049 A 
ATOM     38  N   UNL A   1      44.284  26.266  29.104  1.00  0.00    -0.248 NA
ATOM     39  C   UNL A   1      44.885  24.176  28.257  1.00  0.00     0.031 C 
ATOM     40  C   UNL A   1      40.050  25.545  27.851  1.00  0.00     0.029 A 
ATOM     41  N   UNL A   1      41.480  27.031  28.712  1.00  0.00    -0.354 N 
ATOM     42  C   UNL A   1      45.623  26.019  29.383  1.00  0.00     0.074 A 
ATOM     43  C   UNL A   1      45.917  24.685  28.911  1.00  0.00     0.031 C 
ATOM     44  C   UNL A   1      39.351  26.655  28.136  1.00  0.00     0.029 A 
ATOM     45  C   UNL A   1      40.250  27.644  28.719  1.00  0.00     0.049 A 
ATOM     46  H   UNL A   1      42.298  27.462  29.049  1.00  0.00     0.167 HD
ATOM     47  C   UNL A   1      46.535  26.837  29.958  1.00  0.00     0.031 A 
ATOM     48  C   UNL A   1      39.886  28.866  29.151  1.00  0.00     0.031 A 
ATOM     49  C   UNL A   1      46.259  28.182  30.379  1.00  0.00     0.049 A 
ATOM     50  C   UNL A   1      40.928  29.775  29.740  1.00  0.00     0.074 A 
ATOM     51  C   UNL A   1      47.133  29.123  30.892  1.00  0.00     0.029 A 
ATOM     52  N   UNL A   1      45.011  28.782  30.318  1.00  0.00    -0.354 N 
ATOM     53  N   UNL A   1      42.204  29.549  29.937  1.00  0.00    -0.248 NA
ATOM     54  C   UNL A   1      40.479  31.112  30.156  1.00  0.00     0.031 C 
ATOM     55  C   UNL A   1      46.407  30.284  31.175  1.00  0.00     0.029 A 
ATOM     56  C   UNL A   1      45.089  30.078  30.797  1.00  0.00     0.049 A 
ATOM     57  H   UNL A   1      44.191  28.350  29.985  1.00  0.00     0.167 HD
ATOM     58  C   UNL A   1      42.716  30.722  30.476  1.00  0.00     0.074 A 
ATOM     59  C   UNL A   1      41.616  31.661  30.560  1.00  0.00     0.031 C 
ATOM     60  C   UNL A   1      43.984  30.997  30.868  1.00  0.00     0.031 A 
BRANCH  47  61
ATOM     61  C   UNL A   1      47.922  26.292  30.154  1.00  0.00    -0.014 A 
ATOM     62  C   UNL A   1      48.853  26.273  29.103  1.00  0.00     0.009 A 
ATOM     63  C   UNL A   1      48.309  25.802  31.412  1.00  0.00     0.009 A 
ATOM     64  C   UNL A   1      50.127  25.736  29.295  1.00  0.00     0.001 A 
ATOM     65  C   UNL A   1      49.594  25.293  31.609  1.00  0.00     0.001 A 
ATOM     66  C   UNL A   1      50.498  25.250  30.548  1.00  0.00     0.000 A 
ENDBRANCH  47  61
BRANCH  48  67
ATOM     67  C   UNL A   1      38.477  29.315  29.015  1.00  0.00    -0.014 A 
ATOM     68  C   UNL A   1      38.008  29.804  27.786  1.00  0.00     0.009 A 
ATOM     69  C   UNL A   1      37.595  29.258  30.105  1.00  0.00     0.009 A 
ATOM     70  C   UNL A   1      36.691  30.252  27.658  1.00  0.00     0.001 A 
ATOM     71  C   UNL A   1      36.272  29.682  29.967  1.00  0.00     0.001 A 
ATOM     72  C   UNL A   1      35.823  30.187  28.747  1.00  0.00     0.000 A 
ENDBRANCH  48  67
BRANCH  60  73
ATOM     73  C   UNL A   1      44.255  32.377  31.389  1.00  0.00    -0.014 A 
ATOM     74  C   UNL A   1      44.615  33.422  30.526  1.00  0.00     0.009 A 
ATOM     75  C   UNL A   1      44.103  32.643  32.760  1.00  0.00     0.009 A 
ATOM     76  C   UNL A   1      44.844  34.704  31.029  1.00  0.00     0.001 A 
ATOM     77  C   UNL A   1      44.309  33.930  33.256  1.00  0.00     0.001 A 
ATOM     78  C   UNL A   1      44.687  34.957  32.392  1.00  0.00     0.000 A 
ENDBRANCH  60  73
ENDBRANCH  34  35
ENDBRANCH  26  29
ENDBRANCH  24  25
ENDBRANCH   1  24
TORSDOF 14
ENDMDL
MODEL 3
REMARK VINA RESULT:     -10.6      1.356      2.932
REMARK SMILES CC[NH+](CC)[C@](C)(C(=O)NCCCNC(=O)c1ccc(-c2c3nc(c(-c4ccccc4)c4ccc([nH]4)c(-c4ccccc4)c4nc(c(-c5ccccc5)c5ccc2[nH]5)C=C4)C=C3)cc1)c1cc(F)c(C)cc1F
REMARK SMILES IDX 12 1 11 2 10 3 8 4 9 5 6 7 7 8 3 9 2 11 1 12 4 13 5 14 65 15
REMARK SMILES IDX 66 16 72 17 67 18 71 19 73 20 68 21 69 22 70 23 13 24 14 25
REMARK SMILES IDX 15 26 16 28 17 29 18 30 64 31 19 32 63 33 20 34 21 35 22 36
REMARK SMILES IDX 57 37 23 38 62 39 56 40 58 41 24 42 61 43 55 44 54 45 25 47
REMARK SMILES IDX 47 48 32 49 46 50 33 51 36 52 45 53 59 54 34 55 35 56 44 58
REMARK SMILES IDX 60 59 37 60 26 61 27 62 31 63 28 64 30 65 29 66 48 67 49 68
REMARK SMILES IDX 53 69 50 70 52 71 51 72 38 73 39 74 43 75 40 76 42 77 41 78
REMARK H PARENT 10 6 3 10 14 27 58 46 36 57
REMARK Flexibility Score: inf
ROOT
ATOM      1  C   UNL A   1      36.864  20.852  25.153  1.00  0.00     0.042 C 
ENDROOT
BRANCH   1   2
ATOM      2  C   UNL A   1      36.005  22.066  24.861  1.00  0.00     0.118 C 
BRANCH   2   3
ATOM      3  N   UNL A   1      35.510  22.710  26.065  1.00  0.00    -0.350 N 
ATOM      4  C   UNL A   1      34.259  22.844  26.601  1.00  0.00     0.286 C 
ATOM      5  O   UNL A   1      34.316  22.870  27.838  1.00  0.00    -0.267 OA
ATOM      6  H   UNL A   1      36.217  23.136  26.602  1.00  0.00     0.163 HD
BRANCH   4   7
ATOM      7  C   UNL A   1      32.888  22.922  25.752  1.00  0.00     0.202 C 
ATOM      8  C   UNL A   1      31.756  22.796  26.820  1.00  0.00     0.096 C 
BRANCH   7   9
ATOM      9  N   UNL A   1      32.855  24.208  24.903  1.00  0.00    -0.319 N 
ATOM     10  H   UNL A   1      32.993  23.833  23.966  1.00  0.00     0.349 HD
BRANCH   9  11
ATOM     11  C   UNL A   1      33.973  25.155  25.022  1.00  0.00     0.259 C 
ATOM     12  C   UNL A   1      33.618  26.584  25.432  1.00  0.00     0.071 C 
ENDBRANCH   9  11
BRANCH   9  13
ATOM     13  C   UNL A   1      31.542  24.898  24.986  1.00  0.00     0.259 C 
ATOM     14  C   UNL A   1      30.631  24.934  23.756  1.00  0.00     0.071 C 
ENDBRANCH   9  13
ENDBRANCH   7   9
BRANCH   7  15
ATOM     15  C   UNL A   1      32.737  21.658  24.784  1.00  0.00     0.060 A 
ATOM     16  C   UNL A   1      32.374  21.741  23.425  1.00  0.00     0.053 A 
ATOM     17  C   UNL A   1      32.929  20.333  25.250  1.00  0.00     0.133 A 
ATOM     18  C   UNL A   1      32.234  20.607  22.611  1.00  0.00     0.126 A 
ATOM     19  C   UNL A   1      32.757  19.197  24.448  1.00  0.00     0.046 A 
ATOM     20  F   UNL A   1      33.263  20.079  26.523  1.00  0.00    -0.206 F 
ATOM     21  F   UNL A   1      31.928  20.777  21.316  1.00  0.00    -0.207 F 
ATOM     22  C   UNL A   1      32.396  19.322  23.112  1.00  0.00    -0.012 A 
ATOM     23  C   UNL A   1      32.218  18.124  22.236  1.00  0.00     0.047 C 
ENDBRANCH   7  15
ENDBRANCH   4   7
ENDBRANCH   2   3
ENDBRANCH   1   2
BRANCH   1  24
ATOM     24  C   UNL A   1      38.322  21.205  25.412  1.00  0.00     0.118 C 
BRANCH  24  25
ATOM     25  N   UNL A   1      39.187  20.033  25.515  1.00  0.00    -0.352 N 
ATOM     26  C   UNL A   1      40.496  19.918  25.932  1.00  0.00     0.251 C 
ATOM     27  H   UNL A   1      38.767  19.185  25.242  1.00  0.00     0.163 HD
ATOM     28  O   UNL A   1      41.105  18.872  25.774  1.00  0.00    -0.269 OA
BRANCH  26  29
ATOM     29  C   UNL A   1      41.170  21.084  26.540  1.00  0.00     0.039 A 
ATOM     30  C   UNL A   1      41.814  22.012  25.719  1.00  0.00     0.014 A 
ATOM     31  C   UNL A   1      41.132  21.279  27.920  1.00  0.00     0.014 A 
ATOM     32  C   UNL A   1      42.321  23.188  26.275  1.00  0.00     0.010 A 
ATOM     33  C   UNL A   1      41.519  22.500  28.450  1.00  0.00     0.010 A 
ATOM     34  C   UNL A   1      42.122  23.469  27.635  1.00  0.00    -0.014 A 
BRANCH  34  35
ATOM     35  C   UNL A   1      42.533  24.760  28.245  1.00  0.00     0.031 A 
ATOM     36  C   UNL A   1      41.508  25.839  28.473  1.00  0.00     0.074 A 
ATOM     37  C   UNL A   1      43.836  25.003  28.489  1.00  0.00     0.049 A 
ATOM     38  N   UNL A   1      41.684  27.078  28.855  1.00  0.00    -0.248 NA
ATOM     39  C   UNL A   1      40.105  25.494  28.187  1.00  0.00     0.031 C 
ATOM     40  C   UNL A   1      44.939  24.068  28.253  1.00  0.00     0.029 A 
ATOM     41  N   UNL A   1      44.455  26.123  28.983  1.00  0.00    -0.354 N 
ATOM     42  C   UNL A   1      40.426  27.667  28.809  1.00  0.00     0.074 A 
ATOM     43  C   UNL A   1      39.506  26.668  28.313  1.00  0.00     0.031 C 
ATOM     44  C   UNL A   1      46.092  24.640  28.635  1.00  0.00     0.029 A 
ATOM     45  C   UNL A   1      45.818  25.994  29.101  1.00  0.00     0.049 A 
ATOM     46  H   UNL A   1      43.968  26.944  29.230  1.00  0.00     0.167 HD
ATOM     47  C   UNL A   1      40.061  28.919  29.169  1.00  0.00     0.031 A 
ATOM     48  C   UNL A   1      46.744  26.870  29.534  1.00  0.00     0.031 A 
ATOM     49  C   UNL A   1      40.964  29.895  29.713  1.00  0.00     0.049 A 
ATOM     50  C   UNL A   1      46.307  28.239  29.976  1.00  0.00     0.074 A 
ATOM     51  C   UNL A   1      40.680  31.162  30.191  1.00  0.00     0.029 A 
ATOM     52  N   UNL A   1      42.328  29.704  29.865  1.00  0.00    -0.354 N 
ATOM     53  N   UNL A   1      45.104  28.757  29.987  1.00  0.00    -0.248 NA
ATOM     54  C   UNL A   1      47.357  29.137  30.477  1.00  0.00     0.031 C 
ATOM     55  C   UNL A   1      41.880  31.752  30.601  1.00  0.00     0.029 A 
ATOM     56  C   UNL A   1      42.902  30.834  30.418  1.00  0.00     0.049 A 
ATOM     57  H   UNL A   1      42.816  28.885  29.616  1.00  0.00     0.167 HD
ATOM     58  C   UNL A   1      45.248  30.033  30.517  1.00  0.00     0.074 A 
ATOM     59  C   UNL A   1      46.652  30.202  30.830  1.00  0.00     0.031 C 
ATOM     60  C   UNL A   1      44.301  30.980  30.726  1.00  0.00     0.031 A 
BRANCH  47  61
ATOM     61  C   UNL A   1      38.617  29.294  28.992  1.00  0.00    -0.014 A 
ATOM     62  C   UNL A   1      37.707  29.211  30.058  1.00  0.00     0.009 A 
ATOM     63  C   UNL A   1      38.162  29.751  27.745  1.00  0.00     0.009 A 
ATOM     64  C   UNL A   1      36.362  29.535  29.868  1.00  0.00     0.001 A 
ATOM     65  C   UNL A   1      36.823  30.102  27.566  1.00  0.00     0.001 A 
ATOM     66  C   UNL A   1      35.922  29.984  28.623  1.00  0.00     0.000 A 
ENDBRANCH  47  61
BRANCH  48  67
ATOM     67  C   UNL A   1      48.173  26.472  29.599  1.00  0.00    -0.014 A 
ATOM     68  C   UNL A   1      49.029  26.736  28.519  1.00  0.00     0.009 A 
ATOM     69  C   UNL A   1      48.689  25.829  30.734  1.00  0.00     0.009 A 
ATOM     70  C   UNL A   1      50.368  26.341  28.563  1.00  0.00     0.001 A 
ATOM     71  C   UNL A   1      50.035  25.458  30.786  1.00  0.00     0.001 A 
ATOM     72  C   UNL A   1      50.871  25.706  29.697  1.00  0.00     0.000 A 
ENDBRANCH  48  67
BRANCH  60  73
ATOM     73  C   UNL A   1      44.748  32.268  31.351  1.00  0.00    -0.014 A 
ATOM     74  C   UNL A   1      45.133  33.362  30.562  1.00  0.00     0.009 A 
ATOM     75  C   UNL A   1      44.740  32.401  32.748  1.00  0.00     0.009 A 
ATOM     76  C   UNL A   1      45.529  34.559  31.163  1.00  0.00     0.001 A 
ATOM     77  C   UNL A   1      45.112  33.605  33.345  1.00  0.00     0.001 A 
ATOM     78  C   UNL A   1      45.514  34.680  32.554  1.00  0.00     0.000 A 
ENDBRANCH  60  73
ENDBRANCH  34  35
ENDBRANCH  26  29
ENDBRANCH  24  25
ENDBRANCH   1  24
TORSDOF 14
ENDMDL
