MODEL 1
REMARK VINA RESULT:     -11.6      0.000      0.000
REMARK SMILES CCCN1CCC[C@@]2(CCN(c3ccc(C(=O)NCCCNC(=O)c4ccc(-c5c6nc(c(-c7ccccc7)c7ccc([nH]7)c(-c7ccccc7)c7nc(c(-c8ccccc8)c8ccc5[nH]8)C=C7)C=C6)cc4)cn3)C2)C1=O
REMARK SMILES IDX 19 1 18 2 16 3 17 4 15 6 12 7 13 8 74 9 14 10 73 11 11 12
REMARK SMILES IDX 4 13 5 14 76 15 6 16 8 17 77 18 7 19 9 20 75 21 10 22 3 23
REMARK SMILES IDX 2 24 1 25 20 26 21 27 22 28 23 29 24 31 25 32 26 33 72 34
REMARK SMILES IDX 27 35 71 36 28 37 29 38 30 39 65 40 31 41 70 42 64 43 66 44
REMARK SMILES IDX 32 45 69 46 63 47 62 48 33 50 55 51 40 52 54 53 41 54 44 55
REMARK SMILES IDX 53 56 67 57 42 58 43 59 52 61 68 62 45 63 34 64 35 65 39 66
REMARK SMILES IDX 36 67 38 68 37 69 56 70 57 71 61 72 58 73 60 74 59 75 46 76
REMARK SMILES IDX 47 77 51 78 48 79 50 80 49 81
REMARK H PARENT 18 5 22 30 66 49 44 60
REMARK Flexibility Score: inf
ROOT
ATOM      1  C   UNL A   1      36.708  20.397  24.931  1.00  0.00     0.118 C 
ENDROOT
BRANCH   1   2
ATOM      2  N   UNL A   1      35.563  19.509  24.833  1.00  0.00    -0.352 N 
ATOM      3  C   UNL A   1      34.208  19.730  24.882  1.00  0.00     0.252 C 
ATOM      4  O   UNL A   1      33.475  18.763  24.665  1.00  0.00    -0.269 OA
ATOM      5  H   UNL A   1      35.806  18.563  24.708  1.00  0.00     0.163 HD
BRANCH   3   6
ATOM      6  C   UNL A   1      33.588  21.053  25.149  1.00  0.00     0.058 A 
ATOM      7  C   UNL A   1      32.456  23.466  25.943  1.00  0.00     0.128 A 
ATOM      8  C   UNL A   1      32.359  23.051  24.619  1.00  0.00     0.048 A 
ATOM      9  N   UNL A   1      33.139  22.746  26.850  1.00  0.00    -0.239 NA
ATOM     10  C   UNL A   1      32.948  21.855  24.216  1.00  0.00     0.019 A 
ATOM     11  C   UNL A   1      33.678  21.564  26.441  1.00  0.00     0.127 A 
BRANCH   7  12
ATOM     12  N   UNL A   1      31.717  24.570  26.330  1.00  0.00    -0.356 N 
ATOM     13  N   UNL A   1      32.341  28.466  24.474  1.00  0.00    -0.342 N 
ATOM     14  C   UNL A   1      32.716  29.431  25.496  1.00  0.00     0.119 C 
ATOM     15  C   UNL A   1      31.325  27.543  24.718  1.00  0.00     0.230 C 
ATOM     16  C   UNL A   1      32.851  28.806  26.871  1.00  0.00     0.023 C 
ATOM     17  C   UNL A   1      31.334  26.928  26.123  1.00  0.00     0.069 C 
ATOM     18  O   UNL A   1      30.569  27.141  23.836  1.00  0.00    -0.274 OA
ATOM     19  C   UNL A   1      31.603  27.990  27.197  1.00  0.00     0.021 C 
ATOM     20  C   UNL A   1      30.033  26.143  26.402  1.00  0.00     0.040 C 
ATOM     21  C   UNL A   1      32.426  25.833  26.123  1.00  0.00     0.135 C 
ATOM     22  C   UNL A   1      30.338  24.729  25.899  1.00  0.00     0.119 C 
BRANCH  13  23
ATOM     23  C   UNL A   1      32.752  28.724  23.095  1.00  0.00     0.119 C 
BRANCH  23  24
ATOM     24  C   UNL A   1      33.920  27.835  22.651  1.00  0.00     0.018 C 
ATOM     25  C   UNL A   1      33.479  26.546  21.969  1.00  0.00     0.006 C 
ENDBRANCH  23  24
ENDBRANCH  13  23
ENDBRANCH   7  12
ENDBRANCH   3   6
ENDBRANCH   1   2
BRANCH   1  26
ATOM     26  C   UNL A   1      38.030  19.631  24.848  1.00  0.00     0.042 C 
BRANCH  26  27
ATOM     27  C   UNL A   1      39.075  20.098  25.857  1.00  0.00     0.118 C 
BRANCH  27  28
ATOM     28  N   UNL A   1      40.260  19.251  25.844  1.00  0.00    -0.352 N 
ATOM     29  C   UNL A   1      41.578  19.569  26.035  1.00  0.00     0.251 C 
ATOM     30  H   UNL A   1      40.084  18.298  25.671  1.00  0.00     0.163 HD
ATOM     31  O   UNL A   1      42.442  18.732  25.757  1.00  0.00    -0.269 OA
BRANCH  29  32
ATOM     32  C   UNL A   1      41.989  20.890  26.558  1.00  0.00     0.039 A 
ATOM     33  C   UNL A   1      42.387  21.877  25.649  1.00  0.00     0.014 A 
ATOM     34  C   UNL A   1      42.051  21.147  27.929  1.00  0.00     0.014 A 
ATOM     35  C   UNL A   1      42.798  23.130  26.110  1.00  0.00     0.010 A 
ATOM     36  C   UNL A   1      42.398  22.419  28.387  1.00  0.00     0.010 A 
ATOM     37  C   UNL A   1      42.781  23.421  27.484  1.00  0.00    -0.014 A 
BRANCH  37  38
ATOM     38  C   UNL A   1      43.159  24.766  27.989  1.00  0.00     0.031 A 
ATOM     39  C   UNL A   1      42.104  25.806  28.254  1.00  0.00     0.074 A 
ATOM     40  C   UNL A   1      44.462  25.073  28.150  1.00  0.00     0.049 A 
ATOM     41  N   UNL A   1      42.249  27.052  28.629  1.00  0.00    -0.248 NA
ATOM     42  C   UNL A   1      40.703  25.400  28.051  1.00  0.00     0.031 C 
ATOM     43  C   UNL A   1      45.584  24.168  27.892  1.00  0.00     0.029 A 
ATOM     44  N   UNL A   1      45.062  26.238  28.557  1.00  0.00    -0.354 N 
ATOM     45  C   UNL A   1      40.966  27.583  28.683  1.00  0.00     0.074 A 
ATOM     46  C   UNL A   1      40.057  26.537  28.270  1.00  0.00     0.031 C 
ATOM     47  C   UNL A   1      46.734  24.806  28.164  1.00  0.00     0.029 A 
ATOM     48  C   UNL A   1      46.434  26.173  28.576  1.00  0.00     0.049 A 
ATOM     49  H   UNL A   1      44.557  27.044  28.813  1.00  0.00     0.167 HD
ATOM     50  C   UNL A   1      40.579  28.827  29.055  1.00  0.00     0.031 A 
ATOM     51  C   UNL A   1      47.350  27.112  28.879  1.00  0.00     0.031 A 
ATOM     52  C   UNL A   1      41.479  29.861  29.489  1.00  0.00     0.049 A 
ATOM     53  C   UNL A   1      46.890  28.483  29.293  1.00  0.00     0.074 A 
ATOM     54  C   UNL A   1      41.174  31.131  29.949  1.00  0.00     0.029 A 
ATOM     55  N   UNL A   1      42.860  29.746  29.516  1.00  0.00    -0.354 N 
ATOM     56  N   UNL A   1      45.669  28.944  29.408  1.00  0.00    -0.248 NA
ATOM     57  C   UNL A   1      47.938  29.459  29.629  1.00  0.00     0.031 C 
ATOM     58  C   UNL A   1      42.373  31.801  30.212  1.00  0.00     0.029 A 
ATOM     59  C   UNL A   1      43.420  30.930  29.966  1.00  0.00     0.049 A 
ATOM     60  H   UNL A   1      43.365  28.942  29.256  1.00  0.00     0.167 HD
ATOM     61  C   UNL A   1      45.800  30.250  29.858  1.00  0.00     0.074 A 
ATOM     62  C   UNL A   1      47.218  30.503  30.011  1.00  0.00     0.031 C 
ATOM     63  C   UNL A   1      44.833  31.161  30.122  1.00  0.00     0.031 A 
BRANCH  50  64
ATOM     64  C   UNL A   1      39.111  29.147  29.009  1.00  0.00    -0.014 A 
ATOM     65  C   UNL A   1      38.510  29.640  27.840  1.00  0.00     0.009 A 
ATOM     66  C   UNL A   1      38.305  28.886  30.130  1.00  0.00     0.009 A 
ATOM     67  C   UNL A   1      37.136  29.888  27.803  1.00  0.00     0.001 A 
ATOM     68  C   UNL A   1      36.929  29.113  30.081  1.00  0.00     0.001 A 
ATOM     69  C   UNL A   1      36.347  29.619  28.919  1.00  0.00     0.000 A 
ENDBRANCH  50  64
BRANCH  51  70
ATOM     70  C   UNL A   1      48.801  26.795  28.808  1.00  0.00    -0.014 A 
ATOM     71  C   UNL A   1      49.493  26.356  29.948  1.00  0.00     0.009 A 
ATOM     72  C   UNL A   1      49.509  26.958  27.607  1.00  0.00     0.009 A 
ATOM     73  C   UNL A   1      50.868  26.121  29.896  1.00  0.00     0.001 A 
ATOM     74  C   UNL A   1      50.879  26.694  27.550  1.00  0.00     0.001 A 
ATOM     75  C   UNL A   1      51.559  26.287  28.696  1.00  0.00     0.000 A 
ENDBRANCH  51  70
BRANCH  63  76
ATOM     76  C   UNL A   1      45.271  32.500  30.644  1.00  0.00    -0.014 A 
ATOM     77  C   UNL A   1      45.502  32.710  32.011  1.00  0.00     0.009 A 
ATOM     78  C   UNL A   1      45.493  33.554  29.744  1.00  0.00     0.009 A 
ATOM     79  C   UNL A   1      45.915  33.960  32.472  1.00  0.00     0.001 A 
ATOM     80  C   UNL A   1      45.935  34.795  30.204  1.00  0.00     0.001 A 
ATOM     81  C   UNL A   1      46.136  35.000  31.568  1.00  0.00     0.000 A 
ENDBRANCH  63  76
ENDBRANCH  37  38
ENDBRANCH  29  32
ENDBRANCH  27  28
ENDBRANCH  26  27
ENDBRANCH   1  26
TORSDOF 13
ENDMDL
MODEL 2
REMARK VINA RESULT:     -11.6      3.351      9.065
REMARK SMILES CCCN1CCC[C@@]2(CCN(c3ccc(C(=O)NCCCNC(=O)c4ccc(-c5c6nc(c(-c7ccccc7)c7ccc([nH]7)c(-c7ccccc7)c7nc(c(-c8ccccc8)c8ccc5[nH]8)C=C7)C=C6)cc4)cn3)C2)C1=O
REMARK SMILES IDX 19 1 18 2 16 3 17 4 15 6 12 7 13 8 74 9 14 10 73 11 11 12
REMARK SMILES IDX 4 13 5 14 76 15 6 16 8 17 77 18 7 19 9 20 75 21 10 22 3 23
REMARK SMILES IDX 2 24 1 25 20 26 21 27 22 28 23 29 24 31 25 32 26 33 72 34
REMARK SMILES IDX 27 35 71 36 28 37 29 38 30 39 65 40 31 41 70 42 64 43 66 44
REMARK SMILES IDX 32 45 69 46 63 47 62 48 33 50 55 51 40 52 54 53 41 54 44 55
REMARK SMILES IDX 53 56 67 57 42 58 43 59 52 61 68 62 45 63 34 64 35 65 39 66
REMARK SMILES IDX 36 67 38 68 37 69 56 70 57 71 61 72 58 73 60 74 59 75 46 76
REMARK SMILES IDX 47 77 51 78 48 79 50 80 49 81
REMARK H PARENT 18 5 22 30 66 49 44 60
REMARK Flexibility Score: inf
ROOT
ATOM      1  C   UNL A   1      31.119  30.717  25.437  1.00  0.00     0.118 C 
ENDROOT
BRANCH   1   2
ATOM      2  N   UNL A   1      30.241  30.684  24.280  1.00  0.00    -0.352 N 
ATOM      3  C   UNL A   1      30.160  29.842  23.198  1.00  0.00     0.252 C 
ATOM      4  O   UNL A   1      29.225  30.022  22.417  1.00  0.00    -0.269 OA
ATOM      5  H   UNL A   1      29.574  31.408  24.269  1.00  0.00     0.163 HD
BRANCH   3   6
ATOM      6  C   UNL A   1      31.106  28.726  22.937  1.00  0.00     0.058 A 
ATOM      7  C   UNL A   1      32.651  26.450  22.526  1.00  0.00     0.128 A 
ATOM      8  C   UNL A   1      33.252  27.703  22.575  1.00  0.00     0.048 A 
ATOM      9  N   UNL A   1      31.317  26.314  22.620  1.00  0.00    -0.239 NA
ATOM     10  C   UNL A   1      32.476  28.845  22.755  1.00  0.00     0.019 A 
ATOM     11  C   UNL A   1      30.581  27.441  22.829  1.00  0.00     0.127 A 
BRANCH   7  12
ATOM     12  N   UNL A   1      33.475  25.338  22.514  1.00  0.00    -0.356 N 
ATOM     13  N   UNL A   1      33.863  22.780  26.023  1.00  0.00    -0.342 N 
ATOM     14  C   UNL A   1      35.256  22.743  26.440  1.00  0.00     0.119 C 
ATOM     15  C   UNL A   1      33.532  22.705  24.671  1.00  0.00     0.230 C 
ATOM     16  C   UNL A   1      36.143  23.641  25.599  1.00  0.00     0.023 C 
ATOM     17  C   UNL A   1      34.439  23.516  23.737  1.00  0.00     0.069 C 
ATOM     18  O   UNL A   1      32.508  22.156  24.269  1.00  0.00    -0.274 OA
ATOM     19  C   UNL A   1      35.917  23.357  24.116  1.00  0.00     0.021 C 
ATOM     20  C   UNL A   1      34.183  23.159  22.256  1.00  0.00     0.040 C 
ATOM     21  C   UNL A   1      33.982  24.990  23.841  1.00  0.00     0.135 C 
ATOM     22  C   UNL A   1      33.069  24.122  21.830  1.00  0.00     0.119 C 
BRANCH  13  23
ATOM     23  C   UNL A   1      32.835  22.503  27.024  1.00  0.00     0.119 C 
BRANCH  23  24
ATOM     24  C   UNL A   1      31.807  23.636  27.143  1.00  0.00     0.018 C 
ATOM     25  C   UNL A   1      30.391  23.214  26.772  1.00  0.00     0.006 C 
ENDBRANCH  23  24
ENDBRANCH  13  23
ENDBRANCH   7  12
ENDBRANCH   3   6
ENDBRANCH   1   2
BRANCH   1  26
ATOM     26  C   UNL A   1      31.032  32.053  26.177  1.00  0.00     0.042 C 
BRANCH  26  27
ATOM     27  C   UNL A   1      32.292  32.402  26.964  1.00  0.00     0.118 C 
BRANCH  27  28
ATOM     28  N   UNL A   1      32.240  33.754  27.503  1.00  0.00    -0.352 N 
ATOM     29  C   UNL A   1      33.050  34.377  28.415  1.00  0.00     0.251 C 
ATOM     30  H   UNL A   1      31.504  34.310  27.155  1.00  0.00     0.163 HD
ATOM     31  O   UNL A   1      32.690  35.454  28.899  1.00  0.00    -0.269 OA
BRANCH  29  32
ATOM     32  C   UNL A   1      34.339  33.786  28.837  1.00  0.00     0.039 A 
ATOM     33  C   UNL A   1      34.383  33.056  30.029  1.00  0.00     0.014 A 
ATOM     34  C   UNL A   1      35.513  33.997  28.110  1.00  0.00     0.014 A 
ATOM     35  C   UNL A   1      35.588  32.499  30.466  1.00  0.00     0.010 A 
ATOM     36  C   UNL A   1      36.702  33.388  28.511  1.00  0.00     0.010 A 
ATOM     37  C   UNL A   1      36.754  32.638  29.696  1.00  0.00    -0.014 A 
BRANCH  37  38
ATOM     38  C   UNL A   1      38.031  32.005  30.114  1.00  0.00     0.031 A 
ATOM     39  C   UNL A   1      38.970  32.725  31.045  1.00  0.00     0.074 A 
ATOM     40  C   UNL A   1      38.376  30.806  29.606  1.00  0.00     0.049 A 
ATOM     41  N   UNL A   1      40.156  32.362  31.463  1.00  0.00    -0.248 NA
ATOM     42  C   UNL A   1      38.528  34.033  31.556  1.00  0.00     0.031 C 
ATOM     43  C   UNL A   1      37.573  30.020  28.666  1.00  0.00     0.029 A 
ATOM     44  N   UNL A   1      39.500  30.042  29.799  1.00  0.00    -0.354 N 
ATOM     45  C   UNL A   1      40.611  33.403  32.263  1.00  0.00     0.074 A 
ATOM     46  C   UNL A   1      39.589  34.427  32.246  1.00  0.00     0.031 C 
ATOM     47  C   UNL A   1      38.223  28.880  28.379  1.00  0.00     0.029 A 
ATOM     48  C   UNL A   1      39.502  28.871  29.081  1.00  0.00     0.049 A 
ATOM     49  H   UNL A   1      40.236  30.308  30.398  1.00  0.00     0.167 HD
ATOM     50  C   UNL A   1      41.769  33.494  32.961  1.00  0.00     0.031 A 
ATOM     51  C   UNL A   1      40.433  27.903  28.987  1.00  0.00     0.031 A 
ATOM     52  C   UNL A   1      42.775  32.467  32.998  1.00  0.00     0.049 A 
ATOM     53  C   UNL A   1      41.707  28.029  29.776  1.00  0.00     0.074 A 
ATOM     54  C   UNL A   1      43.951  32.439  33.730  1.00  0.00     0.029 A 
ATOM     55  N   UNL A   1      42.725  31.285  32.275  1.00  0.00    -0.354 N 
ATOM     56  N   UNL A   1      42.087  28.988  30.584  1.00  0.00    -0.248 NA
ATOM     57  C   UNL A   1      42.676  26.931  29.646  1.00  0.00     0.031 C 
ATOM     58  C   UNL A   1      44.635  31.261  33.414  1.00  0.00     0.029 A 
ATOM     59  C   UNL A   1      43.860  30.533  32.527  1.00  0.00     0.049 A 
ATOM     60  H   UNL A   1      41.992  31.021  31.674  1.00  0.00     0.167 HD
ATOM     61  C   UNL A   1      43.321  28.595  31.082  1.00  0.00     0.074 A 
ATOM     62  C   UNL A   1      43.620  27.304  30.498  1.00  0.00     0.031 C 
ATOM     63  C   UNL A   1      44.137  29.246  31.946  1.00  0.00     0.031 A 
BRANCH  50  64
ATOM     64  C   UNL A   1      42.019  34.752  33.744  1.00  0.00    -0.014 A 
ATOM     65  C   UNL A   1      41.631  34.861  35.088  1.00  0.00     0.009 A 
ATOM     66  C   UNL A   1      42.715  35.816  33.149  1.00  0.00     0.009 A 
ATOM     67  C   UNL A   1      41.913  36.021  35.813  1.00  0.00     0.001 A 
ATOM     68  C   UNL A   1      43.017  36.964  33.883  1.00  0.00     0.001 A 
ATOM     69  C   UNL A   1      42.611  37.068  35.213  1.00  0.00     0.000 A 
ENDBRANCH  50  64
BRANCH  51  70
ATOM     70  C   UNL A   1      40.201  26.721  28.115  1.00  0.00    -0.014 A 
ATOM     71  C   UNL A   1      39.465  25.621  28.584  1.00  0.00     0.009 A 
ATOM     72  C   UNL A   1      40.739  26.675  26.819  1.00  0.00     0.009 A 
ATOM     73  C   UNL A   1      39.303  24.486  27.788  1.00  0.00     0.001 A 
ATOM     74  C   UNL A   1      40.550  25.549  26.014  1.00  0.00     0.001 A 
ATOM     75  C   UNL A   1      39.844  24.452  26.503  1.00  0.00     0.000 A 
ENDBRANCH  51  70
BRANCH  63  76
ATOM     76  C   UNL A   1      45.408  28.554  32.346  1.00  0.00    -0.014 A 
ATOM     77  C   UNL A   1      46.605  28.763  31.643  1.00  0.00     0.009 A 
ATOM     78  C   UNL A   1      45.414  27.710  33.468  1.00  0.00     0.009 A 
ATOM     79  C   UNL A   1      47.776  28.114  32.038  1.00  0.00     0.001 A 
ATOM     80  C   UNL A   1      46.593  27.085  33.878  1.00  0.00     0.001 A 
ATOM     81  C   UNL A   1      47.770  27.280  33.157  1.00  0.00     0.000 A 
ENDBRANCH  63  76
ENDBRANCH  37  38
ENDBRANCH  29  32
ENDBRANCH  27  28
ENDBRANCH  26  27
ENDBRANCH   1  26
TORSDOF 13
ENDMDL
MODEL 3
REMARK VINA RESULT:     -11.5      3.528      9.164
REMARK SMILES CCCN1CCC[C@@]2(CCN(c3ccc(C(=O)NCCCNC(=O)c4ccc(-c5c6nc(c(-c7ccccc7)c7ccc([nH]7)c(-c7ccccc7)c7nc(c(-c8ccccc8)c8ccc5[nH]8)C=C7)C=C6)cc4)cn3)C2)C1=O
REMARK SMILES IDX 19 1 18 2 16 3 17 4 15 6 12 7 13 8 74 9 14 10 73 11 11 12
REMARK SMILES IDX 4 13 5 14 76 15 6 16 8 17 77 18 7 19 9 20 75 21 10 22 3 23
REMARK SMILES IDX 2 24 1 25 20 26 21 27 22 28 23 29 24 31 25 32 26 33 72 34
REMARK SMILES IDX 27 35 71 36 28 37 29 38 30 39 65 40 31 41 70 42 64 43 66 44
REMARK SMILES IDX 32 45 69 46 63 47 62 48 33 50 55 51 40 52 54 53 41 54 44 55
REMARK SMILES IDX 53 56 67 57 42 58 43 59 52 61 68 62 45 63 34 64 35 65 39 66
REMARK SMILES IDX 36 67 38 68 37 69 56 70 57 71 61 72 58 73 60 74 59 75 46 76
REMARK SMILES IDX 47 77 51 78 48 79 50 80 49 81
REMARK H PARENT 18 5 22 30 66 49 44 60
REMARK Flexibility Score: inf
ROOT
ATOM      1  C   UNL A   1      31.379  30.528  25.939  1.00  0.00     0.118 C 
ENDROOT
BRANCH   1   2
ATOM      2  N   UNL A   1      30.932  30.453  24.559  1.00  0.00    -0.352 N 
ATOM      3  C   UNL A   1      30.665  29.395  23.724  1.00  0.00     0.252 C 
ATOM      4  O   UNL A   1      30.198  29.661  22.616  1.00  0.00    -0.269 OA
ATOM      5  H   UNL A   1      30.793  31.333  24.140  1.00  0.00     0.163 HD
BRANCH   3   6
ATOM      6  C   UNL A   1      30.878  27.971  24.089  1.00  0.00     0.058 A 
ATOM      7  C   UNL A   1      30.977  25.272  24.753  1.00  0.00     0.128 A 
ATOM      8  C   UNL A   1      32.098  26.076  24.930  1.00  0.00     0.048 A 
ATOM      9  N   UNL A   1      29.848  25.760  24.211  1.00  0.00    -0.239 NA
ATOM     10  C   UNL A   1      32.057  27.422  24.574  1.00  0.00     0.019 A 
ATOM     11  C   UNL A   1      29.819  27.086  23.901  1.00  0.00     0.127 A 
BRANCH   7  12
ATOM     12  N   UNL A   1      31.013  23.990  25.275  1.00  0.00    -0.356 N 
ATOM     13  N   UNL A   1      34.750  21.757  25.516  1.00  0.00    -0.342 N 
ATOM     14  C   UNL A   1      34.621  20.521  24.759  1.00  0.00     0.119 C 
ATOM     15  C   UNL A   1      33.705  22.194  26.330  1.00  0.00     0.230 C 
ATOM     16  C   UNL A   1      33.281  20.400  24.058  1.00  0.00     0.023 C 
ATOM     17  C   UNL A   1      32.304  22.022  25.731  1.00  0.00     0.069 C 
ATOM     18  O   UNL A   1      33.894  22.804  27.380  1.00  0.00    -0.274 OA
ATOM     19  C   UNL A   1      32.149  20.656  25.049  1.00  0.00     0.021 C 
ATOM     20  C   UNL A   1      31.206  22.264  26.790  1.00  0.00     0.040 C 
ATOM     21  C   UNL A   1      32.103  23.182  24.728  1.00  0.00     0.135 C 
ATOM     22  C   UNL A   1      30.937  23.770  26.709  1.00  0.00     0.119 C 
BRANCH  13  23
ATOM     23  C   UNL A   1      36.088  22.307  25.719  1.00  0.00     0.119 C 
BRANCH  23  24
ATOM     24  C   UNL A   1      37.000  22.105  24.502  1.00  0.00     0.018 C 
ATOM     25  C   UNL A   1      36.621  22.969  23.307  1.00  0.00     0.006 C 
ENDBRANCH  23  24
ENDBRANCH  13  23
ENDBRANCH   7  12
ENDBRANCH   3   6
ENDBRANCH   1   2
BRANCH   1  26
ATOM     26  C   UNL A   1      31.280  31.951  26.491  1.00  0.00     0.042 C 
BRANCH  26  27
ATOM     27  C   UNL A   1      32.605  32.502  27.010  1.00  0.00     0.118 C 
BRANCH  27  28
ATOM     28  N   UNL A   1      32.453  33.829  27.591  1.00  0.00    -0.352 N 
ATOM     29  C   UNL A   1      33.179  34.458  28.566  1.00  0.00     0.251 C 
ATOM     30  H   UNL A   1      31.709  34.358  27.222  1.00  0.00     0.163 HD
ATOM     31  O   UNL A   1      32.737  35.497  29.066  1.00  0.00    -0.269 OA
BRANCH  29  32
ATOM     32  C   UNL A   1      34.473  33.918  29.039  1.00  0.00     0.039 A 
ATOM     33  C   UNL A   1      34.471  32.989  30.085  1.00  0.00     0.014 A 
ATOM     34  C   UNL A   1      35.687  34.364  28.512  1.00  0.00     0.014 A 
ATOM     35  C   UNL A   1      35.676  32.473  30.567  1.00  0.00     0.010 A 
ATOM     36  C   UNL A   1      36.887  33.801  28.948  1.00  0.00     0.010 A 
ATOM     37  C   UNL A   1      36.895  32.855  29.983  1.00  0.00    -0.014 A 
BRANCH  37  38
ATOM     38  C   UNL A   1      38.183  32.274  30.443  1.00  0.00     0.031 A 
ATOM     39  C   UNL A   1      38.693  30.987  29.852  1.00  0.00     0.074 A 
ATOM     40  C   UNL A   1      38.863  32.873  31.440  1.00  0.00     0.049 A 
ATOM     41  N   UNL A   1      39.756  30.296  30.176  1.00  0.00    -0.248 NA
ATOM     42  C   UNL A   1      37.894  30.388  28.771  1.00  0.00     0.031 C 
ATOM     43  C   UNL A   1      38.458  34.104  32.123  1.00  0.00     0.029 A 
ATOM     44  N   UNL A   1      40.035  32.521  32.061  1.00  0.00    -0.354 N 
ATOM     45  C   UNL A   1      39.741  29.172  29.359  1.00  0.00     0.074 A 
ATOM     46  C   UNL A   1      38.546  29.255  28.548  1.00  0.00     0.031 C 
ATOM     47  C   UNL A   1      39.374  34.411  33.056  1.00  0.00     0.029 A 
ATOM     48  C   UNL A   1      40.409  33.382  33.064  1.00  0.00     0.049 A 
ATOM     49  H   UNL A   1      40.559  31.725  31.811  1.00  0.00     0.167 HD
ATOM     50  C   UNL A   1      40.646  28.167  29.281  1.00  0.00     0.031 A 
ATOM     51  C   UNL A   1      41.459  33.342  33.905  1.00  0.00     0.031 A 
ATOM     52  C   UNL A   1      41.847  28.095  30.070  1.00  0.00     0.049 A 
ATOM     53  C   UNL A   1      42.450  32.217  33.793  1.00  0.00     0.074 A 
ATOM     54  C   UNL A   1      42.859  27.151  30.014  1.00  0.00     0.029 A 
ATOM     55  N   UNL A   1      42.200  29.002  31.057  1.00  0.00    -0.354 N 
ATOM     56  N   UNL A   1      42.456  31.202  32.964  1.00  0.00    -0.248 NA
ATOM     57  C   UNL A   1      43.585  32.240  34.727  1.00  0.00     0.031 C 
ATOM     58  C   UNL A   1      43.801  27.461  30.999  1.00  0.00     0.029 A 
ATOM     59  C   UNL A   1      43.402  28.626  31.631  1.00  0.00     0.049 A 
ATOM     60  H   UNL A   1      41.673  29.794  31.310  1.00  0.00     0.167 HD
ATOM     61  C   UNL A   1      43.608  30.485  33.255  1.00  0.00     0.074 A 
ATOM     62  C   UNL A   1      44.284  31.188  34.325  1.00  0.00     0.031 C 
ATOM     63  C   UNL A   1      44.066  29.343  32.688  1.00  0.00     0.031 A 
BRANCH  50  64
ATOM     64  C   UNL A   1      40.377  27.054  28.308  1.00  0.00    -0.014 A 
ATOM     65  C   UNL A   1      40.917  27.072  27.013  1.00  0.00     0.009 A 
ATOM     66  C   UNL A   1      39.629  25.937  28.717  1.00  0.00     0.009 A 
ATOM     67  C   UNL A   1      40.693  26.007  26.138  1.00  0.00     0.001 A 
ATOM     68  C   UNL A   1      39.427  24.863  27.849  1.00  0.00     0.001 A 
ATOM     69  C   UNL A   1      39.955  24.901  26.559  1.00  0.00     0.000 A 
ENDBRANCH  50  64
BRANCH  51  70
ATOM     70  C   UNL A   1      41.638  34.403  34.932  1.00  0.00    -0.014 A 
ATOM     71  C   UNL A   1      41.072  34.263  36.209  1.00  0.00     0.009 A 
ATOM     72  C   UNL A   1      42.352  35.574  34.631  1.00  0.00     0.009 A 
ATOM     73  C   UNL A   1      41.186  35.288  37.150  1.00  0.00     0.001 A 
ATOM     74  C   UNL A   1      42.489  36.585  35.585  1.00  0.00     0.001 A 
ATOM     75  C   UNL A   1      41.896  36.446  36.838  1.00  0.00     0.000 A 
ENDBRANCH  51  70
BRANCH  63  76
ATOM     76  C   UNL A   1      45.380  28.808  33.182  1.00  0.00    -0.014 A 
ATOM     77  C   UNL A   1      46.595  29.220  32.615  1.00  0.00     0.009 A 
ATOM     78  C   UNL A   1      45.399  27.907  34.258  1.00  0.00     0.009 A 
ATOM     79  C   UNL A   1      47.804  28.714  33.095  1.00  0.00     0.001 A 
ATOM     80  C   UNL A   1      46.611  27.425  34.756  1.00  0.00     0.001 A 
ATOM     81  C   UNL A   1      47.811  27.821  34.168  1.00  0.00     0.000 A 
ENDBRANCH  63  76
ENDBRANCH  37  38
ENDBRANCH  29  32
ENDBRANCH  27  28
ENDBRANCH  26  27
ENDBRANCH   1  26
TORSDOF 13
ENDMDL
