MODEL 1
REMARK VINA RESULT:     -10.6      0.000      0.000
REMARK SMILES C[C@H]1C[N@H+]2CCCC[C@@H]2CN1C(=O)[C@H]([NH3+])CC(=O)NCCCNC(=O)c1ccc(-c2c3nc(c(-c4ccccc4)c4ccc([nH]4)c(-c4ccccc4)c4nc(c(-c5ccccc5)c5ccc2[nH]5)C=C4)C=C3)cc1
REMARK SMILES IDX 20 1 19 2 17 3 18 4 16 6 14 7 12 8 13 9 11 10 1 11 2 12 3 13
REMARK SMILES IDX 4 14 10 15 5 16 9 17 6 19 8 20 7 21 15 22 21 26 22 27 23 28
REMARK SMILES IDX 24 29 25 31 26 32 27 33 73 34 28 35 72 36 29 37 30 38 31 39
REMARK SMILES IDX 66 40 32 41 71 42 65 43 67 44 33 45 70 46 64 47 63 48 34 50
REMARK SMILES IDX 56 51 41 52 55 53 42 54 45 55 54 56 68 57 43 58 44 59 53 61
REMARK SMILES IDX 69 62 46 63 35 64 36 65 40 66 37 67 39 68 38 69 57 70 58 71
REMARK SMILES IDX 62 72 59 73 61 74 60 75 47 76 48 77 52 78 49 79 51 80 50 81
REMARK H PARENT 19 5 4 18 15 23 15 24 15 25 23 30 67 49 45 60
REMARK Flexibility Score: inf
ROOT
ATOM      1  C   UNL A   1      33.612  26.849  25.083  1.00  0.00     0.117 C 
ENDROOT
BRANCH   1   2
ATOM      2  N   UNL A   1      33.836  26.753  23.650  1.00  0.00    -0.356 N 
ATOM      3  C   UNL A   1      33.174  25.983  22.740  1.00  0.00     0.226 C 
ATOM      4  O   UNL A   1      33.625  25.894  21.597  1.00  0.00    -0.275 OA
ATOM      5  H   UNL A   1      34.558  27.317  23.291  1.00  0.00     0.163 HD
BRANCH   3   6
ATOM      6  C   UNL A   1      31.903  25.274  23.136  1.00  0.00     0.175 C 
BRANCH   6   7
ATOM      7  C   UNL A   1      32.015  23.753  23.005  1.00  0.00     0.280 C 
BRANCH   7   8
ATOM      8  C   UNL A   1      31.897  23.135  24.420  1.00  0.00     0.281 C 
ATOM      9  O   UNL A   1      30.838  23.326  25.028  1.00  0.00    -0.268 OA
BRANCH   8  10
ATOM     10  N   UNL A   1      33.007  22.547  25.011  1.00  0.00    -0.323 N 
ATOM     11  C   UNL A   1      32.448  20.238  24.009  1.00  0.00     0.037 C 
ATOM     12  C   UNL A   1      33.182  21.070  25.073  1.00  0.00     0.137 C 
ATOM     13  C   UNL A   1      34.681  20.624  25.008  1.00  0.00     0.287 C 
ATOM     14  N   UNL A   1      35.696  21.486  25.647  1.00  0.00    -0.329 N 
ATOM     15  C   UNL A   1      34.007  23.288  25.792  1.00  0.00     0.185 C 
ATOM     16  C   UNL A   1      37.032  21.103  25.152  1.00  0.00     0.262 C 
ATOM     17  C   UNL A   1      35.430  22.906  25.350  1.00  0.00     0.203 C 
ATOM     18  H   UNL A   1      35.657  21.361  26.658  1.00  0.00     0.348 HD
ATOM     19  C   UNL A   1      38.142  21.956  25.762  1.00  0.00     0.062 C 
ATOM     20  C   UNL A   1      36.465  23.798  26.050  1.00  0.00     0.067 C 
ATOM     21  C   UNL A   1      37.873  23.446  25.582  1.00  0.00     0.012 C 
ENDBRANCH   8  10
ENDBRANCH   7   8
BRANCH   7  22
ATOM     22  N   UNL A   1      33.333  23.313  22.488  1.00  0.00    -0.347 N 
ATOM     23  H   UNL A   1      33.291  22.321  22.253  1.00  0.00     0.345 HD
ATOM     24  H   UNL A   1      34.045  23.463  23.201  1.00  0.00     0.345 HD
ATOM     25  H   UNL A   1      33.567  23.851  21.653  1.00  0.00     0.345 HD
ENDBRANCH   7  22
ENDBRANCH   6   7
ENDBRANCH   3   6
ENDBRANCH   1   2
BRANCH   1  26
ATOM     26  C   UNL A   1      33.884  28.258  25.594  1.00  0.00     0.042 C 
BRANCH  26  27
ATOM     27  C   UNL A   1      33.700  28.409  27.094  1.00  0.00     0.118 C 
BRANCH  27  28
ATOM     28  N   UNL A   1      33.589  29.801  27.497  1.00  0.00    -0.352 N 
ATOM     29  C   UNL A   1      34.470  30.593  28.190  1.00  0.00     0.251 C 
ATOM     30  H   UNL A   1      32.752  30.246  27.232  1.00  0.00     0.163 HD
ATOM     31  O   UNL A   1      34.098  31.684  28.611  1.00  0.00    -0.269 OA
BRANCH  29  32
ATOM     32  C   UNL A   1      35.859  30.145  28.444  1.00  0.00     0.039 A 
ATOM     33  C   UNL A   1      36.783  30.202  27.397  1.00  0.00     0.014 A 
ATOM     34  C   UNL A   1      36.245  29.621  29.680  1.00  0.00     0.014 A 
ATOM     35  C   UNL A   1      38.096  29.768  27.599  1.00  0.00     0.010 A 
ATOM     36  C   UNL A   1      37.575  29.279  29.910  1.00  0.00     0.010 A 
ATOM     37  C   UNL A   1      38.507  29.320  28.864  1.00  0.00    -0.014 A 
BRANCH  37  38
ATOM     38  C   UNL A   1      39.891  28.839  29.100  1.00  0.00     0.031 A 
ATOM     39  C   UNL A   1      40.908  29.756  29.725  1.00  0.00     0.074 A 
ATOM     40  C   UNL A   1      40.250  27.603  28.705  1.00  0.00     0.049 A 
ATOM     41  N   UNL A   1      42.178  29.541  29.966  1.00  0.00    -0.248 NA
ATOM     42  C   UNL A   1      40.445  31.101  30.101  1.00  0.00     0.031 C 
ATOM     43  C   UNL A   1      39.373  26.634  28.047  1.00  0.00     0.029 A 
ATOM     44  N   UNL A   1      41.456  26.955  28.795  1.00  0.00    -0.354 N 
ATOM     45  C   UNL A   1      42.666  30.731  30.491  1.00  0.00     0.074 A 
ATOM     46  C   UNL A   1      41.573  31.678  30.485  1.00  0.00     0.031 C 
ATOM     47  C   UNL A   1      40.062  25.505  27.819  1.00  0.00     0.029 A 
ATOM     48  C   UNL A   1      41.436  25.683  28.280  1.00  0.00     0.049 A 
ATOM     49  H   UNL A   1      42.259  27.364  29.191  1.00  0.00     0.167 HD
ATOM     50  C   UNL A   1      43.908  31.009  30.957  1.00  0.00     0.031 A 
ATOM     51  C   UNL A   1      42.414  24.763  28.188  1.00  0.00     0.031 A 
ATOM     52  C   UNL A   1      44.989  30.062  30.983  1.00  0.00     0.049 A 
ATOM     53  C   UNL A   1      43.778  25.083  28.727  1.00  0.00     0.074 A 
ATOM     54  C   UNL A   1      46.265  30.223  31.493  1.00  0.00     0.029 A 
ATOM     55  N   UNL A   1      44.920  28.774  30.474  1.00  0.00    -0.354 N 
ATOM     56  N   UNL A   1      44.208  26.190  29.283  1.00  0.00    -0.248 NA
ATOM     57  C   UNL A   1      44.789  24.020  28.640  1.00  0.00     0.031 C 
ATOM     58  C   UNL A   1      46.982  29.045  31.252  1.00  0.00     0.029 A 
ATOM     59  C   UNL A   1      46.136  28.135  30.640  1.00  0.00     0.049 A 
ATOM     60  H   UNL A   1      44.123  28.374  30.056  1.00  0.00     0.167 HD
ATOM     61  C   UNL A   1      45.529  25.949  29.637  1.00  0.00     0.074 A 
ATOM     62  C   UNL A   1      45.826  24.586  29.243  1.00  0.00     0.031 C 
ATOM     63  C   UNL A   1      46.415  26.780  30.238  1.00  0.00     0.031 A 
BRANCH  50  64
ATOM     64  C   UNL A   1      44.154  32.403  31.464  1.00  0.00    -0.014 A 
ATOM     65  C   UNL A   1      43.942  32.739  32.812  1.00  0.00     0.009 A 
ATOM     66  C   UNL A   1      44.604  33.397  30.581  1.00  0.00     0.009 A 
ATOM     67  C   UNL A   1      44.126  34.052  33.251  1.00  0.00     0.001 A 
ATOM     68  C   UNL A   1      44.818  34.701  31.031  1.00  0.00     0.001 A 
ATOM     69  C   UNL A   1      44.566  35.031  32.362  1.00  0.00     0.000 A 
ENDBRANCH  50  64
BRANCH  51  70
ATOM     70  C   UNL A   1      42.120  23.437  27.587  1.00  0.00    -0.014 A 
ATOM     71  C   UNL A   1      41.507  22.432  28.350  1.00  0.00     0.009 A 
ATOM     72  C   UNL A   1      42.428  23.178  26.243  1.00  0.00     0.009 A 
ATOM     73  C   UNL A   1      41.223  21.188  27.784  1.00  0.00     0.001 A 
ATOM     74  C   UNL A   1      42.119  21.941  25.671  1.00  0.00     0.001 A 
ATOM     75  C   UNL A   1      41.523  20.946  26.444  1.00  0.00     0.000 A 
ENDBRANCH  51  70
BRANCH  63  76
ATOM     76  C   UNL A   1      47.780  26.228  30.538  1.00  0.00    -0.014 A 
ATOM     77  C   UNL A   1      48.799  26.235  29.573  1.00  0.00     0.009 A 
ATOM     78  C   UNL A   1      48.058  25.727  31.820  1.00  0.00     0.009 A 
ATOM     79  C   UNL A   1      50.062  25.723  29.879  1.00  0.00     0.001 A 
ATOM     80  C   UNL A   1      49.329  25.242  32.130  1.00  0.00     0.001 A 
ATOM     81  C   UNL A   1      50.326  25.231  31.157  1.00  0.00     0.000 A 
ENDBRANCH  63  76
ENDBRANCH  37  38
ENDBRANCH  29  32
ENDBRANCH  27  28
ENDBRANCH  26  27
ENDBRANCH   1  26
TORSDOF 14
ENDMDL
MODEL 2
REMARK VINA RESULT:     -10.5      2.070      7.427
REMARK SMILES C[C@H]1C[N@H+]2CCCC[C@@H]2CN1C(=O)[C@H]([NH3+])CC(=O)NCCCNC(=O)c1ccc(-c2c3nc(c(-c4ccccc4)c4ccc([nH]4)c(-c4ccccc4)c4nc(c(-c5ccccc5)c5ccc2[nH]5)C=C4)C=C3)cc1
REMARK SMILES IDX 20 1 19 2 17 3 18 4 16 6 14 7 12 8 13 9 11 10 1 11 2 12 3 13
REMARK SMILES IDX 4 14 10 15 5 16 9 17 6 19 8 20 7 21 15 22 21 26 22 27 23 28
REMARK SMILES IDX 24 29 25 31 26 32 27 33 73 34 28 35 72 36 29 37 30 38 31 39
REMARK SMILES IDX 66 40 32 41 71 42 65 43 67 44 33 45 70 46 64 47 63 48 34 50
REMARK SMILES IDX 56 51 41 52 55 53 42 54 45 55 54 56 68 57 43 58 44 59 53 61
REMARK SMILES IDX 69 62 46 63 35 64 36 65 40 66 37 67 39 68 38 69 57 70 58 71
REMARK SMILES IDX 62 72 59 73 61 74 60 75 47 76 48 77 52 78 49 79 51 80 50 81
REMARK H PARENT 19 5 4 18 15 23 15 24 15 25 23 30 67 49 45 60
REMARK Flexibility Score: inf
ROOT
ATOM      1  C   UNL A   1      36.227  20.263  24.971  1.00  0.00     0.117 C 
ENDROOT
BRANCH   1   2
ATOM      2  N   UNL A   1      35.121  19.321  24.975  1.00  0.00    -0.356 N 
ATOM      3  C   UNL A   1      33.784  19.587  24.993  1.00  0.00     0.226 C 
ATOM      4  O   UNL A   1      32.995  18.658  25.180  1.00  0.00    -0.275 OA
ATOM      5  H   UNL A   1      35.369  18.369  24.961  1.00  0.00     0.163 HD
BRANCH   3   6
ATOM      6  C   UNL A   1      33.293  20.995  24.769  1.00  0.00     0.175 C 
BRANCH   6   7
ATOM      7  C   UNL A   1      32.984  21.725  26.079  1.00  0.00     0.280 C 
BRANCH   7   8
ATOM      8  C   UNL A   1      33.904  22.967  26.171  1.00  0.00     0.281 C 
ATOM      9  O   UNL A   1      34.856  22.902  26.957  1.00  0.00    -0.268 OA
BRANCH   8  10
ATOM     10  N   UNL A   1      33.550  24.137  25.514  1.00  0.00    -0.323 N 
ATOM     11  C   UNL A   1      35.240  23.706  23.614  1.00  0.00     0.037 C 
ATOM     12  C   UNL A   1      34.362  24.696  24.397  1.00  0.00     0.137 C 
ATOM     13  C   UNL A   1      33.503  25.448  23.328  1.00  0.00     0.287 C 
ATOM     14  N   UNL A   1      32.314  26.197  23.784  1.00  0.00    -0.329 N 
ATOM     15  C   UNL A   1      32.477  25.035  25.962  1.00  0.00     0.185 C 
ATOM     16  C   UNL A   1      31.458  26.495  22.621  1.00  0.00     0.262 C 
ATOM     17  C   UNL A   1      31.564  25.416  24.785  1.00  0.00     0.203 C 
ATOM     18  H   UNL A   1      32.613  27.069  24.221  1.00  0.00     0.348 HD
ATOM     19  C   UNL A   1      30.198  27.265  23.012  1.00  0.00     0.062 C 
ATOM     20  C   UNL A   1      30.353  26.217  25.284  1.00  0.00     0.067 C 
ATOM     21  C   UNL A   1      29.427  26.562  24.123  1.00  0.00     0.012 C 
ENDBRANCH   8  10
ENDBRANCH   7   8
BRANCH   7  22
ATOM     22  N   UNL A   1      33.293  20.911  27.280  1.00  0.00    -0.347 N 
ATOM     23  H   UNL A   1      32.901  19.977  27.167  1.00  0.00     0.345 HD
ATOM     24  H   UNL A   1      32.887  21.353  28.104  1.00  0.00     0.345 HD
ATOM     25  H   UNL A   1      34.305  20.844  27.394  1.00  0.00     0.345 HD
ENDBRANCH   7  22
ENDBRANCH   6   7
ENDBRANCH   3   6
ENDBRANCH   1   2
BRANCH   1  26
ATOM     26  C   UNL A   1      37.563  19.550  24.794  1.00  0.00     0.042 C 
BRANCH  26  27
ATOM     27  C   UNL A   1      38.706  20.201  25.552  1.00  0.00     0.118 C 
BRANCH  27  28
ATOM     28  N   UNL A   1      39.829  19.297  25.736  1.00  0.00    -0.352 N 
ATOM     29  C   UNL A   1      41.122  19.559  26.115  1.00  0.00     0.251 C 
ATOM     30  H   UNL A   1      39.633  18.348  25.562  1.00  0.00     0.163 HD
ATOM     31  O   UNL A   1      41.971  18.680  26.009  1.00  0.00    -0.269 OA
BRANCH  29  32
ATOM     32  C   UNL A   1      41.506  20.890  26.640  1.00  0.00     0.039 A 
ATOM     33  C   UNL A   1      41.946  21.864  25.737  1.00  0.00     0.014 A 
ATOM     34  C   UNL A   1      41.491  21.171  28.008  1.00  0.00     0.014 A 
ATOM     35  C   UNL A   1      42.334  23.123  26.202  1.00  0.00     0.010 A 
ATOM     36  C   UNL A   1      41.785  22.454  28.462  1.00  0.00     0.010 A 
ATOM     37  C   UNL A   1      42.239  23.434  27.567  1.00  0.00    -0.014 A 
BRANCH  37  38
ATOM     38  C   UNL A   1      42.660  24.758  28.088  1.00  0.00     0.031 A 
ATOM     39  C   UNL A   1      41.632  25.830  28.334  1.00  0.00     0.074 A 
ATOM     40  C   UNL A   1      43.965  25.019  28.287  1.00  0.00     0.049 A 
ATOM     41  N   UNL A   1      41.804  27.065  28.737  1.00  0.00    -0.248 NA
ATOM     42  C   UNL A   1      40.229  25.477  28.063  1.00  0.00     0.031 C 
ATOM     43  C   UNL A   1      45.064  24.083  28.044  1.00  0.00     0.029 A 
ATOM     44  N   UNL A   1      44.588  26.156  28.735  1.00  0.00    -0.354 N 
ATOM     45  C   UNL A   1      40.539  27.638  28.737  1.00  0.00     0.074 A 
ATOM     46  C   UNL A   1      39.618  26.637  28.246  1.00  0.00     0.031 C 
ATOM     47  C   UNL A   1      46.223  24.675  28.372  1.00  0.00     0.029 A 
ATOM     48  C   UNL A   1      45.954  26.040  28.813  1.00  0.00     0.049 A 
ATOM     49  H   UNL A   1      44.102  26.977  28.976  1.00  0.00     0.167 HD
ATOM     50  C   UNL A   1      40.168  28.881  29.130  1.00  0.00     0.031 A 
ATOM     51  C   UNL A   1      46.886  26.933  29.196  1.00  0.00     0.031 A 
ATOM     52  C   UNL A   1      41.080  29.870  29.638  1.00  0.00     0.049 A 
ATOM     53  C   UNL A   1      46.453  28.300  29.646  1.00  0.00     0.074 A 
ATOM     54  C   UNL A   1      40.798  31.135  30.123  1.00  0.00     0.029 A 
ATOM     55  N   UNL A   1      42.453  29.704  29.725  1.00  0.00    -0.354 N 
ATOM     56  N   UNL A   1      45.246  28.806  29.705  1.00  0.00    -0.248 NA
ATOM     57  C   UNL A   1      47.513  29.212  30.096  1.00  0.00     0.031 C 
ATOM     58  C   UNL A   1      42.008  31.751  30.462  1.00  0.00     0.029 A 
ATOM     59  C   UNL A   1      43.036  30.849  30.238  1.00  0.00     0.049 A 
ATOM     60  H   UNL A   1      42.942  28.890  29.460  1.00  0.00     0.167 HD
ATOM     61  C   UNL A   1      45.396  30.085  30.225  1.00  0.00     0.074 A 
ATOM     62  C   UNL A   1      46.811  30.272  30.475  1.00  0.00     0.031 C 
ATOM     63  C   UNL A   1      44.447  31.020  30.476  1.00  0.00     0.031 A 
BRANCH  50  64
ATOM     64  C   UNL A   1      38.711  29.234  29.008  1.00  0.00    -0.014 A 
ATOM     65  C   UNL A   1      38.181  29.748  27.813  1.00  0.00     0.009 A 
ATOM     66  C   UNL A   1      37.855  29.049  30.104  1.00  0.00     0.009 A 
ATOM     67  C   UNL A   1      36.837  30.118  27.736  1.00  0.00     0.001 A 
ATOM     68  C   UNL A   1      36.505  29.390  30.015  1.00  0.00     0.001 A 
ATOM     69  C   UNL A   1      35.999  29.937  28.835  1.00  0.00     0.000 A 
ENDBRANCH  50  64
BRANCH  51  70
ATOM     70  C   UNL A   1      48.318  26.544  29.201  1.00  0.00    -0.014 A 
ATOM     71  C   UNL A   1      49.126  26.796  28.082  1.00  0.00     0.009 A 
ATOM     72  C   UNL A   1      48.892  25.942  30.331  1.00  0.00     0.009 A 
ATOM     73  C   UNL A   1      50.475  26.438  28.088  1.00  0.00     0.001 A 
ATOM     74  C   UNL A   1      50.247  25.608  30.345  1.00  0.00     0.001 A 
ATOM     75  C   UNL A   1      51.037  25.850  29.221  1.00  0.00     0.000 A 
ENDBRANCH  51  70
BRANCH  63  76
ATOM     76  C   UNL A   1      44.903  32.316  31.084  1.00  0.00    -0.014 A 
ATOM     77  C   UNL A   1      45.259  33.412  30.283  1.00  0.00     0.009 A 
ATOM     78  C   UNL A   1      44.940  32.451  32.480  1.00  0.00     0.009 A 
ATOM     79  C   UNL A   1      45.674  34.609  30.872  1.00  0.00     0.001 A 
ATOM     80  C   UNL A   1      45.327  33.657  33.065  1.00  0.00     0.001 A 
ATOM     81  C   UNL A   1      45.703  34.731  32.260  1.00  0.00     0.000 A 
ENDBRANCH  63  76
ENDBRANCH  37  38
ENDBRANCH  29  32
ENDBRANCH  27  28
ENDBRANCH  26  27
ENDBRANCH   1  26
TORSDOF 14
ENDMDL
MODEL 3
REMARK VINA RESULT:     -10.5      2.297      7.733
REMARK SMILES C[C@H]1C[N@H+]2CCCC[C@@H]2CN1C(=O)[C@H]([NH3+])CC(=O)NCCCNC(=O)c1ccc(-c2c3nc(c(-c4ccccc4)c4ccc([nH]4)c(-c4ccccc4)c4nc(c(-c5ccccc5)c5ccc2[nH]5)C=C4)C=C3)cc1
REMARK SMILES IDX 20 1 19 2 17 3 18 4 16 6 14 7 12 8 13 9 11 10 1 11 2 12 3 13
REMARK SMILES IDX 4 14 10 15 5 16 9 17 6 19 8 20 7 21 15 22 21 26 22 27 23 28
REMARK SMILES IDX 24 29 25 31 26 32 27 33 73 34 28 35 72 36 29 37 30 38 31 39
REMARK SMILES IDX 66 40 32 41 71 42 65 43 67 44 33 45 70 46 64 47 63 48 34 50
REMARK SMILES IDX 56 51 41 52 55 53 42 54 45 55 54 56 68 57 43 58 44 59 53 61
REMARK SMILES IDX 69 62 46 63 35 64 36 65 40 66 37 67 39 68 38 69 57 70 58 71
REMARK SMILES IDX 62 72 59 73 61 74 60 75 47 76 48 77 52 78 49 79 51 80 50 81
REMARK H PARENT 19 5 4 18 15 23 15 24 15 25 23 30 67 49 45 60
REMARK Flexibility Score: inf
ROOT
ATOM      1  C   UNL A   1      34.278  23.300  25.459  1.00  0.00     0.117 C 
ENDROOT
BRANCH   1   2
ATOM      2  N   UNL A   1      33.362  23.114  26.570  1.00  0.00    -0.356 N 
ATOM      3  C   UNL A   1      32.004  23.241  26.577  1.00  0.00     0.226 C 
ATOM      4  O   UNL A   1      31.411  23.226  27.658  1.00  0.00    -0.275 OA
ATOM      5  H   UNL A   1      33.773  22.865  27.429  1.00  0.00     0.163 HD
BRANCH   3   6
ATOM      6  C   UNL A   1      31.253  23.376  25.276  1.00  0.00     0.175 C 
BRANCH   6   7
ATOM      7  C   UNL A   1      30.689  24.784  25.069  1.00  0.00     0.280 C 
BRANCH   7   8
ATOM      8  C   UNL A   1      31.567  25.508  24.018  1.00  0.00     0.281 C 
ATOM      9  O   UNL A   1      32.039  24.816  23.110  1.00  0.00    -0.268 OA
BRANCH   8  10
ATOM     10  N   UNL A   1      31.923  26.836  24.214  1.00  0.00    -0.323 N 
ATOM     11  C   UNL A   1      29.599  27.677  23.477  1.00  0.00     0.037 C 
ATOM     12  C   UNL A   1      31.092  27.962  23.705  1.00  0.00     0.137 C 
ATOM     13  C   UNL A   1      31.154  29.233  24.615  1.00  0.00     0.287 C 
ATOM     14  N   UNL A   1      32.424  29.543  25.301  1.00  0.00    -0.329 N 
ATOM     15  C   UNL A   1      33.219  27.264  24.757  1.00  0.00     0.185 C 
ATOM     16  C   UNL A   1      32.165  30.521  26.374  1.00  0.00     0.262 C 
ATOM     17  C   UNL A   1      33.022  28.316  25.861  1.00  0.00     0.203 C 
ATOM     18  H   UNL A   1      33.082  29.938  24.629  1.00  0.00     0.348 HD
ATOM     19  C   UNL A   1      33.434  30.890  27.139  1.00  0.00     0.062 C 
ATOM     20  C   UNL A   1      34.362  28.640  26.536  1.00  0.00     0.067 C 
ATOM     21  C   UNL A   1      34.161  29.654  27.658  1.00  0.00     0.012 C 
ENDBRANCH   8  10
ENDBRANCH   7   8
BRANCH   7  22
ATOM     22  N   UNL A   1      30.759  25.621  26.291  1.00  0.00    -0.347 N 
ATOM     23  H   UNL A   1      29.815  25.855  26.597  1.00  0.00     0.345 HD
ATOM     24  H   UNL A   1      31.273  26.478  26.087  1.00  0.00     0.345 HD
ATOM     25  H   UNL A   1      31.238  25.105  27.029  1.00  0.00     0.345 HD
ENDBRANCH   7  22
ENDBRANCH   6   7
ENDBRANCH   3   6
ENDBRANCH   1   2
BRANCH   1  26
ATOM     26  C   UNL A   1      35.617  23.855  25.929  1.00  0.00     0.042 C 
BRANCH  26  27
ATOM     27  C   UNL A   1      36.743  23.664  24.929  1.00  0.00     0.118 C 
BRANCH  27  28
ATOM     28  N   UNL A   1      37.688  22.645  25.353  1.00  0.00    -0.352 N 
ATOM     29  C   UNL A   1      38.867  22.767  26.045  1.00  0.00     0.251 C 
ATOM     30  H   UNL A   1      37.445  21.723  25.107  1.00  0.00     0.163 HD
ATOM     31  O   UNL A   1      39.623  21.804  26.122  1.00  0.00    -0.269 OA
BRANCH  29  32
ATOM     32  C   UNL A   1      39.243  24.047  26.688  1.00  0.00     0.039 A 
ATOM     33  C   UNL A   1      40.024  24.955  25.967  1.00  0.00     0.014 A 
ATOM     34  C   UNL A   1      38.884  24.338  28.007  1.00  0.00     0.014 A 
ATOM     35  C   UNL A   1      40.412  26.163  26.553  1.00  0.00     0.010 A 
ATOM     36  C   UNL A   1      39.188  25.580  28.557  1.00  0.00     0.010 A 
ATOM     37  C   UNL A   1      39.981  26.493  27.847  1.00  0.00    -0.014 A 
BRANCH  37  38
ATOM     38  C   UNL A   1      40.392  27.762  28.497  1.00  0.00     0.031 A 
ATOM     39  C   UNL A   1      41.793  27.915  29.025  1.00  0.00     0.074 A 
ATOM     40  C   UNL A   1      39.497  28.753  28.666  1.00  0.00     0.049 A 
ATOM     41  N   UNL A   1      42.330  28.922  29.669  1.00  0.00    -0.248 NA
ATOM     42  C   UNL A   1      42.703  26.775  28.830  1.00  0.00     0.031 C 
ATOM     43  C   UNL A   1      38.096  28.713  28.241  1.00  0.00     0.029 A 
ATOM     44  N   UNL A   1      39.635  29.988  29.246  1.00  0.00    -0.354 N 
ATOM     45  C   UNL A   1      43.624  28.522  29.979  1.00  0.00     0.074 A 
ATOM     46  C   UNL A   1      43.776  27.166  29.501  1.00  0.00     0.031 C 
ATOM     47  C   UNL A   1      37.512  29.881  28.551  1.00  0.00     0.029 A 
ATOM     48  C   UNL A   1      38.484  30.736  29.226  1.00  0.00     0.049 A 
ATOM     49  H   UNL A   1      40.478  30.307  29.641  1.00  0.00     0.167 HD
ATOM     50  C   UNL A   1      44.608  29.226  30.588  1.00  0.00     0.031 A 
ATOM     51  C   UNL A   1      38.237  31.972  29.699  1.00  0.00     0.031 A 
ATOM     52  C   UNL A   1      44.465  30.582  31.045  1.00  0.00     0.049 A 
ATOM     53  C   UNL A   1      39.347  32.743  30.355  1.00  0.00     0.074 A 
ATOM     54  C   UNL A   1      45.419  31.406  31.615  1.00  0.00     0.029 A 
ATOM     55  N   UNL A   1      43.289  31.314  30.982  1.00  0.00    -0.354 N 
ATOM     56  N   UNL A   1      40.585  32.378  30.581  1.00  0.00    -0.248 NA
ATOM     57  C   UNL A   1      39.027  34.104  30.808  1.00  0.00     0.031 C 
ATOM     58  C   UNL A   1      44.807  32.622  31.940  1.00  0.00     0.029 A 
ATOM     59  C   UNL A   1      43.486  32.572  31.522  1.00  0.00     0.049 A 
ATOM     60  H   UNL A   1      42.438  30.985  30.610  1.00  0.00     0.167 HD
ATOM     61  C   UNL A   1      41.201  33.471  31.176  1.00  0.00     0.074 A 
ATOM     62  C   UNL A   1      40.202  34.517  31.265  1.00  0.00     0.031 C 
ATOM     63  C   UNL A   1      42.480  33.599  31.607  1.00  0.00     0.031 A 
BRANCH  50  64
ATOM     64  C   UNL A   1      45.921  28.525  30.802  1.00  0.00    -0.014 A 
ATOM     65  C   UNL A   1      46.922  28.529  29.816  1.00  0.00     0.009 A 
ATOM     66  C   UNL A   1      46.163  27.849  32.009  1.00  0.00     0.009 A 
ATOM     67  C   UNL A   1      48.113  27.827  30.013  1.00  0.00     0.001 A 
ATOM     68  C   UNL A   1      47.367  27.176  32.216  1.00  0.00     0.001 A 
ATOM     69  C   UNL A   1      48.336  27.154  31.213  1.00  0.00     0.000 A 
ENDBRANCH  50  64
BRANCH  51  70
ATOM     70  C   UNL A   1      36.886  32.565  29.535  1.00  0.00    -0.014 A 
ATOM     71  C   UNL A   1      35.915  32.407  30.536  1.00  0.00     0.009 A 
ATOM     72  C   UNL A   1      36.568  33.313  28.392  1.00  0.00     0.009 A 
ATOM     73  C   UNL A   1      34.647  32.972  30.386  1.00  0.00     0.001 A 
ATOM     74  C   UNL A   1      35.308  33.899  28.256  1.00  0.00     0.001 A 
ATOM     75  C   UNL A   1      34.346  33.723  29.250  1.00  0.00     0.000 A 
ENDBRANCH  51  70
BRANCH  63  76
ATOM     76  C   UNL A   1      42.881  34.928  32.181  1.00  0.00    -0.014 A 
ATOM     77  C   UNL A   1      43.475  35.919  31.383  1.00  0.00     0.009 A 
ATOM     78  C   UNL A   1      42.625  35.205  33.533  1.00  0.00     0.009 A 
ATOM     79  C   UNL A   1      43.832  37.150  31.938  1.00  0.00     0.001 A 
ATOM     80  C   UNL A   1      42.957  36.446  34.077  1.00  0.00     0.001 A 
ATOM     81  C   UNL A   1      43.570  37.413  33.282  1.00  0.00     0.000 A 
ENDBRANCH  63  76
ENDBRANCH  37  38
ENDBRANCH  29  32
ENDBRANCH  27  28
ENDBRANCH  26  27
ENDBRANCH   1  26
TORSDOF 14
ENDMDL
