MODEL 1
REMARK VINA RESULT:     -11.5      0.000      0.000
REMARK SMILES C=C(C(=O)NCCCNC(=O)c1ccc(-c2c3nc(c(-c4ccccc4)c4ccc([nH]4)c(-c4ccccc4)c4nc(c(-c5ccccc5)c5ccc2[nH]5)C=C4)C=C3)cc1)[C@@H]1CC[C@]2(C)C[C@@H](O)CC(=C)[C@H]2C1
REMARK SMILES IDX 7 1 6 2 5 3 3 4 4 5 2 7 1 8 60 9 61 10 72 11 62 12 71 13
REMARK SMILES IDX 63 14 69 15 64 16 65 17 68 18 70 19 66 20 67 21 8 23 9 24
REMARK SMILES IDX 10 25 11 27 12 28 13 29 59 30 14 31 58 32 15 33 16 34 17 35
REMARK SMILES IDX 52 36 18 37 57 38 51 39 53 40 19 41 56 42 50 43 49 44 20 46
REMARK SMILES IDX 42 47 27 48 41 49 28 50 31 51 40 52 54 53 29 54 30 55 39 57
REMARK SMILES IDX 55 58 32 59 21 60 22 61 26 62 23 63 25 64 24 65 43 66 44 67
REMARK SMILES IDX 48 68 45 69 47 70 46 71 33 72 34 73 38 74 35 75 37 76 36 77
REMARK H PARENT 5 6 67 22 9 26 53 45 31 56
REMARK Flexibility Score: inf
ROOT
ATOM      1  C   UNL A   1      35.709  23.135  25.190  1.00  0.00     0.042 C 
ENDROOT
BRANCH   1   2
ATOM      2  C   UNL A   1      34.885  23.883  26.243  1.00  0.00     0.118 C 
BRANCH   2   3
ATOM      3  N   UNL A   1      34.081  22.949  27.005  1.00  0.00    -0.352 N 
ATOM      4  C   UNL A   1      32.729  22.818  27.052  1.00  0.00     0.246 C 
ATOM      5  O   UNL A   1      32.233  22.623  28.158  1.00  0.00    -0.270 OA
ATOM      6  H   UNL A   1      34.587  22.319  27.569  1.00  0.00     0.163 HD
BRANCH   4   7
ATOM      7  C   UNL A   1      31.898  22.787  25.812  1.00  0.00     0.013 C 
ATOM      8  C   UNL A   1      31.971  21.768  24.935  1.00  0.00     0.018 C 
BRANCH   7   9
ATOM      9  C   UNL A   1      31.024  24.003  25.477  1.00  0.00     0.025 C 
ATOM     10  C   UNL A   1      30.963  24.288  23.965  1.00  0.00     0.009 C 
ATOM     11  C   UNL A   1      31.241  25.283  26.315  1.00  0.00     0.017 C 
ATOM     12  C   UNL A   1      32.026  25.252  23.441  1.00  0.00     0.008 C 
ATOM     13  C   UNL A   1      32.330  26.229  25.778  1.00  0.00     0.021 C 
ATOM     14  C   UNL A   1      32.165  26.557  24.266  1.00  0.00    -0.024 C 
ATOM     15  C   UNL A   1      32.557  27.521  26.558  1.00  0.00    -0.071 C 
ATOM     16  C   UNL A   1      30.907  27.418  23.990  1.00  0.00     0.012 C 
ATOM     17  C   UNL A   1      33.447  27.302  23.778  1.00  0.00     0.039 C 
ATOM     18  C   UNL A   1      33.842  28.220  26.156  1.00  0.00     0.062 C 
ATOM     19  C   UNL A   1      31.745  28.030  27.499  1.00  0.00     0.008 C 
ATOM     20  C   UNL A   1      33.898  28.491  24.643  1.00  0.00     0.119 C 
BRANCH  20  21
ATOM     21  O   UNL A   1      33.145  29.657  24.308  1.00  0.00    -0.393 OA
ATOM     22  H   UNL A   1      33.734  30.320  23.913  1.00  0.00     0.210 HD
ENDBRANCH  20  21
ENDBRANCH   7   9
ENDBRANCH   4   7
ENDBRANCH   2   3
ENDBRANCH   1   2
BRANCH   1  23
ATOM     23  C   UNL A   1      37.137  23.667  25.044  1.00  0.00     0.118 C 
BRANCH  23  24
ATOM     24  N   UNL A   1      38.126  22.698  25.498  1.00  0.00    -0.352 N 
ATOM     25  C   UNL A   1      39.306  22.911  26.161  1.00  0.00     0.251 C 
ATOM     26  H   UNL A   1      37.917  21.757  25.299  1.00  0.00     0.163 HD
ATOM     27  O   UNL A   1      40.147  22.014  26.230  1.00  0.00    -0.269 OA
BRANCH  25  28
ATOM     28  C   UNL A   1      39.569  24.216  26.796  1.00  0.00     0.039 A 
ATOM     29  C   UNL A   1      39.090  24.460  28.086  1.00  0.00     0.014 A 
ATOM     30  C   UNL A   1      40.265  25.208  26.100  1.00  0.00     0.014 A 
ATOM     31  C   UNL A   1      39.359  25.684  28.703  1.00  0.00     0.010 A 
ATOM     32  C   UNL A   1      40.586  26.401  26.739  1.00  0.00     0.010 A 
ATOM     33  C   UNL A   1      40.133  26.652  28.044  1.00  0.00    -0.014 A 
BRANCH  33  34
ATOM     34  C   UNL A   1      40.482  27.945  28.681  1.00  0.00     0.031 A 
ATOM     35  C   UNL A   1      41.821  28.113  29.343  1.00  0.00     0.074 A 
ATOM     36  C   UNL A   1      39.562  28.927  28.754  1.00  0.00     0.049 A 
ATOM     37  N   UNL A   1      42.256  29.094  30.093  1.00  0.00    -0.248 NA
ATOM     38  C   UNL A   1      42.787  27.017  29.164  1.00  0.00     0.031 C 
ATOM     39  C   UNL A   1      38.221  28.879  28.170  1.00  0.00     0.029 A 
ATOM     40  N   UNL A   1      39.613  30.150  29.373  1.00  0.00    -0.354 N 
ATOM     41  C   UNL A   1      43.530  28.718  30.500  1.00  0.00     0.074 A 
ATOM     42  C   UNL A   1      43.783  27.406  29.945  1.00  0.00     0.031 C 
ATOM     43  C   UNL A   1      37.578  30.024  28.453  1.00  0.00     0.029 A 
ATOM     44  C   UNL A   1      38.443  30.865  29.275  1.00  0.00     0.049 A 
ATOM     45  H   UNL A   1      40.410  30.484  29.844  1.00  0.00     0.167 HD
ATOM     46  C   UNL A   1      44.413  29.407  31.260  1.00  0.00     0.031 A 
ATOM     47  C   UNL A   1      38.099  32.053  29.805  1.00  0.00     0.031 A 
ATOM     48  C   UNL A   1      44.165  30.718  31.797  1.00  0.00     0.049 A 
ATOM     49  C   UNL A   1      39.092  32.795  30.654  1.00  0.00     0.074 A 
ATOM     50  C   UNL A   1      45.015  31.522  32.538  1.00  0.00     0.029 A 
ATOM     51  N   UNL A   1      42.979  31.418  31.647  1.00  0.00    -0.354 N 
ATOM     52  N   UNL A   1      40.309  32.446  30.995  1.00  0.00    -0.248 NA
ATOM     53  C   UNL A   1      38.668  34.099  31.184  1.00  0.00     0.031 C 
ATOM     54  C   UNL A   1      44.327  32.693  32.870  1.00  0.00     0.029 A 
ATOM     55  C   UNL A   1      43.068  32.640  32.292  1.00  0.00     0.049 A 
ATOM     56  H   UNL A   1      42.190  31.095  31.155  1.00  0.00     0.167 HD
ATOM     57  C   UNL A   1      40.809  33.501  31.748  1.00  0.00     0.074 A 
ATOM     58  C   UNL A   1      39.765  34.504  31.809  1.00  0.00     0.031 C 
ATOM     59  C   UNL A   1      42.025  33.631  32.330  1.00  0.00     0.031 A 
BRANCH  46  60
ATOM     60  C   UNL A   1      45.729  28.745  31.565  1.00  0.00    -0.014 A 
ATOM     61  C   UNL A   1      45.891  27.930  32.696  1.00  0.00     0.009 A 
ATOM     62  C   UNL A   1      46.814  28.916  30.690  1.00  0.00     0.009 A 
ATOM     63  C   UNL A   1      47.123  27.332  32.966  1.00  0.00     0.001 A 
ATOM     64  C   UNL A   1      48.037  28.293  30.948  1.00  0.00     0.001 A 
ATOM     65  C   UNL A   1      48.193  27.510  32.091  1.00  0.00     0.000 A 
ENDBRANCH  46  60
BRANCH  47  66
ATOM     66  C   UNL A   1      36.753  32.623  29.540  1.00  0.00    -0.014 A 
ATOM     67  C   UNL A   1      36.500  33.322  28.350  1.00  0.00     0.009 A 
ATOM     68  C   UNL A   1      35.713  32.473  30.473  1.00  0.00     0.009 A 
ATOM     69  C   UNL A   1      35.243  33.881  28.110  1.00  0.00     0.001 A 
ATOM     70  C   UNL A   1      34.450  33.010  30.217  1.00  0.00     0.001 A 
ATOM     71  C   UNL A   1      34.218  33.721  29.041  1.00  0.00     0.000 A 
ENDBRANCH  47  66
BRANCH  59  72
ATOM     72  C   UNL A   1      42.320  34.923  33.035  1.00  0.00    -0.014 A 
ATOM     73  C   UNL A   1      41.881  35.158  34.348  1.00  0.00     0.009 A 
ATOM     74  C   UNL A   1      43.103  35.895  32.393  1.00  0.00     0.009 A 
ATOM     75  C   UNL A   1      42.201  36.354  34.992  1.00  0.00     0.001 A 
ATOM     76  C   UNL A   1      43.444  37.078  33.049  1.00  0.00     0.001 A 
ATOM     77  C   UNL A   1      42.987  37.309  34.346  1.00  0.00     0.000 A 
ENDBRANCH  59  72
ENDBRANCH  33  34
ENDBRANCH  25  28
ENDBRANCH  23  24
ENDBRANCH   1  23
TORSDOF 12
ENDMDL
MODEL 2
REMARK VINA RESULT:     -11.5      2.777      7.509
REMARK SMILES C=C(C(=O)NCCCNC(=O)c1ccc(-c2c3nc(c(-c4ccccc4)c4ccc([nH]4)c(-c4ccccc4)c4nc(c(-c5ccccc5)c5ccc2[nH]5)C=C4)C=C3)cc1)[C@@H]1CC[C@]2(C)C[C@@H](O)CC(=C)[C@H]2C1
REMARK SMILES IDX 7 1 6 2 5 3 3 4 4 5 2 7 1 8 60 9 61 10 72 11 62 12 71 13
REMARK SMILES IDX 63 14 69 15 64 16 65 17 68 18 70 19 66 20 67 21 8 23 9 24
REMARK SMILES IDX 10 25 11 27 12 28 13 29 59 30 14 31 58 32 15 33 16 34 17 35
REMARK SMILES IDX 52 36 18 37 57 38 51 39 53 40 19 41 56 42 50 43 49 44 20 46
REMARK SMILES IDX 42 47 27 48 41 49 28 50 31 51 40 52 54 53 29 54 30 55 39 57
REMARK SMILES IDX 55 58 32 59 21 60 22 61 26 62 23 63 25 64 24 65 43 66 44 67
REMARK SMILES IDX 48 68 45 69 47 70 46 71 33 72 34 73 38 74 35 75 37 76 36 77
REMARK H PARENT 5 6 67 22 9 26 53 45 31 56
REMARK Flexibility Score: inf
ROOT
ATOM      1  C   UNL A   1      31.356  32.209  26.494  1.00  0.00     0.042 C 
ENDROOT
BRANCH   1   2
ATOM      2  C   UNL A   1      31.541  30.753  26.054  1.00  0.00     0.118 C 
BRANCH   2   3
ATOM      3  N   UNL A   1      31.725  29.901  27.211  1.00  0.00    -0.352 N 
ATOM      4  C   UNL A   1      32.244  28.646  27.280  1.00  0.00     0.246 C 
ATOM      5  O   UNL A   1      31.666  27.852  28.018  1.00  0.00    -0.270 OA
ATOM      6  H   UNL A   1      31.433  30.286  28.070  1.00  0.00     0.163 HD
BRANCH   4   7
ATOM      7  C   UNL A   1      33.519  28.282  26.596  1.00  0.00     0.013 C 
ATOM      8  C   UNL A   1      34.682  28.890  26.895  1.00  0.00     0.018 C 
BRANCH   7   9
ATOM      9  C   UNL A   1      33.478  27.269  25.444  1.00  0.00     0.025 C 
ATOM     10  C   UNL A   1      32.117  27.244  24.727  1.00  0.00     0.009 C 
ATOM     11  C   UNL A   1      34.027  25.853  25.728  1.00  0.00     0.017 C 
ATOM     12  C   UNL A   1      31.107  26.240  25.282  1.00  0.00     0.008 C 
ATOM     13  C   UNL A   1      32.997  24.865  26.305  1.00  0.00     0.021 C 
ATOM     14  C   UNL A   1      31.674  24.812  25.486  1.00  0.00    -0.024 C 
ATOM     15  C   UNL A   1      33.487  23.445  26.573  1.00  0.00    -0.071 C 
ATOM     16  C   UNL A   1      31.882  24.188  24.083  1.00  0.00     0.012 C 
ATOM     17  C   UNL A   1      30.625  23.987  26.294  1.00  0.00     0.039 C 
ATOM     18  C   UNL A   1      32.517  22.650  27.427  1.00  0.00     0.062 C 
ATOM     19  C   UNL A   1      34.634  22.908  26.126  1.00  0.00     0.008 C 
ATOM     20  C   UNL A   1      31.106  22.623  26.816  1.00  0.00     0.119 C 
BRANCH  20  21
ATOM     21  O   UNL A   1      31.019  21.641  25.783  1.00  0.00    -0.393 OA
ATOM     22  H   UNL A   1      30.642  22.044  24.985  1.00  0.00     0.210 HD
ENDBRANCH  20  21
ENDBRANCH   7   9
ENDBRANCH   4   7
ENDBRANCH   2   3
ENDBRANCH   1   2
BRANCH   1  23
ATOM     23  C   UNL A   1      32.542  32.760  27.289  1.00  0.00     0.118 C 
BRANCH  23  24
ATOM     24  N   UNL A   1      32.371  34.170  27.613  1.00  0.00    -0.352 N 
ATOM     25  C   UNL A   1      32.994  34.920  28.576  1.00  0.00     0.251 C 
ATOM     26  H   UNL A   1      31.714  34.653  27.061  1.00  0.00     0.163 HD
ATOM     27  O   UNL A   1      32.541  36.020  28.892  1.00  0.00    -0.269 OA
BRANCH  25  28
ATOM     28  C   UNL A   1      34.211  34.408  29.235  1.00  0.00     0.039 A 
ATOM     29  C   UNL A   1      34.106  33.789  30.483  1.00  0.00     0.014 A 
ATOM     30  C   UNL A   1      35.460  34.572  28.629  1.00  0.00     0.014 A 
ATOM     31  C   UNL A   1      35.251  33.279  31.101  1.00  0.00     0.010 A 
ATOM     32  C   UNL A   1      36.588  34.008  29.215  1.00  0.00     0.010 A 
ATOM     33  C   UNL A   1      36.495  33.360  30.457  1.00  0.00    -0.014 A 
BRANCH  33  34
ATOM     34  C   UNL A   1      37.727  32.791  31.055  1.00  0.00     0.031 A 
ATOM     35  C   UNL A   1      38.369  31.583  30.432  1.00  0.00     0.074 A 
ATOM     36  C   UNL A   1      38.207  33.293  32.210  1.00  0.00     0.049 A 
ATOM     37  N   UNL A   1      39.344  30.837  30.886  1.00  0.00    -0.248 NA
ATOM     38  C   UNL A   1      37.819  31.137  29.140  1.00  0.00     0.031 C 
ATOM     39  C   UNL A   1      37.662  34.448  32.925  1.00  0.00     0.029 A 
ATOM     40  N   UNL A   1      39.251  32.875  32.996  1.00  0.00    -0.354 N 
ATOM     41  C   UNL A   1      39.501  29.817  29.954  1.00  0.00     0.074 A 
ATOM     42  C   UNL A   1      38.499  30.020  28.930  1.00  0.00     0.031 C 
ATOM     43  C   UNL A   1      38.380  34.651  34.041  1.00  0.00     0.029 A 
ATOM     44  C   UNL A   1      39.404  33.616  34.143  1.00  0.00     0.049 A 
ATOM     45  H   UNL A   1      39.834  32.118  32.762  1.00  0.00     0.167 HD
ATOM     46  C   UNL A   1      40.404  28.809  29.948  1.00  0.00     0.031 A 
ATOM     47  C   UNL A   1      40.260  33.466  35.171  1.00  0.00     0.031 A 
ATOM     48  C   UNL A   1      41.410  28.620  30.958  1.00  0.00     0.049 A 
ATOM     49  C   UNL A   1      41.246  32.333  35.147  1.00  0.00     0.074 A 
ATOM     50  C   UNL A   1      42.403  27.658  31.017  1.00  0.00     0.029 A 
ATOM     51  N   UNL A   1      41.549  29.411  32.087  1.00  0.00    -0.354 N 
ATOM     52  N   UNL A   1      41.412  31.402  34.239  1.00  0.00    -0.248 NA
ATOM     53  C   UNL A   1      42.171  32.234  36.286  1.00  0.00     0.031 C 
ATOM     54  C   UNL A   1      43.120  27.844  32.204  1.00  0.00     0.029 A 
ATOM     55  C   UNL A   1      42.605  28.953  32.856  1.00  0.00     0.049 A 
ATOM     56  H   UNL A   1      40.983  30.185  32.309  1.00  0.00     0.167 HD
ATOM     57  C   UNL A   1      42.480  30.630  34.677  1.00  0.00     0.074 A 
ATOM     58  C   UNL A   1      42.927  31.205  35.930  1.00  0.00     0.031 C 
ATOM     59  C   UNL A   1      43.045  29.547  34.091  1.00  0.00     0.031 A 
BRANCH  46  60
ATOM     60  C   UNL A   1      40.335  27.825  28.813  1.00  0.00    -0.014 A 
ATOM     61  C   UNL A   1      41.034  28.043  27.616  1.00  0.00     0.009 A 
ATOM     62  C   UNL A   1      39.584  26.647  28.956  1.00  0.00     0.009 A 
ATOM     63  C   UNL A   1      40.950  27.121  26.570  1.00  0.00     0.001 A 
ATOM     64  C   UNL A   1      39.525  25.714  27.919  1.00  0.00     0.001 A 
ATOM     65  C   UNL A   1      40.200  25.957  26.723  1.00  0.00     0.000 A 
ENDBRANCH  46  60
BRANCH  47  66
ATOM     66  C   UNL A   1      40.229  34.419  36.310  1.00  0.00    -0.014 A 
ATOM     67  C   UNL A   1      40.965  35.613  36.256  1.00  0.00     0.009 A 
ATOM     68  C   UNL A   1      39.465  34.145  37.456  1.00  0.00     0.009 A 
ATOM     69  C   UNL A   1      40.959  36.499  37.335  1.00  0.00     0.001 A 
ATOM     70  C   UNL A   1      39.439  35.046  38.522  1.00  0.00     0.001 A 
ATOM     71  C   UNL A   1      40.193  36.218  38.465  1.00  0.00     0.000 A 
ENDBRANCH  47  66
BRANCH  59  72
ATOM     72  C   UNL A   1      44.244  28.944  34.763  1.00  0.00    -0.014 A 
ATOM     73  C   UNL A   1      44.115  27.907  35.700  1.00  0.00     0.009 A 
ATOM     74  C   UNL A   1      45.528  29.384  34.405  1.00  0.00     0.009 A 
ATOM     75  C   UNL A   1      45.251  27.341  36.283  1.00  0.00     0.001 A 
ATOM     76  C   UNL A   1      46.662  28.797  34.968  1.00  0.00     0.001 A 
ATOM     77  C   UNL A   1      46.522  27.781  35.911  1.00  0.00     0.000 A 
ENDBRANCH  59  72
ENDBRANCH  33  34
ENDBRANCH  25  28
ENDBRANCH  23  24
ENDBRANCH   1  23
TORSDOF 12
ENDMDL
MODEL 3
REMARK VINA RESULT:     -11.5      2.436      3.796
REMARK SMILES C=C(C(=O)NCCCNC(=O)c1ccc(-c2c3nc(c(-c4ccccc4)c4ccc([nH]4)c(-c4ccccc4)c4nc(c(-c5ccccc5)c5ccc2[nH]5)C=C4)C=C3)cc1)[C@@H]1CC[C@]2(C)C[C@@H](O)CC(=C)[C@H]2C1
REMARK SMILES IDX 7 1 6 2 5 3 3 4 4 5 2 7 1 8 60 9 61 10 72 11 62 12 71 13
REMARK SMILES IDX 63 14 69 15 64 16 65 17 68 18 70 19 66 20 67 21 8 23 9 24
REMARK SMILES IDX 10 25 11 27 12 28 13 29 59 30 14 31 58 32 15 33 16 34 17 35
REMARK SMILES IDX 52 36 18 37 57 38 51 39 53 40 19 41 56 42 50 43 49 44 20 46
REMARK SMILES IDX 42 47 27 48 41 49 28 50 31 51 40 52 54 53 29 54 30 55 39 57
REMARK SMILES IDX 55 58 32 59 21 60 22 61 26 62 23 63 25 64 24 65 43 66 44 67
REMARK SMILES IDX 48 68 45 69 47 70 46 71 33 72 34 73 38 74 35 75 37 76 36 77
REMARK H PARENT 5 6 67 22 9 26 53 45 31 56
REMARK Flexibility Score: inf
ROOT
ATOM      1  C   UNL A   1      37.769  19.492  25.048  1.00  0.00     0.042 C 
ENDROOT
BRANCH   1   2
ATOM      2  C   UNL A   1      36.614  20.448  24.733  1.00  0.00     0.118 C 
BRANCH   2   3
ATOM      3  N   UNL A   1      37.090  21.563  23.940  1.00  0.00    -0.352 N 
ATOM      4  C   UNL A   1      36.520  22.781  23.741  1.00  0.00     0.246 C 
ATOM      5  O   UNL A   1      36.562  23.228  22.597  1.00  0.00    -0.270 OA
ATOM      6  H   UNL A   1      37.949  21.418  23.480  1.00  0.00     0.163 HD
BRANCH   4   7
ATOM      7  C   UNL A   1      35.982  23.593  24.872  1.00  0.00     0.013 C 
ATOM      8  C   UNL A   1      36.764  23.994  25.891  1.00  0.00     0.018 C 
BRANCH   7   9
ATOM      9  C   UNL A   1      34.475  23.879  24.927  1.00  0.00     0.025 C 
ATOM     10  C   UNL A   1      33.812  23.821  23.539  1.00  0.00     0.009 C 
ATOM     11  C   UNL A   1      34.017  25.100  25.755  1.00  0.00     0.017 C 
ATOM     12  C   UNL A   1      33.759  25.151  22.787  1.00  0.00     0.008 C 
ATOM     13  C   UNL A   1      33.991  26.431  24.982  1.00  0.00     0.021 C 
ATOM     14  C   UNL A   1      33.226  26.338  23.629  1.00  0.00    -0.024 C 
ATOM     15  C   UNL A   1      33.515  27.659  25.752  1.00  0.00    -0.071 C 
ATOM     16  C   UNL A   1      31.706  26.120  23.832  1.00  0.00     0.012 C 
ATOM     17  C   UNL A   1      33.480  27.652  22.826  1.00  0.00     0.039 C 
ATOM     18  C   UNL A   1      33.826  28.954  25.025  1.00  0.00     0.062 C 
ATOM     19  C   UNL A   1      32.885  27.653  26.939  1.00  0.00     0.008 C 
ATOM     20  C   UNL A   1      33.252  28.962  23.599  1.00  0.00     0.119 C 
BRANCH  20  21
ATOM     21  O   UNL A   1      31.862  29.291  23.612  1.00  0.00    -0.393 OA
ATOM     22  H   UNL A   1      31.498  29.119  24.494  1.00  0.00     0.210 HD
ENDBRANCH  20  21
ENDBRANCH   7   9
ENDBRANCH   4   7
ENDBRANCH   2   3
ENDBRANCH   1   2
BRANCH   1  23
ATOM     23  C   UNL A   1      38.940  20.170  25.764  1.00  0.00     0.118 C 
BRANCH  23  24
ATOM     24  N   UNL A   1      40.094  19.287  25.874  1.00  0.00    -0.352 N 
ATOM     25  C   UNL A   1      41.410  19.604  26.088  1.00  0.00     0.251 C 
ATOM     26  H   UNL A   1      39.901  18.327  25.781  1.00  0.00     0.163 HD
ATOM     27  O   UNL A   1      42.288  18.765  25.885  1.00  0.00    -0.269 OA
BRANCH  25  28
ATOM     28  C   UNL A   1      41.776  20.951  26.563  1.00  0.00     0.039 A 
ATOM     29  C   UNL A   1      42.259  21.893  25.651  1.00  0.00     0.014 A 
ATOM     30  C   UNL A   1      41.670  21.271  27.920  1.00  0.00     0.014 A 
ATOM     31  C   UNL A   1      42.582  23.179  26.090  1.00  0.00     0.010 A 
ATOM     32  C   UNL A   1      41.931  22.569  28.344  1.00  0.00     0.010 A 
ATOM     33  C   UNL A   1      42.393  23.534  27.435  1.00  0.00    -0.014 A 
BRANCH  33  34
ATOM     34  C   UNL A   1      42.679  24.901  27.934  1.00  0.00     0.031 A 
ATOM     35  C   UNL A   1      44.064  25.249  28.404  1.00  0.00     0.074 A 
ATOM     36  C   UNL A   1      41.676  25.792  28.061  1.00  0.00     0.049 A 
ATOM     37  N   UNL A   1      44.482  26.323  29.025  1.00  0.00    -0.248 NA
ATOM     38  C   UNL A   1      45.111  24.239  28.174  1.00  0.00     0.031 C 
ATOM     39  C   UNL A   1      40.286  25.569  27.661  1.00  0.00     0.029 A 
ATOM     40  N   UNL A   1      41.674  27.060  28.586  1.00  0.00    -0.354 N 
ATOM     41  C   UNL A   1      45.829  26.104  29.287  1.00  0.00     0.074 A 
ATOM     42  C   UNL A   1      46.149  24.783  28.791  1.00  0.00     0.031 C 
ATOM     43  C   UNL A   1      39.566  26.666  27.948  1.00  0.00     0.029 A 
ATOM     44  C   UNL A   1      40.432  27.648  28.594  1.00  0.00     0.049 A 
ATOM     45  H   UNL A   1      42.483  27.505  28.926  1.00  0.00     0.167 HD
ATOM     46  C   UNL A   1      46.721  26.933  29.878  1.00  0.00     0.031 A 
ATOM     47  C   UNL A   1      40.032  28.836  29.084  1.00  0.00     0.031 A 
ATOM     48  C   UNL A   1      46.404  28.253  30.355  1.00  0.00     0.049 A 
ATOM     49  C   UNL A   1      41.038  29.735  29.746  1.00  0.00     0.074 A 
ATOM     50  C   UNL A   1      47.249  29.190  30.924  1.00  0.00     0.029 A 
ATOM     51  N   UNL A   1      45.141  28.821  30.315  1.00  0.00    -0.354 N 
ATOM     52  N   UNL A   1      42.318  29.533  29.948  1.00  0.00    -0.248 NA
ATOM     53  C   UNL A   1      40.547  31.029  30.240  1.00  0.00     0.031 C 
ATOM     54  C   UNL A   1      46.486  30.312  31.265  1.00  0.00     0.029 A 
ATOM     55  C   UNL A   1      45.179  30.093  30.860  1.00  0.00     0.049 A 
ATOM     56  H   UNL A   1      44.336  28.386  29.952  1.00  0.00     0.167 HD
ATOM     57  C   UNL A   1      42.792  30.687  30.558  1.00  0.00     0.074 A 
ATOM     58  C   UNL A   1      41.663  31.587  30.688  1.00  0.00     0.031 C 
ATOM     59  C   UNL A   1      44.050  30.979  30.968  1.00  0.00     0.031 A 
BRANCH  46  60
ATOM     60  C   UNL A   1      48.126  26.427  30.052  1.00  0.00    -0.014 A 
ATOM     61  C   UNL A   1      49.090  26.593  29.046  1.00  0.00     0.009 A 
ATOM     62  C   UNL A   1      48.499  25.803  31.253  1.00  0.00     0.009 A 
ATOM     63  C   UNL A   1      50.388  26.108  29.223  1.00  0.00     0.001 A 
ATOM     64  C   UNL A   1      49.805  25.345  31.439  1.00  0.00     0.001 A 
ATOM     65  C   UNL A   1      50.745  25.489  30.419  1.00  0.00     0.000 A 
ENDBRANCH  46  60
BRANCH  47  66
ATOM     66  C   UNL A   1      38.611  29.251  28.960  1.00  0.00    -0.014 A 
ATOM     67  C   UNL A   1      37.739  29.131  30.053  1.00  0.00     0.009 A 
ATOM     68  C   UNL A   1      38.117  29.771  27.752  1.00  0.00     0.009 A 
ATOM     69  C   UNL A   1      36.397  29.497  29.933  1.00  0.00     0.001 A 
ATOM     70  C   UNL A   1      36.781  30.161  27.643  1.00  0.00     0.001 A 
ATOM     71  C   UNL A   1      35.920  30.015  28.730  1.00  0.00     0.000 A 
ENDBRANCH  47  66
BRANCH  59  72
ATOM     72  C   UNL A   1      44.291  32.345  31.541  1.00  0.00    -0.014 A 
ATOM     73  C   UNL A   1      44.181  32.591  32.919  1.00  0.00     0.009 A 
ATOM     74  C   UNL A   1      44.694  33.387  30.692  1.00  0.00     0.009 A 
ATOM     75  C   UNL A   1      44.446  33.863  33.429  1.00  0.00     0.001 A 
ATOM     76  C   UNL A   1      44.986  34.650  31.209  1.00  0.00     0.001 A 
ATOM     77  C   UNL A   1      44.855  34.889  32.575  1.00  0.00     0.000 A 
ENDBRANCH  59  72
ENDBRANCH  33  34
ENDBRANCH  25  28
ENDBRANCH  23  24
ENDBRANCH   1  23
TORSDOF 12
ENDMDL
