MODEL 1
REMARK VINA RESULT:     -10.9      0.000      0.000
REMARK SMILES [NH3+][C@H]1C=C[C@@H](C(=O)NC2(CC(=O)NCCCNC(=O)c3ccc(-c4c5nc(c(-c6ccccc6)c6ccc([nH]6)c(-c6ccccc6)c6nc(c(-c7ccccc7)c7ccc4[nH]7)C=C6)C=C5)cc3)CCCCC2)C1
REMARK SMILES IDX 14 1 13 2 11 3 12 4 10 6 9 7 68 8 72 9 69 10 71 11 70 12
REMARK SMILES IDX 8 13 6 14 7 15 5 17 2 18 3 19 73 20 4 21 1 22 15 26 16 27
REMARK SMILES IDX 17 28 18 29 19 31 20 32 21 33 67 34 22 35 66 36 23 37 24 38
REMARK SMILES IDX 25 39 60 40 26 41 65 42 59 43 61 44 27 45 64 46 58 47 57 48
REMARK SMILES IDX 28 50 50 51 35 52 49 53 36 54 39 55 48 56 62 57 37 58 38 59
REMARK SMILES IDX 47 61 63 62 40 63 29 64 30 65 34 66 31 67 33 68 32 69 51 70
REMARK SMILES IDX 52 71 56 72 53 73 55 74 54 75 41 76 42 77 46 78 43 79 45 80
REMARK SMILES IDX 44 81
REMARK H PARENT 13 5 8 16 1 23 1 24 1 25 17 30 61 49 39 60
REMARK Flexibility Score: inf
ROOT
ATOM      1  C   UNL A   1      36.166  19.867  24.677  1.00  0.00     0.117 C 
ENDROOT
BRANCH   1   2
ATOM      2  N   UNL A   1      35.835  20.793  25.747  1.00  0.00    -0.356 N 
ATOM      3  C   UNL A   1      35.175  21.985  25.714  1.00  0.00     0.222 C 
ATOM      4  O   UNL A   1      35.248  22.704  26.714  1.00  0.00    -0.275 OA
ATOM      5  H   UNL A   1      36.136  20.515  26.642  1.00  0.00     0.163 HD
BRANCH   3   6
ATOM      6  C   UNL A   1      34.324  22.418  24.528  1.00  0.00     0.128 C 
BRANCH   6   7
ATOM      7  C   UNL A   1      32.765  22.311  24.662  1.00  0.00     0.049 C 
ATOM      8  C   UNL A   1      32.363  20.809  24.763  1.00  0.00     0.029 C 
ATOM      9  C   UNL A   1      32.098  22.877  23.402  1.00  0.00     0.029 C 
ATOM     10  C   UNL A   1      32.603  20.009  23.478  1.00  0.00     0.002 C 
ATOM     11  C   UNL A   1      32.354  22.102  22.111  1.00  0.00     0.002 C 
ATOM     12  C   UNL A   1      31.927  20.650  22.273  1.00  0.00     0.000 C 
BRANCH   7  13
ATOM     13  N   UNL A   1      32.342  22.963  25.936  1.00  0.00    -0.350 N 
ATOM     14  C   UNL A   1      31.953  24.180  26.388  1.00  0.00     0.227 C 
ATOM     15  O   UNL A   1      31.308  24.151  27.448  1.00  0.00    -0.274 OA
ATOM     16  H   UNL A   1      32.348  22.309  26.673  1.00  0.00     0.164 HD
BRANCH  14  17
ATOM     17  C   UNL A   1      32.306  25.560  25.812  1.00  0.00     0.107 C 
ATOM     18  C   UNL A   1      32.556  27.922  26.433  1.00  0.00     0.205 C 
ATOM     19  C   UNL A   1      33.861  27.290  26.074  1.00  0.00     0.033 C 
ATOM     20  C   UNL A   1      31.596  26.726  26.505  1.00  0.00     0.087 C 
ATOM     21  C   UNL A   1      33.733  25.996  25.749  1.00  0.00    -0.012 C 
BRANCH  18  22
ATOM     22  N   UNL A   1      32.637  28.653  27.687  1.00  0.00    -0.352 N 
ATOM     23  H   UNL A   1      32.755  27.995  28.457  1.00  0.00     0.345 HD
ATOM     24  H   UNL A   1      31.779  29.188  27.825  1.00  0.00     0.345 HD
ATOM     25  H   UNL A   1      33.433  29.290  27.659  1.00  0.00     0.345 HD
ENDBRANCH  18  22
ENDBRANCH  14  17
ENDBRANCH   7  13
ENDBRANCH   6   7
ENDBRANCH   3   6
ENDBRANCH   1   2
BRANCH   1  26
ATOM     26  C   UNL A   1      37.464  19.128  25.008  1.00  0.00     0.042 C 
BRANCH  26  27
ATOM     27  C   UNL A   1      38.651  20.009  25.371  1.00  0.00     0.118 C 
BRANCH  27  28
ATOM     28  N   UNL A   1      39.832  19.217  25.680  1.00  0.00    -0.352 N 
ATOM     29  C   UNL A   1      41.100  19.549  26.087  1.00  0.00     0.251 C 
ATOM     30  H   UNL A   1      39.695  18.248  25.575  1.00  0.00     0.163 HD
ATOM     31  O   UNL A   1      41.956  18.656  26.044  1.00  0.00    -0.269 OA
BRANCH  29  32
ATOM     32  C   UNL A   1      41.507  20.902  26.562  1.00  0.00     0.039 A 
ATOM     33  C   UNL A   1      41.442  21.157  27.942  1.00  0.00     0.014 A 
ATOM     34  C   UNL A   1      41.838  21.958  25.713  1.00  0.00     0.014 A 
ATOM     35  C   UNL A   1      41.723  22.431  28.456  1.00  0.00     0.010 A 
ATOM     36  C   UNL A   1      42.211  23.206  26.232  1.00  0.00     0.010 A 
ATOM     37  C   UNL A   1      42.135  23.469  27.607  1.00  0.00    -0.014 A 
BRANCH  37  38
ATOM     38  C   UNL A   1      42.446  24.829  28.134  1.00  0.00     0.031 A 
ATOM     39  C   UNL A   1      43.846  25.181  28.577  1.00  0.00     0.074 A 
ATOM     40  C   UNL A   1      41.468  25.747  28.263  1.00  0.00     0.049 A 
ATOM     41  N   UNL A   1      44.290  26.285  29.129  1.00  0.00    -0.248 NA
ATOM     42  C   UNL A   1      44.880  24.149  28.398  1.00  0.00     0.031 C 
ATOM     43  C   UNL A   1      40.064  25.548  27.903  1.00  0.00     0.029 A 
ATOM     44  N   UNL A   1      41.507  27.036  28.744  1.00  0.00    -0.354 N 
ATOM     45  C   UNL A   1      45.638  26.068  29.389  1.00  0.00     0.074 A 
ATOM     46  C   UNL A   1      45.932  24.713  28.974  1.00  0.00     0.031 C 
ATOM     47  C   UNL A   1      39.381  26.677  28.154  1.00  0.00     0.029 A 
ATOM     48  C   UNL A   1      40.286  27.666  28.732  1.00  0.00     0.049 A 
ATOM     49  H   UNL A   1      42.333  27.465  29.065  1.00  0.00     0.167 HD
ATOM     50  C   UNL A   1      46.559  26.918  29.908  1.00  0.00     0.031 A 
ATOM     51  C   UNL A   1      39.926  28.895  29.150  1.00  0.00     0.031 A 
ATOM     52  C   UNL A   1      46.286  28.274  30.304  1.00  0.00     0.049 A 
ATOM     53  C   UNL A   1      40.961  29.819  29.729  1.00  0.00     0.074 A 
ATOM     54  C   UNL A   1      47.168  29.227  30.784  1.00  0.00     0.029 A 
ATOM     55  N   UNL A   1      45.037  28.872  30.264  1.00  0.00    -0.354 N 
ATOM     56  N   UNL A   1      42.241  29.612  29.914  1.00  0.00    -0.248 NA
ATOM     57  C   UNL A   1      40.498  31.150  30.147  1.00  0.00     0.031 C 
ATOM     58  C   UNL A   1      46.444  30.387  31.082  1.00  0.00     0.029 A 
ATOM     59  C   UNL A   1      45.120  30.173  30.734  1.00  0.00     0.049 A 
ATOM     60  H   UNL A   1      44.211  28.437  29.949  1.00  0.00     0.167 HD
ATOM     61  C   UNL A   1      42.742  30.794  30.447  1.00  0.00     0.074 A 
ATOM     62  C   UNL A   1      41.631  31.718  30.540  1.00  0.00     0.031 C 
ATOM     63  C   UNL A   1      44.010  31.085  30.826  1.00  0.00     0.031 A 
BRANCH  50  64
ATOM     64  C   UNL A   1      47.959  26.394  30.089  1.00  0.00    -0.014 A 
ATOM     65  C   UNL A   1      48.361  25.782  31.288  1.00  0.00     0.009 A 
ATOM     66  C   UNL A   1      48.880  26.485  29.034  1.00  0.00     0.009 A 
ATOM     67  C   UNL A   1      49.668  25.314  31.440  1.00  0.00     0.001 A 
ATOM     68  C   UNL A   1      50.177  25.988  29.179  1.00  0.00     0.001 A 
ATOM     69  C   UNL A   1      50.573  25.414  30.385  1.00  0.00     0.000 A 
ENDBRANCH  50  64
BRANCH  51  70
ATOM     70  C   UNL A   1      38.509  29.329  29.032  1.00  0.00    -0.014 A 
ATOM     71  C   UNL A   1      38.018  29.838  27.819  1.00  0.00     0.009 A 
ATOM     72  C   UNL A   1      37.641  29.236  30.130  1.00  0.00     0.009 A 
ATOM     73  C   UNL A   1      36.692  30.265  27.718  1.00  0.00     0.001 A 
ATOM     74  C   UNL A   1      36.308  29.636  30.016  1.00  0.00     0.001 A 
ATOM     75  C   UNL A   1      35.837  30.158  28.813  1.00  0.00     0.000 A 
ENDBRANCH  51  70
BRANCH  63  76
ATOM     76  C   UNL A   1      44.273  32.470  31.346  1.00  0.00    -0.014 A 
ATOM     77  C   UNL A   1      44.504  33.546  30.475  1.00  0.00     0.009 A 
ATOM     78  C   UNL A   1      44.251  32.708  32.730  1.00  0.00     0.009 A 
ATOM     79  C   UNL A   1      44.739  34.826  30.981  1.00  0.00     0.001 A 
ATOM     80  C   UNL A   1      44.461  33.994  33.231  1.00  0.00     0.001 A 
ATOM     81  C   UNL A   1      44.713  35.050  32.357  1.00  0.00     0.000 A 
ENDBRANCH  63  76
ENDBRANCH  37  38
ENDBRANCH  29  32
ENDBRANCH  27  28
ENDBRANCH  26  27
ENDBRANCH   1  26
TORSDOF 14
ENDMDL
MODEL 2
REMARK VINA RESULT:     -10.8      2.975      4.792
REMARK SMILES [NH3+][C@H]1C=C[C@@H](C(=O)NC2(CC(=O)NCCCNC(=O)c3ccc(-c4c5nc(c(-c6ccccc6)c6ccc([nH]6)c(-c6ccccc6)c6nc(c(-c7ccccc7)c7ccc4[nH]7)C=C6)C=C5)cc3)CCCCC2)C1
REMARK SMILES IDX 14 1 13 2 11 3 12 4 10 6 9 7 68 8 72 9 69 10 71 11 70 12
REMARK SMILES IDX 8 13 6 14 7 15 5 17 2 18 3 19 73 20 4 21 1 22 15 26 16 27
REMARK SMILES IDX 17 28 18 29 19 31 20 32 21 33 67 34 22 35 66 36 23 37 24 38
REMARK SMILES IDX 25 39 60 40 26 41 65 42 59 43 61 44 27 45 64 46 58 47 57 48
REMARK SMILES IDX 28 50 50 51 35 52 49 53 36 54 39 55 48 56 62 57 37 58 38 59
REMARK SMILES IDX 47 61 63 62 40 63 29 64 30 65 34 66 31 67 33 68 32 69 51 70
REMARK SMILES IDX 52 71 56 72 53 73 55 74 54 75 41 76 42 77 46 78 43 79 45 80
REMARK SMILES IDX 44 81
REMARK H PARENT 13 5 8 16 1 23 1 24 1 25 17 30 61 49 39 60
REMARK Flexibility Score: inf
ROOT
ATOM      1  C   UNL A   1      34.349  23.626  25.555  1.00  0.00     0.117 C 
ENDROOT
BRANCH   1   2
ATOM      2  N   UNL A   1      34.348  24.468  24.370  1.00  0.00    -0.356 N 
ATOM      3  C   UNL A   1      33.847  25.719  24.174  1.00  0.00     0.222 C 
ATOM      4  O   UNL A   1      33.742  26.115  23.010  1.00  0.00    -0.275 OA
ATOM      5  H   UNL A   1      34.781  24.070  23.581  1.00  0.00     0.163 HD
BRANCH   3   6
ATOM      6  C   UNL A   1      33.474  26.643  25.325  1.00  0.00     0.128 C 
BRANCH   6   7
ATOM      7  C   UNL A   1      32.331  27.692  25.087  1.00  0.00     0.049 C 
ATOM      8  C   UNL A   1      32.965  29.099  24.875  1.00  0.00     0.029 C 
ATOM      9  C   UNL A   1      31.440  27.776  26.333  1.00  0.00     0.029 C 
ATOM     10  C   UNL A   1      33.638  29.677  26.125  1.00  0.00     0.002 C 
ATOM     11  C   UNL A   1      32.109  28.326  27.591  1.00  0.00     0.002 C 
ATOM     12  C   UNL A   1      32.693  29.704  27.320  1.00  0.00     0.000 C 
BRANCH   7  13
ATOM     13  N   UNL A   1      31.609  27.344  23.828  1.00  0.00    -0.350 N 
ATOM     14  C   UNL A   1      30.630  27.841  23.034  1.00  0.00     0.227 C 
ATOM     15  O   UNL A   1      30.645  27.410  21.870  1.00  0.00    -0.274 OA
ATOM     16  H   UNL A   1      31.947  26.493  23.464  1.00  0.00     0.164 HD
BRANCH  14  17
ATOM     17  C   UNL A   1      29.470  28.769  23.430  1.00  0.00     0.107 C 
ATOM     18  C   UNL A   1      28.714  31.101  23.305  1.00  0.00     0.205 C 
ATOM     19  C   UNL A   1      27.876  30.189  22.469  1.00  0.00     0.033 C 
ATOM     20  C   UNL A   1      29.894  30.212  23.718  1.00  0.00     0.087 C 
ATOM     21  C   UNL A   1      28.294  28.917  22.522  1.00  0.00    -0.012 C 
BRANCH  18  22
ATOM     22  N   UNL A   1      29.132  32.280  22.563  1.00  0.00    -0.352 N 
ATOM     23  H   UNL A   1      28.804  33.118  23.044  1.00  0.00     0.345 HD
ATOM     24  H   UNL A   1      28.735  32.249  21.624  1.00  0.00     0.345 HD
ATOM     25  H   UNL A   1      30.149  32.300  22.501  1.00  0.00     0.345 HD
ENDBRANCH  18  22
ENDBRANCH  14  17
ENDBRANCH   7  13
ENDBRANCH   6   7
ENDBRANCH   3   6
ENDBRANCH   1   2
BRANCH   1  26
ATOM     26  C   UNL A   1      35.780  23.441  26.064  1.00  0.00     0.042 C 
BRANCH  26  27
ATOM     27  C   UNL A   1      36.867  23.458  24.999  1.00  0.00     0.118 C 
BRANCH  27  28
ATOM     28  N   UNL A   1      38.018  22.659  25.393  1.00  0.00    -0.352 N 
ATOM     29  C   UNL A   1      39.170  22.954  26.078  1.00  0.00     0.251 C 
ATOM     30  H   UNL A   1      37.959  21.718  25.111  1.00  0.00     0.163 HD
ATOM     31  O   UNL A   1      40.070  22.104  26.054  1.00  0.00    -0.269 OA
BRANCH  29  32
ATOM     32  C   UNL A   1      39.404  24.218  26.830  1.00  0.00     0.039 A 
ATOM     33  C   UNL A   1      40.105  25.247  26.179  1.00  0.00     0.014 A 
ATOM     34  C   UNL A   1      39.072  24.398  28.174  1.00  0.00     0.014 A 
ATOM     35  C   UNL A   1      40.442  26.430  26.850  1.00  0.00     0.010 A 
ATOM     36  C   UNL A   1      39.323  25.617  28.818  1.00  0.00     0.010 A 
ATOM     37  C   UNL A   1      40.035  26.641  28.175  1.00  0.00    -0.014 A 
BRANCH  37  38
ATOM     38  C   UNL A   1      40.375  27.896  28.905  1.00  0.00     0.031 A 
ATOM     39  C   UNL A   1      41.703  28.041  29.609  1.00  0.00     0.074 A 
ATOM     40  C   UNL A   1      39.480  28.901  28.982  1.00  0.00     0.049 A 
ATOM     41  N   UNL A   1      42.145  29.025  30.354  1.00  0.00    -0.248 NA
ATOM     42  C   UNL A   1      42.651  26.922  29.478  1.00  0.00     0.031 C 
ATOM     43  C   UNL A   1      38.148  28.899  28.377  1.00  0.00     0.029 A 
ATOM     44  N   UNL A   1      39.555  30.121  29.614  1.00  0.00    -0.354 N 
ATOM     45  C   UNL A   1      43.402  28.632  30.802  1.00  0.00     0.074 A 
ATOM     46  C   UNL A   1      43.635  27.303  30.280  1.00  0.00     0.031 C 
ATOM     47  C   UNL A   1      37.541  30.066  28.648  1.00  0.00     0.029 A 
ATOM     48  C   UNL A   1      38.420  30.882  29.480  1.00  0.00     0.049 A 
ATOM     49  H   UNL A   1      40.349  30.419  30.115  1.00  0.00     0.167 HD
ATOM     50  C   UNL A   1      44.293  29.315  31.563  1.00  0.00     0.031 A 
ATOM     51  C   UNL A   1      38.109  32.094  29.978  1.00  0.00     0.031 A 
ATOM     52  C   UNL A   1      44.084  30.646  32.068  1.00  0.00     0.049 A 
ATOM     53  C   UNL A   1      39.109  32.832  30.824  1.00  0.00     0.074 A 
ATOM     54  C   UNL A   1      44.954  31.439  32.797  1.00  0.00     0.029 A 
ATOM     55  N   UNL A   1      42.922  31.382  31.898  1.00  0.00    -0.354 N 
ATOM     56  N   UNL A   1      40.312  32.465  31.189  1.00  0.00    -0.248 NA
ATOM     57  C   UNL A   1      38.707  34.157  31.319  1.00  0.00     0.031 C 
ATOM     58  C   UNL A   1      44.301  32.636  33.110  1.00  0.00     0.029 A 
ATOM     59  C   UNL A   1      43.044  32.610  32.528  1.00  0.00     0.049 A 
ATOM     60  H   UNL A   1      42.127  31.078  31.403  1.00  0.00     0.167 HD
ATOM     61  C   UNL A   1      40.821  33.521  31.935  1.00  0.00     0.074 A 
ATOM     62  C   UNL A   1      39.802  34.551  31.956  1.00  0.00     0.031 C 
ATOM     63  C   UNL A   1      42.026  33.627  32.547  1.00  0.00     0.031 A 
BRANCH  50  64
ATOM     64  C   UNL A   1      45.584  28.622  31.905  1.00  0.00    -0.014 A 
ATOM     65  C   UNL A   1      46.740  28.802  31.127  1.00  0.00     0.009 A 
ATOM     66  C   UNL A   1      45.656  27.801  33.042  1.00  0.00     0.009 A 
ATOM     67  C   UNL A   1      47.925  28.139  31.454  1.00  0.00     0.001 A 
ATOM     68  C   UNL A   1      46.851  27.164  33.385  1.00  0.00     0.001 A 
ATOM     69  C   UNL A   1      47.980  27.324  32.585  1.00  0.00     0.000 A 
ENDBRANCH  50  64
BRANCH  51  70
ATOM     70  C   UNL A   1      36.781  32.696  29.683  1.00  0.00    -0.014 A 
ATOM     71  C   UNL A   1      36.566  33.397  28.487  1.00  0.00     0.009 A 
ATOM     72  C   UNL A   1      35.724  32.570  30.597  1.00  0.00     0.009 A 
ATOM     73  C   UNL A   1      35.323  33.978  28.223  1.00  0.00     0.001 A 
ATOM     74  C   UNL A   1      34.475  33.128  30.317  1.00  0.00     0.001 A 
ATOM     75  C   UNL A   1      34.279  33.838  29.135  1.00  0.00     0.000 A 
ENDBRANCH  51  70
BRANCH  63  76
ATOM     76  C   UNL A   1      42.323  34.913  33.266  1.00  0.00    -0.014 A 
ATOM     77  C   UNL A   1      41.936  35.108  34.601  1.00  0.00     0.009 A 
ATOM     78  C   UNL A   1      43.034  35.929  32.607  1.00  0.00     0.009 A 
ATOM     79  C   UNL A   1      42.230  36.309  35.252  1.00  0.00     0.001 A 
ATOM     80  C   UNL A   1      43.348  37.118  33.269  1.00  0.00     0.001 A 
ATOM     81  C   UNL A   1      42.938  37.310  34.587  1.00  0.00     0.000 A 
ENDBRANCH  63  76
ENDBRANCH  37  38
ENDBRANCH  29  32
ENDBRANCH  27  28
ENDBRANCH  26  27
ENDBRANCH   1  26
TORSDOF 14
ENDMDL
MODEL 3
REMARK VINA RESULT:     -10.8      3.030      8.536
REMARK SMILES [NH3+][C@H]1C=C[C@@H](C(=O)NC2(CC(=O)NCCCNC(=O)c3ccc(-c4c5nc(c(-c6ccccc6)c6ccc([nH]6)c(-c6ccccc6)c6nc(c(-c7ccccc7)c7ccc4[nH]7)C=C6)C=C5)cc3)CCCCC2)C1
REMARK SMILES IDX 14 1 13 2 11 3 12 4 10 6 9 7 68 8 72 9 69 10 71 11 70 12
REMARK SMILES IDX 8 13 6 14 7 15 5 17 2 18 3 19 73 20 4 21 1 22 15 26 16 27
REMARK SMILES IDX 17 28 18 29 19 31 20 32 21 33 67 34 22 35 66 36 23 37 24 38
REMARK SMILES IDX 25 39 60 40 26 41 65 42 59 43 61 44 27 45 64 46 58 47 57 48
REMARK SMILES IDX 28 50 50 51 35 52 49 53 36 54 39 55 48 56 62 57 37 58 38 59
REMARK SMILES IDX 47 61 63 62 40 63 29 64 30 65 34 66 31 67 33 68 32 69 51 70
REMARK SMILES IDX 52 71 56 72 53 73 55 74 54 75 41 76 42 77 46 78 43 79 45 80
REMARK SMILES IDX 44 81
REMARK H PARENT 13 5 8 16 1 23 1 24 1 25 17 30 61 49 39 60
REMARK Flexibility Score: inf
ROOT
ATOM      1  C   UNL A   1      31.387  30.055  25.213  1.00  0.00     0.117 C 
ENDROOT
BRANCH   1   2
ATOM      2  N   UNL A   1      31.641  29.032  26.214  1.00  0.00    -0.356 N 
ATOM      3  C   UNL A   1      31.305  27.712  26.236  1.00  0.00     0.222 C 
ATOM      4  O   UNL A   1      31.408  27.116  27.312  1.00  0.00    -0.275 OA
ATOM      5  H   UNL A   1      32.137  29.343  27.005  1.00  0.00     0.163 HD
BRANCH   3   6
ATOM      6  C   UNL A   1      30.872  26.955  24.988  1.00  0.00     0.128 C 
BRANCH   6   7
ATOM      7  C   UNL A   1      31.567  25.582  24.681  1.00  0.00     0.049 C 
ATOM      8  C   UNL A   1      33.103  25.805  24.550  1.00  0.00     0.029 C 
ATOM      9  C   UNL A   1      31.068  25.041  23.335  1.00  0.00     0.029 C 
ATOM     10  C   UNL A   1      33.515  26.623  23.321  1.00  0.00     0.002 C 
ATOM     11  C   UNL A   1      31.450  25.864  22.107  1.00  0.00     0.002 C 
ATOM     12  C   UNL A   1      32.961  26.031  22.031  1.00  0.00     0.000 C 
BRANCH   7  13
ATOM     13  N   UNL A   1      31.355  24.663  25.837  1.00  0.00    -0.350 N 
ATOM     14  C   UNL A   1      31.931  23.576  26.405  1.00  0.00     0.227 C 
ATOM     15  O   UNL A   1      31.629  23.399  27.596  1.00  0.00    -0.274 OA
ATOM     16  H   UNL A   1      30.551  24.927  26.341  1.00  0.00     0.164 HD
BRANCH  14  17
ATOM     17  C   UNL A   1      32.804  22.507  25.729  1.00  0.00     0.107 C 
ATOM     18  C   UNL A   1      33.411  20.131  25.847  1.00  0.00     0.205 C 
ATOM     19  C   UNL A   1      32.621  20.452  24.622  1.00  0.00     0.033 C 
ATOM     20  C   UNL A   1      33.304  21.416  26.680  1.00  0.00     0.087 C 
ATOM     21  C   UNL A   1      32.274  21.745  24.559  1.00  0.00    -0.012 C 
BRANCH  18  22
ATOM     22  N   UNL A   1      32.883  18.967  26.540  1.00  0.00    -0.352 N 
ATOM     23  H   UNL A   1      32.985  19.094  27.547  1.00  0.00     0.345 HD
ATOM     24  H   UNL A   1      33.396  18.135  26.248  1.00  0.00     0.345 HD
ATOM     25  H   UNL A   1      31.895  18.853  26.311  1.00  0.00     0.345 HD
ENDBRANCH  18  22
ENDBRANCH  14  17
ENDBRANCH   7  13
ENDBRANCH   6   7
ENDBRANCH   3   6
ENDBRANCH   1   2
BRANCH   1  26
ATOM     26  C   UNL A   1      31.201  31.414  25.889  1.00  0.00     0.042 C 
BRANCH  26  27
ATOM     27  C   UNL A   1      32.148  31.712  27.043  1.00  0.00     0.118 C 
BRANCH  27  28
ATOM     28  N   UNL A   1      32.158  33.129  27.378  1.00  0.00    -0.352 N 
ATOM     29  C   UNL A   1      32.984  33.899  28.157  1.00  0.00     0.251 C 
ATOM     30  H   UNL A   1      31.424  33.636  26.963  1.00  0.00     0.163 HD
ATOM     31  O   UNL A   1      32.592  35.041  28.432  1.00  0.00    -0.269 OA
BRANCH  29  32
ATOM     32  C   UNL A   1      34.300  33.451  28.692  1.00  0.00     0.039 A 
ATOM     33  C   UNL A   1      35.444  33.713  27.921  1.00  0.00     0.014 A 
ATOM     34  C   UNL A   1      34.450  32.691  29.853  1.00  0.00     0.014 A 
ATOM     35  C   UNL A   1      36.705  33.245  28.315  1.00  0.00     0.010 A 
ATOM     36  C   UNL A   1      35.721  32.304  30.298  1.00  0.00     0.010 A 
ATOM     37  C   UNL A   1      36.864  32.552  29.523  1.00  0.00    -0.014 A 
BRANCH  37  38
ATOM     38  C   UNL A   1      38.198  32.052  29.965  1.00  0.00     0.031 A 
ATOM     39  C   UNL A   1      38.741  30.743  29.443  1.00  0.00     0.074 A 
ATOM     40  C   UNL A   1      38.916  32.743  30.872  1.00  0.00     0.049 A 
ATOM     41  N   UNL A   1      39.844  30.112  29.769  1.00  0.00    -0.248 NA
ATOM     42  C   UNL A   1      37.926  30.037  28.441  1.00  0.00     0.031 C 
ATOM     43  C   UNL A   1      38.514  34.009  31.487  1.00  0.00     0.029 A 
ATOM     44  N   UNL A   1      40.137  32.471  31.445  1.00  0.00    -0.354 N 
ATOM     45  C   UNL A   1      39.839  28.930  29.038  1.00  0.00     0.074 A 
ATOM     46  C   UNL A   1      38.604  28.909  28.284  1.00  0.00     0.031 C 
ATOM     47  C   UNL A   1      39.477  34.413  32.332  1.00  0.00     0.029 A 
ATOM     48  C   UNL A   1      40.544  33.418  32.352  1.00  0.00     0.049 A 
ATOM     49  H   UNL A   1      40.669  31.672  31.223  1.00  0.00     0.167 HD
ATOM     50  C   UNL A   1      40.779  27.954  28.979  1.00  0.00     0.031 A 
ATOM     51  C   UNL A   1      41.644  33.478  33.128  1.00  0.00     0.031 A 
ATOM     52  C   UNL A   1      42.021  27.973  29.706  1.00  0.00     0.049 A 
ATOM     53  C   UNL A   1      42.670  32.383  33.053  1.00  0.00     0.074 A 
ATOM     54  C   UNL A   1      43.059  27.058  29.664  1.00  0.00     0.029 A 
ATOM     55  N   UNL A   1      42.395  28.958  30.605  1.00  0.00    -0.354 N 
ATOM     56  N   UNL A   1      42.672  31.301  32.314  1.00  0.00    -0.248 NA
ATOM     57  C   UNL A   1      43.853  32.525  33.915  1.00  0.00     0.031 C 
ATOM     58  C   UNL A   1      44.041  27.463  30.575  1.00  0.00     0.029 A 
ATOM     59  C   UNL A   1      43.637  28.661  31.143  1.00  0.00     0.049 A 
ATOM     60  H   UNL A   1      41.858  29.752  30.831  1.00  0.00     0.167 HD
ATOM     61  C   UNL A   1      43.863  30.646  32.603  1.00  0.00     0.074 A 
ATOM     62  C   UNL A   1      44.567  31.460  33.572  1.00  0.00     0.031 C 
ATOM     63  C   UNL A   1      44.329  29.473  32.108  1.00  0.00     0.031 A 
BRANCH  50  64
ATOM     64  C   UNL A   1      40.491  26.767  28.099  1.00  0.00    -0.014 A 
ATOM     65  C   UNL A   1      40.978  26.697  26.784  1.00  0.00     0.009 A 
ATOM     66  C   UNL A   1      39.747  25.688  28.604  1.00  0.00     0.009 A 
ATOM     67  C   UNL A   1      40.688  25.593  25.979  1.00  0.00     0.001 A 
ATOM     68  C   UNL A   1      39.485  24.571  27.807  1.00  0.00     0.001 A 
ATOM     69  C   UNL A   1      39.946  24.530  26.493  1.00  0.00     0.000 A 
ENDBRANCH  50  64
BRANCH  51  70
ATOM     70  C   UNL A   1      41.836  34.630  34.049  1.00  0.00    -0.014 A 
ATOM     71  C   UNL A   1      41.386  34.564  35.376  1.00  0.00     0.009 A 
ATOM     72  C   UNL A   1      42.472  35.799  33.604  1.00  0.00     0.009 A 
ATOM     73  C   UNL A   1      41.549  35.657  36.232  1.00  0.00     0.001 A 
ATOM     74  C   UNL A   1      42.660  36.877  34.471  1.00  0.00     0.001 A 
ATOM     75  C   UNL A   1      42.191  36.808  35.781  1.00  0.00     0.000 A 
ENDBRANCH  51  70
BRANCH  63  76
ATOM     76  C   UNL A   1      45.680  29.015  32.582  1.00  0.00    -0.014 A 
ATOM     77  C   UNL A   1      45.815  28.174  33.697  1.00  0.00     0.009 A 
ATOM     78  C   UNL A   1      46.831  29.400  31.877  1.00  0.00     0.009 A 
ATOM     79  C   UNL A   1      47.080  27.754  34.115  1.00  0.00     0.001 A 
ATOM     80  C   UNL A   1      48.092  28.958  32.281  1.00  0.00     0.001 A 
ATOM     81  C   UNL A   1      48.216  28.142  33.404  1.00  0.00     0.000 A 
ENDBRANCH  63  76
ENDBRANCH  37  38
ENDBRANCH  29  32
ENDBRANCH  27  28
ENDBRANCH  26  27
ENDBRANCH   1  26
TORSDOF 14
ENDMDL
