MODEL 1
REMARK VINA RESULT:     -12.9      0.000      0.000
REMARK SMILES Cc1nn(CC(=O)NCCCNC(=O)c2ccc(-c3c4nc(c(-c5ccccc5)c5ccc([nH]5)c(-c5ccccc5)c5nc(c(-c6ccccc6)c6ccc3[nH]6)C=C5)C=C4)cc2)c(C)c1NS(=O)(=O)c1cccc2cccnc12
REMARK SMILES IDX 9 1 8 2 6 3 7 4 5 6 4 7 1 8 2 9 3 10 65 11 63 12 64 13 66 14
REMARK SMILES IDX 67 16 68 17 69 18 70 19 71 20 79 21 72 22 74 23 78 24 73 25
REMARK SMILES IDX 75 26 77 27 76 28 10 29 11 30 12 31 13 32 14 34 15 35 16 36
REMARK SMILES IDX 62 37 17 38 61 39 18 40 19 41 20 42 55 43 21 44 60 45 54 46
REMARK SMILES IDX 56 47 22 48 59 49 53 50 52 51 23 53 45 54 30 55 44 56 31 57
REMARK SMILES IDX 34 58 43 59 57 60 32 61 33 62 42 64 58 65 35 66 24 67 25 68
REMARK SMILES IDX 29 69 26 70 28 71 27 72 46 73 47 74 51 75 48 76 50 77 49 78
REMARK SMILES IDX 36 79 37 80 41 81 38 82 40 83 39 84
REMARK H PARENT 8 5 66 15 12 33 56 52 34 63
REMARK Flexibility Score: inf
ROOT
ATOM      1  C   UNL A   1      37.212  21.610  24.442  1.00  0.00     0.117 C 
ENDROOT
BRANCH   1   2
ATOM      2  N   UNL A   1      36.452  22.449  25.349  1.00  0.00    -0.354 N 
ATOM      3  C   UNL A   1      35.149  22.299  25.748  1.00  0.00     0.241 C 
ATOM      4  O   UNL A   1      34.832  22.826  26.822  1.00  0.00    -0.273 OA
ATOM      5  H   UNL A   1      36.931  23.222  25.725  1.00  0.00     0.163 HD
BRANCH   3   6
ATOM      6  C   UNL A   1      34.151  21.423  25.004  1.00  0.00     0.244 C 
BRANCH   6   7
ATOM      7  N   UNL A   1      32.792  21.931  25.013  1.00  0.00    -0.258 N 
ATOM      8  C   UNL A   1      29.829  22.455  26.812  1.00  0.00     0.071 C 
ATOM      9  C   UNL A   1      30.972  22.536  25.870  1.00  0.00     0.084 A 
ATOM     10  N   UNL A   1      31.971  21.658  26.036  1.00  0.00    -0.175 NA
ATOM     11  C   UNL A   1      31.208  23.401  24.741  1.00  0.00     0.093 A 
ATOM     12  C   UNL A   1      32.173  22.695  24.054  1.00  0.00     0.060 A 
ATOM     13  C   UNL A   1      32.505  22.584  22.623  1.00  0.00     0.069 C 
BRANCH  11  14
ATOM     14  N   UNL A   1      30.432  24.509  24.361  1.00  0.00    -0.276 N 
ATOM     15  H   UNL A   1      29.958  24.416  23.504  1.00  0.00     0.180 HD
BRANCH  14  16
ATOM     16  S   UNL A   1      30.190  26.002  25.176  1.00  0.00     0.264 S 
ATOM     17  O   UNL A   1      29.345  26.743  24.253  1.00  0.00    -0.201 OA
ATOM     18  O   UNL A   1      29.657  25.685  26.484  1.00  0.00    -0.201 OA
BRANCH  16  19
ATOM     19  C   UNL A   1      31.695  26.932  25.329  1.00  0.00     0.114 A 
ATOM     20  C   UNL A   1      32.066  27.311  26.635  1.00  0.00     0.024 A 
ATOM     21  C   UNL A   1      32.538  27.222  24.242  1.00  0.00     0.091 A 
ATOM     22  C   UNL A   1      33.134  28.174  26.845  1.00  0.00     0.002 A 
ATOM     23  C   UNL A   1      33.495  28.246  24.462  1.00  0.00     0.002 A 
ATOM     24  N   UNL A   1      32.527  26.606  23.034  1.00  0.00    -0.255 NA
ATOM     25  C   UNL A   1      33.782  28.716  25.749  1.00  0.00     0.010 A 
ATOM     26  C   UNL A   1      34.189  28.795  23.377  1.00  0.00     0.012 A 
ATOM     27  C   UNL A   1      33.407  27.006  22.076  1.00  0.00     0.112 A 
ATOM     28  C   UNL A   1      34.154  28.159  22.155  1.00  0.00     0.021 A 
ENDBRANCH  16  19
ENDBRANCH  14  16
ENDBRANCH  11  14
ENDBRANCH   6   7
ENDBRANCH   3   6
ENDBRANCH   1   2
BRANCH   1  29
ATOM     29  C   UNL A   1      37.870  20.357  25.032  1.00  0.00     0.042 C 
BRANCH  29  30
ATOM     30  C   UNL A   1      39.182  20.620  25.758  1.00  0.00     0.118 C 
BRANCH  30  31
ATOM     31  N   UNL A   1      40.055  19.445  25.976  1.00  0.00    -0.352 N 
ATOM     32  C   UNL A   1      41.457  19.407  26.107  1.00  0.00     0.251 C 
ATOM     33  H   UNL A   1      39.596  18.576  26.037  1.00  0.00     0.163 HD
ATOM     34  O   UNL A   1      42.101  18.392  25.964  1.00  0.00    -0.269 OA
BRANCH  32  35
ATOM     35  C   UNL A   1      42.133  20.662  26.503  1.00  0.00     0.039 A 
ATOM     36  C   UNL A   1      42.765  21.576  25.643  1.00  0.00     0.014 A 
ATOM     37  C   UNL A   1      41.915  20.991  27.814  1.00  0.00     0.014 A 
ATOM     38  C   UNL A   1      43.085  22.847  26.145  1.00  0.00     0.010 A 
ATOM     39  C   UNL A   1      41.696  22.310  28.000  1.00  0.00     0.010 A 
ATOM     40  C   UNL A   1      42.539  23.198  27.375  1.00  0.00    -0.014 A 
BRANCH  40  41
ATOM     41  C   UNL A   1      42.629  24.455  28.100  1.00  0.00     0.031 A 
ATOM     42  C   UNL A   1      41.503  25.388  27.865  1.00  0.00     0.074 A 
ATOM     43  C   UNL A   1      43.403  24.529  29.216  1.00  0.00     0.049 A 
ATOM     44  N   UNL A   1      41.533  26.503  27.218  1.00  0.00    -0.248 NA
ATOM     45  C   UNL A   1      40.146  24.964  28.259  1.00  0.00     0.031 C 
ATOM     46  C   UNL A   1      44.274  23.492  29.809  1.00  0.00     0.029 A 
ATOM     47  N   UNL A   1      43.459  25.507  30.157  1.00  0.00    -0.354 N 
ATOM     48  C   UNL A   1      40.252  27.032  27.330  1.00  0.00     0.074 A 
ATOM     49  C   UNL A   1      39.404  25.941  27.734  1.00  0.00     0.031 C 
ATOM     50  C   UNL A   1      44.576  23.813  31.088  1.00  0.00     0.029 A 
ATOM     51  C   UNL A   1      44.082  25.150  31.350  1.00  0.00     0.049 A 
ATOM     52  H   UNL A   1      43.084  26.405  30.005  1.00  0.00     0.167 HD
ATOM     53  C   UNL A   1      40.042  28.377  27.400  1.00  0.00     0.031 A 
ATOM     54  C   UNL A   1      44.175  25.904  32.474  1.00  0.00     0.031 A 
ATOM     55  C   UNL A   1      41.257  29.107  27.126  1.00  0.00     0.049 A 
ATOM     56  C   UNL A   1      43.913  27.306  32.069  1.00  0.00     0.074 A 
ATOM     57  C   UNL A   1      42.130  29.185  26.059  1.00  0.00     0.029 A 
ATOM     58  N   UNL A   1      41.959  29.556  28.223  1.00  0.00    -0.354 N 
ATOM     59  N   UNL A   1      44.696  27.971  31.266  1.00  0.00    -0.248 NA
ATOM     60  C   UNL A   1      42.544  27.791  32.148  1.00  0.00     0.031 C 
ATOM     61  C   UNL A   1      43.428  29.206  26.653  1.00  0.00     0.029 A 
ATOM     62  C   UNL A   1      43.279  29.235  28.042  1.00  0.00     0.049 A 
ATOM     63  H   UNL A   1      41.578  30.024  29.001  1.00  0.00     0.167 HD
ATOM     64  C   UNL A   1      43.834  28.642  30.410  1.00  0.00     0.074 A 
ATOM     65  C   UNL A   1      42.527  28.584  31.069  1.00  0.00     0.031 C 
ATOM     66  C   UNL A   1      44.193  28.911  29.118  1.00  0.00     0.031 A 
BRANCH  53  67
ATOM     67  C   UNL A   1      38.896  29.025  28.141  1.00  0.00    -0.014 A 
ATOM     68  C   UNL A   1      38.749  28.749  29.512  1.00  0.00     0.009 A 
ATOM     69  C   UNL A   1      37.816  29.669  27.509  1.00  0.00     0.009 A 
ATOM     70  C   UNL A   1      37.557  29.032  30.190  1.00  0.00     0.001 A 
ATOM     71  C   UNL A   1      36.639  29.991  28.191  1.00  0.00     0.001 A 
ATOM     72  C   UNL A   1      36.500  29.645  29.526  1.00  0.00     0.000 A 
ENDBRANCH  53  67
BRANCH  54  73
ATOM     73  C   UNL A   1      44.206  25.481  33.892  1.00  0.00    -0.014 A 
ATOM     74  C   UNL A   1      44.884  26.236  34.865  1.00  0.00     0.009 A 
ATOM     75  C   UNL A   1      43.326  24.479  34.342  1.00  0.00     0.009 A 
ATOM     76  C   UNL A   1      44.658  26.020  36.234  1.00  0.00     0.001 A 
ATOM     77  C   UNL A   1      43.098  24.267  35.707  1.00  0.00     0.001 A 
ATOM     78  C   UNL A   1      43.753  25.048  36.653  1.00  0.00     0.000 A 
ENDBRANCH  54  73
BRANCH  66  79
ATOM     79  C   UNL A   1      45.623  28.619  28.715  1.00  0.00    -0.014 A 
ATOM     80  C   UNL A   1      46.057  27.358  28.263  1.00  0.00     0.009 A 
ATOM     81  C   UNL A   1      46.524  29.688  28.638  1.00  0.00     0.009 A 
ATOM     82  C   UNL A   1      47.355  27.169  27.774  1.00  0.00     0.001 A 
ATOM     83  C   UNL A   1      47.815  29.505  28.135  1.00  0.00     0.001 A 
ATOM     84  C   UNL A   1      48.233  28.247  27.707  1.00  0.00     0.000 A 
ENDBRANCH  66  79
ENDBRANCH  40  41
ENDBRANCH  32  35
ENDBRANCH  30  31
ENDBRANCH  29  30
ENDBRANCH   1  29
TORSDOF 14
ENDMDL
MODEL 2
REMARK VINA RESULT:     -12.5      4.028      9.103
REMARK SMILES Cc1nn(CC(=O)NCCCNC(=O)c2ccc(-c3c4nc(c(-c5ccccc5)c5ccc([nH]5)c(-c5ccccc5)c5nc(c(-c6ccccc6)c6ccc3[nH]6)C=C5)C=C4)cc2)c(C)c1NS(=O)(=O)c1cccc2cccnc12
REMARK SMILES IDX 9 1 8 2 6 3 7 4 5 6 4 7 1 8 2 9 3 10 65 11 63 12 64 13 66 14
REMARK SMILES IDX 67 16 68 17 69 18 70 19 71 20 79 21 72 22 74 23 78 24 73 25
REMARK SMILES IDX 75 26 77 27 76 28 10 29 11 30 12 31 13 32 14 34 15 35 16 36
REMARK SMILES IDX 62 37 17 38 61 39 18 40 19 41 20 42 55 43 21 44 60 45 54 46
REMARK SMILES IDX 56 47 22 48 59 49 53 50 52 51 23 53 45 54 30 55 44 56 31 57
REMARK SMILES IDX 34 58 43 59 57 60 32 61 33 62 42 64 58 65 35 66 24 67 25 68
REMARK SMILES IDX 29 69 26 70 28 71 27 72 46 73 47 74 51 75 48 76 50 77 49 78
REMARK SMILES IDX 36 79 37 80 41 81 38 82 40 83 39 84
REMARK H PARENT 8 5 66 15 12 33 56 52 34 63
REMARK Flexibility Score: inf
ROOT
ATOM      1  C   UNL A   1      31.788  30.815  26.126  1.00  0.00     0.117 C 
ENDROOT
BRANCH   1   2
ATOM      2  N   UNL A   1      31.026  30.566  24.917  1.00  0.00    -0.354 N 
ATOM      3  C   UNL A   1      30.842  29.375  24.264  1.00  0.00     0.241 C 
ATOM      4  O   UNL A   1      29.840  29.286  23.544  1.00  0.00    -0.273 OA
ATOM      5  H   UNL A   1      30.587  31.350  24.516  1.00  0.00     0.163 HD
BRANCH   3   6
ATOM      6  C   UNL A   1      31.726  28.159  24.494  1.00  0.00     0.244 C 
BRANCH   6   7
ATOM      7  N   UNL A   1      31.560  27.107  23.509  1.00  0.00    -0.258 N 
ATOM      8  C   UNL A   1      32.395  25.837  20.350  1.00  0.00     0.071 C 
ATOM      9  C   UNL A   1      32.000  26.017  21.769  1.00  0.00     0.084 A 
ATOM     10  N   UNL A   1      32.029  27.262  22.264  1.00  0.00    -0.175 NA
ATOM     11  C   UNL A   1      31.545  25.065  22.751  1.00  0.00     0.093 A 
ATOM     12  C   UNL A   1      30.937  25.893  23.671  1.00  0.00     0.060 A 
ATOM     13  C   UNL A   1      29.800  25.708  24.590  1.00  0.00     0.069 C 
BRANCH  11  14
ATOM     14  N   UNL A   1      31.516  23.668  22.611  1.00  0.00    -0.276 N 
ATOM     15  H   UNL A   1      30.618  23.266  22.578  1.00  0.00     0.180 HD
BRANCH  14  16
ATOM     16  S   UNL A   1      32.821  22.557  22.487  1.00  0.00     0.264 S 
ATOM     17  O   UNL A   1      32.169  21.269  22.663  1.00  0.00    -0.201 OA
ATOM     18  O   UNL A   1      33.480  22.821  21.225  1.00  0.00    -0.201 OA
BRANCH  16  19
ATOM     19  C   UNL A   1      33.969  22.721  23.832  1.00  0.00     0.114 A 
ATOM     20  C   UNL A   1      35.318  22.938  23.480  1.00  0.00     0.024 A 
ATOM     21  C   UNL A   1      33.581  22.723  25.183  1.00  0.00     0.091 A 
ATOM     22  C   UNL A   1      36.313  22.919  24.448  1.00  0.00     0.002 A 
ATOM     23  C   UNL A   1      34.624  22.516  26.122  1.00  0.00     0.002 A 
ATOM     24  N   UNL A   1      32.326  22.922  25.655  1.00  0.00    -0.255 NA
ATOM     25  C   UNL A   1      35.972  22.609  25.753  1.00  0.00     0.010 A 
ATOM     26  C   UNL A   1      34.313  22.230  27.456  1.00  0.00     0.012 A 
ATOM     27  C   UNL A   1      32.108  22.889  26.998  1.00  0.00     0.112 A 
ATOM     28  C   UNL A   1      33.027  22.427  27.912  1.00  0.00     0.021 A 
ENDBRANCH  16  19
ENDBRANCH  14  16
ENDBRANCH  11  14
ENDBRANCH   6   7
ENDBRANCH   3   6
ENDBRANCH   1   2
BRANCH   1  29
ATOM     29  C   UNL A   1      31.478  32.104  26.897  1.00  0.00     0.042 C 
BRANCH  29  30
ATOM     30  C   UNL A   1      32.708  32.835  27.417  1.00  0.00     0.118 C 
BRANCH  30  31
ATOM     31  N   UNL A   1      32.542  34.281  27.685  1.00  0.00    -0.352 N 
ATOM     32  C   UNL A   1      33.046  35.036  28.763  1.00  0.00     0.251 C 
ATOM     33  H   UNL A   1      32.011  34.781  27.024  1.00  0.00     0.163 HD
ATOM     34  O   UNL A   1      32.604  36.121  29.067  1.00  0.00    -0.269 OA
BRANCH  32  35
ATOM     35  C   UNL A   1      34.207  34.481  29.493  1.00  0.00     0.039 A 
ATOM     36  C   UNL A   1      34.162  33.619  30.601  1.00  0.00     0.014 A 
ATOM     37  C   UNL A   1      35.396  34.718  28.855  1.00  0.00     0.014 A 
ATOM     38  C   UNL A   1      35.341  32.955  30.975  1.00  0.00     0.010 A 
ATOM     39  C   UNL A   1      36.233  33.659  28.884  1.00  0.00     0.010 A 
ATOM     40  C   UNL A   1      36.407  33.008  30.082  1.00  0.00    -0.014 A 
BRANCH  40  41
ATOM     41  C   UNL A   1      37.708  32.363  30.160  1.00  0.00     0.031 A 
ATOM     42  C   UNL A   1      37.764  31.006  29.570  1.00  0.00     0.074 A 
ATOM     43  C   UNL A   1      38.823  33.126  30.315  1.00  0.00     0.049 A 
ATOM     44  N   UNL A   1      37.891  29.886  30.196  1.00  0.00    -0.248 NA
ATOM     45  C   UNL A   1      37.492  30.856  28.129  1.00  0.00     0.031 C 
ATOM     46  C   UNL A   1      38.925  34.591  30.496  1.00  0.00     0.029 A 
ATOM     47  N   UNL A   1      40.128  32.773  30.189  1.00  0.00    -0.354 N 
ATOM     48  C   UNL A   1      37.953  28.912  29.205  1.00  0.00     0.074 A 
ATOM     49  C   UNL A   1      37.442  29.528  28.008  1.00  0.00     0.031 C 
ATOM     50  C   UNL A   1      40.188  35.004  30.244  1.00  0.00     0.029 A 
ATOM     51  C   UNL A   1      41.023  33.833  30.065  1.00  0.00     0.049 A 
ATOM     52  H   UNL A   1      40.421  31.832  30.185  1.00  0.00     0.167 HD
ATOM     53  C   UNL A   1      38.714  27.791  29.358  1.00  0.00     0.031 A 
ATOM     54  C   UNL A   1      42.356  33.746  29.825  1.00  0.00     0.031 A 
ATOM     55  C   UNL A   1      39.217  27.684  30.707  1.00  0.00     0.049 A 
ATOM     56  C   UNL A   1      42.761  32.362  30.169  1.00  0.00     0.074 A 
ATOM     57  C   UNL A   1      38.642  27.602  31.959  1.00  0.00     0.029 A 
ATOM     58  N   UNL A   1      40.510  28.113  30.910  1.00  0.00    -0.354 N 
ATOM     59  N   UNL A   1      42.702  31.886  31.381  1.00  0.00    -0.248 NA
ATOM     60  C   UNL A   1      42.750  31.367  29.108  1.00  0.00     0.031 C 
ATOM     61  C   UNL A   1      39.449  28.442  32.785  1.00  0.00     0.029 A 
ATOM     62  C   UNL A   1      40.520  28.914  32.023  1.00  0.00     0.049 A 
ATOM     63  H   UNL A   1      41.289  27.884  30.354  1.00  0.00     0.167 HD
ATOM     64  C   UNL A   1      42.189  30.605  31.232  1.00  0.00     0.074 A 
ATOM     65  C   UNL A   1      42.343  30.300  29.808  1.00  0.00     0.031 C 
ATOM     66  C   UNL A   1      41.416  30.038  32.207  1.00  0.00     0.031 A 
BRANCH  53  67
ATOM     67  C   UNL A   1      39.371  27.045  28.221  1.00  0.00    -0.014 A 
ATOM     68  C   UNL A   1      39.357  25.639  28.253  1.00  0.00     0.009 A 
ATOM     69  C   UNL A   1      40.223  27.644  27.275  1.00  0.00     0.009 A 
ATOM     70  C   UNL A   1      40.206  24.881  27.436  1.00  0.00     0.001 A 
ATOM     71  C   UNL A   1      41.042  26.892  26.428  1.00  0.00     0.001 A 
ATOM     72  C   UNL A   1      41.054  25.510  26.530  1.00  0.00     0.000 A 
ENDBRANCH  53  67
BRANCH  54  73
ATOM     73  C   UNL A   1      43.240  34.668  29.079  1.00  0.00    -0.014 A 
ATOM     74  C   UNL A   1      42.931  35.081  27.772  1.00  0.00     0.009 A 
ATOM     75  C   UNL A   1      44.252  35.370  29.761  1.00  0.00     0.009 A 
ATOM     76  C   UNL A   1      43.582  36.179  27.187  1.00  0.00     0.001 A 
ATOM     77  C   UNL A   1      44.899  36.467  29.179  1.00  0.00     0.001 A 
ATOM     78  C   UNL A   1      44.554  36.881  27.897  1.00  0.00     0.000 A 
ENDBRANCH  54  73
BRANCH  66  79
ATOM     79  C   UNL A   1      41.295  30.779  33.522  1.00  0.00    -0.014 A 
ATOM     80  C   UNL A   1      40.343  31.789  33.757  1.00  0.00     0.009 A 
ATOM     81  C   UNL A   1      42.060  30.335  34.608  1.00  0.00     0.009 A 
ATOM     82  C   UNL A   1      40.179  32.352  35.028  1.00  0.00     0.001 A 
ATOM     83  C   UNL A   1      41.887  30.884  35.882  1.00  0.00     0.001 A 
ATOM     84  C   UNL A   1      40.951  31.894  36.092  1.00  0.00     0.000 A 
ENDBRANCH  66  79
ENDBRANCH  40  41
ENDBRANCH  32  35
ENDBRANCH  30  31
ENDBRANCH  29  30
ENDBRANCH   1  29
TORSDOF 14
ENDMDL
MODEL 3
REMARK VINA RESULT:     -12.5      1.378      2.025
REMARK SMILES Cc1nn(CC(=O)NCCCNC(=O)c2ccc(-c3c4nc(c(-c5ccccc5)c5ccc([nH]5)c(-c5ccccc5)c5nc(c(-c6ccccc6)c6ccc3[nH]6)C=C5)C=C4)cc2)c(C)c1NS(=O)(=O)c1cccc2cccnc12
REMARK SMILES IDX 9 1 8 2 6 3 7 4 5 6 4 7 1 8 2 9 3 10 65 11 63 12 64 13 66 14
REMARK SMILES IDX 67 16 68 17 69 18 70 19 71 20 79 21 72 22 74 23 78 24 73 25
REMARK SMILES IDX 75 26 77 27 76 28 10 29 11 30 12 31 13 32 14 34 15 35 16 36
REMARK SMILES IDX 62 37 17 38 61 39 18 40 19 41 20 42 55 43 21 44 60 45 54 46
REMARK SMILES IDX 56 47 22 48 59 49 53 50 52 51 23 53 45 54 30 55 44 56 31 57
REMARK SMILES IDX 34 58 43 59 57 60 32 61 33 62 42 64 58 65 35 66 24 67 25 68
REMARK SMILES IDX 29 69 26 70 28 71 27 72 46 73 47 74 51 75 48 76 50 77 49 78
REMARK SMILES IDX 36 79 37 80 41 81 38 82 40 83 39 84
REMARK H PARENT 8 5 66 15 12 33 56 52 34 63
REMARK Flexibility Score: inf
ROOT
ATOM      1  C   UNL A   1      36.517  20.297  25.315  1.00  0.00     0.117 C 
ENDROOT
BRANCH   1   2
ATOM      2  N   UNL A   1      35.820  19.116  24.843  1.00  0.00    -0.354 N 
ATOM      3  C   UNL A   1      34.468  18.913  24.747  1.00  0.00     0.241 C 
ATOM      4  O   UNL A   1      34.090  18.057  23.938  1.00  0.00    -0.273 OA
ATOM      5  H   UNL A   1      36.389  18.366  24.556  1.00  0.00     0.163 HD
BRANCH   3   6
ATOM      6  C   UNL A   1      33.449  19.772  25.481  1.00  0.00     0.244 C 
BRANCH   6   7
ATOM      7  N   UNL A   1      33.495  21.180  25.132  1.00  0.00    -0.258 N 
ATOM      8  C   UNL A   1      33.537  23.615  22.611  1.00  0.00     0.071 C 
ATOM      9  C   UNL A   1      33.353  22.852  23.871  1.00  0.00     0.084 A 
ATOM     10  N   UNL A   1      33.704  21.559  23.865  1.00  0.00    -0.175 NA
ATOM     11  C   UNL A   1      32.872  23.266  25.165  1.00  0.00     0.093 A 
ATOM     12  C   UNL A   1      33.359  22.259  25.971  1.00  0.00     0.060 A 
ATOM     13  C   UNL A   1      33.795  22.223  27.378  1.00  0.00     0.069 C 
BRANCH  11  14
ATOM     14  N   UNL A   1      32.306  24.511  25.488  1.00  0.00    -0.276 N 
ATOM     15  H   UNL A   1      32.913  25.148  25.928  1.00  0.00     0.180 HD
BRANCH  14  16
ATOM     16  S   UNL A   1      30.708  25.084  25.224  1.00  0.00     0.264 S 
ATOM     17  O   UNL A   1      30.327  24.426  23.985  1.00  0.00    -0.201 OA
ATOM     18  O   UNL A   1      29.950  24.781  26.419  1.00  0.00    -0.201 OA
BRANCH  16  19
ATOM     19  C   UNL A   1      30.671  26.829  24.893  1.00  0.00     0.114 A 
ATOM     20  C   UNL A   1      29.774  27.256  23.891  1.00  0.00     0.024 A 
ATOM     21  C   UNL A   1      31.417  27.770  25.622  1.00  0.00     0.091 A 
ATOM     22  C   UNL A   1      29.784  28.571  23.447  1.00  0.00     0.002 A 
ATOM     23  C   UNL A   1      31.545  29.051  25.024  1.00  0.00     0.002 A 
ATOM     24  N   UNL A   1      31.995  27.569  26.832  1.00  0.00    -0.255 NA
ATOM     25  C   UNL A   1      30.740  29.440  23.947  1.00  0.00     0.010 A 
ATOM     26  C   UNL A   1      32.481  29.963  25.526  1.00  0.00     0.012 A 
ATOM     27  C   UNL A   1      32.694  28.583  27.412  1.00  0.00     0.112 A 
ATOM     28  C   UNL A   1      33.066  29.732  26.752  1.00  0.00     0.021 A 
ENDBRANCH  16  19
ENDBRANCH  14  16
ENDBRANCH  11  14
ENDBRANCH   6   7
ENDBRANCH   3   6
ENDBRANCH   1   2
BRANCH   1  29
ATOM     29  C   UNL A   1      37.893  20.590  24.703  1.00  0.00     0.042 C 
BRANCH  29  30
ATOM     30  C   UNL A   1      39.019  20.709  25.721  1.00  0.00     0.118 C 
BRANCH  30  31
ATOM     31  N   UNL A   1      39.865  19.507  25.901  1.00  0.00    -0.352 N 
ATOM     32  C   UNL A   1      41.267  19.432  26.017  1.00  0.00     0.251 C 
ATOM     33  H   UNL A   1      39.385  18.649  25.946  1.00  0.00     0.163 HD
ATOM     34  O   UNL A   1      41.884  18.405  25.843  1.00  0.00    -0.269 OA
BRANCH  32  35
ATOM     35  C   UNL A   1      41.978  20.660  26.436  1.00  0.00     0.039 A 
ATOM     36  C   UNL A   1      42.655  21.559  25.596  1.00  0.00     0.014 A 
ATOM     37  C   UNL A   1      41.747  20.984  27.746  1.00  0.00     0.014 A 
ATOM     38  C   UNL A   1      43.008  22.815  26.114  1.00  0.00     0.010 A 
ATOM     39  C   UNL A   1      41.569  22.308  27.940  1.00  0.00     0.010 A 
ATOM     40  C   UNL A   1      42.453  23.173  27.338  1.00  0.00    -0.014 A 
BRANCH  40  41
ATOM     41  C   UNL A   1      42.572  24.420  28.076  1.00  0.00     0.031 A 
ATOM     42  C   UNL A   1      41.443  25.360  27.892  1.00  0.00     0.074 A 
ATOM     43  C   UNL A   1      43.384  24.476  29.166  1.00  0.00     0.049 A 
ATOM     44  N   UNL A   1      41.454  26.483  27.260  1.00  0.00    -0.248 NA
ATOM     45  C   UNL A   1      40.098  24.935  28.326  1.00  0.00     0.031 C 
ATOM     46  C   UNL A   1      44.271  23.429  29.715  1.00  0.00     0.029 A 
ATOM     47  N   UNL A   1      43.476  25.441  30.117  1.00  0.00    -0.354 N 
ATOM     48  C   UNL A   1      40.180  27.014  27.422  1.00  0.00     0.074 A 
ATOM     49  C   UNL A   1      39.342  25.921  27.841  1.00  0.00     0.031 C 
ATOM     50  C   UNL A   1      44.618  23.732  30.987  1.00  0.00     0.029 A 
ATOM     51  C   UNL A   1      44.138  25.066  31.283  1.00  0.00     0.049 A 
ATOM     52  H   UNL A   1      43.100  26.343  29.991  1.00  0.00     0.167 HD
ATOM     53  C   UNL A   1      39.978  28.359  27.518  1.00  0.00     0.031 A 
ATOM     54  C   UNL A   1      44.272  25.805  32.414  1.00  0.00     0.031 A 
ATOM     55  C   UNL A   1      41.186  29.089  27.212  1.00  0.00     0.049 A 
ATOM     56  C   UNL A   1      44.002  27.214  32.037  1.00  0.00     0.074 A 
ATOM     57  C   UNL A   1      42.021  29.178  26.117  1.00  0.00     0.029 A 
ATOM     58  N   UNL A   1      41.926  29.521  28.290  1.00  0.00    -0.354 N 
ATOM     59  N   UNL A   1      44.759  27.886  31.216  1.00  0.00    -0.248 NA
ATOM     60  C   UNL A   1      42.639  27.702  32.168  1.00  0.00     0.031 C 
ATOM     61  C   UNL A   1      43.340  29.187  26.666  1.00  0.00     0.029 A 
ATOM     62  C   UNL A   1      43.238  29.198  28.059  1.00  0.00     0.049 A 
ATOM     63  H   UNL A   1      41.574  29.980  29.086  1.00  0.00     0.167 HD
ATOM     64  C   UNL A   1      43.871  28.572  30.399  1.00  0.00     0.074 A 
ATOM     65  C   UNL A   1      42.588  28.509  31.101  1.00  0.00     0.031 C 
ATOM     66  C   UNL A   1      44.187  28.857  29.099  1.00  0.00     0.031 A 
BRANCH  53  67
ATOM     67  C   UNL A   1      38.860  29.001  28.305  1.00  0.00    -0.014 A 
ATOM     68  C   UNL A   1      38.787  28.745  29.686  1.00  0.00     0.009 A 
ATOM     69  C   UNL A   1      37.739  29.618  27.719  1.00  0.00     0.009 A 
ATOM     70  C   UNL A   1      37.627  29.020  30.419  1.00  0.00     0.001 A 
ATOM     71  C   UNL A   1      36.594  29.933  28.456  1.00  0.00     0.001 A 
ATOM     72  C   UNL A   1      36.527  29.606  29.801  1.00  0.00     0.000 A 
ENDBRANCH  53  67
BRANCH  54  73
ATOM     73  C   UNL A   1      44.350  25.363  33.824  1.00  0.00    -0.014 A 
ATOM     74  C   UNL A   1      44.966  26.158  34.806  1.00  0.00     0.009 A 
ATOM     75  C   UNL A   1      43.565  24.281  34.261  1.00  0.00     0.009 A 
ATOM     76  C   UNL A   1      44.769  25.901  36.172  1.00  0.00     0.001 A 
ATOM     77  C   UNL A   1      43.366  24.027  35.624  1.00  0.00     0.001 A 
ATOM     78  C   UNL A   1      43.956  24.846  36.580  1.00  0.00     0.000 A 
ENDBRANCH  54  73
BRANCH  66  79
ATOM     79  C   UNL A   1      45.602  28.565  28.644  1.00  0.00    -0.014 A 
ATOM     80  C   UNL A   1      46.658  29.488  28.759  1.00  0.00     0.009 A 
ATOM     81  C   UNL A   1      45.911  27.263  28.231  1.00  0.00     0.009 A 
ATOM     82  C   UNL A   1      47.975  29.128  28.449  1.00  0.00     0.001 A 
ATOM     83  C   UNL A   1      47.228  26.896  27.937  1.00  0.00     0.001 A 
ATOM     84  C   UNL A   1      48.258  27.828  28.041  1.00  0.00     0.000 A 
ENDBRANCH  66  79
ENDBRANCH  40  41
ENDBRANCH  32  35
ENDBRANCH  30  31
ENDBRANCH  29  30
ENDBRANCH   1  29
TORSDOF 14
ENDMDL
