MODEL 1
REMARK VINA RESULT:     -11.9      0.000      0.000
REMARK SMILES C[C@]1(C(=O)N2CCC(CC(=O)NCCCNC(=O)c3ccc(-c4c5nc(c(-c6ccccc6)c6ccc([nH]6)c(-c6ccccc6)c6nc(c(-c7ccccc7)c7ccc4[nH]7)C=C6)C=C5)cc3)CC2)CCC[NH2+]C1
REMARK SMILES IDX 14 1 13 2 12 3 10 4 11 5 9 7 8 8 3 9 4 10 5 11 6 12 68 13
REMARK SMILES IDX 7 14 67 15 2 16 1 17 69 18 73 19 70 20 72 21 71 22 15 25
REMARK SMILES IDX 16 26 17 27 18 29 19 30 20 31 66 32 21 33 65 34 22 35 23 36
REMARK SMILES IDX 24 37 59 38 25 39 64 40 58 41 60 42 26 43 63 44 57 45 56 46
REMARK SMILES IDX 27 48 49 49 34 50 48 51 35 52 38 53 47 54 61 55 36 56 37 57
REMARK SMILES IDX 46 59 62 60 39 61 28 62 29 63 33 64 30 65 32 66 31 67 50 68
REMARK SMILES IDX 51 69 55 70 52 71 54 72 53 73 40 74 41 75 45 76 42 77 44 78
REMARK SMILES IDX 43 79
REMARK H PARENT 12 6 72 23 72 24 16 28 60 47 38 58
REMARK Flexibility Score: inf
ROOT
ATOM      1  C   UNL A   1      33.679  28.176  25.956  1.00  0.00     0.042 C 
ENDROOT
BRANCH   1   2
ATOM      2  C   UNL A   1      32.519  27.507  25.205  1.00  0.00     0.117 C 
BRANCH   2   3
ATOM      3  N   UNL A   1      31.747  26.589  26.036  1.00  0.00    -0.356 N 
ATOM      4  C   UNL A   1      31.643  25.228  26.057  1.00  0.00     0.220 C 
ATOM      5  O   UNL A   1      30.903  24.726  26.905  1.00  0.00    -0.275 OA
ATOM      6  H   UNL A   1      31.192  27.038  26.713  1.00  0.00     0.163 HD
BRANCH   4   7
ATOM      7  C   UNL A   1      32.382  24.348  25.064  1.00  0.00     0.103 C 
BRANCH   7   8
ATOM      8  C   UNL A   1      33.486  23.478  25.717  1.00  0.00     0.002 C 
ATOM      9  C   UNL A   1      34.497  19.501  24.764  1.00  0.00     0.234 C 
ATOM     10  O   UNL A   1      35.613  18.976  24.720  1.00  0.00    -0.274 OA
ATOM     11  N   UNL A   1      34.354  20.767  25.296  1.00  0.00    -0.342 N 
ATOM     12  C   UNL A   1      35.307  21.804  24.944  1.00  0.00     0.120 C 
ATOM     13  C   UNL A   1      33.660  21.020  26.535  1.00  0.00     0.120 C 
ATOM     14  C   UNL A   1      34.555  23.106  24.661  1.00  0.00     0.026 C 
ATOM     15  C   UNL A   1      32.821  22.267  26.382  1.00  0.00     0.026 C 
BRANCH   9  16
ATOM     16  C   UNL A   1      33.226  18.768  24.239  1.00  0.00     0.095 C 
ATOM     17  C   UNL A   1      32.273  19.809  23.626  1.00  0.00     0.028 C 
ATOM     18  C   UNL A   1      33.451  17.639  23.206  1.00  0.00     0.028 C 
ATOM     19  C   UNL A   1      32.541  18.118  25.472  1.00  0.00     0.277 C 
ATOM     20  C   UNL A   1      34.189  16.438  23.792  1.00  0.00     0.063 C 
ATOM     21  N   UNL A   1      33.318  16.999  26.026  1.00  0.00    -0.345 N 
ATOM     22  C   UNL A   1      33.514  15.927  25.060  1.00  0.00     0.260 C 
ATOM     23  H   UNL A   1      34.231  17.349  26.319  1.00  0.00     0.346 HD
ATOM     24  H   UNL A   1      32.796  16.617  26.815  1.00  0.00     0.346 HD
ENDBRANCH   9  16
ENDBRANCH   7   8
ENDBRANCH   4   7
ENDBRANCH   2   3
ENDBRANCH   1   2
BRANCH   1  25
ATOM     25  C   UNL A   1      33.389  28.531  27.411  1.00  0.00     0.118 C 
BRANCH  25  26
ATOM     26  N   UNL A   1      33.449  29.962  27.639  1.00  0.00    -0.352 N 
ATOM     27  C   UNL A   1      34.454  30.735  28.170  1.00  0.00     0.251 C 
ATOM     28  H   UNL A   1      32.642  30.459  27.370  1.00  0.00     0.163 HD
ATOM     29  O   UNL A   1      34.201  31.891  28.499  1.00  0.00    -0.269 OA
BRANCH  27  30
ATOM     30  C   UNL A   1      35.830  30.209  28.368  1.00  0.00     0.039 A 
ATOM     31  C   UNL A   1      36.171  29.696  29.625  1.00  0.00     0.014 A 
ATOM     32  C   UNL A   1      36.814  30.295  27.377  1.00  0.00     0.014 A 
ATOM     33  C   UNL A   1      37.473  29.246  29.877  1.00  0.00     0.010 A 
ATOM     34  C   UNL A   1      38.093  29.783  27.607  1.00  0.00     0.010 A 
ATOM     35  C   UNL A   1      38.444  29.271  28.864  1.00  0.00    -0.014 A 
BRANCH  35  36
ATOM     36  C   UNL A   1      39.834  28.801  29.120  1.00  0.00     0.031 A 
ATOM     37  C   UNL A   1      40.838  29.712  29.778  1.00  0.00     0.074 A 
ATOM     38  C   UNL A   1      40.214  27.569  28.730  1.00  0.00     0.049 A 
ATOM     39  N   UNL A   1      42.103  29.496  30.042  1.00  0.00    -0.248 NA
ATOM     40  C   UNL A   1      40.363  31.047  30.175  1.00  0.00     0.031 C 
ATOM     41  C   UNL A   1      39.357  26.589  28.059  1.00  0.00     0.029 A 
ATOM     42  N   UNL A   1      41.425  26.931  28.841  1.00  0.00    -0.354 N 
ATOM     43  C   UNL A   1      42.578  30.669  30.613  1.00  0.00     0.074 A 
ATOM     44  C   UNL A   1      41.477  31.609  30.623  1.00  0.00     0.031 C 
ATOM     45  C   UNL A   1      40.063  25.466  27.842  1.00  0.00     0.029 A 
ATOM     46  C   UNL A   1      41.427  25.658  28.325  1.00  0.00     0.049 A 
ATOM     47  H   UNL A   1      42.217  27.346  29.254  1.00  0.00     0.167 HD
ATOM     48  C   UNL A   1      43.812  30.943  31.102  1.00  0.00     0.031 A 
ATOM     49  C   UNL A   1      42.415  24.746  28.244  1.00  0.00     0.031 A 
ATOM     50  C   UNL A   1      44.907  30.010  31.119  1.00  0.00     0.049 A 
ATOM     51  C   UNL A   1      43.776  25.073  28.790  1.00  0.00     0.074 A 
ATOM     52  C   UNL A   1      46.177  30.182  31.644  1.00  0.00     0.029 A 
ATOM     53  N   UNL A   1      44.863  28.733  30.588  1.00  0.00    -0.354 N 
ATOM     54  N   UNL A   1      44.191  26.170  29.373  1.00  0.00    -0.248 NA
ATOM     55  C   UNL A   1      44.803  24.026  28.673  1.00  0.00     0.031 C 
ATOM     56  C   UNL A   1      46.915  29.018  31.398  1.00  0.00     0.029 A 
ATOM     57  C   UNL A   1      46.089  28.109  30.757  1.00  0.00     0.049 A 
ATOM     58  H   UNL A   1      44.079  28.326  30.156  1.00  0.00     0.167 HD
ATOM     59  C   UNL A   1      45.517  25.940  29.712  1.00  0.00     0.074 A 
ATOM     60  C   UNL A   1      45.835  24.594  29.283  1.00  0.00     0.031 C 
ATOM     61  C   UNL A   1      46.394  26.770  30.326  1.00  0.00     0.031 A 
BRANCH  48  62
ATOM     62  C   UNL A   1      44.046  32.320  31.657  1.00  0.00    -0.014 A 
ATOM     63  C   UNL A   1      44.391  33.391  30.818  1.00  0.00     0.009 A 
ATOM     64  C   UNL A   1      43.885  32.555  33.031  1.00  0.00     0.009 A 
ATOM     65  C   UNL A   1      44.606  34.665  31.351  1.00  0.00     0.001 A 
ATOM     66  C   UNL A   1      44.076  33.835  33.557  1.00  0.00     0.001 A 
ATOM     67  C   UNL A   1      44.445  34.886  32.718  1.00  0.00     0.000 A 
ENDBRANCH  48  62
BRANCH  49  68
ATOM     68  C   UNL A   1      42.148  23.418  27.634  1.00  0.00    -0.014 A 
ATOM     69  C   UNL A   1      42.507  23.166  26.300  1.00  0.00     0.009 A 
ATOM     70  C   UNL A   1      41.531  22.401  28.377  1.00  0.00     0.009 A 
ATOM     71  C   UNL A   1      42.233  21.928  25.717  1.00  0.00     0.001 A 
ATOM     72  C   UNL A   1      41.280  21.156  27.798  1.00  0.00     0.001 A 
ATOM     73  C   UNL A   1      41.624  20.922  26.467  1.00  0.00     0.000 A 
ENDBRANCH  49  68
BRANCH  61  74
ATOM     74  C   UNL A   1      47.771  26.238  30.598  1.00  0.00    -0.014 A 
ATOM     75  C   UNL A   1      48.760  26.241  29.603  1.00  0.00     0.009 A 
ATOM     76  C   UNL A   1      48.091  25.759  31.877  1.00  0.00     0.009 A 
ATOM     77  C   UNL A   1      50.037  25.747  29.877  1.00  0.00     0.001 A 
ATOM     78  C   UNL A   1      49.376  25.286  32.154  1.00  0.00     0.001 A 
ATOM     79  C   UNL A   1      50.344  25.274  31.152  1.00  0.00     0.000 A 
ENDBRANCH  61  74
ENDBRANCH  35  36
ENDBRANCH  27  30
ENDBRANCH  25  26
ENDBRANCH   1  25
TORSDOF 12
ENDMDL
MODEL 2
REMARK VINA RESULT:     -11.9      1.649      7.779
REMARK SMILES C[C@]1(C(=O)N2CCC(CC(=O)NCCCNC(=O)c3ccc(-c4c5nc(c(-c6ccccc6)c6ccc([nH]6)c(-c6ccccc6)c6nc(c(-c7ccccc7)c7ccc4[nH]7)C=C6)C=C5)cc3)CC2)CCC[NH2+]C1
REMARK SMILES IDX 14 1 13 2 12 3 10 4 11 5 9 7 8 8 3 9 4 10 5 11 6 12 68 13
REMARK SMILES IDX 7 14 67 15 2 16 1 17 69 18 73 19 70 20 72 21 71 22 15 25
REMARK SMILES IDX 16 26 17 27 18 29 19 30 20 31 66 32 21 33 65 34 22 35 23 36
REMARK SMILES IDX 24 37 59 38 25 39 64 40 58 41 60 42 26 43 63 44 57 45 56 46
REMARK SMILES IDX 27 48 49 49 34 50 48 51 35 52 38 53 47 54 61 55 36 56 37 57
REMARK SMILES IDX 46 59 62 60 39 61 28 62 29 63 33 64 30 65 32 66 31 67 50 68
REMARK SMILES IDX 51 69 55 70 52 71 54 72 53 73 40 74 41 75 45 76 42 77 44 78
REMARK SMILES IDX 43 79
REMARK H PARENT 12 6 72 23 72 24 16 28 60 47 38 58
REMARK Flexibility Score: inf
ROOT
ATOM      1  C   UNL A   1      37.599  19.599  24.868  1.00  0.00     0.042 C 
ENDROOT
BRANCH   1   2
ATOM      2  C   UNL A   1      36.263  20.346  24.989  1.00  0.00     0.117 C 
BRANCH   2   3
ATOM      3  N   UNL A   1      35.102  19.461  24.959  1.00  0.00    -0.356 N 
ATOM      4  C   UNL A   1      33.778  19.683  24.714  1.00  0.00     0.220 C 
ATOM      5  O   UNL A   1      33.021  18.712  24.747  1.00  0.00    -0.275 OA
ATOM      6  H   UNL A   1      35.316  18.521  25.156  1.00  0.00     0.163 HD
BRANCH   4   7
ATOM      7  C   UNL A   1      33.232  21.074  24.435  1.00  0.00     0.103 C 
BRANCH   7   8
ATOM      8  C   UNL A   1      32.666  21.775  25.695  1.00  0.00     0.002 C 
ATOM      9  C   UNL A   1      31.680  25.849  26.121  1.00  0.00     0.234 C 
ATOM     10  O   UNL A   1      30.735  26.356  26.730  1.00  0.00    -0.274 OA
ATOM     11  N   UNL A   1      31.949  24.502  26.268  1.00  0.00    -0.342 N 
ATOM     12  C   UNL A   1      30.857  23.547  26.245  1.00  0.00     0.120 C 
ATOM     13  C   UNL A   1      33.130  24.009  26.933  1.00  0.00     0.120 C 
ATOM     14  C   UNL A   1      31.257  22.342  25.391  1.00  0.00     0.026 C 
ATOM     15  C   UNL A   1      33.674  22.832  26.159  1.00  0.00     0.026 C 
BRANCH   9  16
ATOM     16  C   UNL A   1      32.598  26.691  25.185  1.00  0.00     0.095 C 
ATOM     17  C   UNL A   1      33.779  27.234  26.009  1.00  0.00     0.028 C 
ATOM     18  C   UNL A   1      33.158  25.976  23.933  1.00  0.00     0.028 C 
ATOM     19  C   UNL A   1      31.745  27.886  24.676  1.00  0.00     0.277 C 
ATOM     20  C   UNL A   1      32.073  25.607  22.926  1.00  0.00     0.063 C 
ATOM     21  N   UNL A   1      30.683  27.466  23.748  1.00  0.00    -0.345 N 
ATOM     22  C   UNL A   1      31.212  26.810  22.560  1.00  0.00     0.260 C 
ATOM     23  H   UNL A   1      30.063  26.818  24.233  1.00  0.00     0.346 HD
ATOM     24  H   UNL A   1      30.185  28.304  23.446  1.00  0.00     0.346 HD
ENDBRANCH   9  16
ENDBRANCH   7   8
ENDBRANCH   4   7
ENDBRANCH   2   3
ENDBRANCH   1   2
BRANCH   1  25
ATOM     25  C   UNL A   1      38.774  20.254  25.585  1.00  0.00     0.118 C 
BRANCH  25  26
ATOM     26  N   UNL A   1      39.880  19.333  25.760  1.00  0.00    -0.352 N 
ATOM     27  C   UNL A   1      41.196  19.576  26.077  1.00  0.00     0.251 C 
ATOM     28  H   UNL A   1      39.655  18.383  25.632  1.00  0.00     0.163 HD
ATOM     29  O   UNL A   1      42.016  18.674  25.934  1.00  0.00    -0.269 OA
BRANCH  27  30
ATOM     30  C   UNL A   1      41.653  20.900  26.576  1.00  0.00     0.039 A 
ATOM     31  C   UNL A   1      41.547  21.167  27.946  1.00  0.00     0.014 A 
ATOM     32  C   UNL A   1      42.094  21.912  25.717  1.00  0.00     0.014 A 
ATOM     33  C   UNL A   1      41.907  22.421  28.453  1.00  0.00     0.010 A 
ATOM     34  C   UNL A   1      42.518  23.140  26.231  1.00  0.00     0.010 A 
ATOM     35  C   UNL A   1      42.412  23.416  27.602  1.00  0.00    -0.014 A 
BRANCH  35  36
ATOM     36  C   UNL A   1      42.793  24.756  28.127  1.00  0.00     0.031 A 
ATOM     37  C   UNL A   1      41.744  25.815  28.351  1.00  0.00     0.074 A 
ATOM     38  C   UNL A   1      44.087  25.044  28.372  1.00  0.00     0.049 A 
ATOM     39  N   UNL A   1      41.890  27.051  28.760  1.00  0.00    -0.248 NA
ATOM     40  C   UNL A   1      40.351  25.441  28.060  1.00  0.00     0.031 C 
ATOM     41  C   UNL A   1      45.211  24.127  28.178  1.00  0.00     0.029 A 
ATOM     42  N   UNL A   1      44.673  26.196  28.836  1.00  0.00    -0.354 N 
ATOM     43  C   UNL A   1      40.617  27.606  28.753  1.00  0.00     0.074 A 
ATOM     44  C   UNL A   1      39.714  26.586  28.264  1.00  0.00     0.031 C 
ATOM     45  C   UNL A   1      46.348  24.744  28.544  1.00  0.00     0.029 A 
ATOM     46  C   UNL A   1      46.037  26.107  28.965  1.00  0.00     0.049 A 
ATOM     47  H   UNL A   1      44.163  27.009  29.058  1.00  0.00     0.167 HD
ATOM     48  C   UNL A   1      40.224  28.846  29.134  1.00  0.00     0.031 A 
ATOM     49  C   UNL A   1      46.942  27.019  29.372  1.00  0.00     0.031 A 
ATOM     50  C   UNL A   1      41.107  29.861  29.643  1.00  0.00     0.049 A 
ATOM     51  C   UNL A   1      46.482  28.388  29.785  1.00  0.00     0.074 A 
ATOM     52  C   UNL A   1      40.789  31.127  30.105  1.00  0.00     0.029 A 
ATOM     53  N   UNL A   1      42.480  29.726  29.759  1.00  0.00    -0.354 N 
ATOM     54  N   UNL A   1      45.267  28.877  29.821  1.00  0.00    -0.248 NA
ATOM     55  C   UNL A   1      47.524  29.329  30.225  1.00  0.00     0.031 C 
ATOM     56  C   UNL A   1      41.977  31.773  30.467  1.00  0.00     0.029 A 
ATOM     57  C   UNL A   1      43.027  30.892  30.268  1.00  0.00     0.049 A 
ATOM     58  H   UNL A   1      42.992  28.922  29.516  1.00  0.00     0.167 HD
ATOM     59  C   UNL A   1      45.395  30.172  30.307  1.00  0.00     0.074 A 
ATOM     60  C   UNL A   1      46.802  30.388  30.566  1.00  0.00     0.031 C 
ATOM     61  C   UNL A   1      44.429  31.097  30.521  1.00  0.00     0.031 A 
BRANCH  48  62
ATOM     62  C   UNL A   1      38.763  29.178  29.006  1.00  0.00    -0.014 A 
ATOM     63  C   UNL A   1      37.886  29.021  30.091  1.00  0.00     0.009 A 
ATOM     64  C   UNL A   1      38.265  29.684  27.796  1.00  0.00     0.009 A 
ATOM     65  C   UNL A   1      36.531  29.332  29.955  1.00  0.00     0.001 A 
ATOM     66  C   UNL A   1      36.915  30.018  27.671  1.00  0.00     0.001 A 
ATOM     67  C   UNL A   1      36.048  29.834  28.747  1.00  0.00     0.000 A 
ENDBRANCH  48  62
BRANCH  49  68
ATOM     68  C   UNL A   1      48.381  26.660  29.426  1.00  0.00    -0.014 A 
ATOM     69  C   UNL A   1      48.921  26.066  30.578  1.00  0.00     0.009 A 
ATOM     70  C   UNL A   1      49.224  26.914  28.333  1.00  0.00     0.009 A 
ATOM     71  C   UNL A   1      50.280  25.752  30.641  1.00  0.00     0.001 A 
ATOM     72  C   UNL A   1      50.577  26.577  28.390  1.00  0.00     0.001 A 
ATOM     73  C   UNL A   1      51.106  26.003  29.546  1.00  0.00     0.000 A 
ENDBRANCH  49  68
BRANCH  61  74
ATOM     74  C   UNL A   1      44.858  32.419  31.088  1.00  0.00    -0.014 A 
ATOM     75  C   UNL A   1      45.195  33.494  30.252  1.00  0.00     0.009 A 
ATOM     76  C   UNL A   1      44.891  32.601  32.480  1.00  0.00     0.009 A 
ATOM     77  C   UNL A   1      45.586  34.718  30.799  1.00  0.00     0.001 A 
ATOM     78  C   UNL A   1      45.260  33.833  33.023  1.00  0.00     0.001 A 
ATOM     79  C   UNL A   1      45.614  34.887  32.183  1.00  0.00     0.000 A 
ENDBRANCH  61  74
ENDBRANCH  35  36
ENDBRANCH  27  30
ENDBRANCH  25  26
ENDBRANCH   1  25
TORSDOF 12
ENDMDL
MODEL 3
REMARK VINA RESULT:     -11.9      0.871      1.077
REMARK SMILES C[C@]1(C(=O)N2CCC(CC(=O)NCCCNC(=O)c3ccc(-c4c5nc(c(-c6ccccc6)c6ccc([nH]6)c(-c6ccccc6)c6nc(c(-c7ccccc7)c7ccc4[nH]7)C=C6)C=C5)cc3)CC2)CCC[NH2+]C1
REMARK SMILES IDX 14 1 13 2 12 3 10 4 11 5 9 7 8 8 3 9 4 10 5 11 6 12 68 13
REMARK SMILES IDX 7 14 67 15 2 16 1 17 69 18 73 19 70 20 72 21 71 22 15 25
REMARK SMILES IDX 16 26 17 27 18 29 19 30 20 31 66 32 21 33 65 34 22 35 23 36
REMARK SMILES IDX 24 37 59 38 25 39 64 40 58 41 60 42 26 43 63 44 57 45 56 46
REMARK SMILES IDX 27 48 49 49 34 50 48 51 35 52 38 53 47 54 61 55 36 56 37 57
REMARK SMILES IDX 46 59 62 60 39 61 28 62 29 63 33 64 30 65 32 66 31 67 50 68
REMARK SMILES IDX 51 69 55 70 52 71 54 72 53 73 40 74 41 75 45 76 42 77 44 78
REMARK SMILES IDX 43 79
REMARK H PARENT 12 6 72 23 72 24 16 28 60 47 38 58
REMARK Flexibility Score: inf
ROOT
ATOM      1  C   UNL A   1      33.975  28.130  26.107  1.00  0.00     0.042 C 
ENDROOT
BRANCH   1   2
ATOM      2  C   UNL A   1      33.249  26.935  25.474  1.00  0.00     0.117 C 
BRANCH   2   3
ATOM      3  N   UNL A   1      33.637  26.693  24.087  1.00  0.00    -0.356 N 
ATOM      4  C   UNL A   1      33.529  25.601  23.276  1.00  0.00     0.220 C 
ATOM      5  O   UNL A   1      33.943  25.706  22.120  1.00  0.00    -0.275 OA
ATOM      6  H   UNL A   1      34.061  27.468  23.653  1.00  0.00     0.163 HD
BRANCH   4   7
ATOM      7  C   UNL A   1      32.946  24.287  23.767  1.00  0.00     0.103 C 
BRANCH   7   8
ATOM      8  C   UNL A   1      33.914  23.488  24.676  1.00  0.00     0.002 C 
ATOM      9  C   UNL A   1      34.583  19.329  24.658  1.00  0.00     0.234 C 
ATOM     10  O   UNL A   1      35.642  18.715  24.818  1.00  0.00    -0.274 OA
ATOM     11  N   UNL A   1      34.533  20.687  24.902  1.00  0.00    -0.342 N 
ATOM     12  C   UNL A   1      35.605  21.541  24.423  1.00  0.00     0.120 C 
ATOM     13  C   UNL A   1      33.790  21.257  25.999  1.00  0.00     0.120 C 
ATOM     14  C   UNL A   1      35.006  22.810  23.813  1.00  0.00     0.026 C 
ATOM     15  C   UNL A   1      33.091  22.508  25.521  1.00  0.00     0.026 C 
BRANCH   9  16
ATOM     16  C   UNL A   1      33.282  18.609  24.192  1.00  0.00     0.095 C 
ATOM     17  C   UNL A   1      32.349  19.647  23.544  1.00  0.00     0.028 C 
ATOM     18  C   UNL A   1      33.455  17.424  23.215  1.00  0.00     0.028 C 
ATOM     19  C   UNL A   1      32.601  18.043  25.469  1.00  0.00     0.277 C 
ATOM     20  C   UNL A   1      34.168  16.232  23.848  1.00  0.00     0.063 C 
ATOM     21  N   UNL A   1      33.355  16.930  26.065  1.00  0.00    -0.345 N 
ATOM     22  C   UNL A   1      33.501  15.806  25.151  1.00  0.00     0.260 C 
ATOM     23  H   UNL A   1      34.283  17.266  26.324  1.00  0.00     0.346 HD
ATOM     24  H   UNL A   1      32.836  16.604  26.881  1.00  0.00     0.346 HD
ENDBRANCH   9  16
ENDBRANCH   7   8
ENDBRANCH   4   7
ENDBRANCH   2   3
ENDBRANCH   1   2
BRANCH   1  25
ATOM     25  C   UNL A   1      33.461  28.547  27.481  1.00  0.00     0.118 C 
BRANCH  25  26
ATOM     26  N   UNL A   1      33.442  29.988  27.636  1.00  0.00    -0.352 N 
ATOM     27  C   UNL A   1      34.376  30.834  28.187  1.00  0.00     0.251 C 
ATOM     28  H   UNL A   1      32.634  30.432  27.292  1.00  0.00     0.163 HD
ATOM     29  O   UNL A   1      34.052  31.991  28.437  1.00  0.00    -0.269 OA
BRANCH  27  30
ATOM     30  C   UNL A   1      35.759  30.384  28.497  1.00  0.00     0.039 A 
ATOM     31  C   UNL A   1      36.738  30.515  27.506  1.00  0.00     0.014 A 
ATOM     32  C   UNL A   1      36.088  29.754  29.701  1.00  0.00     0.014 A 
ATOM     33  C   UNL A   1      38.039  30.049  27.729  1.00  0.00     0.010 A 
ATOM     34  C   UNL A   1      37.403  29.352  29.951  1.00  0.00     0.010 A 
ATOM     35  C   UNL A   1      38.389  29.477  28.962  1.00  0.00    -0.014 A 
BRANCH  35  36
ATOM     36  C   UNL A   1      39.768  28.972  29.211  1.00  0.00     0.031 A 
ATOM     37  C   UNL A   1      40.792  29.850  29.883  1.00  0.00     0.074 A 
ATOM     38  C   UNL A   1      40.119  27.737  28.803  1.00  0.00     0.049 A 
ATOM     39  N   UNL A   1      42.051  29.600  30.144  1.00  0.00    -0.248 NA
ATOM     40  C   UNL A   1      40.347  31.190  30.299  1.00  0.00     0.031 C 
ATOM     41  C   UNL A   1      39.241  26.787  28.118  1.00  0.00     0.029 A 
ATOM     42  N   UNL A   1      41.315  27.070  28.906  1.00  0.00    -0.354 N 
ATOM     43  C   UNL A   1      42.553  30.755  30.732  1.00  0.00     0.074 A 
ATOM     44  C   UNL A   1      41.474  31.719  30.755  1.00  0.00     0.031 C 
ATOM     45  C   UNL A   1      39.920  25.651  27.885  1.00  0.00     0.029 A 
ATOM     46  C   UNL A   1      41.288  25.805  28.371  1.00  0.00     0.049 A 
ATOM     47  H   UNL A   1      42.116  27.461  29.325  1.00  0.00     0.167 HD
ATOM     48  C   UNL A   1      43.793  30.992  31.225  1.00  0.00     0.031 A 
ATOM     49  C   UNL A   1      42.255  24.871  28.277  1.00  0.00     0.031 A 
ATOM     50  C   UNL A   1      44.866  30.035  31.229  1.00  0.00     0.049 A 
ATOM     51  C   UNL A   1      43.623  25.159  28.828  1.00  0.00     0.074 A 
ATOM     52  C   UNL A   1      46.139  30.170  31.757  1.00  0.00     0.029 A 
ATOM     53  N   UNL A   1      44.793  28.766  30.680  1.00  0.00    -0.354 N 
ATOM     54  N   UNL A   1      44.063  26.238  29.427  1.00  0.00    -0.248 NA
ATOM     55  C   UNL A   1      44.626  24.091  28.696  1.00  0.00     0.031 C 
ATOM     56  C   UNL A   1      46.850  28.993  31.494  1.00  0.00     0.029 A 
ATOM     57  C   UNL A   1      46.004  28.113  30.840  1.00  0.00     0.049 A 
ATOM     58  H   UNL A   1      44.000  28.384  30.242  1.00  0.00     0.167 HD
ATOM     59  C   UNL A   1      45.384  25.972  29.763  1.00  0.00     0.074 A 
ATOM     60  C   UNL A   1      45.670  24.626  29.315  1.00  0.00     0.031 C 
ATOM     61  C   UNL A   1      46.278  26.774  30.390  1.00  0.00     0.031 A 
BRANCH  48  62
ATOM     62  C   UNL A   1      44.058  32.356  31.800  1.00  0.00    -0.014 A 
ATOM     63  C   UNL A   1      44.533  33.403  30.995  1.00  0.00     0.009 A 
ATOM     64  C   UNL A   1      43.796  32.604  33.157  1.00  0.00     0.009 A 
ATOM     65  C   UNL A   1      44.776  34.664  31.546  1.00  0.00     0.001 A 
ATOM     66  C   UNL A   1      44.016  33.872  33.699  1.00  0.00     0.001 A 
ATOM     67  C   UNL A   1      44.513  34.898  32.895  1.00  0.00     0.000 A 
ENDBRANCH  48  62
BRANCH  49  68
ATOM     68  C   UNL A   1      41.959  23.559  27.648  1.00  0.00    -0.014 A 
ATOM     69  C   UNL A   1      42.196  23.360  26.279  1.00  0.00     0.009 A 
ATOM     70  C   UNL A   1      41.432  22.504  28.408  1.00  0.00     0.009 A 
ATOM     71  C   UNL A   1      41.893  22.136  25.681  1.00  0.00     0.001 A 
ATOM     72  C   UNL A   1      41.153  21.274  27.812  1.00  0.00     0.001 A 
ATOM     73  C   UNL A   1      41.377  21.092  26.447  1.00  0.00     0.000 A 
ENDBRANCH  49  68
BRANCH  61  74
ATOM     74  C   UNL A   1      47.643  26.205  30.654  1.00  0.00    -0.014 A 
ATOM     75  C   UNL A   1      48.601  26.111  29.633  1.00  0.00     0.009 A 
ATOM     76  C   UNL A   1      47.985  25.792  31.951  1.00  0.00     0.009 A 
ATOM     77  C   UNL A   1      49.866  25.586  29.900  1.00  0.00     0.001 A 
ATOM     78  C   UNL A   1      49.259  25.288  32.219  1.00  0.00     0.001 A 
ATOM     79  C   UNL A   1      50.195  25.179  31.193  1.00  0.00     0.000 A 
ENDBRANCH  61  74
ENDBRANCH  35  36
ENDBRANCH  27  30
ENDBRANCH  25  26
ENDBRANCH   1  25
TORSDOF 12
ENDMDL
