MODEL 1
REMARK VINA RESULT:     -12.0      0.000      0.000
REMARK SMILES O=C(NCCCNC(=O)c1nccnc1C(=O)Nc1ccc2c(c1)OCO2)c1ccc(-c2c3nc(c(-c4ccccc4)c4ccc([nH]4)c(-c4ccccc4)c4nc(c(-c5ccccc5)c5ccc2[nH]5)C=C4)C=C3)cc1
REMARK SMILES IDX 5 1 4 2 3 3 1 4 2 5 28 7 29 8 75 9 30 10 74 11 31 12 32 13
REMARK SMILES IDX 33 14 68 15 34 16 73 17 67 18 69 19 35 20 72 21 66 22 65 23
REMARK SMILES IDX 36 25 58 26 43 27 57 28 44 29 47 30 56 31 70 32 45 33 46 34
REMARK SMILES IDX 55 36 71 37 48 38 37 39 38 40 42 41 39 42 41 43 40 44 59 45
REMARK SMILES IDX 60 46 64 47 61 48 63 49 62 50 49 51 50 52 54 53 51 54 53 55
REMARK SMILES IDX 52 56 6 57 7 58 8 59 9 61 10 62 11 63 15 64 12 65 14 66
REMARK SMILES IDX 13 67 16 68 17 69 18 70 19 72 20 73 24 74 21 75 23 76 22 77
REMARK SMILES IDX 25 78 27 79 26 80
REMARK H PARENT 3 6 69 24 47 35 7 60 18 71
REMARK Flexibility Score: inf
ROOT
ATOM      1  C   UNL A   1      31.446  31.712  26.570  1.00  0.00     0.042 C 
ENDROOT
BRANCH   1   2
ATOM      2  C   UNL A   1      32.543  32.543  27.236  1.00  0.00     0.118 C 
BRANCH   2   3
ATOM      3  N   UNL A   1      32.222  33.904  27.624  1.00  0.00    -0.352 N 
ATOM      4  O   UNL A   1      32.523  35.850  28.745  1.00  0.00    -0.269 OA
ATOM      5  C   UNL A   1      32.923  34.718  28.488  1.00  0.00     0.251 C 
ATOM      6  H   UNL A   1      31.410  34.291  27.223  1.00  0.00     0.163 HD
BRANCH   5   7
ATOM      7  C   UNL A   1      34.148  34.202  29.135  1.00  0.00     0.039 A 
ATOM      8  C   UNL A   1      35.403  34.443  28.573  1.00  0.00     0.014 A 
ATOM      9  C   UNL A   1      34.036  33.454  30.311  1.00  0.00     0.014 A 
ATOM     10  C   UNL A   1      36.530  33.829  29.113  1.00  0.00     0.010 A 
ATOM     11  C   UNL A   1      35.178  32.889  30.888  1.00  0.00     0.010 A 
ATOM     12  C   UNL A   1      36.432  33.042  30.274  1.00  0.00    -0.014 A 
BRANCH  12  13
ATOM     13  C   UNL A   1      37.660  32.426  30.842  1.00  0.00     0.031 A 
ATOM     14  C   UNL A   1      38.277  32.936  32.117  1.00  0.00     0.074 A 
ATOM     15  C   UNL A   1      38.200  31.357  30.222  1.00  0.00     0.049 A 
ATOM     16  N   UNL A   1      39.303  32.462  32.781  1.00  0.00    -0.248 NA
ATOM     17  C   UNL A   1      37.670  34.130  32.725  1.00  0.00     0.031 C 
ATOM     18  C   UNL A   1      37.710  30.773  28.972  1.00  0.00     0.029 A 
ATOM     19  N   UNL A   1      39.261  30.561  30.570  1.00  0.00    -0.354 N 
ATOM     20  C   UNL A   1      39.467  33.297  33.879  1.00  0.00     0.074 A 
ATOM     21  C   UNL A   1      38.455  34.328  33.776  1.00  0.00     0.031 C 
ATOM     22  C   UNL A   1      38.440  29.686  28.681  1.00  0.00     0.029 A 
ATOM     23  C   UNL A   1      39.476  29.524  29.695  1.00  0.00     0.049 A 
ATOM     24  H   UNL A   1      39.814  30.718  31.369  1.00  0.00     0.167 HD
ATOM     25  C   UNL A   1      40.369  33.210  34.888  1.00  0.00     0.031 A 
ATOM     26  C   UNL A   1      40.406  28.551  29.700  1.00  0.00     0.031 A 
ATOM     27  C   UNL A   1      41.387  32.194  34.991  1.00  0.00     0.049 A 
ATOM     28  C   UNL A   1      41.405  28.491  30.818  1.00  0.00     0.074 A 
ATOM     29  C   UNL A   1      42.337  32.024  35.984  1.00  0.00     0.029 A 
ATOM     30  N   UNL A   1      41.589  31.180  34.069  1.00  0.00    -0.354 N 
ATOM     31  N   UNL A   1      41.521  29.271  31.865  1.00  0.00    -0.248 NA
ATOM     32  C   UNL A   1      42.397  27.409  30.758  1.00  0.00     0.031 C 
ATOM     33  C   UNL A   1      43.141  30.931  35.640  1.00  0.00     0.029 A 
ATOM     34  C   UNL A   1      42.659  30.390  34.461  1.00  0.00     0.049 A 
ATOM     35  H   UNL A   1      41.051  31.041  33.255  1.00  0.00     0.167 HD
ATOM     36  C   UNL A   1      42.592  28.768  32.593  1.00  0.00     0.074 A 
ATOM     37  C   UNL A   1      43.069  27.599  31.884  1.00  0.00     0.031 C 
ATOM     38  C   UNL A   1      43.135  29.239  33.742  1.00  0.00     0.031 A 
BRANCH  25  39
ATOM     39  C   UNL A   1      40.308  34.253  35.969  1.00  0.00    -0.014 A 
ATOM     40  C   UNL A   1      41.022  35.457  35.854  1.00  0.00     0.009 A 
ATOM     41  C   UNL A   1      39.477  34.062  37.083  1.00  0.00     0.009 A 
ATOM     42  C   UNL A   1      40.921  36.437  36.844  1.00  0.00     0.001 A 
ATOM     43  C   UNL A   1      39.359  35.054  38.060  1.00  0.00     0.001 A 
ATOM     44  C   UNL A   1      40.086  36.237  37.943  1.00  0.00     0.000 A 
ENDBRANCH  25  39
BRANCH  26  45
ATOM     45  C   UNL A   1      40.441  27.559  28.596  1.00  0.00    -0.014 A 
ATOM     46  C   UNL A   1      41.179  27.808  27.429  1.00  0.00     0.009 A 
ATOM     47  C   UNL A   1      39.730  26.353  28.708  1.00  0.00     0.009 A 
ATOM     48  C   UNL A   1      41.183  26.879  26.386  1.00  0.00     0.001 A 
ATOM     49  C   UNL A   1      39.762  25.414  27.676  1.00  0.00     0.001 A 
ATOM     50  C   UNL A   1      40.480  25.682  26.512  1.00  0.00     0.000 A 
ENDBRANCH  26  45
BRANCH  38  51
ATOM     51  C   UNL A   1      44.298  28.473  34.304  1.00  0.00    -0.014 A 
ATOM     52  C   UNL A   1      44.102  27.406  35.195  1.00  0.00     0.009 A 
ATOM     53  C   UNL A   1      45.606  28.821  33.937  1.00  0.00     0.009 A 
ATOM     54  C   UNL A   1      45.196  26.730  35.739  1.00  0.00     0.001 A 
ATOM     55  C   UNL A   1      46.698  28.127  34.462  1.00  0.00     0.001 A 
ATOM     56  C   UNL A   1      46.492  27.089  35.371  1.00  0.00     0.000 A 
ENDBRANCH  38  51
ENDBRANCH  12  13
ENDBRANCH   5   7
ENDBRANCH   2   3
ENDBRANCH   1   2
BRANCH   1  57
ATOM     57  C   UNL A   1      31.843  30.434  25.838  1.00  0.00     0.118 C 
BRANCH  57  58
ATOM     58  N   UNL A   1      31.405  29.181  26.440  1.00  0.00    -0.351 N 
ATOM     59  C   UNL A   1      31.565  27.880  25.979  1.00  0.00     0.272 C 
ATOM     60  H   UNL A   1      30.927  29.269  27.296  1.00  0.00     0.163 HD
ATOM     61  O   UNL A   1      31.504  26.940  26.766  1.00  0.00    -0.267 OA
BRANCH  59  62
ATOM     62  C   UNL A   1      31.892  27.615  24.562  1.00  0.00     0.159 A 
ATOM     63  N   UNL A   1      33.243  27.392  24.393  1.00  0.00    -0.247 NA
ATOM     64  C   UNL A   1      30.977  27.455  23.523  1.00  0.00     0.159 A 
ATOM     65  C   UNL A   1      33.657  26.992  23.179  1.00  0.00     0.132 A 
ATOM     66  N   UNL A   1      31.464  27.117  22.275  1.00  0.00    -0.247 NA
ATOM     67  C   UNL A   1      32.781  26.865  22.132  1.00  0.00     0.132 A 
BRANCH  64  68
ATOM     68  C   UNL A   1      29.460  27.412  23.505  1.00  0.00     0.276 C 
ATOM     69  O   UNL A   1      28.918  26.301  23.620  1.00  0.00    -0.267 OA
ATOM     70  N   UNL A   1      28.577  28.461  23.528  1.00  0.00    -0.320 N 
ATOM     71  H   UNL A   1      27.736  28.245  23.991  1.00  0.00     0.170 HD
BRANCH  70  72
ATOM     72  C   UNL A   1      28.610  29.762  23.044  1.00  0.00     0.045 A 
ATOM     73  C   UNL A   1      28.897  30.866  23.859  1.00  0.00     0.030 A 
ATOM     74  C   UNL A   1      28.341  29.924  21.677  1.00  0.00     0.076 A 
ATOM     75  C   UNL A   1      28.820  32.156  23.320  1.00  0.00     0.053 A 
ATOM     76  C   UNL A   1      28.146  31.204  21.221  1.00  0.00     0.167 A 
ATOM     77  C   UNL A   1      28.361  32.293  22.029  1.00  0.00     0.165 A 
ATOM     78  O   UNL A   1      27.662  31.552  19.999  1.00  0.00    -0.454 OA
ATOM     79  O   UNL A   1      28.024  33.460  21.417  1.00  0.00    -0.454 OA
ATOM     80  C   UNL A   1      27.382  32.949  20.227  1.00  0.00     0.468 C 
ENDBRANCH  70  72
ENDBRANCH  64  68
ENDBRANCH  59  62
ENDBRANCH  57  58
ENDBRANCH   1  57
TORSDOF 12
ENDMDL
MODEL 2
REMARK VINA RESULT:     -12.0      0.840      5.903
REMARK SMILES O=C(NCCCNC(=O)c1nccnc1C(=O)Nc1ccc2c(c1)OCO2)c1ccc(-c2c3nc(c(-c4ccccc4)c4ccc([nH]4)c(-c4ccccc4)c4nc(c(-c5ccccc5)c5ccc2[nH]5)C=C4)C=C3)cc1
REMARK SMILES IDX 5 1 4 2 3 3 1 4 2 5 28 7 29 8 75 9 30 10 74 11 31 12 32 13
REMARK SMILES IDX 33 14 68 15 34 16 73 17 67 18 69 19 35 20 72 21 66 22 65 23
REMARK SMILES IDX 36 25 58 26 43 27 57 28 44 29 47 30 56 31 70 32 45 33 46 34
REMARK SMILES IDX 55 36 71 37 48 38 37 39 38 40 42 41 39 42 41 43 40 44 59 45
REMARK SMILES IDX 60 46 64 47 61 48 63 49 62 50 49 51 50 52 54 53 51 54 53 55
REMARK SMILES IDX 52 56 6 57 7 58 8 59 9 61 10 62 11 63 15 64 12 65 14 66
REMARK SMILES IDX 13 67 16 68 17 69 18 70 19 72 20 73 24 74 21 75 23 76 22 77
REMARK SMILES IDX 25 78 27 79 26 80
REMARK H PARENT 3 6 69 24 47 35 7 60 18 71
REMARK Flexibility Score: inf
ROOT
ATOM      1  C   UNL A   1      31.609  31.639  26.507  1.00  0.00     0.042 C 
ENDROOT
BRANCH   1   2
ATOM      2  C   UNL A   1      32.732  32.465  27.137  1.00  0.00     0.118 C 
BRANCH   2   3
ATOM      3  N   UNL A   1      32.411  33.802  27.602  1.00  0.00    -0.352 N 
ATOM      4  O   UNL A   1      32.728  35.689  28.814  1.00  0.00    -0.269 OA
ATOM      5  C   UNL A   1      33.129  34.575  28.489  1.00  0.00     0.251 C 
ATOM      6  H   UNL A   1      31.587  34.202  27.242  1.00  0.00     0.163 HD
BRANCH   5   7
ATOM      7  C   UNL A   1      34.374  34.036  29.077  1.00  0.00     0.039 A 
ATOM      8  C   UNL A   1      35.603  34.245  28.450  1.00  0.00     0.014 A 
ATOM      9  C   UNL A   1      34.305  33.300  30.264  1.00  0.00     0.014 A 
ATOM     10  C   UNL A   1      36.743  33.609  28.938  1.00  0.00     0.010 A 
ATOM     11  C   UNL A   1      35.462  32.713  30.787  1.00  0.00     0.010 A 
ATOM     12  C   UNL A   1      36.686  32.833  30.109  1.00  0.00    -0.014 A 
BRANCH  12  13
ATOM     13  C   UNL A   1      37.928  32.194  30.620  1.00  0.00     0.031 A 
ATOM     14  C   UNL A   1      38.456  30.917  30.022  1.00  0.00     0.074 A 
ATOM     15  C   UNL A   1      38.616  32.802  31.606  1.00  0.00     0.049 A 
ATOM     16  N   UNL A   1      39.562  30.273  30.305  1.00  0.00    -0.248 NA
ATOM     17  C   UNL A   1      37.640  30.277  28.979  1.00  0.00     0.031 C 
ATOM     18  C   UNL A   1      38.206  34.035  32.282  1.00  0.00     0.029 A 
ATOM     19  N   UNL A   1      39.813  32.481  32.194  1.00  0.00    -0.354 N 
ATOM     20  C   UNL A   1      39.576  29.156  29.479  1.00  0.00     0.074 A 
ATOM     21  C   UNL A   1      38.351  29.189  28.708  1.00  0.00     0.031 C 
ATOM     22  C   UNL A   1      39.156  34.389  33.161  1.00  0.00     0.029 A 
ATOM     23  C   UNL A   1      40.217  33.387  33.144  1.00  0.00     0.049 A 
ATOM     24  H   UNL A   1      40.331  31.678  31.958  1.00  0.00     0.167 HD
ATOM     25  C   UNL A   1      40.525  28.194  29.365  1.00  0.00     0.031 A 
ATOM     26  C   UNL A   1      41.314  33.412  33.922  1.00  0.00     0.031 A 
ATOM     27  C   UNL A   1      41.741  28.146  30.138  1.00  0.00     0.049 A 
ATOM     28  C   UNL A   1      42.338  32.322  33.788  1.00  0.00     0.074 A 
ATOM     29  C   UNL A   1      42.763  27.213  30.081  1.00  0.00     0.029 A 
ATOM     30  N   UNL A   1      42.097  29.067  31.110  1.00  0.00    -0.354 N 
ATOM     31  N   UNL A   1      42.347  31.293  32.977  1.00  0.00    -0.248 NA
ATOM     32  C   UNL A   1      43.508  32.406  34.673  1.00  0.00     0.031 C 
ATOM     33  C   UNL A   1      43.718  27.548  31.048  1.00  0.00     0.029 A 
ATOM     34  C   UNL A   1      43.315  28.716  31.670  1.00  0.00     0.049 A 
ATOM     35  H   UNL A   1      41.564  29.856  31.363  1.00  0.00     0.167 HD
ATOM     36  C   UNL A   1      43.527  30.612  33.248  1.00  0.00     0.074 A 
ATOM     37  C   UNL A   1      44.220  31.362  34.274  1.00  0.00     0.031 C 
ATOM     38  C   UNL A   1      43.989  29.462  32.700  1.00  0.00     0.031 A 
BRANCH  25  39
ATOM     39  C   UNL A   1      40.285  27.094  28.367  1.00  0.00    -0.014 A 
ATOM     40  C   UNL A   1      40.802  27.175  27.064  1.00  0.00     0.009 A 
ATOM     41  C   UNL A   1      39.593  25.936  28.752  1.00  0.00     0.009 A 
ATOM     42  C   UNL A   1      40.610  26.126  26.161  1.00  0.00     0.001 A 
ATOM     43  C   UNL A   1      39.423  24.879  27.854  1.00  0.00     0.001 A 
ATOM     44  C   UNL A   1      39.926  24.978  26.559  1.00  0.00     0.000 A 
ENDBRANCH  25  39
BRANCH  26  45
ATOM     45  C   UNL A   1      41.493  34.505  34.910  1.00  0.00    -0.014 A 
ATOM     46  C   UNL A   1      42.167  35.686  34.563  1.00  0.00     0.009 A 
ATOM     47  C   UNL A   1      40.989  34.368  36.214  1.00  0.00     0.009 A 
ATOM     48  C   UNL A   1      42.352  36.697  35.509  1.00  0.00     0.001 A 
ATOM     49  C   UNL A   1      41.149  35.392  37.148  1.00  0.00     0.001 A 
ATOM     50  C   UNL A   1      41.839  36.552  36.797  1.00  0.00     0.000 A 
ENDBRANCH  26  45
BRANCH  38  51
ATOM     51  C   UNL A   1      45.316  28.961  33.195  1.00  0.00    -0.014 A 
ATOM     52  C   UNL A   1      45.398  28.073  34.279  1.00  0.00     0.009 A 
ATOM     53  C   UNL A   1      46.499  29.379  32.567  1.00  0.00     0.009 A 
ATOM     54  C   UNL A   1      46.642  27.649  34.752  1.00  0.00     0.001 A 
ATOM     55  C   UNL A   1      47.739  28.932  33.025  1.00  0.00     0.001 A 
ATOM     56  C   UNL A   1      47.810  28.076  34.124  1.00  0.00     0.000 A 
ENDBRANCH  38  51
ENDBRANCH  12  13
ENDBRANCH   5   7
ENDBRANCH   2   3
ENDBRANCH   1   2
BRANCH   1  57
ATOM     57  C   UNL A   1      31.966  30.320  25.829  1.00  0.00     0.118 C 
BRANCH  57  58
ATOM     58  N   UNL A   1      31.401  29.114  26.420  1.00  0.00    -0.351 N 
ATOM     59  C   UNL A   1      31.434  27.806  25.952  1.00  0.00     0.272 C 
ATOM     60  H   UNL A   1      30.928  29.246  27.273  1.00  0.00     0.163 HD
ATOM     61  O   UNL A   1      31.273  26.873  26.733  1.00  0.00    -0.267 OA
BRANCH  59  62
ATOM     62  C   UNL A   1      31.742  27.517  24.536  1.00  0.00     0.159 A 
ATOM     63  N   UNL A   1      33.084  27.248  24.362  1.00  0.00    -0.247 NA
ATOM     64  C   UNL A   1      30.816  27.379  23.505  1.00  0.00     0.159 A 
ATOM     65  C   UNL A   1      33.477  26.823  23.149  1.00  0.00     0.132 A 
ATOM     66  N   UNL A   1      31.284  27.013  22.257  1.00  0.00    -0.247 NA
ATOM     67  C   UNL A   1      32.591  26.715  22.109  1.00  0.00     0.132 A 
BRANCH  64  68
ATOM     68  C   UNL A   1      29.299  27.387  23.495  1.00  0.00     0.276 C 
ATOM     69  O   UNL A   1      28.720  26.294  23.606  1.00  0.00    -0.267 OA
ATOM     70  N   UNL A   1      28.452  28.465  23.531  1.00  0.00    -0.320 N 
ATOM     71  H   UNL A   1      27.607  28.274  23.997  1.00  0.00     0.170 HD
BRANCH  70  72
ATOM     72  C   UNL A   1      28.526  29.768  23.055  1.00  0.00     0.045 A 
ATOM     73  C   UNL A   1      28.843  30.857  23.878  1.00  0.00     0.030 A 
ATOM     74  C   UNL A   1      28.267  29.946  21.689  1.00  0.00     0.076 A 
ATOM     75  C   UNL A   1      28.807  32.152  23.347  1.00  0.00     0.053 A 
ATOM     76  C   UNL A   1      28.112  31.234  21.240  1.00  0.00     0.167 A 
ATOM     77  C   UNL A   1      28.357  32.311  22.055  1.00  0.00     0.165 A 
ATOM     78  O   UNL A   1      27.643  31.604  20.019  1.00  0.00    -0.454 OA
ATOM     79  O   UNL A   1      28.057  33.492  21.450  1.00  0.00    -0.454 OA
ATOM     80  C   UNL A   1      27.404  33.007  20.254  1.00  0.00     0.468 C 
ENDBRANCH  70  72
ENDBRANCH  64  68
ENDBRANCH  59  62
ENDBRANCH  57  58
ENDBRANCH   1  57
TORSDOF 12
ENDMDL
MODEL 3
REMARK VINA RESULT:     -11.9      2.414      4.253
REMARK SMILES O=C(NCCCNC(=O)c1nccnc1C(=O)Nc1ccc2c(c1)OCO2)c1ccc(-c2c3nc(c(-c4ccccc4)c4ccc([nH]4)c(-c4ccccc4)c4nc(c(-c5ccccc5)c5ccc2[nH]5)C=C4)C=C3)cc1
REMARK SMILES IDX 5 1 4 2 3 3 1 4 2 5 28 7 29 8 75 9 30 10 74 11 31 12 32 13
REMARK SMILES IDX 33 14 68 15 34 16 73 17 67 18 69 19 35 20 72 21 66 22 65 23
REMARK SMILES IDX 36 25 58 26 43 27 57 28 44 29 47 30 56 31 70 32 45 33 46 34
REMARK SMILES IDX 55 36 71 37 48 38 37 39 38 40 42 41 39 42 41 43 40 44 59 45
REMARK SMILES IDX 60 46 64 47 61 48 63 49 62 50 49 51 50 52 54 53 51 54 53 55
REMARK SMILES IDX 52 56 6 57 7 58 8 59 9 61 10 62 11 63 15 64 12 65 14 66
REMARK SMILES IDX 13 67 16 68 17 69 18 70 19 72 20 73 24 74 21 75 23 76 22 77
REMARK SMILES IDX 25 78 27 79 26 80
REMARK H PARENT 3 6 69 24 47 35 7 60 18 71
REMARK Flexibility Score: inf
ROOT
ATOM      1  C   UNL A   1      31.403  32.034  26.505  1.00  0.00     0.042 C 
ENDROOT
BRANCH   1   2
ATOM      2  C   UNL A   1      32.485  32.817  27.251  1.00  0.00     0.118 C 
BRANCH   2   3
ATOM      3  N   UNL A   1      32.189  34.185  27.635  1.00  0.00    -0.352 N 
ATOM      4  O   UNL A   1      32.528  36.127  28.751  1.00  0.00    -0.269 OA
ATOM      5  C   UNL A   1      32.906  34.987  28.497  1.00  0.00     0.251 C 
ATOM      6  H   UNL A   1      31.385  34.586  27.233  1.00  0.00     0.163 HD
BRANCH   5   7
ATOM      7  C   UNL A   1      34.121  34.449  29.146  1.00  0.00     0.039 A 
ATOM      8  C   UNL A   1      35.369  34.584  28.536  1.00  0.00     0.014 A 
ATOM      9  C   UNL A   1      34.004  33.788  30.373  1.00  0.00     0.014 A 
ATOM     10  C   UNL A   1      36.478  33.946  29.088  1.00  0.00     0.010 A 
ATOM     11  C   UNL A   1      35.131  33.201  30.957  1.00  0.00     0.010 A 
ATOM     12  C   UNL A   1      36.373  33.244  30.302  1.00  0.00    -0.014 A 
BRANCH  12  13
ATOM     13  C   UNL A   1      37.583  32.602  30.879  1.00  0.00     0.031 A 
ATOM     14  C   UNL A   1      38.182  33.077  32.175  1.00  0.00     0.074 A 
ATOM     15  C   UNL A   1      38.121  31.540  30.246  1.00  0.00     0.049 A 
ATOM     16  N   UNL A   1      39.191  32.576  32.847  1.00  0.00    -0.248 NA
ATOM     17  C   UNL A   1      37.578  34.264  32.798  1.00  0.00     0.031 C 
ATOM     18  C   UNL A   1      37.648  30.989  28.975  1.00  0.00     0.029 A 
ATOM     19  N   UNL A   1      39.166  30.723  30.595  1.00  0.00    -0.354 N 
ATOM     20  C   UNL A   1      39.344  33.386  33.966  1.00  0.00     0.074 A 
ATOM     21  C   UNL A   1      38.346  34.431  33.867  1.00  0.00     0.031 C 
ATOM     22  C   UNL A   1      38.371  29.900  28.672  1.00  0.00     0.029 A 
ATOM     23  C   UNL A   1      39.386  29.703  29.702  1.00  0.00     0.049 A 
ATOM     24  H   UNL A   1      39.707  30.856  31.407  1.00  0.00     0.167 HD
ATOM     25  C   UNL A   1      40.226  33.265  34.989  1.00  0.00     0.031 A 
ATOM     26  C   UNL A   1      40.304  28.719  29.703  1.00  0.00     0.031 A 
ATOM     27  C   UNL A   1      41.230  32.235  35.088  1.00  0.00     0.049 A 
ATOM     28  C   UNL A   1      41.282  28.623  30.837  1.00  0.00     0.074 A 
ATOM     29  C   UNL A   1      42.160  32.032  36.094  1.00  0.00     0.029 A 
ATOM     30  N   UNL A   1      41.437  31.239  34.148  1.00  0.00    -0.354 N 
ATOM     31  N   UNL A   1      41.387  29.379  31.903  1.00  0.00    -0.248 NA
ATOM     32  C   UNL A   1      42.262  27.530  30.771  1.00  0.00     0.031 C 
ATOM     33  C   UNL A   1      42.957  30.937  35.742  1.00  0.00     0.029 A 
ATOM     34  C   UNL A   1      42.490  30.428  34.542  1.00  0.00     0.049 A 
ATOM     35  H   UNL A   1      40.913  31.124  33.322  1.00  0.00     0.167 HD
ATOM     36  C   UNL A   1      42.438  28.847  32.638  1.00  0.00     0.074 A 
ATOM     37  C   UNL A   1      42.915  27.688  31.913  1.00  0.00     0.031 C 
ATOM     38  C   UNL A   1      42.966  29.287  33.807  1.00  0.00     0.031 A 
BRANCH  25  39
ATOM     39  C   UNL A   1      40.157  34.286  36.091  1.00  0.00    -0.014 A 
ATOM     40  C   UNL A   1      40.869  35.494  36.004  1.00  0.00     0.009 A 
ATOM     41  C   UNL A   1      39.322  34.070  37.197  1.00  0.00     0.009 A 
ATOM     42  C   UNL A   1      40.761  36.453  37.014  1.00  0.00     0.001 A 
ATOM     43  C   UNL A   1      39.198  35.041  38.194  1.00  0.00     0.001 A 
ATOM     44  C   UNL A   1      39.922  36.228  38.104  1.00  0.00     0.000 A 
ENDBRANCH  25  39
BRANCH  26  45
ATOM     45  C   UNL A   1      40.348  27.751  28.578  1.00  0.00    -0.014 A 
ATOM     46  C   UNL A   1      41.081  28.032  27.415  1.00  0.00     0.009 A 
ATOM     47  C   UNL A   1      39.650  26.535  28.666  1.00  0.00     0.009 A 
ATOM     48  C   UNL A   1      41.093  27.125  26.353  1.00  0.00     0.001 A 
ATOM     49  C   UNL A   1      39.689  25.618  27.615  1.00  0.00     0.001 A 
ATOM     50  C   UNL A   1      40.403  25.918  26.456  1.00  0.00     0.000 A 
ENDBRANCH  26  45
BRANCH  38  51
ATOM     51  C   UNL A   1      44.109  28.495  34.374  1.00  0.00    -0.014 A 
ATOM     52  C   UNL A   1      45.440  28.818  34.064  1.00  0.00     0.009 A 
ATOM     53  C   UNL A   1      43.853  27.415  35.231  1.00  0.00     0.009 A 
ATOM     54  C   UNL A   1      46.489  28.047  34.568  1.00  0.00     0.001 A 
ATOM     55  C   UNL A   1      44.906  26.662  35.755  1.00  0.00     0.001 A 
ATOM     56  C   UNL A   1      46.222  26.972  35.414  1.00  0.00     0.000 A 
ENDBRANCH  38  51
ENDBRANCH  12  13
ENDBRANCH   5   7
ENDBRANCH   2   3
ENDBRANCH   1   2
BRANCH   1  57
ATOM     57  C   UNL A   1      31.682  30.584  26.126  1.00  0.00     0.118 C 
BRANCH  57  58
ATOM     58  N   UNL A   1      32.830  29.956  26.768  1.00  0.00    -0.351 N 
ATOM     59  C   UNL A   1      33.658  28.945  26.298  1.00  0.00     0.272 C 
ATOM     60  H   UNL A   1      33.049  30.298  27.665  1.00  0.00     0.163 HD
ATOM     61  O   UNL A   1      34.785  28.810  26.764  1.00  0.00    -0.267 OA
BRANCH  59  62
ATOM     62  C   UNL A   1      33.231  28.077  25.180  1.00  0.00     0.159 A 
ATOM     63  N   UNL A   1      33.927  28.369  24.025  1.00  0.00    -0.247 NA
ATOM     64  C   UNL A   1      32.354  26.997  25.266  1.00  0.00     0.159 A 
ATOM     65  C   UNL A   1      33.745  27.556  22.971  1.00  0.00     0.132 A 
ATOM     66  N   UNL A   1      32.145  26.239  24.131  1.00  0.00    -0.247 NA
ATOM     67  C   UNL A   1      32.860  26.511  23.020  1.00  0.00     0.132 A 
BRANCH  64  68
ATOM     68  C   UNL A   1      31.665  26.342  26.449  1.00  0.00     0.276 C 
ATOM     69  O   UNL A   1      31.034  27.078  27.224  1.00  0.00    -0.267 OA
ATOM     70  N   UNL A   1      31.511  25.004  26.711  1.00  0.00    -0.320 N 
ATOM     71  H   UNL A   1      30.677  24.802  27.192  1.00  0.00     0.170 HD
BRANCH  70  72
ATOM     72  C   UNL A   1      32.273  23.874  26.446  1.00  0.00     0.045 A 
ATOM     73  C   UNL A   1      33.674  23.876  26.501  1.00  0.00     0.030 A 
ATOM     74  C   UNL A   1      31.565  22.710  26.116  1.00  0.00     0.076 A 
ATOM     75  C   UNL A   1      34.377  22.725  26.130  1.00  0.00     0.053 A 
ATOM     76  C   UNL A   1      32.289  21.648  25.633  1.00  0.00     0.167 A 
ATOM     77  C   UNL A   1      33.662  21.663  25.622  1.00  0.00     0.165 A 
ATOM     78  O   UNL A   1      31.778  20.528  25.056  1.00  0.00    -0.454 OA
ATOM     79  O   UNL A   1      34.182  20.559  25.022  1.00  0.00    -0.454 OA
ATOM     80  C   UNL A   1      32.977  19.970  24.481  1.00  0.00     0.468 C 
ENDBRANCH  70  72
ENDBRANCH  64  68
ENDBRANCH  59  62
ENDBRANCH  57  58
ENDBRANCH   1  57
TORSDOF 12
ENDMDL
