MODEL 1
REMARK VINA RESULT:     -12.2      0.000      0.000
REMARK SMILES O=C(Cc1ccccc1-c1ccn(C(F)F)c(=O)c1)NCCCNC(=O)c1ccc(-c2c3nc(c(-c4ccccc4)c4ccc([nH]4)c(-c4ccccc4)c4nc(c(-c5ccccc5)c5ccc2[nH]5)C=C4)C=C3)cc1
REMARK SMILES IDX 21 1 20 2 1 3 2 4 3 6 4 7 5 8 9 9 6 10 8 11 7 12 10 13 11 14
REMARK SMILES IDX 19 15 12 16 17 17 13 18 18 19 14 20 15 21 16 22 22 23 23 24
REMARK SMILES IDX 24 25 25 26 26 28 27 29 28 30 74 31 29 32 73 33 30 34 31 35
REMARK SMILES IDX 32 36 67 37 33 38 72 39 66 40 68 41 34 42 71 43 65 44 64 45
REMARK SMILES IDX 35 47 57 48 42 49 56 50 43 51 46 52 55 53 69 54 44 55 45 56
REMARK SMILES IDX 54 58 70 59 47 60 36 61 37 62 41 63 38 64 40 65 39 66 58 67
REMARK SMILES IDX 59 68 63 69 60 70 62 71 61 72 48 73 49 74 53 75 50 76 52 77
REMARK SMILES IDX 51 78
REMARK H PARENT 20 5 24 27 68 46 46 57
REMARK Flexibility Score: inf
ROOT
ATOM      1  C   UNL A   1      31.793  30.540  26.488  1.00  0.00     0.117 C 
ENDROOT
BRANCH   1   2
ATOM      2  N   UNL A   1      31.512  30.136  25.128  1.00  0.00    -0.356 N 
ATOM      3  O   UNL A   1      33.175  28.553  24.977  1.00  0.00    -0.275 OA
ATOM      4  C   UNL A   1      32.196  29.117  24.498  1.00  0.00     0.224 C 
ATOM      5  H   UNL A   1      30.803  30.606  24.632  1.00  0.00     0.163 HD
BRANCH   4   6
ATOM      6  C   UNL A   1      31.589  28.726  23.161  1.00  0.00     0.136 C 
BRANCH   6   7
ATOM      7  C   UNL A   1      30.071  28.677  23.190  1.00  0.00    -0.031 A 
ATOM      8  C   UNL A   1      29.337  29.778  22.704  1.00  0.00     0.005 A 
ATOM      9  C   UNL A   1      29.361  27.534  23.619  1.00  0.00    -0.014 A 
ATOM     10  C   UNL A   1      27.943  29.764  22.670  1.00  0.00     0.000 A 
ATOM     11  C   UNL A   1      27.955  27.538  23.591  1.00  0.00     0.009 A 
ATOM     12  C   UNL A   1      27.252  28.646  23.120  1.00  0.00     0.001 A 
BRANCH   9  13
ATOM     13  C   UNL A   1      30.052  26.304  24.052  1.00  0.00    -0.011 A 
ATOM     14  C   UNL A   1      30.378  25.216  23.150  1.00  0.00     0.027 A 
ATOM     15  C   UNL A   1      30.313  26.171  25.363  1.00  0.00     0.080 A 
ATOM     16  C   UNL A   1      30.851  24.060  23.630  1.00  0.00     0.095 A 
ATOM     17  C   UNL A   1      30.883  24.908  25.904  1.00  0.00     0.255 A 
ATOM     18  N   UNL A   1      31.081  23.892  24.983  1.00  0.00    -0.258 N 
ATOM     19  O   UNL A   1      31.107  24.838  27.109  1.00  0.00    -0.269 OA
BRANCH  18  20
ATOM     20  C   UNL A   1      31.530  22.626  25.499  1.00  0.00     0.451 C 
ATOM     21  F   UNL A   1      30.490  21.874  25.931  1.00  0.00    -0.185 F 
ATOM     22  F   UNL A   1      32.188  21.922  24.545  1.00  0.00    -0.185 F 
ENDBRANCH  18  20
ENDBRANCH   9  13
ENDBRANCH   6   7
ENDBRANCH   4   6
ENDBRANCH   1   2
BRANCH   1  23
ATOM     23  C   UNL A   1      31.504  32.016  26.728  1.00  0.00     0.042 C 
BRANCH  23  24
ATOM     24  C   UNL A   1      32.675  32.824  27.275  1.00  0.00     0.118 C 
BRANCH  24  25
ATOM     25  N   UNL A   1      32.335  34.197  27.620  1.00  0.00    -0.352 N 
ATOM     26  C   UNL A   1      32.928  35.027  28.544  1.00  0.00     0.251 C 
ATOM     27  H   UNL A   1      31.578  34.584  27.125  1.00  0.00     0.163 HD
ATOM     28  O   UNL A   1      32.452  36.133  28.779  1.00  0.00    -0.269 OA
BRANCH  26  29
ATOM     29  C   UNL A   1      34.118  34.561  29.287  1.00  0.00     0.039 A 
ATOM     30  C   UNL A   1      33.944  34.030  30.567  1.00  0.00     0.014 A 
ATOM     31  C   UNL A   1      35.388  34.599  28.704  1.00  0.00     0.014 A 
ATOM     32  C   UNL A   1      35.029  33.449  31.227  1.00  0.00     0.010 A 
ATOM     33  C   UNL A   1      36.454  33.962  29.335  1.00  0.00     0.010 A 
ATOM     34  C   UNL A   1      36.281  33.365  30.594  1.00  0.00    -0.014 A 
BRANCH  34  35
ATOM     35  C   UNL A   1      37.408  32.617  31.207  1.00  0.00     0.031 A 
ATOM     36  C   UNL A   1      38.009  33.075  32.505  1.00  0.00     0.074 A 
ATOM     37  C   UNL A   1      37.946  31.571  30.550  1.00  0.00     0.049 A 
ATOM     38  N   UNL A   1      39.051  32.604  33.142  1.00  0.00    -0.248 NA
ATOM     39  C   UNL A   1      37.371  34.227  33.161  1.00  0.00     0.031 C 
ATOM     40  C   UNL A   1      37.482  31.044  29.264  1.00  0.00     0.029 A 
ATOM     41  N   UNL A   1      39.013  30.768  30.870  1.00  0.00    -0.354 N 
ATOM     42  C   UNL A   1      39.203  33.411  34.263  1.00  0.00     0.074 A 
ATOM     43  C   UNL A   1      38.173  34.425  34.197  1.00  0.00     0.031 C 
ATOM     44  C   UNL A   1      38.246  29.996  28.916  1.00  0.00     0.029 A 
ATOM     45  C   UNL A   1      39.278  29.803  29.928  1.00  0.00     0.049 A 
ATOM     46  H   UNL A   1      39.538  30.874  31.696  1.00  0.00     0.167 HD
ATOM     47  C   UNL A   1      40.110  33.308  35.264  1.00  0.00     0.031 A 
ATOM     48  C   UNL A   1      40.252  28.875  29.876  1.00  0.00     0.031 A 
ATOM     49  C   UNL A   1      41.130  32.297  35.338  1.00  0.00     0.049 A 
ATOM     50  C   UNL A   1      41.261  28.799  30.987  1.00  0.00     0.074 A 
ATOM     51  C   UNL A   1      42.054  32.077  36.345  1.00  0.00     0.029 A 
ATOM     52  N   UNL A   1      41.365  31.339  34.364  1.00  0.00    -0.354 N 
ATOM     53  N   UNL A   1      41.351  29.529  32.071  1.00  0.00    -0.248 NA
ATOM     54  C   UNL A   1      42.301  27.767  30.866  1.00  0.00     0.031 C 
ATOM     55  C   UNL A   1      42.880  31.017  35.958  1.00  0.00     0.029 A 
ATOM     56  C   UNL A   1      42.437  30.544  34.733  1.00  0.00     0.049 A 
ATOM     57  H   UNL A   1      40.847  31.239  33.534  1.00  0.00     0.167 HD
ATOM     58  C   UNL A   1      42.442  29.032  32.772  1.00  0.00     0.074 A 
ATOM     59  C   UNL A   1      42.972  27.928  31.998  1.00  0.00     0.031 C 
ATOM     60  C   UNL A   1      42.959  29.454  33.951  1.00  0.00     0.031 A 
BRANCH  47  61
ATOM     61  C   UNL A   1      40.041  34.330  36.363  1.00  0.00    -0.014 A 
ATOM     62  C   UNL A   1      39.290  34.098  37.525  1.00  0.00     0.009 A 
ATOM     63  C   UNL A   1      40.767  35.527  36.250  1.00  0.00     0.009 A 
ATOM     64  C   UNL A   1      39.238  35.058  38.537  1.00  0.00     0.001 A 
ATOM     65  C   UNL A   1      40.734  36.474  37.275  1.00  0.00     0.001 A 
ATOM     66  C   UNL A   1      39.963  36.243  38.414  1.00  0.00     0.000 A 
ENDBRANCH  47  61
BRANCH  48  67
ATOM     67  C   UNL A   1      40.322  27.935  28.729  1.00  0.00    -0.014 A 
ATOM     68  C   UNL A   1      41.016  28.289  27.561  1.00  0.00     0.009 A 
ATOM     69  C   UNL A   1      39.689  26.683  28.789  1.00  0.00     0.009 A 
ATOM     70  C   UNL A   1      41.056  27.418  26.470  1.00  0.00     0.001 A 
ATOM     71  C   UNL A   1      39.753  25.804  27.706  1.00  0.00     0.001 A 
ATOM     72  C   UNL A   1      40.429  26.176  26.544  1.00  0.00     0.000 A 
ENDBRANCH  48  67
BRANCH  60  73
ATOM     73  C   UNL A   1      44.144  28.704  34.488  1.00  0.00    -0.014 A 
ATOM     74  C   UNL A   1      45.455  29.126  34.214  1.00  0.00     0.009 A 
ATOM     75  C   UNL A   1      43.945  27.585  35.311  1.00  0.00     0.009 A 
ATOM     76  C   UNL A   1      46.544  28.422  34.731  1.00  0.00     0.001 A 
ATOM     77  C   UNL A   1      45.036  26.899  35.847  1.00  0.00     0.001 A 
ATOM     78  C   UNL A   1      46.334  27.314  35.550  1.00  0.00     0.000 A 
ENDBRANCH  60  73
ENDBRANCH  34  35
ENDBRANCH  26  29
ENDBRANCH  24  25
ENDBRANCH  23  24
ENDBRANCH   1  23
TORSDOF 13
ENDMDL
MODEL 2
REMARK VINA RESULT:     -12.2      0.446      5.948
REMARK SMILES O=C(Cc1ccccc1-c1ccn(C(F)F)c(=O)c1)NCCCNC(=O)c1ccc(-c2c3nc(c(-c4ccccc4)c4ccc([nH]4)c(-c4ccccc4)c4nc(c(-c5ccccc5)c5ccc2[nH]5)C=C4)C=C3)cc1
REMARK SMILES IDX 21 1 20 2 1 3 2 4 3 6 4 7 5 8 9 9 6 10 8 11 7 12 10 13 11 14
REMARK SMILES IDX 19 15 12 16 17 17 13 18 18 19 14 20 15 21 16 22 22 23 23 24
REMARK SMILES IDX 24 25 25 26 26 28 27 29 28 30 74 31 29 32 73 33 30 34 31 35
REMARK SMILES IDX 32 36 67 37 33 38 72 39 66 40 68 41 34 42 71 43 65 44 64 45
REMARK SMILES IDX 35 47 57 48 42 49 56 50 43 51 46 52 55 53 69 54 44 55 45 56
REMARK SMILES IDX 54 58 70 59 47 60 36 61 37 62 41 63 38 64 40 65 39 66 58 67
REMARK SMILES IDX 59 68 63 69 60 70 62 71 61 72 48 73 49 74 53 75 50 76 52 77
REMARK SMILES IDX 51 78
REMARK H PARENT 20 5 24 27 68 46 46 57
REMARK Flexibility Score: inf
ROOT
ATOM      1  C   UNL A   1      32.141  30.378  26.339  1.00  0.00     0.117 C 
ENDROOT
BRANCH   1   2
ATOM      2  N   UNL A   1      31.818  30.018  24.976  1.00  0.00    -0.356 N 
ATOM      3  O   UNL A   1      33.392  28.352  24.767  1.00  0.00    -0.275 OA
ATOM      4  C   UNL A   1      32.438  28.977  24.315  1.00  0.00     0.224 C 
ATOM      5  H   UNL A   1      31.128  30.534  24.501  1.00  0.00     0.163 HD
BRANCH   4   6
ATOM      6  C   UNL A   1      31.790  28.646  22.981  1.00  0.00     0.136 C 
BRANCH   6   7
ATOM      7  C   UNL A   1      30.273  28.703  23.027  1.00  0.00    -0.031 A 
ATOM      8  C   UNL A   1      29.610  29.840  22.522  1.00  0.00     0.005 A 
ATOM      9  C   UNL A   1      29.491  27.622  23.491  1.00  0.00    -0.014 A 
ATOM     10  C   UNL A   1      28.219  29.921  22.503  1.00  0.00     0.000 A 
ATOM     11  C   UNL A   1      28.089  27.722  23.477  1.00  0.00     0.009 A 
ATOM     12  C   UNL A   1      27.458  28.865  22.986  1.00  0.00     0.001 A 
BRANCH   9  13
ATOM     13  C   UNL A   1      30.102  26.358  23.946  1.00  0.00    -0.011 A 
ATOM     14  C   UNL A   1      30.408  25.256  23.053  1.00  0.00     0.027 A 
ATOM     15  C   UNL A   1      30.302  26.209  25.266  1.00  0.00     0.080 A 
ATOM     16  C   UNL A   1      30.802  24.077  23.548  1.00  0.00     0.095 A 
ATOM     17  C   UNL A   1      30.785  24.918  25.825  1.00  0.00     0.255 A 
ATOM     18  N   UNL A   1      30.968  23.895  24.908  1.00  0.00    -0.258 N 
ATOM     19  O   UNL A   1      30.956  24.835  27.037  1.00  0.00    -0.269 OA
BRANCH  18  20
ATOM     20  C   UNL A   1      31.332  22.607  25.437  1.00  0.00     0.451 C 
ATOM     21  F   UNL A   1      30.287  22.023  26.071  1.00  0.00    -0.185 F 
ATOM     22  F   UNL A   1      31.738  21.775  24.445  1.00  0.00    -0.185 F 
ENDBRANCH  18  20
ENDBRANCH   9  13
ENDBRANCH   6   7
ENDBRANCH   4   6
ENDBRANCH   1   2
BRANCH   1  23
ATOM     23  C   UNL A   1      31.725  31.803  26.679  1.00  0.00     0.042 C 
BRANCH  23  24
ATOM     24  C   UNL A   1      32.803  32.650  27.346  1.00  0.00     0.118 C 
BRANCH  24  25
ATOM     25  N   UNL A   1      32.395  34.022  27.612  1.00  0.00    -0.352 N 
ATOM     26  C   UNL A   1      32.943  34.931  28.489  1.00  0.00     0.251 C 
ATOM     27  H   UNL A   1      31.622  34.344  27.095  1.00  0.00     0.163 HD
ATOM     28  O   UNL A   1      32.413  36.023  28.661  1.00  0.00    -0.269 OA
BRANCH  26  29
ATOM     29  C   UNL A   1      34.151  34.565  29.259  1.00  0.00     0.039 A 
ATOM     30  C   UNL A   1      33.997  34.100  30.567  1.00  0.00     0.014 A 
ATOM     31  C   UNL A   1      35.419  34.631  28.677  1.00  0.00     0.014 A 
ATOM     32  C   UNL A   1      35.106  33.611  31.260  1.00  0.00     0.010 A 
ATOM     33  C   UNL A   1      36.512  34.083  29.344  1.00  0.00     0.010 A 
ATOM     34  C   UNL A   1      36.363  33.551  30.635  1.00  0.00    -0.014 A 
BRANCH  34  35
ATOM     35  C   UNL A   1      37.522  32.895  31.292  1.00  0.00     0.031 A 
ATOM     36  C   UNL A   1      38.176  31.698  30.663  1.00  0.00     0.074 A 
ATOM     37  C   UNL A   1      37.934  33.328  32.499  1.00  0.00     0.049 A 
ATOM     38  N   UNL A   1      39.137  30.942  31.132  1.00  0.00    -0.248 NA
ATOM     39  C   UNL A   1      37.669  31.281  29.347  1.00  0.00     0.031 C 
ATOM     40  C   UNL A   1      37.363  34.457  33.238  1.00  0.00     0.029 A 
ATOM     41  N   UNL A   1      38.925  32.859  33.327  1.00  0.00    -0.354 N 
ATOM     42  C   UNL A   1      39.337  29.953  30.178  1.00  0.00     0.074 A 
ATOM     43  C   UNL A   1      38.372  30.180  29.124  1.00  0.00     0.031 C 
ATOM     44  C   UNL A   1      38.025  34.605  34.397  1.00  0.00     0.029 A 
ATOM     45  C   UNL A   1      39.035  33.558  34.504  1.00  0.00     0.049 A 
ATOM     46  H   UNL A   1      39.501  32.095  33.097  1.00  0.00     0.167 HD
ATOM     47  C   UNL A   1      40.252  28.953  30.173  1.00  0.00     0.031 A 
ATOM     48  C   UNL A   1      39.850  33.371  35.560  1.00  0.00     0.031 A 
ATOM     49  C   UNL A   1      41.219  28.730  31.214  1.00  0.00     0.049 A 
ATOM     50  C   UNL A   1      40.838  32.240  35.540  1.00  0.00     0.074 A 
ATOM     51  C   UNL A   1      42.225  27.780  31.266  1.00  0.00     0.029 A 
ATOM     52  N   UNL A   1      41.297  29.460  32.390  1.00  0.00    -0.354 N 
ATOM     53  N   UNL A   1      41.058  31.352  34.602  1.00  0.00    -0.248 NA
ATOM     54  C   UNL A   1      41.693  32.088  36.727  1.00  0.00     0.031 C 
ATOM     55  C   UNL A   1      42.882  27.904  32.494  1.00  0.00     0.029 A 
ATOM     56  C   UNL A   1      42.317  28.964  33.185  1.00  0.00     0.049 A 
ATOM     57  H   UNL A   1      40.715  30.218  32.623  1.00  0.00     0.167 HD
ATOM     58  C   UNL A   1      42.088  30.550  35.073  1.00  0.00     0.074 A 
ATOM     59  C   UNL A   1      42.461  31.067  36.374  1.00  0.00     0.031 C 
ATOM     60  C   UNL A   1      42.672  29.482  34.480  1.00  0.00     0.031 A 
BRANCH  47  61
ATOM     61  C   UNL A   1      40.242  28.017  28.998  1.00  0.00    -0.014 A 
ATOM     62  C   UNL A   1      40.953  28.314  27.825  1.00  0.00     0.009 A 
ATOM     63  C   UNL A   1      39.541  26.803  29.079  1.00  0.00     0.009 A 
ATOM     64  C   UNL A   1      40.934  27.432  26.744  1.00  0.00     0.001 A 
ATOM     65  C   UNL A   1      39.545  25.911  28.006  1.00  0.00     0.001 A 
ATOM     66  C   UNL A   1      40.234  26.230  26.836  1.00  0.00     0.000 A 
ENDBRANCH  47  61
BRANCH  48  67
ATOM     67  C   UNL A   1      39.769  34.281  36.732  1.00  0.00    -0.014 A 
ATOM     68  C   UNL A   1      40.464  35.500  36.734  1.00  0.00     0.009 A 
ATOM     69  C   UNL A   1      39.004  33.933  37.856  1.00  0.00     0.009 A 
ATOM     70  C   UNL A   1      40.413  36.341  37.848  1.00  0.00     0.001 A 
ATOM     71  C   UNL A   1      38.935  34.789  38.958  1.00  0.00     0.001 A 
ATOM     72  C   UNL A   1      39.647  35.988  38.956  1.00  0.00     0.000 A 
ENDBRANCH  48  67
BRANCH  60  73
ATOM     73  C   UNL A   1      43.793  28.813  35.224  1.00  0.00    -0.014 A 
ATOM     74  C   UNL A   1      45.122  29.234  35.067  1.00  0.00     0.009 A 
ATOM     75  C   UNL A   1      43.509  27.775  36.125  1.00  0.00     0.009 A 
ATOM     76  C   UNL A   1      46.149  28.607  35.775  1.00  0.00     0.001 A 
ATOM     77  C   UNL A   1      44.534  27.167  36.851  1.00  0.00     0.001 A 
ATOM     78  C   UNL A   1      45.854  27.579  36.669  1.00  0.00     0.000 A 
ENDBRANCH  60  73
ENDBRANCH  34  35
ENDBRANCH  26  29
ENDBRANCH  24  25
ENDBRANCH  23  24
ENDBRANCH   1  23
TORSDOF 13
ENDMDL
MODEL 3
REMARK VINA RESULT:     -11.9      5.598     10.105
REMARK SMILES O=C(Cc1ccccc1-c1ccn(C(F)F)c(=O)c1)NCCCNC(=O)c1ccc(-c2c3nc(c(-c4ccccc4)c4ccc([nH]4)c(-c4ccccc4)c4nc(c(-c5ccccc5)c5ccc2[nH]5)C=C4)C=C3)cc1
REMARK SMILES IDX 21 1 20 2 1 3 2 4 3 6 4 7 5 8 9 9 6 10 8 11 7 12 10 13 11 14
REMARK SMILES IDX 19 15 12 16 17 17 13 18 18 19 14 20 15 21 16 22 22 23 23 24
REMARK SMILES IDX 24 25 25 26 26 28 27 29 28 30 74 31 29 32 73 33 30 34 31 35
REMARK SMILES IDX 32 36 67 37 33 38 72 39 66 40 68 41 34 42 71 43 65 44 64 45
REMARK SMILES IDX 35 47 57 48 42 49 56 50 43 51 46 52 55 53 69 54 44 55 45 56
REMARK SMILES IDX 54 58 70 59 47 60 36 61 37 62 41 63 38 64 40 65 39 66 58 67
REMARK SMILES IDX 59 68 63 69 60 70 62 71 61 72 48 73 49 74 53 75 50 76 52 77
REMARK SMILES IDX 51 78
REMARK H PARENT 20 5 24 27 68 46 46 57
REMARK Flexibility Score: inf
ROOT
ATOM      1  C   UNL A   1      37.038  21.357  24.975  1.00  0.00     0.117 C 
ENDROOT
BRANCH   1   2
ATOM      2  N   UNL A   1      35.687  20.979  25.328  1.00  0.00    -0.356 N 
ATOM      3  O   UNL A   1      35.219  22.840  26.598  1.00  0.00    -0.275 OA
ATOM      4  C   UNL A   1      34.856  21.794  26.070  1.00  0.00     0.224 C 
ATOM      5  H   UNL A   1      35.346  20.106  25.027  1.00  0.00     0.163 HD
BRANCH   4   6
ATOM      6  C   UNL A   1      33.425  21.289  26.132  1.00  0.00     0.136 C 
BRANCH   6   7
ATOM      7  C   UNL A   1      33.074  20.354  24.988  1.00  0.00    -0.031 A 
ATOM      8  C   UNL A   1      33.196  18.962  25.174  1.00  0.00     0.005 A 
ATOM      9  C   UNL A   1      32.556  20.823  23.761  1.00  0.00    -0.014 A 
ATOM     10  C   UNL A   1      32.846  18.061  24.169  1.00  0.00     0.000 A 
ATOM     11  C   UNL A   1      32.219  19.904  22.752  1.00  0.00     0.009 A 
ATOM     12  C   UNL A   1      32.363  18.532  22.955  1.00  0.00     0.001 A 
BRANCH   9  13
ATOM     13  C   UNL A   1      32.306  22.257  23.519  1.00  0.00    -0.011 A 
ATOM     14  C   UNL A   1      31.040  22.904  23.809  1.00  0.00     0.027 A 
ATOM     15  C   UNL A   1      33.284  22.964  22.927  1.00  0.00     0.080 A 
ATOM     16  C   UNL A   1      30.819  24.162  23.412  1.00  0.00     0.095 A 
ATOM     17  C   UNL A   1      33.067  24.379  22.524  1.00  0.00     0.255 A 
ATOM     18  N   UNL A   1      31.800  24.887  22.761  1.00  0.00    -0.258 N 
ATOM     19  O   UNL A   1      33.993  24.982  21.991  1.00  0.00    -0.269 OA
BRANCH  18  20
ATOM     20  C   UNL A   1      31.534  26.218  22.283  1.00  0.00     0.451 C 
ATOM     21  F   UNL A   1      31.389  26.236  20.936  1.00  0.00    -0.185 F 
ATOM     22  F   UNL A   1      30.395  26.709  22.832  1.00  0.00    -0.185 F 
ENDBRANCH  18  20
ENDBRANCH   9  13
ENDBRANCH   6   7
ENDBRANCH   4   6
ENDBRANCH   1   2
BRANCH   1  23
ATOM     23  C   UNL A   1      37.995  20.173  24.984  1.00  0.00     0.042 C 
BRANCH  23  24
ATOM     24  C   UNL A   1      39.253  20.365  25.824  1.00  0.00     0.118 C 
BRANCH  24  25
ATOM     25  N   UNL A   1      40.150  19.218  25.814  1.00  0.00    -0.352 N 
ATOM     26  C   UNL A   1      41.501  19.176  26.074  1.00  0.00     0.251 C 
ATOM     27  H   UNL A   1      39.733  18.355  25.591  1.00  0.00     0.163 HD
ATOM     28  O   UNL A   1      42.128  18.132  25.928  1.00  0.00    -0.269 OA
BRANCH  26  29
ATOM     29  C   UNL A   1      42.203  20.410  26.488  1.00  0.00     0.039 A 
ATOM     30  C   UNL A   1      42.892  21.146  25.521  1.00  0.00     0.014 A 
ATOM     31  C   UNL A   1      42.138  20.863  27.808  1.00  0.00     0.014 A 
ATOM     32  C   UNL A   1      43.437  22.387  25.857  1.00  0.00     0.010 A 
ATOM     33  C   UNL A   1      42.624  22.130  28.125  1.00  0.00     0.010 A 
ATOM     34  C   UNL A   1      43.262  22.911  27.149  1.00  0.00    -0.014 A 
BRANCH  34  35
ATOM     35  C   UNL A   1      43.694  24.291  27.488  1.00  0.00     0.031 A 
ATOM     36  C   UNL A   1      42.685  25.329  27.885  1.00  0.00     0.074 A 
ATOM     37  C   UNL A   1      44.991  24.631  27.357  1.00  0.00     0.049 A 
ATOM     38  N   UNL A   1      42.864  26.603  28.127  1.00  0.00    -0.248 NA
ATOM     39  C   UNL A   1      41.288  24.885  28.002  1.00  0.00     0.031 C 
ATOM     40  C   UNL A   1      46.070  23.729  26.945  1.00  0.00     0.029 A 
ATOM     41  N   UNL A   1      45.623  25.836  27.546  1.00  0.00    -0.354 N 
ATOM     42  C   UNL A   1      41.604  27.115  28.408  1.00  0.00     0.074 A 
ATOM     43  C   UNL A   1      40.663  26.023  28.267  1.00  0.00     0.031 C 
ATOM     44  C   UNL A   1      47.230  24.407  26.931  1.00  0.00     0.029 A 
ATOM     45  C   UNL A   1      46.972  25.797  27.291  1.00  0.00     0.049 A 
ATOM     46  H   UNL A   1      45.152  26.651  27.837  1.00  0.00     0.167 HD
ATOM     47  C   UNL A   1      41.261  28.375  28.766  1.00  0.00     0.031 A 
ATOM     48  C   UNL A   1      47.899  26.772  27.328  1.00  0.00     0.031 A 
ATOM     49  C   UNL A   1      42.193  29.461  28.916  1.00  0.00     0.049 A 
ATOM     50  C   UNL A   1      47.488  28.168  27.702  1.00  0.00     0.074 A 
ATOM     51  C   UNL A   1      41.945  30.757  29.335  1.00  0.00     0.029 A 
ATOM     52  N   UNL A   1      43.550  29.379  28.648  1.00  0.00    -0.354 N 
ATOM     53  N   UNL A   1      46.302  28.620  28.028  1.00  0.00    -0.248 NA
ATOM     54  C   UNL A   1      48.547  29.188  27.718  1.00  0.00     0.031 C 
ATOM     55  C   UNL A   1      43.145  31.474  29.274  1.00  0.00     0.029 A 
ATOM     56  C   UNL A   1      44.148  30.609  28.866  1.00  0.00     0.049 A 
ATOM     57  H   UNL A   1      44.019  28.568  28.349  1.00  0.00     0.167 HD
ATOM     58  C   UNL A   1      46.474  29.970  28.307  1.00  0.00     0.074 A 
ATOM     59  C   UNL A   1      47.883  30.259  28.128  1.00  0.00     0.031 C 
ATOM     60  C   UNL A   1      45.548  30.886  28.677  1.00  0.00     0.031 A 
BRANCH  47  61
ATOM     61  C   UNL A   1      39.804  28.649  29.013  1.00  0.00    -0.014 A 
ATOM     62  C   UNL A   1      39.229  28.438  30.275  1.00  0.00     0.009 A 
ATOM     63  C   UNL A   1      39.005  29.160  27.977  1.00  0.00     0.009 A 
ATOM     64  C   UNL A   1      37.874  28.699  30.487  1.00  0.00     0.001 A 
ATOM     65  C   UNL A   1      37.657  29.445  28.199  1.00  0.00     0.001 A 
ATOM     66  C   UNL A   1      37.090  29.206  29.451  1.00  0.00     0.000 A 
ENDBRANCH  47  61
BRANCH  48  67
ATOM     67  C   UNL A   1      49.315  26.466  27.001  1.00  0.00    -0.014 A 
ATOM     68  C   UNL A   1      50.205  26.062  28.009  1.00  0.00     0.009 A 
ATOM     69  C   UNL A   1      49.788  26.582  25.685  1.00  0.00     0.009 A 
ATOM     70  C   UNL A   1      51.544  25.804  27.708  1.00  0.00     0.001 A 
ATOM     71  C   UNL A   1      51.121  26.298  25.383  1.00  0.00     0.001 A 
ATOM     72  C   UNL A   1      52.000  25.917  26.397  1.00  0.00     0.000 A 
ENDBRANCH  48  67
BRANCH  60  73
ATOM     73  C   UNL A   1      46.033  32.284  28.937  1.00  0.00    -0.014 A 
ATOM     74  C   UNL A   1      46.498  32.667  30.205  1.00  0.00     0.009 A 
ATOM     75  C   UNL A   1      46.062  33.216  27.889  1.00  0.00     0.009 A 
ATOM     76  C   UNL A   1      46.954  33.967  30.424  1.00  0.00     0.001 A 
ATOM     77  C   UNL A   1      46.543  34.508  28.105  1.00  0.00     0.001 A 
ATOM     78  C   UNL A   1      46.981  34.884  29.375  1.00  0.00     0.000 A 
ENDBRANCH  60  73
ENDBRANCH  34  35
ENDBRANCH  26  29
ENDBRANCH  24  25
ENDBRANCH  23  24
ENDBRANCH   1  23
TORSDOF 13
ENDMDL
