MODEL 1
REMARK VINA RESULT:     -10.9      0.000      0.000
REMARK SMILES O=C(CC1(NC(=O)c2ccccc2[N+](=O)[O-])CCC1)NCCCNC(=O)c1ccc(-c2c3nc(c(-c4ccccc4)c4ccc([nH]4)c(-c4ccccc4)c4nc(c(-c5ccccc5)c5ccc2[nH]5)C=C4)C=C3)cc1
REMARK SMILES IDX 21 1 20 2 1 3 2 4 3 6 4 7 17 8 19 9 18 10 5 11 6 12 7 14
REMARK SMILES IDX 8 15 9 16 13 17 10 18 12 19 11 20 14 21 15 22 16 23 22 24
REMARK SMILES IDX 23 25 24 26 25 27 26 29 27 30 28 31 74 32 29 33 73 34 30 35
REMARK SMILES IDX 31 36 32 37 67 38 33 39 72 40 66 41 68 42 34 43 71 44 65 45
REMARK SMILES IDX 64 46 35 48 57 49 42 50 56 51 43 52 46 53 55 54 69 55 44 56
REMARK SMILES IDX 45 57 54 59 70 60 47 61 36 62 37 63 41 64 38 65 40 66 39 67
REMARK SMILES IDX 58 68 59 69 63 70 60 71 62 72 61 73 48 74 49 75 53 76 50 77
REMARK SMILES IDX 52 78 51 79
REMARK H PARENT 20 5 5 13 24 28 68 47 46 58
REMARK Flexibility Score: inf
ROOT
ATOM      1  C   UNL A   1      37.393  20.900  24.663  1.00  0.00     0.117 C 
ENDROOT
BRANCH   1   2
ATOM      2  N   UNL A   1      36.082  20.739  25.261  1.00  0.00    -0.356 N 
ATOM      3  O   UNL A   1      35.989  22.865  26.110  1.00  0.00    -0.275 OA
ATOM      4  C   UNL A   1      35.479  21.761  25.948  1.00  0.00     0.222 C 
ATOM      5  H   UNL A   1      35.615  19.876  25.170  1.00  0.00     0.163 HD
BRANCH   4   6
ATOM      6  C   UNL A   1      34.173  21.395  26.603  1.00  0.00     0.128 C 
BRANCH   6   7
ATOM      7  C   UNL A   1      32.893  21.485  25.770  1.00  0.00     0.049 C 
ATOM      8  C   UNL A   1      33.137  21.868  24.271  1.00  0.00     0.029 C 
ATOM      9  C   UNL A   1      32.396  20.097  25.223  1.00  0.00     0.029 C 
ATOM     10  C   UNL A   1      32.194  20.733  23.844  1.00  0.00     0.005 C 
BRANCH   7  11
ATOM     11  N   UNL A   1      31.742  22.264  26.339  1.00  0.00    -0.346 N 
ATOM     12  C   UNL A   1      31.253  23.545  26.232  1.00  0.00     0.258 C 
ATOM     13  H   UNL A   1      31.196  21.715  26.946  1.00  0.00     0.164 HD
ATOM     14  O   UNL A   1      30.208  23.840  26.807  1.00  0.00    -0.269 OA
BRANCH  12  15
ATOM     15  C   UNL A   1      32.006  24.623  25.590  1.00  0.00     0.117 A 
ATOM     16  C   UNL A   1      33.191  25.009  26.236  1.00  0.00     0.021 A 
ATOM     17  C   UNL A   1      31.655  25.232  24.385  1.00  0.00     0.282 A 
ATOM     18  C   UNL A   1      34.054  25.922  25.629  1.00  0.00     0.001 A 
ATOM     19  C   UNL A   1      32.528  26.136  23.761  1.00  0.00     0.086 A 
ATOM     20  C   UNL A   1      33.736  26.465  24.384  1.00  0.00     0.007 A 
BRANCH  17  21
ATOM     21  N   UNL A   1      30.416  24.891  23.717  1.00  0.00     0.063 N 
ATOM     22  O   UNL A   1      30.406  23.838  23.064  1.00  0.00    -0.258 OA
ATOM     23  O   UNL A   1      29.463  25.668  23.838  1.00  0.00    -0.258 OA
ENDBRANCH  17  21
ENDBRANCH  12  15
ENDBRANCH   7  11
ENDBRANCH   6   7
ENDBRANCH   4   6
ENDBRANCH   1   2
BRANCH   1  24
ATOM     24  C   UNL A   1      38.307  19.725  24.980  1.00  0.00     0.042 C 
BRANCH  24  25
ATOM     25  C   UNL A   1      39.340  20.019  26.062  1.00  0.00     0.118 C 
BRANCH  25  26
ATOM     26  N   UNL A   1      40.543  19.212  25.926  1.00  0.00    -0.352 N 
ATOM     27  C   UNL A   1      41.866  19.567  26.013  1.00  0.00     0.251 C 
ATOM     28  H   UNL A   1      40.382  18.259  25.741  1.00  0.00     0.163 HD
ATOM     29  O   UNL A   1      42.733  18.770  25.665  1.00  0.00    -0.269 OA
BRANCH  27  30
ATOM     30  C   UNL A   1      42.254  20.907  26.501  1.00  0.00     0.039 A 
ATOM     31  C   UNL A   1      42.640  21.876  25.571  1.00  0.00     0.014 A 
ATOM     32  C   UNL A   1      42.265  21.202  27.866  1.00  0.00     0.014 A 
ATOM     33  C   UNL A   1      42.968  23.162  26.005  1.00  0.00     0.010 A 
ATOM     34  C   UNL A   1      42.518  22.504  28.291  1.00  0.00     0.010 A 
ATOM     35  C   UNL A   1      42.871  23.497  27.365  1.00  0.00    -0.014 A 
BRANCH  35  36
ATOM     36  C   UNL A   1      43.126  24.879  27.843  1.00  0.00     0.031 A 
ATOM     37  C   UNL A   1      44.521  25.313  28.198  1.00  0.00     0.074 A 
ATOM     38  C   UNL A   1      42.091  25.720  28.031  1.00  0.00     0.049 A 
ATOM     39  N   UNL A   1      44.925  26.443  28.722  1.00  0.00    -0.248 NA
ATOM     40  C   UNL A   1      45.600  24.341  27.958  1.00  0.00     0.031 C 
ATOM     41  C   UNL A   1      40.686  25.414  27.755  1.00  0.00     0.029 A 
ATOM     42  N   UNL A   1      42.062  27.006  28.511  1.00  0.00    -0.354 N 
ATOM     43  C   UNL A   1      46.297  26.309  28.893  1.00  0.00     0.074 A 
ATOM     44  C   UNL A   1      46.650  24.975  28.458  1.00  0.00     0.031 C 
ATOM     45  C   UNL A   1      39.936  26.487  28.051  1.00  0.00     0.029 A 
ATOM     46  C   UNL A   1      40.798  27.541  28.576  1.00  0.00     0.049 A 
ATOM     47  H   UNL A   1      42.870  27.498  28.783  1.00  0.00     0.167 HD
ATOM     48  C   UNL A   1      47.187  27.219  29.355  1.00  0.00     0.031 A 
ATOM     49  C   UNL A   1      40.377  28.739  29.022  1.00  0.00     0.031 A 
ATOM     50  C   UNL A   1      46.842  28.552  29.773  1.00  0.00     0.049 A 
ATOM     51  C   UNL A   1      41.382  29.726  29.547  1.00  0.00     0.074 A 
ATOM     52  C   UNL A   1      47.682  29.565  30.202  1.00  0.00     0.029 A 
ATOM     53  N   UNL A   1      45.552  29.055  29.815  1.00  0.00    -0.354 N 
ATOM     54  N   UNL A   1      42.683  29.604  29.648  1.00  0.00    -0.248 NA
ATOM     55  C   UNL A   1      40.859  31.018  30.011  1.00  0.00     0.031 C 
ATOM     56  C   UNL A   1      46.894  30.668  30.549  1.00  0.00     0.029 A 
ATOM     57  C   UNL A   1      45.569  30.357  30.286  1.00  0.00     0.049 A 
ATOM     58  H   UNL A   1      44.742  28.561  29.550  1.00  0.00     0.167 HD
ATOM     59  C   UNL A   1      43.137  30.811  30.161  1.00  0.00     0.074 A 
ATOM     60  C   UNL A   1      41.974  31.656  30.340  1.00  0.00     0.031 C 
ATOM     61  C   UNL A   1      44.404  31.186  30.456  1.00  0.00     0.031 A 
BRANCH  48  62
ATOM     62  C   UNL A   1      48.628  26.797  29.441  1.00  0.00    -0.014 A 
ATOM     63  C   UNL A   1      49.510  26.997  28.369  1.00  0.00     0.009 A 
ATOM     64  C   UNL A   1      49.117  26.224  30.626  1.00  0.00     0.009 A 
ATOM     65  C   UNL A   1      50.845  26.598  28.466  1.00  0.00     0.001 A 
ATOM     66  C   UNL A   1      50.458  25.853  30.731  1.00  0.00     0.001 A 
ATOM     67  C   UNL A   1      51.319  26.031  29.649  1.00  0.00     0.000 A 
ENDBRANCH  48  62
BRANCH  49  68
ATOM     68  C   UNL A   1      38.932  29.080  28.983  1.00  0.00    -0.014 A 
ATOM     69  C   UNL A   1      38.355  29.596  27.814  1.00  0.00     0.009 A 
ATOM     70  C   UNL A   1      38.123  28.894  30.115  1.00  0.00     0.009 A 
ATOM     71  C   UNL A   1      37.002  29.943  27.785  1.00  0.00     0.001 A 
ATOM     72  C   UNL A   1      36.764  29.215  30.075  1.00  0.00     0.001 A 
ATOM     73  C   UNL A   1      36.208  29.748  28.913  1.00  0.00     0.000 A 
ENDBRANCH  49  68
BRANCH  61  74
ATOM     74  C   UNL A   1      44.607  32.583  30.970  1.00  0.00    -0.014 A 
ATOM     75  C   UNL A   1      44.602  32.862  32.345  1.00  0.00     0.009 A 
ATOM     76  C   UNL A   1      44.853  33.626  30.063  1.00  0.00     0.009 A 
ATOM     77  C   UNL A   1      44.813  34.165  32.801  1.00  0.00     0.001 A 
ATOM     78  C   UNL A   1      45.090  34.922  30.524  1.00  0.00     0.001 A 
ATOM     79  C   UNL A   1      45.062  35.192  31.891  1.00  0.00     0.000 A 
ENDBRANCH  61  74
ENDBRANCH  35  36
ENDBRANCH  27  30
ENDBRANCH  25  26
ENDBRANCH  24  25
ENDBRANCH   1  24
TORSDOF 14
ENDMDL
MODEL 2
REMARK VINA RESULT:     -10.9      1.059      6.132
REMARK SMILES O=C(CC1(NC(=O)c2ccccc2[N+](=O)[O-])CCC1)NCCCNC(=O)c1ccc(-c2c3nc(c(-c4ccccc4)c4ccc([nH]4)c(-c4ccccc4)c4nc(c(-c5ccccc5)c5ccc2[nH]5)C=C4)C=C3)cc1
REMARK SMILES IDX 21 1 20 2 1 3 2 4 3 6 4 7 17 8 19 9 18 10 5 11 6 12 7 14
REMARK SMILES IDX 8 15 9 16 13 17 10 18 12 19 11 20 14 21 15 22 16 23 22 24
REMARK SMILES IDX 23 25 24 26 25 27 26 29 27 30 28 31 74 32 29 33 73 34 30 35
REMARK SMILES IDX 31 36 32 37 67 38 33 39 72 40 66 41 68 42 34 43 71 44 65 45
REMARK SMILES IDX 64 46 35 48 57 49 42 50 56 51 43 52 46 53 55 54 69 55 44 56
REMARK SMILES IDX 45 57 54 59 70 60 47 61 36 62 37 63 41 64 38 65 40 66 39 67
REMARK SMILES IDX 58 68 59 69 63 70 60 71 62 72 61 73 48 74 49 75 53 76 50 77
REMARK SMILES IDX 52 78 51 79
REMARK H PARENT 20 5 5 13 24 28 68 47 46 58
REMARK Flexibility Score: inf
ROOT
ATOM      1  C   UNL A   1      36.979  21.527  24.363  1.00  0.00     0.117 C 
ENDROOT
BRANCH   1   2
ATOM      2  N   UNL A   1      35.757  21.792  25.098  1.00  0.00    -0.356 N 
ATOM      3  O   UNL A   1      36.280  23.972  25.571  1.00  0.00    -0.275 OA
ATOM      4  C   UNL A   1      35.508  23.022  25.651  1.00  0.00     0.222 C 
ATOM      5  H   UNL A   1      35.093  21.072  25.202  1.00  0.00     0.163 HD
BRANCH   4   6
ATOM      6  C   UNL A   1      34.251  23.097  26.477  1.00  0.00     0.128 C 
BRANCH   6   7
ATOM      7  C   UNL A   1      32.914  23.255  25.751  1.00  0.00     0.049 C 
ATOM      8  C   UNL A   1      32.113  21.917  25.596  1.00  0.00     0.029 C 
ATOM      9  C   UNL A   1      31.740  23.725  26.684  1.00  0.00     0.029 C 
ATOM     10  C   UNL A   1      30.845  22.639  26.077  1.00  0.00     0.005 C 
BRANCH   7  11
ATOM     11  N   UNL A   1      32.903  24.034  24.467  1.00  0.00    -0.346 N 
ATOM     12  C   UNL A   1      32.944  25.359  24.102  1.00  0.00     0.258 C 
ATOM     13  H   UNL A   1      32.855  23.441  23.683  1.00  0.00     0.164 HD
ATOM     14  O   UNL A   1      32.989  25.655  22.910  1.00  0.00    -0.269 OA
BRANCH  12  15
ATOM     15  C   UNL A   1      32.775  26.446  25.068  1.00  0.00     0.117 A 
ATOM     16  C   UNL A   1      33.935  26.839  25.754  1.00  0.00     0.021 A 
ATOM     17  C   UNL A   1      31.580  27.127  25.299  1.00  0.00     0.282 A 
ATOM     18  C   UNL A   1      33.912  27.960  26.584  1.00  0.00     0.001 A 
ATOM     19  C   UNL A   1      31.555  28.267  26.118  1.00  0.00     0.086 A 
ATOM     20  C   UNL A   1      32.732  28.687  26.746  1.00  0.00     0.007 A 
BRANCH  17  21
ATOM     21  N   UNL A   1      30.356  26.718  24.643  1.00  0.00     0.063 N 
ATOM     22  O   UNL A   1      30.141  27.190  23.518  1.00  0.00    -0.258 OA
ATOM     23  O   UNL A   1      29.613  25.936  25.246  1.00  0.00    -0.258 OA
ENDBRANCH  17  21
ENDBRANCH  12  15
ENDBRANCH   7  11
ENDBRANCH   6   7
ENDBRANCH   4   6
ENDBRANCH   1   2
BRANCH   1  24
ATOM     24  C   UNL A   1      37.663  20.254  24.842  1.00  0.00     0.042 C 
BRANCH  24  25
ATOM     25  C   UNL A   1      38.715  20.486  25.921  1.00  0.00     0.118 C 
BRANCH  25  26
ATOM     26  N   UNL A   1      39.831  19.557  25.827  1.00  0.00    -0.352 N 
ATOM     27  C   UNL A   1      41.175  19.760  26.013  1.00  0.00     0.251 C 
ATOM     28  H   UNL A   1      39.581  18.634  25.592  1.00  0.00     0.163 HD
ATOM     29  O   UNL A   1      41.973  18.886  25.688  1.00  0.00    -0.269 OA
BRANCH  27  30
ATOM     30  C   UNL A   1      41.671  21.031  26.581  1.00  0.00     0.039 A 
ATOM     31  C   UNL A   1      42.106  22.034  25.710  1.00  0.00     0.014 A 
ATOM     32  C   UNL A   1      41.734  21.228  27.963  1.00  0.00     0.014 A 
ATOM     33  C   UNL A   1      42.537  23.260  26.222  1.00  0.00     0.010 A 
ATOM     34  C   UNL A   1      42.091  22.475  28.469  1.00  0.00     0.010 A 
ATOM     35  C   UNL A   1      42.495  23.503  27.604  1.00  0.00    -0.014 A 
BRANCH  35  36
ATOM     36  C   UNL A   1      42.861  24.826  28.169  1.00  0.00     0.031 A 
ATOM     37  C   UNL A   1      41.806  25.873  28.396  1.00  0.00     0.074 A 
ATOM     38  C   UNL A   1      44.156  25.114  28.405  1.00  0.00     0.049 A 
ATOM     39  N   UNL A   1      41.946  27.114  28.787  1.00  0.00    -0.248 NA
ATOM     40  C   UNL A   1      40.414  25.481  28.122  1.00  0.00     0.031 C 
ATOM     41  C   UNL A   1      45.282  24.200  28.199  1.00  0.00     0.029 A 
ATOM     42  N   UNL A   1      44.745  26.267  28.862  1.00  0.00    -0.354 N 
ATOM     43  C   UNL A   1      40.666  27.655  28.786  1.00  0.00     0.074 A 
ATOM     44  C   UNL A   1      39.770  26.622  28.314  1.00  0.00     0.031 C 
ATOM     45  C   UNL A   1      46.421  24.820  28.547  1.00  0.00     0.029 A 
ATOM     46  C   UNL A   1      46.113  26.185  28.959  1.00  0.00     0.049 A 
ATOM     47  H   UNL A   1      44.235  27.076  29.098  1.00  0.00     0.167 HD
ATOM     48  C   UNL A   1      40.269  28.895  29.158  1.00  0.00     0.031 A 
ATOM     49  C   UNL A   1      47.021  27.109  29.325  1.00  0.00     0.031 A 
ATOM     50  C   UNL A   1      41.156  29.920  29.643  1.00  0.00     0.049 A 
ATOM     51  C   UNL A   1      46.557  28.484  29.717  1.00  0.00     0.074 A 
ATOM     52  C   UNL A   1      40.840  31.188  30.098  1.00  0.00     0.029 A 
ATOM     53  N   UNL A   1      42.533  29.792  29.733  1.00  0.00    -0.354 N 
ATOM     54  N   UNL A   1      45.338  28.961  29.765  1.00  0.00    -0.248 NA
ATOM     55  C   UNL A   1      47.597  29.444  30.113  1.00  0.00     0.031 C 
ATOM     56  C   UNL A   1      42.032  31.846  30.421  1.00  0.00     0.029 A 
ATOM     57  C   UNL A   1      43.084  30.967  30.214  1.00  0.00     0.049 A 
ATOM     58  H   UNL A   1      43.044  28.986  29.490  1.00  0.00     0.167 HD
ATOM     59  C   UNL A   1      45.460  30.267  30.221  1.00  0.00     0.074 A 
ATOM     60  C   UNL A   1      46.871  30.502  30.447  1.00  0.00     0.031 C 
ATOM     61  C   UNL A   1      44.490  31.187  30.436  1.00  0.00     0.031 A 
BRANCH  48  62
ATOM     62  C   UNL A   1      38.805  29.216  29.047  1.00  0.00    -0.014 A 
ATOM     63  C   UNL A   1      37.946  29.089  30.149  1.00  0.00     0.009 A 
ATOM     64  C   UNL A   1      38.284  29.686  27.830  1.00  0.00     0.009 A 
ATOM     65  C   UNL A   1      36.588  29.392  30.027  1.00  0.00     0.001 A 
ATOM     66  C   UNL A   1      36.932  30.014  27.719  1.00  0.00     0.001 A 
ATOM     67  C   UNL A   1      36.083  29.858  28.814  1.00  0.00     0.000 A 
ENDBRANCH  48  62
BRANCH  49  68
ATOM     68  C   UNL A   1      48.465  26.763  29.348  1.00  0.00    -0.014 A 
ATOM     69  C   UNL A   1      49.044  26.208  30.498  1.00  0.00     0.009 A 
ATOM     70  C   UNL A   1      49.272  26.989  28.222  1.00  0.00     0.009 A 
ATOM     71  C   UNL A   1      50.408  25.908  30.531  1.00  0.00     0.001 A 
ATOM     72  C   UNL A   1      50.630  26.662  28.248  1.00  0.00     0.001 A 
ATOM     73  C   UNL A   1      51.198  26.131  29.404  1.00  0.00     0.000 A 
ENDBRANCH  49  68
BRANCH  61  74
ATOM     74  C   UNL A   1      44.914  32.523  30.975  1.00  0.00    -0.014 A 
ATOM     75  C   UNL A   1      45.026  32.751  32.354  1.00  0.00     0.009 A 
ATOM     76  C   UNL A   1      45.251  33.554  30.083  1.00  0.00     0.009 A 
ATOM     77  C   UNL A   1      45.442  33.996  32.831  1.00  0.00     0.001 A 
ATOM     78  C   UNL A   1      45.692  34.788  30.563  1.00  0.00     0.001 A 
ATOM     79  C   UNL A   1      45.780  35.011  31.937  1.00  0.00     0.000 A 
ENDBRANCH  61  74
ENDBRANCH  35  36
ENDBRANCH  27  30
ENDBRANCH  25  26
ENDBRANCH  24  25
ENDBRANCH   1  24
TORSDOF 14
ENDMDL
MODEL 3
REMARK VINA RESULT:     -10.9      3.966      8.990
REMARK SMILES O=C(CC1(NC(=O)c2ccccc2[N+](=O)[O-])CCC1)NCCCNC(=O)c1ccc(-c2c3nc(c(-c4ccccc4)c4ccc([nH]4)c(-c4ccccc4)c4nc(c(-c5ccccc5)c5ccc2[nH]5)C=C4)C=C3)cc1
REMARK SMILES IDX 21 1 20 2 1 3 2 4 3 6 4 7 17 8 19 9 18 10 5 11 6 12 7 14
REMARK SMILES IDX 8 15 9 16 13 17 10 18 12 19 11 20 14 21 15 22 16 23 22 24
REMARK SMILES IDX 23 25 24 26 25 27 26 29 27 30 28 31 74 32 29 33 73 34 30 35
REMARK SMILES IDX 31 36 32 37 67 38 33 39 72 40 66 41 68 42 34 43 71 44 65 45
REMARK SMILES IDX 64 46 35 48 57 49 42 50 56 51 43 52 46 53 55 54 69 55 44 56
REMARK SMILES IDX 45 57 54 59 70 60 47 61 36 62 37 63 41 64 38 65 40 66 39 67
REMARK SMILES IDX 58 68 59 69 63 70 60 71 62 72 61 73 48 74 49 75 53 76 50 77
REMARK SMILES IDX 52 78 51 79
REMARK H PARENT 20 5 5 13 24 28 68 47 46 58
REMARK Flexibility Score: inf
ROOT
ATOM      1  C   UNL A   1      31.782  30.620  26.777  1.00  0.00     0.117 C 
ENDROOT
BRANCH   1   2
ATOM      2  N   UNL A   1      31.848  30.176  25.399  1.00  0.00    -0.356 N 
ATOM      3  O   UNL A   1      33.560  28.694  25.751  1.00  0.00    -0.275 OA
ATOM      4  C   UNL A   1      32.753  29.227  24.996  1.00  0.00     0.222 C 
ATOM      5  H   UNL A   1      31.229  30.564  24.738  1.00  0.00     0.163 HD
BRANCH   4   6
ATOM      6  C   UNL A   1      32.770  28.962  23.514  1.00  0.00     0.128 C 
BRANCH   6   7
ATOM      7  C   UNL A   1      31.809  27.911  22.954  1.00  0.00     0.049 C 
ATOM      8  C   UNL A   1      30.906  27.234  24.040  1.00  0.00     0.029 C 
ATOM      9  C   UNL A   1      30.478  28.515  22.377  1.00  0.00     0.029 C 
ATOM     10  C   UNL A   1      29.684  27.443  23.133  1.00  0.00     0.005 C 
BRANCH   7  11
ATOM     11  N   UNL A   1      32.368  26.884  22.011  1.00  0.00    -0.346 N 
ATOM     12  C   UNL A   1      32.872  25.609  22.107  1.00  0.00     0.258 C 
ATOM     13  H   UNL A   1      32.375  27.210  21.082  1.00  0.00     0.164 HD
ATOM     14  O   UNL A   1      33.193  25.009  21.084  1.00  0.00    -0.269 OA
BRANCH  12  15
ATOM     15  C   UNL A   1      33.196  24.986  23.392  1.00  0.00     0.117 A 
ATOM     16  C   UNL A   1      34.229  25.594  24.122  1.00  0.00     0.021 A 
ATOM     17  C   UNL A   1      32.524  23.893  23.939  1.00  0.00     0.282 A 
ATOM     18  C   UNL A   1      34.513  25.169  25.421  1.00  0.00     0.001 A 
ATOM     19  C   UNL A   1      32.791  23.474  25.251  1.00  0.00     0.086 A 
ATOM     20  C   UNL A   1      33.779  24.129  25.992  1.00  0.00     0.007 A 
BRANCH  17  21
ATOM     21  N   UNL A   1      31.484  23.214  23.192  1.00  0.00     0.063 N 
ATOM     22  O   UNL A   1      31.803  22.163  22.621  1.00  0.00    -0.258 OA
ATOM     23  O   UNL A   1      30.361  23.728  23.173  1.00  0.00    -0.258 OA
ENDBRANCH  17  21
ENDBRANCH  12  15
ENDBRANCH   7  11
ENDBRANCH   6   7
ENDBRANCH   4   6
ENDBRANCH   1   2
BRANCH   1  24
ATOM     24  C   UNL A   1      31.439  32.100  26.879  1.00  0.00     0.042 C 
BRANCH  24  25
ATOM     25  C   UNL A   1      32.656  33.019  26.875  1.00  0.00     0.118 C 
BRANCH  25  26
ATOM     26  N   UNL A   1      32.469  34.203  27.700  1.00  0.00    -0.352 N 
ATOM     27  C   UNL A   1      33.146  34.624  28.817  1.00  0.00     0.251 C 
ATOM     28  H   UNL A   1      31.739  34.796  27.411  1.00  0.00     0.163 HD
ATOM     29  O   UNL A   1      32.700  35.552  29.484  1.00  0.00    -0.269 OA
BRANCH  27  30
ATOM     30  C   UNL A   1      34.396  33.955  29.233  1.00  0.00     0.039 A 
ATOM     31  C   UNL A   1      35.588  34.292  28.585  1.00  0.00     0.014 A 
ATOM     32  C   UNL A   1      34.395  32.981  30.234  1.00  0.00     0.014 A 
ATOM     33  C   UNL A   1      36.789  33.706  28.991  1.00  0.00     0.010 A 
ATOM     34  C   UNL A   1      35.601  32.454  30.690  1.00  0.00     0.010 A 
ATOM     35  C   UNL A   1      36.809  32.811  30.073  1.00  0.00    -0.014 A 
BRANCH  35  36
ATOM     36  C   UNL A   1      38.082  32.243  30.583  1.00  0.00     0.031 A 
ATOM     37  C   UNL A   1      38.637  30.976  29.994  1.00  0.00     0.074 A 
ATOM     38  C   UNL A   1      38.699  32.825  31.630  1.00  0.00     0.049 A 
ATOM     39  N   UNL A   1      39.679  30.278  30.370  1.00  0.00    -0.248 NA
ATOM     40  C   UNL A   1      37.911  30.404  28.849  1.00  0.00     0.031 C 
ATOM     41  C   UNL A   1      38.250  34.040  32.314  1.00  0.00     0.029 A 
ATOM     42  N   UNL A   1      39.835  32.463  32.310  1.00  0.00    -0.354 N 
ATOM     43  C   UNL A   1      39.720  29.178  29.524  1.00  0.00     0.074 A 
ATOM     44  C   UNL A   1      38.577  29.277  28.644  1.00  0.00     0.031 C 
ATOM     45  C   UNL A   1      39.111  34.332  33.301  1.00  0.00     0.029 A 
ATOM     46  C   UNL A   1      40.147  33.307  33.349  1.00  0.00     0.049 A 
ATOM     47  H   UNL A   1      40.375  31.674  32.076  1.00  0.00     0.167 HD
ATOM     48  C   UNL A   1      40.636  28.181  29.473  1.00  0.00     0.031 A 
ATOM     49  C   UNL A   1      41.147  33.254  34.248  1.00  0.00     0.031 A 
ATOM     50  C   UNL A   1      41.784  28.088  30.336  1.00  0.00     0.049 A 
ATOM     51  C   UNL A   1      42.141  32.129  34.181  1.00  0.00     0.074 A 
ATOM     52  C   UNL A   1      42.798  27.147  30.322  1.00  0.00     0.029 A 
ATOM     53  N   UNL A   1      42.066  28.968  31.369  1.00  0.00    -0.354 N 
ATOM     54  N   UNL A   1      42.199  31.127  33.338  1.00  0.00    -0.248 NA
ATOM     55  C   UNL A   1      43.213  32.133  35.187  1.00  0.00     0.031 C 
ATOM     56  C   UNL A   1      43.671  27.431  31.378  1.00  0.00     0.029 A 
ATOM     57  C   UNL A   1      43.227  28.578  32.015  1.00  0.00     0.049 A 
ATOM     58  H   UNL A   1      41.522  29.754  31.608  1.00  0.00     0.167 HD
ATOM     59  C   UNL A   1      43.325  30.398  33.694  1.00  0.00     0.074 A 
ATOM     60  C   UNL A   1      43.928  31.078  34.821  1.00  0.00     0.031 C 
ATOM     61  C   UNL A   1      43.816  29.266  33.134  1.00  0.00     0.031 A 
BRANCH  48  62
ATOM     62  C   UNL A   1      40.427  27.101  28.448  1.00  0.00    -0.014 A 
ATOM     63  C   UNL A   1      39.651  25.968  28.733  1.00  0.00     0.009 A 
ATOM     64  C   UNL A   1      40.986  27.238  27.167  1.00  0.00     0.009 A 
ATOM     65  C   UNL A   1      39.469  24.974  27.768  1.00  0.00     0.001 A 
ATOM     66  C   UNL A   1      40.778  26.257  26.196  1.00  0.00     0.001 A 
ATOM     67  C   UNL A   1      40.028  25.122  26.500  1.00  0.00     0.000 A 
ENDBRANCH  48  62
BRANCH  49  68
ATOM     68  C   UNL A   1      41.267  34.308  35.289  1.00  0.00    -0.014 A 
ATOM     69  C   UNL A   1      40.622  34.161  36.525  1.00  0.00     0.009 A 
ATOM     70  C   UNL A   1      42.023  35.466  35.050  1.00  0.00     0.009 A 
ATOM     71  C   UNL A   1      40.711  35.163  37.494  1.00  0.00     0.001 A 
ATOM     72  C   UNL A   1      42.133  36.454  36.031  1.00  0.00     0.001 A 
ATOM     73  C   UNL A   1      41.470  36.306  37.247  1.00  0.00     0.000 A 
ENDBRANCH  49  68
BRANCH  61  74
ATOM     74  C   UNL A   1      45.088  28.710  33.708  1.00  0.00    -0.014 A 
ATOM     75  C   UNL A   1      45.066  27.750  34.731  1.00  0.00     0.009 A 
ATOM     76  C   UNL A   1      46.323  29.120  33.183  1.00  0.00     0.009 A 
ATOM     77  C   UNL A   1      46.261  27.232  35.237  1.00  0.00     0.001 A 
ATOM     78  C   UNL A   1      47.513  28.580  33.672  1.00  0.00     0.001 A 
ATOM     79  C   UNL A   1      47.482  27.642  34.703  1.00  0.00     0.000 A 
ENDBRANCH  61  74
ENDBRANCH  35  36
ENDBRANCH  27  30
ENDBRANCH  25  26
ENDBRANCH  24  25
ENDBRANCH   1  24
TORSDOF 14
ENDMDL
