MODEL 1
REMARK VINA RESULT:     -11.7      0.000      0.000
REMARK SMILES O=C(NCCCNC(=O)[C@@]1([NH2+]C2CC2)CCC[C@@H]([NH+]2CCS(=O)(=O)CC2)C1)c1ccc(-c2c3nc(c(-c4ccccc4)c4ccc([nH]4)c(-c4ccccc4)c4nc(c(-c5ccccc5)c5ccc2[nH]5)C=C4)C=C3)cc1
REMARK SMILES IDX 5 1 4 2 3 3 1 4 2 5 28 7 29 8 75 9 30 10 74 11 31 12 32 13
REMARK SMILES IDX 33 14 68 15 34 16 73 17 67 18 69 19 35 20 72 21 66 22 65 23
REMARK SMILES IDX 36 25 58 26 43 27 57 28 44 29 47 30 56 31 70 32 45 33 46 34
REMARK SMILES IDX 55 36 71 37 48 38 37 39 38 40 42 41 39 42 41 43 40 44 59 45
REMARK SMILES IDX 60 46 64 47 61 48 63 49 62 50 49 51 50 52 54 53 51 54 53 55
REMARK SMILES IDX 52 56 6 57 7 58 8 59 9 61 10 62 15 63 27 64 16 65 18 66
REMARK SMILES IDX 17 67 11 68 12 71 13 72 14 73 19 74 20 75 26 76 21 78 25 79
REMARK SMILES IDX 22 80 23 81 24 82
REMARK H PARENT 3 6 69 24 47 35 7 60 11 69 11 70 19 77
REMARK Flexibility Score: inf
ROOT
ATOM      1  C   UNL A   1      38.026  19.568  24.935  1.00  0.00     0.042 C 
ENDROOT
BRANCH   1   2
ATOM      2  C   UNL A   1      39.185  20.120  25.754  1.00  0.00     0.118 C 
BRANCH   2   3
ATOM      3  N   UNL A   1      40.235  19.123  25.900  1.00  0.00    -0.352 N 
ATOM      4  O   UNL A   1      42.362  18.391  25.752  1.00  0.00    -0.269 OA
ATOM      5  C   UNL A   1      41.592  19.317  25.985  1.00  0.00     0.251 C 
ATOM      6  H   UNL A   1      39.932  18.187  25.946  1.00  0.00     0.163 HD
BRANCH   5   7
ATOM      7  C   UNL A   1      42.121  20.646  26.360  1.00  0.00     0.039 A 
ATOM      8  C   UNL A   1      42.404  21.595  25.374  1.00  0.00     0.014 A 
ATOM      9  C   UNL A   1      42.277  20.970  27.710  1.00  0.00     0.014 A 
ATOM     10  C   UNL A   1      42.952  22.821  25.728  1.00  0.00     0.010 A 
ATOM     11  C   UNL A   1      42.737  22.241  28.069  1.00  0.00     0.010 A 
ATOM     12  C   UNL A   1      43.089  23.172  27.080  1.00  0.00    -0.014 A 
BRANCH  12  13
ATOM     13  C   UNL A   1      43.503  24.554  27.427  1.00  0.00     0.031 A 
ATOM     14  C   UNL A   1      44.930  24.999  27.298  1.00  0.00     0.074 A 
ATOM     15  C   UNL A   1      42.559  25.418  27.850  1.00  0.00     0.049 A 
ATOM     16  N   UNL A   1      45.446  26.178  27.537  1.00  0.00    -0.248 NA
ATOM     17  C   UNL A   1      45.906  23.993  26.855  1.00  0.00     0.031 C 
ATOM     18  C   UNL A   1      41.138  25.097  28.020  1.00  0.00     0.029 A 
ATOM     19  N   UNL A   1      42.642  26.742  28.190  1.00  0.00    -0.354 N 
ATOM     20  C   UNL A   1      46.808  26.053  27.298  1.00  0.00     0.074 A 
ATOM     21  C   UNL A   1      47.042  24.675  26.917  1.00  0.00     0.031 C 
ATOM     22  C   UNL A   1      40.475  26.208  28.368  1.00  0.00     0.029 A 
ATOM     23  C   UNL A   1      41.430  27.298  28.517  1.00  0.00     0.049 A 
ATOM     24  H   UNL A   1      43.487  27.246  28.197  1.00  0.00     0.167 HD
ATOM     25  C   UNL A   1      47.774  26.999  27.387  1.00  0.00     0.031 A 
ATOM     26  C   UNL A   1      41.117  28.546  28.909  1.00  0.00     0.031 A 
ATOM     27  C   UNL A   1      47.536  28.366  27.774  1.00  0.00     0.049 A 
ATOM     28  C   UNL A   1      42.211  29.564  29.034  1.00  0.00     0.074 A 
ATOM     29  C   UNL A   1      48.443  29.408  27.862  1.00  0.00     0.029 A 
ATOM     30  N   UNL A   1      46.302  28.879  28.146  1.00  0.00    -0.354 N 
ATOM     31  N   UNL A   1      43.488  29.437  28.771  1.00  0.00    -0.248 NA
ATOM     32  C   UNL A   1      41.818  30.896  29.512  1.00  0.00     0.031 C 
ATOM     33  C   UNL A   1      47.768  30.537  28.342  1.00  0.00     0.029 A 
ATOM     34  C   UNL A   1      46.428  30.215  28.492  1.00  0.00     0.049 A 
ATOM     35  H   UNL A   1      45.460  28.369  28.161  1.00  0.00     0.167 HD
ATOM     36  C   UNL A   1      44.051  30.679  29.030  1.00  0.00     0.074 A 
ATOM     37  C   UNL A   1      42.970  31.548  29.454  1.00  0.00     0.031 C 
ATOM     38  C   UNL A   1      45.346  31.064  28.923  1.00  0.00     0.031 A 
BRANCH  25  39
ATOM     39  C   UNL A   1      49.188  26.571  27.100  1.00  0.00    -0.014 A 
ATOM     40  C   UNL A   1      49.719  26.609  25.801  1.00  0.00     0.009 A 
ATOM     41  C   UNL A   1      50.009  26.136  28.154  1.00  0.00     0.009 A 
ATOM     42  C   UNL A   1      51.026  26.179  25.557  1.00  0.00     0.001 A 
ATOM     43  C   UNL A   1      51.324  25.735  27.912  1.00  0.00     0.001 A 
ATOM     44  C   UNL A   1      51.827  25.745  26.612  1.00  0.00     0.000 A 
ENDBRANCH  25  39
BRANCH  26  45
ATOM     45  C   UNL A   1      39.704  28.892  29.205  1.00  0.00    -0.014 A 
ATOM     46  C   UNL A   1      38.872  29.406  28.200  1.00  0.00     0.009 A 
ATOM     47  C   UNL A   1      39.169  28.677  30.486  1.00  0.00     0.009 A 
ATOM     48  C   UNL A   1      37.537  29.712  28.476  1.00  0.00     0.001 A 
ATOM     49  C   UNL A   1      37.828  28.955  30.751  1.00  0.00     0.001 A 
ATOM     50  C   UNL A   1      37.014  29.479  29.748  1.00  0.00     0.000 A 
ENDBRANCH  26  45
BRANCH  38  51
ATOM     51  C   UNL A   1      45.655  32.500  29.237  1.00  0.00    -0.014 A 
ATOM     52  C   UNL A   1      46.031  32.902  30.528  1.00  0.00     0.009 A 
ATOM     53  C   UNL A   1      45.587  33.462  28.217  1.00  0.00     0.009 A 
ATOM     54  C   UNL A   1      46.298  34.245  30.800  1.00  0.00     0.001 A 
ATOM     55  C   UNL A   1      45.883  34.799  28.484  1.00  0.00     0.001 A 
ATOM     56  C   UNL A   1      46.228  35.191  29.777  1.00  0.00     0.000 A 
ENDBRANCH  38  51
ENDBRANCH  12  13
ENDBRANCH   5   7
ENDBRANCH   2   3
ENDBRANCH   1   2
BRANCH   1  57
ATOM     57  C   UNL A   1      36.796  20.463  24.998  1.00  0.00     0.118 C 
BRANCH  57  58
ATOM     58  N   UNL A   1      36.938  21.632  24.141  1.00  0.00    -0.351 N 
ATOM     59  C   UNL A   1      36.127  22.634  23.716  1.00  0.00     0.281 C 
ATOM     60  H   UNL A   1      37.850  21.718  23.782  1.00  0.00     0.163 HD
ATOM     61  O   UNL A   1      36.597  23.281  22.765  1.00  0.00    -0.268 OA
BRANCH  59  62
ATOM     62  C   UNL A   1      34.773  23.064  24.373  1.00  0.00     0.181 C 
ATOM     63  C   UNL A   1      34.773  23.301  25.887  1.00  0.00     0.079 C 
ATOM     64  C   UNL A   1      34.532  24.446  23.670  1.00  0.00     0.144 C 
ATOM     65  C   UNL A   1      33.566  24.074  26.410  1.00  0.00     0.013 C 
ATOM     66  C   UNL A   1      33.437  25.365  24.235  1.00  0.00     0.190 C 
ATOM     67  C   UNL A   1      33.520  25.455  25.768  1.00  0.00     0.065 C 
BRANCH  62  68
ATOM     68  N   UNL A   1      33.639  22.218  23.933  1.00  0.00    -0.331 N 
ATOM     69  H   UNL A   1      33.706  22.198  22.915  1.00  0.00     0.347 HD
ATOM     70  H   UNL A   1      32.885  22.679  24.441  1.00  0.00     0.347 HD
BRANCH  68  71
ATOM     71  C   UNL A   1      33.370  20.838  24.317  1.00  0.00     0.183 C 
ATOM     72  C   UNL A   1      32.153  20.306  25.003  1.00  0.00     0.071 C 
ATOM     73  C   UNL A   1      32.424  19.954  23.567  1.00  0.00     0.071 C 
ENDBRANCH  68  71
ENDBRANCH  62  68
BRANCH  66  74
ATOM     74  N   UNL A   1      33.346  26.698  23.597  1.00  0.00    -0.331 N 
ATOM     75  C   UNL A   1      32.869  27.799  24.442  1.00  0.00     0.278 C 
ATOM     76  C   UNL A   1      32.891  26.824  22.212  1.00  0.00     0.278 C 
ATOM     77  H   UNL A   1      34.354  26.809  23.490  1.00  0.00     0.348 HD
ATOM     78  C   UNL A   1      31.364  27.993  24.540  1.00  0.00     0.198 C 
ATOM     79  C   UNL A   1      31.393  26.762  22.010  1.00  0.00     0.198 C 
ATOM     80  S   UNL A   1      30.580  28.028  22.949  1.00  0.00     0.161 S 
ATOM     81  O   UNL A   1      29.200  27.612  23.126  1.00  0.00    -0.228 OA
ATOM     82  O   UNL A   1      30.884  29.303  22.330  1.00  0.00    -0.228 OA
ENDBRANCH  66  74
ENDBRANCH  59  62
ENDBRANCH  57  58
ENDBRANCH   1  57
TORSDOF 13
ENDMDL
MODEL 2
REMARK VINA RESULT:     -11.5      0.423      5.944
REMARK SMILES O=C(NCCCNC(=O)[C@@]1([NH2+]C2CC2)CCC[C@@H]([NH+]2CCS(=O)(=O)CC2)C1)c1ccc(-c2c3nc(c(-c4ccccc4)c4ccc([nH]4)c(-c4ccccc4)c4nc(c(-c5ccccc5)c5ccc2[nH]5)C=C4)C=C3)cc1
REMARK SMILES IDX 5 1 4 2 3 3 1 4 2 5 28 7 29 8 75 9 30 10 74 11 31 12 32 13
REMARK SMILES IDX 33 14 68 15 34 16 73 17 67 18 69 19 35 20 72 21 66 22 65 23
REMARK SMILES IDX 36 25 58 26 43 27 57 28 44 29 47 30 56 31 70 32 45 33 46 34
REMARK SMILES IDX 55 36 71 37 48 38 37 39 38 40 42 41 39 42 41 43 40 44 59 45
REMARK SMILES IDX 60 46 64 47 61 48 63 49 62 50 49 51 50 52 54 53 51 54 53 55
REMARK SMILES IDX 52 56 6 57 7 58 8 59 9 61 10 62 15 63 27 64 16 65 18 66
REMARK SMILES IDX 17 67 11 68 12 71 13 72 14 73 19 74 20 75 26 76 21 78 25 79
REMARK SMILES IDX 22 80 23 81 24 82
REMARK H PARENT 3 6 69 24 47 35 7 60 11 69 11 70 19 77
REMARK Flexibility Score: inf
ROOT
ATOM      1  C   UNL A   1      38.158  19.580  24.970  1.00  0.00     0.042 C 
ENDROOT
BRANCH   1   2
ATOM      2  C   UNL A   1      39.232  20.090  25.921  1.00  0.00     0.118 C 
BRANCH   2   3
ATOM      3  N   UNL A   1      40.281  19.096  26.094  1.00  0.00    -0.352 N 
ATOM      4  O   UNL A   1      42.400  18.344  25.926  1.00  0.00    -0.269 OA
ATOM      5  C   UNL A   1      41.641  19.287  26.127  1.00  0.00     0.251 C 
ATOM      6  H   UNL A   1      39.976  18.166  26.203  1.00  0.00     0.163 HD
BRANCH   5   7
ATOM      7  C   UNL A   1      42.187  20.632  26.409  1.00  0.00     0.039 A 
ATOM      8  C   UNL A   1      42.543  21.482  25.358  1.00  0.00     0.014 A 
ATOM      9  C   UNL A   1      42.285  21.074  27.730  1.00  0.00     0.014 A 
ATOM     10  C   UNL A   1      43.106  22.722  25.628  1.00  0.00     0.010 A 
ATOM     11  C   UNL A   1      42.761  22.362  27.997  1.00  0.00     0.010 A 
ATOM     12  C   UNL A   1      43.186  23.191  26.948  1.00  0.00    -0.014 A 
BRANCH  12  13
ATOM     13  C   UNL A   1      43.619  24.589  27.192  1.00  0.00     0.031 A 
ATOM     14  C   UNL A   1      42.655  25.635  27.667  1.00  0.00     0.074 A 
ATOM     15  C   UNL A   1      44.914  24.902  26.992  1.00  0.00     0.049 A 
ATOM     16  N   UNL A   1      42.883  26.893  27.950  1.00  0.00    -0.248 NA
ATOM     17  C   UNL A   1      41.254  25.224  27.838  1.00  0.00     0.031 C 
ATOM     18  C   UNL A   1      45.945  23.969  26.526  1.00  0.00     0.029 A 
ATOM     19  N   UNL A   1      45.593  26.077  27.177  1.00  0.00    -0.354 N 
ATOM     20  C   UNL A   1      41.654  27.431  28.309  1.00  0.00     0.074 A 
ATOM     21  C   UNL A   1      40.678  26.368  28.185  1.00  0.00     0.031 C 
ATOM     22  C   UNL A   1      47.132  24.590  26.523  1.00  0.00     0.029 A 
ATOM     23  C   UNL A   1      46.937  25.979  26.916  1.00  0.00     0.049 A 
ATOM     24  H   UNL A   1      45.159  26.911  27.470  1.00  0.00     0.167 HD
ATOM     25  C   UNL A   1      41.366  28.694  28.705  1.00  0.00     0.031 A 
ATOM     26  C   UNL A   1      47.910  26.906  26.971  1.00  0.00     0.031 A 
ATOM     27  C   UNL A   1      42.340  29.750  28.819  1.00  0.00     0.049 A 
ATOM     28  C   UNL A   1      47.557  28.305  27.378  1.00  0.00     0.074 A 
ATOM     29  C   UNL A   1      42.154  31.054  29.243  1.00  0.00     0.029 A 
ATOM     30  N   UNL A   1      43.683  29.624  28.498  1.00  0.00    -0.354 N 
ATOM     31  N   UNL A   1      46.396  28.788  27.746  1.00  0.00    -0.248 NA
ATOM     32  C   UNL A   1      48.650  29.286  27.374  1.00  0.00     0.031 C 
ATOM     33  C   UNL A   1      43.372  31.732  29.125  1.00  0.00     0.029 A 
ATOM     34  C   UNL A   1      44.333  30.834  28.687  1.00  0.00     0.049 A 
ATOM     35  H   UNL A   1      44.113  28.796  28.182  1.00  0.00     0.167 HD
ATOM     36  C   UNL A   1      46.621  30.126  28.040  1.00  0.00     0.074 A 
ATOM     37  C   UNL A   1      48.033  30.370  27.823  1.00  0.00     0.031 C 
ATOM     38  C   UNL A   1      45.736  31.064  28.456  1.00  0.00     0.031 A 
BRANCH  25  39
ATOM     39  C   UNL A   1      39.925  29.013  29.003  1.00  0.00    -0.014 A 
ATOM     40  C   UNL A   1      39.038  29.420  27.994  1.00  0.00     0.009 A 
ATOM     41  C   UNL A   1      39.444  28.887  30.317  1.00  0.00     0.009 A 
ATOM     42  C   UNL A   1      37.713  29.737  28.302  1.00  0.00     0.001 A 
ATOM     43  C   UNL A   1      38.112  29.176  30.617  1.00  0.00     0.001 A 
ATOM     44  C   UNL A   1      37.250  29.612  29.612  1.00  0.00     0.000 A 
ENDBRANCH  25  39
BRANCH  26  45
ATOM     45  C   UNL A   1      49.306  26.529  26.634  1.00  0.00    -0.014 A 
ATOM     46  C   UNL A   1      50.143  25.960  27.605  1.00  0.00     0.009 A 
ATOM     47  C   UNL A   1      49.798  26.704  25.330  1.00  0.00     0.009 A 
ATOM     48  C   UNL A   1      51.450  25.587  27.280  1.00  0.00     0.001 A 
ATOM     49  C   UNL A   1      51.093  26.304  25.001  1.00  0.00     0.001 A 
ATOM     50  C   UNL A   1      51.921  25.752  25.978  1.00  0.00     0.000 A 
ENDBRANCH  26  45
BRANCH  38  51
ATOM     51  C   UNL A   1      46.283  32.435  28.735  1.00  0.00    -0.014 A 
ATOM     52  C   UNL A   1      46.310  33.429  27.745  1.00  0.00     0.009 A 
ATOM     53  C   UNL A   1      46.761  32.741  30.019  1.00  0.00     0.009 A 
ATOM     54  C   UNL A   1      46.838  34.691  28.024  1.00  0.00     0.001 A 
ATOM     55  C   UNL A   1      47.262  34.012  30.305  1.00  0.00     0.001 A 
ATOM     56  C   UNL A   1      47.309  34.982  29.304  1.00  0.00     0.000 A 
ENDBRANCH  38  51
ENDBRANCH  12  13
ENDBRANCH   5   7
ENDBRANCH   2   3
ENDBRANCH   1   2
BRANCH   1  57
ATOM     57  C   UNL A   1      36.903  20.441  25.001  1.00  0.00     0.118 C 
BRANCH  57  58
ATOM     58  N   UNL A   1      37.028  21.607  24.138  1.00  0.00    -0.351 N 
ATOM     59  C   UNL A   1      36.203  22.591  23.701  1.00  0.00     0.281 C 
ATOM     60  H   UNL A   1      37.941  21.707  23.784  1.00  0.00     0.163 HD
ATOM     61  O   UNL A   1      36.667  23.240  22.749  1.00  0.00    -0.268 OA
BRANCH  59  62
ATOM     62  C   UNL A   1      34.837  23.000  24.347  1.00  0.00     0.181 C 
ATOM     63  C   UNL A   1      34.818  23.222  25.863  1.00  0.00     0.079 C 
ATOM     64  C   UNL A   1      34.590  24.387  23.655  1.00  0.00     0.144 C 
ATOM     65  C   UNL A   1      33.597  23.978  26.381  1.00  0.00     0.013 C 
ATOM     66  C   UNL A   1      33.479  25.289  24.218  1.00  0.00     0.190 C 
ATOM     67  C   UNL A   1      33.545  25.365  25.752  1.00  0.00     0.065 C 
BRANCH  62  68
ATOM     68  N   UNL A   1      33.717  22.148  23.886  1.00  0.00    -0.331 N 
ATOM     69  H   UNL A   1      33.808  22.121  22.871  1.00  0.00     0.347 HD
ATOM     70  H   UNL A   1      32.949  22.610  24.373  1.00  0.00     0.347 HD
BRANCH  68  71
ATOM     71  C   UNL A   1      33.443  20.770  24.274  1.00  0.00     0.183 C 
ATOM     72  C   UNL A   1      32.353  20.277  25.169  1.00  0.00     0.071 C 
ATOM     73  C   UNL A   1      32.316  19.970  23.698  1.00  0.00     0.071 C 
ENDBRANCH  68  71
ENDBRANCH  62  68
BRANCH  66  74
ATOM     74  N   UNL A   1      33.382  26.627  23.591  1.00  0.00    -0.331 N 
ATOM     75  C   UNL A   1      32.916  27.722  24.452  1.00  0.00     0.278 C 
ATOM     76  C   UNL A   1      32.910  26.765  22.213  1.00  0.00     0.278 C 
ATOM     77  H   UNL A   1      34.389  26.739  23.474  1.00  0.00     0.348 HD
ATOM     78  C   UNL A   1      31.411  27.916  24.568  1.00  0.00     0.198 C 
ATOM     79  C   UNL A   1      31.410  26.707  22.028  1.00  0.00     0.198 C 
ATOM     80  S   UNL A   1      30.609  27.965  22.988  1.00  0.00     0.161 S 
ATOM     81  O   UNL A   1      29.231  27.548  23.177  1.00  0.00    -0.228 OA
ATOM     82  O   UNL A   1      30.907  29.245  22.375  1.00  0.00    -0.228 OA
ENDBRANCH  66  74
ENDBRANCH  59  62
ENDBRANCH  57  58
ENDBRANCH   1  57
TORSDOF 13
ENDMDL
MODEL 3
REMARK VINA RESULT:     -11.5      5.134     10.357
REMARK SMILES O=C(NCCCNC(=O)[C@@]1([NH2+]C2CC2)CCC[C@@H]([NH+]2CCS(=O)(=O)CC2)C1)c1ccc(-c2c3nc(c(-c4ccccc4)c4ccc([nH]4)c(-c4ccccc4)c4nc(c(-c5ccccc5)c5ccc2[nH]5)C=C4)C=C3)cc1
REMARK SMILES IDX 5 1 4 2 3 3 1 4 2 5 28 7 29 8 75 9 30 10 74 11 31 12 32 13
REMARK SMILES IDX 33 14 68 15 34 16 73 17 67 18 69 19 35 20 72 21 66 22 65 23
REMARK SMILES IDX 36 25 58 26 43 27 57 28 44 29 47 30 56 31 70 32 45 33 46 34
REMARK SMILES IDX 55 36 71 37 48 38 37 39 38 40 42 41 39 42 41 43 40 44 59 45
REMARK SMILES IDX 60 46 64 47 61 48 63 49 62 50 49 51 50 52 54 53 51 54 53 55
REMARK SMILES IDX 52 56 6 57 7 58 8 59 9 61 10 62 15 63 27 64 16 65 18 66
REMARK SMILES IDX 17 67 11 68 12 71 13 72 14 73 19 74 20 75 26 76 21 78 25 79
REMARK SMILES IDX 22 80 23 81 24 82
REMARK H PARENT 3 6 69 24 47 35 7 60 11 69 11 70 19 77
REMARK Flexibility Score: inf
ROOT
ATOM      1  C   UNL A   1      31.406  32.196  26.796  1.00  0.00     0.042 C 
ENDROOT
BRANCH   1   2
ATOM      2  C   UNL A   1      32.723  32.819  27.238  1.00  0.00     0.118 C 
BRANCH   2   3
ATOM      3  N   UNL A   1      32.532  34.208  27.628  1.00  0.00    -0.352 N 
ATOM      4  O   UNL A   1      32.564  35.918  29.097  1.00  0.00    -0.269 OA
ATOM      5  C   UNL A   1      33.078  34.878  28.694  1.00  0.00     0.251 C 
ATOM      6  H   UNL A   1      31.933  34.736  27.050  1.00  0.00     0.163 HD
BRANCH   5   7
ATOM      7  C   UNL A   1      34.289  34.346  29.355  1.00  0.00     0.039 A 
ATOM      8  C   UNL A   1      34.187  33.667  30.572  1.00  0.00     0.014 A 
ATOM      9  C   UNL A   1      35.529  34.469  28.724  1.00  0.00     0.014 A 
ATOM     10  C   UNL A   1      35.332  33.217  31.214  1.00  0.00     0.010 A 
ATOM     11  C   UNL A   1      36.670  33.928  29.325  1.00  0.00     0.010 A 
ATOM     12  C   UNL A   1      36.581  33.308  30.581  1.00  0.00    -0.014 A 
BRANCH  12  13
ATOM     13  C   UNL A   1      37.757  32.655  31.207  1.00  0.00     0.031 A 
ATOM     14  C   UNL A   1      38.290  33.110  32.534  1.00  0.00     0.074 A 
ATOM     15  C   UNL A   1      38.334  31.621  30.564  1.00  0.00     0.049 A 
ATOM     16  N   UNL A   1      39.292  32.627  33.225  1.00  0.00    -0.248 NA
ATOM     17  C   UNL A   1      37.624  34.259  33.163  1.00  0.00     0.031 C 
ATOM     18  C   UNL A   1      37.906  31.092  29.265  1.00  0.00     0.029 A 
ATOM     19  N   UNL A   1      39.383  30.815  30.919  1.00  0.00    -0.354 N 
ATOM     20  C   UNL A   1      39.393  33.425  34.357  1.00  0.00     0.074 A 
ATOM     21  C   UNL A   1      38.365  34.439  34.248  1.00  0.00     0.031 C 
ATOM     22  C   UNL A   1      38.642  30.014  28.965  1.00  0.00     0.029 A 
ATOM     23  C   UNL A   1      39.638  29.818  30.010  1.00  0.00     0.049 A 
ATOM     24  H   UNL A   1      39.902  30.938  31.746  1.00  0.00     0.167 HD
ATOM     25  C   UNL A   1      40.263  33.321  35.391  1.00  0.00     0.031 A 
ATOM     26  C   UNL A   1      40.578  28.857  30.005  1.00  0.00     0.031 A 
ATOM     27  C   UNL A   1      41.288  32.314  35.489  1.00  0.00     0.049 A 
ATOM     28  C   UNL A   1      41.551  28.788  31.144  1.00  0.00     0.074 A 
ATOM     29  C   UNL A   1      42.197  32.105  36.512  1.00  0.00     0.029 A 
ATOM     30  N   UNL A   1      41.547  31.352  34.524  1.00  0.00    -0.354 N 
ATOM     31  N   UNL A   1      41.611  29.529  32.223  1.00  0.00    -0.248 NA
ATOM     32  C   UNL A   1      42.586  27.749  31.063  1.00  0.00     0.031 C 
ATOM     33  C   UNL A   1      43.042  31.053  36.140  1.00  0.00     0.029 A 
ATOM     34  C   UNL A   1      42.619  30.565  34.913  1.00  0.00     0.049 A 
ATOM     35  H   UNL A   1      41.043  31.244  33.685  1.00  0.00     0.167 HD
ATOM     36  C   UNL A   1      42.677  29.034  32.961  1.00  0.00     0.074 A 
ATOM     37  C   UNL A   1      43.221  27.918  32.213  1.00  0.00     0.031 C 
ATOM     38  C   UNL A   1      43.157  29.465  34.153  1.00  0.00     0.031 A 
BRANCH  25  39
ATOM     39  C   UNL A   1      40.167  34.355  36.480  1.00  0.00    -0.014 A 
ATOM     40  C   UNL A   1      39.399  34.137  37.636  1.00  0.00     0.009 A 
ATOM     41  C   UNL A   1      40.871  35.564  36.353  1.00  0.00     0.009 A 
ATOM     42  C   UNL A   1      39.304  35.125  38.619  1.00  0.00     0.001 A 
ATOM     43  C   UNL A   1      40.797  36.537  37.352  1.00  0.00     0.001 A 
ATOM     44  C   UNL A   1      40.004  36.322  38.478  1.00  0.00     0.000 A 
ENDBRANCH  25  39
BRANCH  26  45
ATOM     45  C   UNL A   1      40.635  27.887  28.882  1.00  0.00    -0.014 A 
ATOM     46  C   UNL A   1      39.856  26.722  28.910  1.00  0.00     0.009 A 
ATOM     47  C   UNL A   1      41.442  28.140  27.760  1.00  0.00     0.009 A 
ATOM     48  C   UNL A   1      39.895  25.821  27.843  1.00  0.00     0.001 A 
ATOM     49  C   UNL A   1      41.456  27.254  26.683  1.00  0.00     0.001 A 
ATOM     50  C   UNL A   1      40.688  26.091  26.728  1.00  0.00     0.000 A 
ENDBRANCH  26  45
BRANCH  38  51
ATOM     51  C   UNL A   1      44.311  28.699  34.736  1.00  0.00    -0.014 A 
ATOM     52  C   UNL A   1      44.106  27.584  35.562  1.00  0.00     0.009 A 
ATOM     53  C   UNL A   1      45.624  29.092  34.434  1.00  0.00     0.009 A 
ATOM     54  C   UNL A   1      45.195  26.898  36.105  1.00  0.00     0.001 A 
ATOM     55  C   UNL A   1      46.711  28.387  34.954  1.00  0.00     0.001 A 
ATOM     56  C   UNL A   1      46.495  27.298  35.797  1.00  0.00     0.000 A 
ENDBRANCH  38  51
ENDBRANCH  12  13
ENDBRANCH   5   7
ENDBRANCH   2   3
ENDBRANCH   1   2
BRANCH   1  57
ATOM     57  C   UNL A   1      31.604  30.850  26.113  1.00  0.00     0.118 C 
BRANCH  57  58
ATOM     58  N   UNL A   1      31.702  29.766  27.080  1.00  0.00    -0.351 N 
ATOM     59  C   UNL A   1      31.731  28.410  27.027  1.00  0.00     0.281 C 
ATOM     60  H   UNL A   1      31.764  30.099  28.003  1.00  0.00     0.163 HD
ATOM     61  O   UNL A   1      31.550  27.867  28.129  1.00  0.00    -0.268 OA
BRANCH  59  62
ATOM     62  C   UNL A   1      32.063  27.546  25.763  1.00  0.00     0.181 C 
ATOM     63  C   UNL A   1      33.341  27.893  24.993  1.00  0.00     0.079 C 
ATOM     64  C   UNL A   1      32.266  26.134  26.419  1.00  0.00     0.144 C 
ATOM     65  C   UNL A   1      33.817  26.811  24.028  1.00  0.00     0.013 C 
ATOM     66  C   UNL A   1      32.892  25.022  25.563  1.00  0.00     0.190 C 
ATOM     67  C   UNL A   1      34.124  25.533  24.798  1.00  0.00     0.065 C 
BRANCH  62  68
ATOM     68  N   UNL A   1      30.892  27.379  24.872  1.00  0.00    -0.331 N 
ATOM     69  H   UNL A   1      30.098  27.260  25.500  1.00  0.00     0.347 HD
ATOM     70  H   UNL A   1      31.252  26.641  24.267  1.00  0.00     0.347 HD
BRANCH  68  71
ATOM     71  C   UNL A   1      30.425  28.309  23.851  1.00  0.00     0.183 C 
ATOM     72  C   UNL A   1      30.532  28.160  22.368  1.00  0.00     0.071 C 
ATOM     73  C   UNL A   1      29.189  28.072  23.039  1.00  0.00     0.071 C 
ENDBRANCH  68  71
ENDBRANCH  62  68
BRANCH  66  74
ATOM     74  N   UNL A   1      33.160  23.755  26.281  1.00  0.00    -0.331 N 
ATOM     75  C   UNL A   1      34.334  22.990  25.845  1.00  0.00     0.278 C 
ATOM     76  C   UNL A   1      32.053  22.889  26.690  1.00  0.00     0.278 C 
ATOM     77  H   UNL A   1      33.400  24.207  27.163  1.00  0.00     0.348 HD
ATOM     78  C   UNL A   1      34.139  22.027  24.683  1.00  0.00     0.198 C 
ATOM     79  C   UNL A   1      31.480  22.007  25.603  1.00  0.00     0.198 C 
ATOM     80  S   UNL A   1      32.737  20.965  24.911  1.00  0.00     0.161 S 
ATOM     81  O   UNL A   1      32.277  20.550  23.598  1.00  0.00    -0.228 OA
ATOM     82  O   UNL A   1      33.087  19.972  25.909  1.00  0.00    -0.228 OA
ENDBRANCH  66  74
ENDBRANCH  59  62
ENDBRANCH  57  58
ENDBRANCH   1  57
TORSDOF 13
ENDMDL
