MODEL 1
REMARK VINA RESULT:     -13.1      0.000      0.000
REMARK SMILES COc1ccc(N2C(=O)/C(=C/c3c(C(=O)NCCCNC(=O)c4ccc(-c5c6nc(c(-c7ccccc7)c7ccc([nH]7)c(-c7ccccc7)c7nc(c(-c8ccccc8)c8ccc5[nH]8)C=C7)C=C6)cc4)[nH]c4cc(OC)ccc34)SC2=S)cc1
REMARK SMILES IDX 17 1 16 2 14 3 15 4 13 6 12 7 79 8 71 9 72 10 78 11 73 13
REMARK SMILES IDX 77 14 74 15 11 16 7 17 8 18 81 19 9 20 10 21 80 22 82 23
REMARK SMILES IDX 6 24 3 25 4 26 84 27 5 28 83 29 2 30 1 31 75 32 76 33 18 34
REMARK SMILES IDX 19 35 20 36 21 37 22 39 23 40 24 41 70 42 25 43 69 44 26 45
REMARK SMILES IDX 27 46 28 47 63 48 29 49 68 50 62 51 64 52 30 53 67 54 61 55
REMARK SMILES IDX 60 56 31 58 53 59 38 60 52 61 39 62 42 63 51 64 65 65 40 66
REMARK SMILES IDX 41 67 50 69 66 70 43 71 32 72 33 73 37 74 34 75 36 76 35 77
REMARK SMILES IDX 54 78 55 79 59 80 56 81 58 82 57 83 44 84 45 85 49 86 46 87
REMARK SMILES IDX 48 88 47 89
REMARK H PARENT 16 5 71 12 20 38 64 57 42 68
REMARK Flexibility Score: inf
ROOT
ATOM      1  C   UNL A   1      34.013  28.559  25.771  1.00  0.00     0.118 C 
ENDROOT
BRANCH   1   2
ATOM      2  N   UNL A   1      34.383  28.640  24.367  1.00  0.00    -0.351 N 
ATOM      3  C   UNL A   1      33.533  28.608  23.279  1.00  0.00     0.268 C 
ATOM      4  O   UNL A   1      34.009  28.460  22.164  1.00  0.00    -0.268 OA
ATOM      5  H   UNL A   1      35.343  28.727  24.170  1.00  0.00     0.163 HD
BRANCH   3   6
ATOM      6  C   UNL A   1      32.112  28.637  23.532  1.00  0.00     0.112 A 
ATOM      7  C   UNL A   1      31.055  27.778  23.223  1.00  0.00     0.014 A 
ATOM      8  C   UNL A   1      29.892  28.635  23.162  1.00  0.00     0.008 A 
ATOM      9  N   UNL A   1      31.555  29.700  24.193  1.00  0.00    -0.350 N 
ATOM     10  C   UNL A   1      30.266  29.845  23.754  1.00  0.00     0.050 A 
ATOM     11  C   UNL A   1      28.584  28.576  22.623  1.00  0.00     0.015 A 
ATOM     12  H   UNL A   1      32.003  30.262  24.866  1.00  0.00     0.167 HD
ATOM     13  C   UNL A   1      29.452  30.976  23.814  1.00  0.00     0.073 A 
ATOM     14  C   UNL A   1      27.760  29.733  22.635  1.00  0.00     0.047 A 
ATOM     15  C   UNL A   1      28.197  30.923  23.215  1.00  0.00     0.120 A 
BRANCH   7  16
ATOM     16  C   UNL A   1      31.273  26.429  22.735  1.00  0.00     0.032 C 
ATOM     17  N   UNL A   1      32.449  23.461  24.400  1.00  0.00    -0.261 N 
ATOM     18  C   UNL A   1      32.168  24.140  23.208  1.00  0.00     0.270 C 
ATOM     19  C   UNL A   1      31.779  23.897  25.535  1.00  0.00     0.152 C 
ATOM     20  O   UNL A   1      32.680  23.972  22.109  1.00  0.00    -0.268 OA
ATOM     21  C   UNL A   1      31.271  25.314  23.501  1.00  0.00     0.081 C 
ATOM     22  S   UNL A   1      30.622  25.141  25.088  1.00  0.00    -0.054 SA
ATOM     23  S   UNL A   1      31.918  23.377  27.119  1.00  0.00    -0.051 S 
BRANCH  17  24
ATOM     24  C   UNL A   1      33.466  22.461  24.466  1.00  0.00     0.051 A 
ATOM     25  C   UNL A   1      35.471  20.505  24.828  1.00  0.00     0.119 A 
ATOM     26  C   UNL A   1      35.796  21.859  24.824  1.00  0.00     0.048 A 
ATOM     27  C   UNL A   1      34.133  20.129  24.692  1.00  0.00     0.048 A 
ATOM     28  C   UNL A   1      34.806  22.831  24.639  1.00  0.00     0.030 A 
ATOM     29  C   UNL A   1      33.135  21.102  24.498  1.00  0.00     0.030 A 
BRANCH  25  30
ATOM     30  O   UNL A   1      36.529  19.657  25.004  1.00  0.00    -0.497 OA
ATOM     31  C   UNL A   1      37.820  20.255  24.950  1.00  0.00     0.278 C 
ENDBRANCH  25  30
ENDBRANCH  17  24
ENDBRANCH   7  16
BRANCH  15  32
ATOM     32  O   UNL A   1      27.549  32.126  23.248  1.00  0.00    -0.497 OA
ATOM     33  C   UNL A   1      28.213  33.264  22.727  1.00  0.00     0.278 C 
ENDBRANCH  15  32
ENDBRANCH   3   6
ENDBRANCH   1   2
BRANCH   1  34
ATOM     34  C   UNL A   1      34.268  29.822  26.569  1.00  0.00     0.042 C 
BRANCH  34  35
ATOM     35  C   UNL A   1      33.136  30.189  27.517  1.00  0.00     0.118 C 
BRANCH  35  36
ATOM     36  N   UNL A   1      32.542  31.504  27.325  1.00  0.00    -0.352 N 
ATOM     37  C   UNL A   1      33.006  32.750  27.697  1.00  0.00     0.251 C 
ATOM     38  H   UNL A   1      31.676  31.505  26.857  1.00  0.00     0.163 HD
ATOM     39  O   UNL A   1      32.303  33.735  27.478  1.00  0.00    -0.269 OA
BRANCH  37  40
ATOM     40  C   UNL A   1      34.289  32.931  28.429  1.00  0.00     0.039 A 
ATOM     41  C   UNL A   1      34.329  32.542  29.775  1.00  0.00     0.014 A 
ATOM     42  C   UNL A   1      35.454  33.407  27.826  1.00  0.00     0.014 A 
ATOM     43  C   UNL A   1      35.552  32.448  30.439  1.00  0.00     0.010 A 
ATOM     44  C   UNL A   1      36.679  33.240  28.449  1.00  0.00     0.010 A 
ATOM     45  C   UNL A   1      36.735  32.689  29.730  1.00  0.00    -0.014 A 
BRANCH  45  46
ATOM     46  C   UNL A   1      38.027  32.129  30.177  1.00  0.00     0.031 A 
ATOM     47  C   UNL A   1      38.535  30.830  29.643  1.00  0.00     0.074 A 
ATOM     48  C   UNL A   1      38.609  32.733  31.234  1.00  0.00     0.049 A 
ATOM     49  N   UNL A   1      39.600  30.161  30.000  1.00  0.00    -0.248 NA
ATOM     50  C   UNL A   1      37.724  30.176  28.606  1.00  0.00     0.031 C 
ATOM     51  C   UNL A   1      38.097  33.933  31.907  1.00  0.00     0.029 A 
ATOM     52  N   UNL A   1      39.730  32.411  31.950  1.00  0.00    -0.354 N 
ATOM     53  C   UNL A   1      39.585  29.001  29.237  1.00  0.00     0.074 A 
ATOM     54  C   UNL A   1      38.380  29.035  28.436  1.00  0.00     0.031 C 
ATOM     55  C   UNL A   1      38.912  34.257  32.920  1.00  0.00     0.029 A 
ATOM     56  C   UNL A   1      39.981  33.274  32.989  1.00  0.00     0.049 A 
ATOM     57  H   UNL A   1      40.300  31.636  31.741  1.00  0.00     0.167 HD
ATOM     58  C   UNL A   1      40.506  28.009  29.209  1.00  0.00     0.031 A 
ATOM     59  C   UNL A   1      40.970  33.276  33.898  1.00  0.00     0.031 A 
ATOM     60  C   UNL A   1      41.682  27.996  30.041  1.00  0.00     0.049 A 
ATOM     61  C   UNL A   1      42.010  32.203  33.805  1.00  0.00     0.074 A 
ATOM     62  C   UNL A   1      42.731  27.094  30.048  1.00  0.00     0.029 A 
ATOM     63  N   UNL A   1      41.954  28.934  31.029  1.00  0.00    -0.354 N 
ATOM     64  N   UNL A   1      42.058  31.178  32.988  1.00  0.00    -0.248 NA
ATOM     65  C   UNL A   1      43.141  32.300  34.732  1.00  0.00     0.031 C 
ATOM     66  C   UNL A   1      43.614  27.461  31.071  1.00  0.00     0.029 A 
ATOM     67  C   UNL A   1      43.143  28.622  31.667  1.00  0.00     0.049 A 
ATOM     68  H   UNL A   1      41.384  29.708  31.246  1.00  0.00     0.167 HD
ATOM     69  C   UNL A   1      43.237  30.514  33.285  1.00  0.00     0.074 A 
ATOM     70  C   UNL A   1      43.881  31.268  34.347  1.00  0.00     0.031 C 
ATOM     71  C   UNL A   1      43.744  29.386  32.732  1.00  0.00     0.031 A 
BRANCH  58  72
ATOM     72  C   UNL A   1      40.268  26.868  28.256  1.00  0.00    -0.014 A 
ATOM     73  C   UNL A   1      39.508  25.748  28.637  1.00  0.00     0.009 A 
ATOM     74  C   UNL A   1      40.792  26.913  26.955  1.00  0.00     0.009 A 
ATOM     75  C   UNL A   1      39.318  24.682  27.755  1.00  0.00     0.001 A 
ATOM     76  C   UNL A   1      40.576  25.859  26.064  1.00  0.00     0.001 A 
ATOM     77  C   UNL A   1      39.850  24.739  26.469  1.00  0.00     0.000 A 
ENDBRANCH  58  72
BRANCH  59  78
ATOM     78  C   UNL A   1      41.040  34.366  34.904  1.00  0.00    -0.014 A 
ATOM     79  C   UNL A   1      41.681  35.574  34.590  1.00  0.00     0.009 A 
ATOM     80  C   UNL A   1      40.404  34.240  36.149  1.00  0.00     0.009 A 
ATOM     81  C   UNL A   1      41.697  36.628  35.507  1.00  0.00     0.001 A 
ATOM     82  C   UNL A   1      40.399  35.305  37.053  1.00  0.00     0.001 A 
ATOM     83  C   UNL A   1      41.049  36.496  36.734  1.00  0.00     0.000 A 
ENDBRANCH  59  78
BRANCH  71  84
ATOM     84  C   UNL A   1      45.067  28.920  33.265  1.00  0.00    -0.014 A 
ATOM     85  C   UNL A   1      45.138  28.025  34.343  1.00  0.00     0.009 A 
ATOM     86  C   UNL A   1      46.252  29.370  32.665  1.00  0.00     0.009 A 
ATOM     87  C   UNL A   1      46.379  27.616  34.835  1.00  0.00     0.001 A 
ATOM     88  C   UNL A   1      47.489  28.938  33.141  1.00  0.00     0.001 A 
ATOM     89  C   UNL A   1      47.552  28.071  34.231  1.00  0.00     0.000 A 
ENDBRANCH  71  84
ENDBRANCH  45  46
ENDBRANCH  37  40
ENDBRANCH  35  36
ENDBRANCH  34  35
ENDBRANCH   1  34
TORSDOF 14
ENDMDL
MODEL 2
REMARK VINA RESULT:     -13.0      2.452      6.528
REMARK SMILES COc1ccc(N2C(=O)/C(=C/c3c(C(=O)NCCCNC(=O)c4ccc(-c5c6nc(c(-c7ccccc7)c7ccc([nH]7)c(-c7ccccc7)c7nc(c(-c8ccccc8)c8ccc5[nH]8)C=C7)C=C6)cc4)[nH]c4cc(OC)ccc34)SC2=S)cc1
REMARK SMILES IDX 17 1 16 2 14 3 15 4 13 6 12 7 79 8 71 9 72 10 78 11 73 13
REMARK SMILES IDX 77 14 74 15 11 16 7 17 8 18 81 19 9 20 10 21 80 22 82 23
REMARK SMILES IDX 6 24 3 25 4 26 84 27 5 28 83 29 2 30 1 31 75 32 76 33 18 34
REMARK SMILES IDX 19 35 20 36 21 37 22 39 23 40 24 41 70 42 25 43 69 44 26 45
REMARK SMILES IDX 27 46 28 47 63 48 29 49 68 50 62 51 64 52 30 53 67 54 61 55
REMARK SMILES IDX 60 56 31 58 53 59 38 60 52 61 39 62 42 63 51 64 65 65 40 66
REMARK SMILES IDX 41 67 50 69 66 70 43 71 32 72 33 73 37 74 34 75 36 76 35 77
REMARK SMILES IDX 54 78 55 79 59 80 56 81 58 82 57 83 44 84 45 85 49 86 46 87
REMARK SMILES IDX 48 88 47 89
REMARK H PARENT 16 5 71 12 20 38 64 57 42 68
REMARK Flexibility Score: inf
ROOT
ATOM      1  C   UNL A   1      33.370  27.866  26.405  1.00  0.00     0.118 C 
ENDROOT
BRANCH   1   2
ATOM      2  N   UNL A   1      34.021  28.299  25.179  1.00  0.00    -0.351 N 
ATOM      3  C   UNL A   1      33.411  28.630  23.985  1.00  0.00     0.268 C 
ATOM      4  O   UNL A   1      34.102  28.756  22.986  1.00  0.00    -0.268 OA
ATOM      5  H   UNL A   1      35.003  28.365  25.202  1.00  0.00     0.163 HD
BRANCH   3   6
ATOM      6  C   UNL A   1      31.969  28.695  23.959  1.00  0.00     0.112 A 
ATOM      7  C   UNL A   1      30.973  27.896  23.394  1.00  0.00     0.014 A 
ATOM      8  C   UNL A   1      29.865  28.798  23.168  1.00  0.00     0.008 A 
ATOM      9  N   UNL A   1      31.320  29.735  24.571  1.00  0.00    -0.350 N 
ATOM     10  C   UNL A   1      30.145  29.954  23.902  1.00  0.00     0.050 A 
ATOM     11  C   UNL A   1      28.687  28.821  22.382  1.00  0.00     0.015 A 
ATOM     12  H   UNL A   1      31.640  30.237  25.355  1.00  0.00     0.167 HD
ATOM     13  C   UNL A   1      29.362  31.108  23.880  1.00  0.00     0.073 A 
ATOM     14  C   UNL A   1      27.904  30.004  22.313  1.00  0.00     0.047 A 
ATOM     15  C   UNL A   1      28.248  31.139  23.047  1.00  0.00     0.120 A 
BRANCH   7  16
ATOM     16  C   UNL A   1      31.249  26.574  22.866  1.00  0.00     0.032 C 
ATOM     17  N   UNL A   1      32.521  23.601  24.452  1.00  0.00    -0.261 N 
ATOM     18  C   UNL A   1      32.229  24.307  23.278  1.00  0.00     0.270 C 
ATOM     19  C   UNL A   1      31.820  23.973  25.591  1.00  0.00     0.152 C 
ATOM     20  O   UNL A   1      32.760  24.195  22.182  1.00  0.00    -0.268 OA
ATOM     21  C   UNL A   1      31.283  25.435  23.596  1.00  0.00     0.081 C 
ATOM     22  S   UNL A   1      30.621  25.185  25.167  1.00  0.00    -0.054 SA
ATOM     23  S   UNL A   1      31.959  23.409  27.159  1.00  0.00    -0.051 S 
BRANCH  17  24
ATOM     24  C   UNL A   1      33.575  22.640  24.500  1.00  0.00     0.051 A 
ATOM     25  C   UNL A   1      35.661  20.764  24.825  1.00  0.00     0.119 A 
ATOM     26  C   UNL A   1      35.937  22.129  24.790  1.00  0.00     0.048 A 
ATOM     27  C   UNL A   1      34.335  20.338  24.740  1.00  0.00     0.048 A 
ATOM     28  C   UNL A   1      34.906  23.061  24.623  1.00  0.00     0.030 A 
ATOM     29  C   UNL A   1      33.296  21.270  24.564  1.00  0.00     0.030 A 
BRANCH  25  30
ATOM     30  O   UNL A   1      36.756  19.958  24.980  1.00  0.00    -0.497 OA
ATOM     31  C   UNL A   1      37.995  20.626  25.190  1.00  0.00     0.278 C 
ENDBRANCH  25  30
ENDBRANCH  17  24
ENDBRANCH   7  16
BRANCH  15  32
ATOM     32  O   UNL A   1      27.635  32.361  23.036  1.00  0.00    -0.497 OA
ATOM     33  C   UNL A   1      28.435  33.514  22.845  1.00  0.00     0.278 C 
ENDBRANCH  15  32
ENDBRANCH   3   6
ENDBRANCH   1   2
BRANCH   1  34
ATOM     34  C   UNL A   1      33.256  28.935  27.475  1.00  0.00     0.042 C 
BRANCH  34  35
ATOM     35  C   UNL A   1      33.746  30.304  27.029  1.00  0.00     0.118 C 
BRANCH  35  36
ATOM     36  N   UNL A   1      34.034  31.257  28.092  1.00  0.00    -0.352 N 
ATOM     37  C   UNL A   1      35.088  31.303  28.981  1.00  0.00     0.251 C 
ATOM     38  H   UNL A   1      33.374  31.981  28.191  1.00  0.00     0.163 HD
ATOM     39  O   UNL A   1      35.101  32.180  29.843  1.00  0.00    -0.269 OA
BRANCH  37  40
ATOM     40  C   UNL A   1      36.166  30.277  28.985  1.00  0.00     0.039 A 
ATOM     41  C   UNL A   1      36.956  30.160  27.832  1.00  0.00     0.014 A 
ATOM     42  C   UNL A   1      36.462  29.480  30.092  1.00  0.00     0.014 A 
ATOM     43  C   UNL A   1      38.128  29.406  27.862  1.00  0.00     0.010 A 
ATOM     44  C   UNL A   1      37.664  28.796  30.158  1.00  0.00     0.010 A 
ATOM     45  C   UNL A   1      38.535  28.822  29.067  1.00  0.00    -0.014 A 
BRANCH  45  46
ATOM     46  C   UNL A   1      39.949  28.473  29.314  1.00  0.00     0.031 A 
ATOM     47  C   UNL A   1      40.922  29.489  29.817  1.00  0.00     0.074 A 
ATOM     48  C   UNL A   1      40.357  27.268  28.865  1.00  0.00     0.049 A 
ATOM     49  N   UNL A   1      42.211  29.367  29.996  1.00  0.00    -0.248 NA
ATOM     50  C   UNL A   1      40.389  30.826  30.117  1.00  0.00     0.031 C 
ATOM     51  C   UNL A   1      39.491  26.266  28.230  1.00  0.00     0.029 A 
ATOM     52  N   UNL A   1      41.597  26.691  28.837  1.00  0.00    -0.354 N 
ATOM     53  C   UNL A   1      42.648  30.614  30.423  1.00  0.00     0.074 A 
ATOM     54  C   UNL A   1      41.495  31.489  30.426  1.00  0.00     0.031 C 
ATOM     55  C   UNL A   1      40.221  25.194  27.897  1.00  0.00     0.029 A 
ATOM     56  C   UNL A   1      41.606  25.442  28.263  1.00  0.00     0.049 A 
ATOM     57  H   UNL A   1      42.405  27.128  29.192  1.00  0.00     0.167 HD
ATOM     58  C   UNL A   1      43.900  30.979  30.786  1.00  0.00     0.031 A 
ATOM     59  C   UNL A   1      42.621  24.587  28.058  1.00  0.00     0.031 A 
ATOM     60  C   UNL A   1      45.030  30.086  30.743  1.00  0.00     0.049 A 
ATOM     61  C   UNL A   1      43.984  24.991  28.526  1.00  0.00     0.074 A 
ATOM     62  C   UNL A   1      46.329  30.309  31.163  1.00  0.00     0.029 A 
ATOM     63  N   UNL A   1      44.989  28.794  30.235  1.00  0.00    -0.354 N 
ATOM     64  N   UNL A   1      44.365  26.130  29.054  1.00  0.00    -0.248 NA
ATOM     65  C   UNL A   1      45.048  23.990  28.400  1.00  0.00     0.031 C 
ATOM     66  C   UNL A   1      47.084  29.168  30.866  1.00  0.00     0.029 A 
ATOM     67  C   UNL A   1      46.245  28.213  30.310  1.00  0.00     0.049 A 
ATOM     68  H   UNL A   1      44.186  28.355  29.874  1.00  0.00     0.167 HD
ATOM     69  C   UNL A   1      45.710  25.980  29.345  1.00  0.00     0.074 A 
ATOM     70  C   UNL A   1      46.072  24.630  28.950  1.00  0.00     0.031 C 
ATOM     71  C   UNL A   1      46.571  26.874  29.891  1.00  0.00     0.031 A 
BRANCH  58  72
ATOM     72  C   UNL A   1      44.102  32.398  31.250  1.00  0.00    -0.014 A 
ATOM     73  C   UNL A   1      43.998  32.739  32.610  1.00  0.00     0.009 A 
ATOM     74  C   UNL A   1      44.415  33.406  30.326  1.00  0.00     0.009 A 
ATOM     75  C   UNL A   1      44.158  34.064  33.026  1.00  0.00     0.001 A 
ATOM     76  C   UNL A   1      44.604  34.724  30.747  1.00  0.00     0.001 A 
ATOM     77  C   UNL A   1      44.463  35.054  32.095  1.00  0.00     0.000 A 
ENDBRANCH  58  72
BRANCH  59  78
ATOM     78  C   UNL A   1      42.351  23.259  27.451  1.00  0.00    -0.014 A 
ATOM     79  C   UNL A   1      42.620  23.038  26.091  1.00  0.00     0.009 A 
ATOM     80  C   UNL A   1      41.900  22.186  28.235  1.00  0.00     0.009 A 
ATOM     81  C   UNL A   1      42.429  21.775  25.527  1.00  0.00     0.001 A 
ATOM     82  C   UNL A   1      41.735  20.917  27.674  1.00  0.00     0.001 A 
ATOM     83  C   UNL A   1      41.995  20.714  26.320  1.00  0.00     0.000 A 
ENDBRANCH  59  78
BRANCH  71  84
ATOM     84  C   UNL A   1      47.978  26.400  30.100  1.00  0.00    -0.014 A 
ATOM     85  C   UNL A   1      48.915  26.427  29.055  1.00  0.00     0.009 A 
ATOM     86  C   UNL A   1      48.374  25.939  31.364  1.00  0.00     0.009 A 
ATOM     87  C   UNL A   1      50.215  25.966  29.265  1.00  0.00     0.001 A 
ATOM     88  C   UNL A   1      49.682  25.506  31.578  1.00  0.00     0.001 A 
ATOM     89  C   UNL A   1      50.597  25.510  30.526  1.00  0.00     0.000 A 
ENDBRANCH  71  84
ENDBRANCH  45  46
ENDBRANCH  37  40
ENDBRANCH  35  36
ENDBRANCH  34  35
ENDBRANCH   1  34
TORSDOF 14
ENDMDL
MODEL 3
REMARK VINA RESULT:     -12.2      3.605      5.205
REMARK SMILES COc1ccc(N2C(=O)/C(=C/c3c(C(=O)NCCCNC(=O)c4ccc(-c5c6nc(c(-c7ccccc7)c7ccc([nH]7)c(-c7ccccc7)c7nc(c(-c8ccccc8)c8ccc5[nH]8)C=C7)C=C6)cc4)[nH]c4cc(OC)ccc34)SC2=S)cc1
REMARK SMILES IDX 17 1 16 2 14 3 15 4 13 6 12 7 79 8 71 9 72 10 78 11 73 13
REMARK SMILES IDX 77 14 74 15 11 16 7 17 8 18 81 19 9 20 10 21 80 22 82 23
REMARK SMILES IDX 6 24 3 25 4 26 84 27 5 28 83 29 2 30 1 31 75 32 76 33 18 34
REMARK SMILES IDX 19 35 20 36 21 37 22 39 23 40 24 41 70 42 25 43 69 44 26 45
REMARK SMILES IDX 27 46 28 47 63 48 29 49 68 50 62 51 64 52 30 53 67 54 61 55
REMARK SMILES IDX 60 56 31 58 53 59 38 60 52 61 39 62 42 63 51 64 65 65 40 66
REMARK SMILES IDX 41 67 50 69 66 70 43 71 32 72 33 73 37 74 34 75 36 76 35 77
REMARK SMILES IDX 54 78 55 79 59 80 56 81 58 82 57 83 44 84 45 85 49 86 46 87
REMARK SMILES IDX 48 88 47 89
REMARK H PARENT 16 5 71 12 20 38 64 57 42 68
REMARK Flexibility Score: inf
ROOT
ATOM      1  C   UNL A   1      33.091  30.134  26.856  1.00  0.00     0.118 C 
ENDROOT
BRANCH   1   2
ATOM      2  N   UNL A   1      33.967  29.687  25.785  1.00  0.00    -0.351 N 
ATOM      3  C   UNL A   1      33.593  29.082  24.602  1.00  0.00     0.268 C 
ATOM      4  O   UNL A   1      34.454  28.564  23.907  1.00  0.00    -0.268 OA
ATOM      5  H   UNL A   1      34.932  29.833  25.917  1.00  0.00     0.163 HD
BRANCH   3   6
ATOM      6  C   UNL A   1      32.183  28.993  24.305  1.00  0.00     0.112 A 
ATOM      7  C   UNL A   1      31.414  28.157  23.493  1.00  0.00     0.014 A 
ATOM      8  C   UNL A   1      30.261  28.952  23.136  1.00  0.00     0.008 A 
ATOM      9  N   UNL A   1      31.307  29.885  24.867  1.00  0.00    -0.350 N 
ATOM     10  C   UNL A   1      30.255  30.046  24.007  1.00  0.00     0.050 A 
ATOM     11  C   UNL A   1      29.251  28.932  22.144  1.00  0.00     0.015 A 
ATOM     12  H   UNL A   1      31.415  30.331  25.739  1.00  0.00     0.167 HD
ATOM     13  C   UNL A   1      29.349  31.105  23.934  1.00  0.00     0.073 A 
ATOM     14  C   UNL A   1      28.350  30.024  22.028  1.00  0.00     0.047 A 
ATOM     15  C   UNL A   1      28.408  31.104  22.908  1.00  0.00     0.120 A 
BRANCH   7  16
ATOM     16  C   UNL A   1      31.947  26.937  22.917  1.00  0.00     0.032 C 
ATOM     17  N   UNL A   1      33.438  24.040  24.450  1.00  0.00    -0.261 N 
ATOM     18  C   UNL A   1      33.192  24.799  23.299  1.00  0.00     0.270 C 
ATOM     19  C   UNL A   1      32.555  24.210  25.507  1.00  0.00     0.152 C 
ATOM     20  O   UNL A   1      33.866  24.858  22.279  1.00  0.00    -0.268 OA
ATOM     21  C   UNL A   1      32.058  25.753  23.564  1.00  0.00     0.081 C 
ATOM     22  S   UNL A   1      31.251  25.278  25.010  1.00  0.00    -0.054 SA
ATOM     23  S   UNL A   1      32.581  23.534  27.036  1.00  0.00    -0.051 S 
BRANCH  17  24
ATOM     24  C   UNL A   1      34.609  23.232  24.573  1.00  0.00     0.051 A 
ATOM     25  C   UNL A   1      36.897  21.646  25.047  1.00  0.00     0.119 A 
ATOM     26  C   UNL A   1      36.975  23.035  25.109  1.00  0.00     0.048 A 
ATOM     27  C   UNL A   1      35.663  21.046  24.788  1.00  0.00     0.048 A 
ATOM     28  C   UNL A   1      35.844  23.824  24.869  1.00  0.00     0.030 A 
ATOM     29  C   UNL A   1      34.525  21.836  24.538  1.00  0.00     0.030 A 
BRANCH  25  30
ATOM     30  O   UNL A   1      38.073  20.991  25.288  1.00  0.00    -0.497 OA
ATOM     31  C   UNL A   1      38.102  19.613  24.931  1.00  0.00     0.278 C 
ENDBRANCH  25  30
ENDBRANCH  17  24
ENDBRANCH   7  16
BRANCH  15  32
ATOM     32  O   UNL A   1      27.658  32.246  22.884  1.00  0.00    -0.497 OA
ATOM     33  C   UNL A   1      28.327  33.490  22.773  1.00  0.00     0.278 C 
ENDBRANCH  15  32
ENDBRANCH   3   6
ENDBRANCH   1   2
BRANCH   1  34
ATOM     34  C   UNL A   1      33.635  31.281  27.685  1.00  0.00     0.042 C 
BRANCH  34  35
ATOM     35  C   UNL A   1      35.062  31.066  28.168  1.00  0.00     0.118 C 
BRANCH  35  36
ATOM     36  N   UNL A   1      35.272  31.166  29.606  1.00  0.00    -0.352 N 
ATOM     37  C   UNL A   1      36.177  30.513  30.417  1.00  0.00     0.251 C 
ATOM     38  H   UNL A   1      34.675  31.796  30.070  1.00  0.00     0.163 HD
ATOM     39  O   UNL A   1      36.140  30.714  31.630  1.00  0.00    -0.269 OA
BRANCH  37  40
ATOM     40  C   UNL A   1      37.141  29.512  29.884  1.00  0.00     0.039 A 
ATOM     41  C   UNL A   1      37.398  29.528  28.506  1.00  0.00     0.014 A 
ATOM     42  C   UNL A   1      37.837  28.612  30.693  1.00  0.00     0.014 A 
ATOM     43  C   UNL A   1      38.465  28.797  27.985  1.00  0.00     0.010 A 
ATOM     44  C   UNL A   1      38.947  27.947  30.200  1.00  0.00     0.010 A 
ATOM     45  C   UNL A   1      39.307  28.100  28.860  1.00  0.00    -0.014 A 
BRANCH  45  46
ATOM     46  C   UNL A   1      40.693  27.754  28.482  1.00  0.00     0.031 A 
ATOM     47  C   UNL A   1      41.067  26.359  28.103  1.00  0.00     0.074 A 
ATOM     48  C   UNL A   1      41.629  28.701  28.700  1.00  0.00     0.049 A 
ATOM     49  N   UNL A   1      42.252  25.875  27.835  1.00  0.00    -0.248 NA
ATOM     50  C   UNL A   1      39.982  25.368  28.060  1.00  0.00     0.031 C 
ATOM     51  C   UNL A   1      41.359  30.053  29.206  1.00  0.00     0.029 A 
ATOM     52  N   UNL A   1      42.990  28.669  28.563  1.00  0.00    -0.354 N 
ATOM     53  C   UNL A   1      42.058  24.521  27.599  1.00  0.00     0.074 A 
ATOM     54  C   UNL A   1      40.651  24.252  27.805  1.00  0.00     0.031 C 
ATOM     55  C   UNL A   1      42.513  30.726  29.314  1.00  0.00     0.029 A 
ATOM     56  C   UNL A   1      43.601  29.847  28.919  1.00  0.00     0.049 A 
ATOM     57  H   UNL A   1      43.482  27.880  28.242  1.00  0.00     0.167 HD
ATOM     58  C   UNL A   1      42.978  23.598  27.234  1.00  0.00     0.031 A 
ATOM     59  C   UNL A   1      44.902  30.185  28.922  1.00  0.00     0.031 A 
ATOM     60  C   UNL A   1      44.377  23.897  27.064  1.00  0.00     0.049 A 
ATOM     61  C   UNL A   1      45.893  29.165  28.454  1.00  0.00     0.074 A 
ATOM     62  C   UNL A   1      45.394  23.073  26.617  1.00  0.00     0.029 A 
ATOM     63  N   UNL A   1      44.956  25.127  27.351  1.00  0.00    -0.354 N 
ATOM     64  N   UNL A   1      45.681  27.918  28.104  1.00  0.00    -0.248 NA
ATOM     65  C   UNL A   1      47.289  29.600  28.352  1.00  0.00     0.031 C 
ATOM     66  C   UNL A   1      46.595  23.790  26.678  1.00  0.00     0.029 A 
ATOM     67  C   UNL A   1      46.319  25.079  27.111  1.00  0.00     0.049 A 
ATOM     68  H   UNL A   1      44.469  25.918  27.678  1.00  0.00     0.167 HD
ATOM     69  C   UNL A   1      46.915  27.421  27.718  1.00  0.00     0.074 A 
ATOM     70  C   UNL A   1      47.864  28.510  27.861  1.00  0.00     0.031 C 
ATOM     71  C   UNL A   1      47.236  26.179  27.283  1.00  0.00     0.031 A 
BRANCH  58  72
ATOM     72  C   UNL A   1      42.495  22.190  27.003  1.00  0.00    -0.014 A 
ATOM     73  C   UNL A   1      41.567  21.588  27.871  1.00  0.00     0.009 A 
ATOM     74  C   UNL A   1      42.956  21.457  25.899  1.00  0.00     0.009 A 
ATOM     75  C   UNL A   1      41.148  20.272  27.664  1.00  0.00     0.001 A 
ATOM     76  C   UNL A   1      42.513  20.151  25.677  1.00  0.00     0.001 A 
ATOM     77  C   UNL A   1      41.619  19.555  26.566  1.00  0.00     0.000 A 
ENDBRANCH  58  72
BRANCH  59  78
ATOM     78  C   UNL A   1      45.302  31.560  29.313  1.00  0.00    -0.014 A 
ATOM     79  C   UNL A   1      45.298  32.593  28.363  1.00  0.00     0.009 A 
ATOM     80  C   UNL A   1      45.613  31.869  30.647  1.00  0.00     0.009 A 
ATOM     81  C   UNL A   1      45.611  33.901  28.736  1.00  0.00     0.001 A 
ATOM     82  C   UNL A   1      45.900  33.183  31.022  1.00  0.00     0.001 A 
ATOM     83  C   UNL A   1      45.904  34.198  30.066  1.00  0.00     0.000 A 
ENDBRANCH  59  78
BRANCH  71  84
ATOM     84  C   UNL A   1      48.674  25.952  26.920  1.00  0.00    -0.014 A 
ATOM     85  C   UNL A   1      49.563  25.351  27.825  1.00  0.00     0.009 A 
ATOM     86  C   UNL A   1      49.136  26.327  25.650  1.00  0.00     0.009 A 
ATOM     87  C   UNL A   1      50.901  25.164  27.475  1.00  0.00     0.001 A 
ATOM     88  C   UNL A   1      50.467  26.113  25.294  1.00  0.00     0.001 A 
ATOM     89  C   UNL A   1      51.349  25.541  26.209  1.00  0.00     0.000 A 
ENDBRANCH  71  84
ENDBRANCH  45  46
ENDBRANCH  37  40
ENDBRANCH  35  36
ENDBRANCH  34  35
ENDBRANCH   1  34
TORSDOF 14
ENDMDL
