MODEL 1
REMARK VINA RESULT:     -11.6      0.000      0.000
REMARK SMILES CCn1nc(-c2cccnc2)c2cc(C(=O)NCCCNC(=O)c3ccc(-c4c5nc(c(-c6ccccc6)c6ccc([nH]6)c(-c6ccccc6)c6nc(c(-c7ccccc7)c7ccc4[nH]7)C=C6)C=C5)cc3)sc21
REMARK SMILES IDX 19 1 18 2 17 3 15 4 16 5 14 7 3 8 4 9 73 10 5 11 12 12 72 13
REMARK SMILES IDX 13 14 2 15 1 16 6 17 7 18 11 19 8 20 10 21 9 22 20 23 21 24
REMARK SMILES IDX 22 25 23 27 24 28 25 29 71 30 26 31 70 32 27 33 28 34 29 35
REMARK SMILES IDX 64 36 30 37 69 38 63 39 65 40 31 41 68 42 62 43 61 44 32 46
REMARK SMILES IDX 54 47 39 48 53 49 40 50 43 51 52 52 66 53 41 54 42 55 51 57
REMARK SMILES IDX 67 58 44 59 33 60 34 61 38 62 35 63 37 64 36 65 55 66 56 67
REMARK SMILES IDX 60 68 57 69 59 70 58 71 45 72 46 73 50 74 47 75 49 76 48 77
REMARK H PARENT 17 6 21 26 65 45 43 56
REMARK Flexibility Score: inf
ROOT
ATOM      1  C   UNL A   1      39.118  21.740  26.286  1.00  0.00     0.042 C 
ENDROOT
BRANCH   1   2
ATOM      2  C   UNL A   1      38.179  22.942  26.077  1.00  0.00     0.118 C 
BRANCH   2   3
ATOM      3  N   UNL A   1      37.874  23.209  24.670  1.00  0.00    -0.351 N 
ATOM      4  C   UNL A   1      36.706  23.077  23.936  1.00  0.00     0.261 C 
ATOM      5  O   UNL A   1      36.716  23.593  22.816  1.00  0.00    -0.268 OA
ATOM      6  H   UNL A   1      38.639  23.544  24.150  1.00  0.00     0.163 HD
BRANCH   4   7
ATOM      7  C   UNL A   1      35.517  22.419  24.468  1.00  0.00     0.095 A 
ATOM      8  N   UNL A   1      31.980  21.787  25.424  1.00  0.00    -0.254 N 
ATOM      9  N   UNL A   1      31.688  20.469  25.235  1.00  0.00    -0.171 NA
ATOM     10  C   UNL A   1      33.294  22.015  25.256  1.00  0.00     0.122 A 
ATOM     11  C   UNL A   1      32.888  19.887  24.949  1.00  0.00     0.103 A 
ATOM     12  C   UNL A   1      33.861  20.886  24.840  1.00  0.00     0.040 A 
ATOM     13  S   UNL A   1      34.311  23.292  25.362  1.00  0.00    -0.110 S 
ATOM     14  C   UNL A   1      35.184  21.049  24.414  1.00  0.00     0.038 A 
BRANCH   8  15
ATOM     15  C   UNL A   1      30.975  22.829  25.470  1.00  0.00     0.142 C 
ATOM     16  C   UNL A   1      30.301  23.043  26.805  1.00  0.00     0.029 C 
ENDBRANCH   8  15
BRANCH  11  17
ATOM     17  C   UNL A   1      33.013  18.445  24.845  1.00  0.00     0.021 A 
ATOM     18  C   UNL A   1      32.559  17.592  25.853  1.00  0.00     0.013 A 
ATOM     19  C   UNL A   1      33.689  17.868  23.773  1.00  0.00     0.121 A 
ATOM     20  C   UNL A   1      32.791  16.222  25.752  1.00  0.00     0.021 A 
ATOM     21  N   UNL A   1      33.928  16.538  23.645  1.00  0.00    -0.264 NA
ATOM     22  C   UNL A   1      33.479  15.749  24.644  1.00  0.00     0.111 A 
ENDBRANCH  11  17
ENDBRANCH   4   7
ENDBRANCH   2   3
ENDBRANCH   1   2
BRANCH   1  23
ATOM     23  C   UNL A   1      40.322  22.073  27.140  1.00  0.00     0.118 C 
BRANCH  23  24
ATOM     24  N   UNL A   1      41.542  22.266  26.354  1.00  0.00    -0.352 N 
ATOM     25  C   UNL A   1      42.165  23.457  26.016  1.00  0.00     0.251 C 
ATOM     26  H   UNL A   1      41.974  21.445  26.024  1.00  0.00     0.163 HD
ATOM     27  O   UNL A   1      42.947  23.516  25.085  1.00  0.00    -0.269 OA
BRANCH  25  28
ATOM     28  C   UNL A   1      41.849  24.656  26.814  1.00  0.00     0.039 A 
ATOM     29  C   UNL A   1      42.476  24.920  28.034  1.00  0.00     0.014 A 
ATOM     30  C   UNL A   1      40.941  25.557  26.273  1.00  0.00     0.014 A 
ATOM     31  C   UNL A   1      42.245  26.148  28.650  1.00  0.00     0.010 A 
ATOM     32  C   UNL A   1      40.895  26.834  26.755  1.00  0.00     0.010 A 
ATOM     33  C   UNL A   1      41.471  27.113  27.985  1.00  0.00    -0.014 A 
BRANCH  33  34
ATOM     34  C   UNL A   1      41.321  28.466  28.503  1.00  0.00     0.031 A 
ATOM     35  C   UNL A   1      42.409  29.394  28.108  1.00  0.00     0.074 A 
ATOM     36  C   UNL A   1      40.183  28.906  29.085  1.00  0.00     0.049 A 
ATOM     37  N   UNL A   1      43.337  29.877  28.864  1.00  0.00    -0.248 NA
ATOM     38  C   UNL A   1      42.579  29.703  26.679  1.00  0.00     0.031 C 
ATOM     39  C   UNL A   1      38.904  28.194  29.236  1.00  0.00     0.029 A 
ATOM     40  N   UNL A   1      39.886  30.144  29.561  1.00  0.00    -0.354 N 
ATOM     41  C   UNL A   1      44.076  30.734  28.054  1.00  0.00     0.074 A 
ATOM     42  C   UNL A   1      43.700  30.430  26.698  1.00  0.00     0.031 C 
ATOM     43  C   UNL A   1      37.922  29.075  29.529  1.00  0.00     0.029 A 
ATOM     44  C   UNL A   1      38.530  30.366  29.783  1.00  0.00     0.049 A 
ATOM     45  H   UNL A   1      40.572  30.828  29.736  1.00  0.00     0.167 HD
ATOM     46  C   UNL A   1      44.708  31.819  28.581  1.00  0.00     0.031 A 
ATOM     47  C   UNL A   1      37.948  31.533  30.145  1.00  0.00     0.031 A 
ATOM     48  C   UNL A   1      44.750  31.750  30.022  1.00  0.00     0.049 A 
ATOM     49  C   UNL A   1      39.007  32.379  30.732  1.00  0.00     0.074 A 
ATOM     50  C   UNL A   1      45.312  30.909  30.957  1.00  0.00     0.029 A 
ATOM     51  N   UNL A   1      43.768  32.456  30.671  1.00  0.00    -0.354 N 
ATOM     52  N   UNL A   1      39.614  32.096  31.848  1.00  0.00    -0.248 NA
ATOM     53  C   UNL A   1      39.684  33.339  29.877  1.00  0.00     0.031 C 
ATOM     54  C   UNL A   1      44.371  30.858  32.029  1.00  0.00     0.029 A 
ATOM     55  C   UNL A   1      43.312  31.722  31.731  1.00  0.00     0.049 A 
ATOM     56  H   UNL A   1      43.442  33.350  30.415  1.00  0.00     0.167 HD
ATOM     57  C   UNL A   1      40.930  32.472  31.632  1.00  0.00     0.074 A 
ATOM     58  C   UNL A   1      40.879  33.361  30.474  1.00  0.00     0.031 C 
ATOM     59  C   UNL A   1      41.954  31.794  32.231  1.00  0.00     0.031 A 
BRANCH  46  60
ATOM     60  C   UNL A   1      44.830  33.149  27.865  1.00  0.00    -0.014 A 
ATOM     61  C   UNL A   1      46.082  33.794  27.867  1.00  0.00     0.009 A 
ATOM     62  C   UNL A   1      43.726  33.923  27.463  1.00  0.00     0.009 A 
ATOM     63  C   UNL A   1      46.202  35.157  27.567  1.00  0.00     0.001 A 
ATOM     64  C   UNL A   1      43.849  35.274  27.123  1.00  0.00     0.001 A 
ATOM     65  C   UNL A   1      45.084  35.899  27.205  1.00  0.00     0.000 A 
ENDBRANCH  46  60
BRANCH  47  66
ATOM     66  C   UNL A   1      36.616  32.072  29.804  1.00  0.00    -0.014 A 
ATOM     67  C   UNL A   1      35.797  32.631  30.799  1.00  0.00     0.009 A 
ATOM     68  C   UNL A   1      36.277  32.315  28.461  1.00  0.00     0.009 A 
ATOM     69  C   UNL A   1      34.713  33.452  30.461  1.00  0.00     0.001 A 
ATOM     70  C   UNL A   1      35.193  33.135  28.125  1.00  0.00     0.001 A 
ATOM     71  C   UNL A   1      34.423  33.718  29.125  1.00  0.00     0.000 A 
ENDBRANCH  47  66
BRANCH  59  72
ATOM     72  C   UNL A   1      41.607  30.874  33.376  1.00  0.00    -0.014 A 
ATOM     73  C   UNL A   1      41.332  29.503  33.223  1.00  0.00     0.009 A 
ATOM     74  C   UNL A   1      41.679  31.396  34.675  1.00  0.00     0.009 A 
ATOM     75  C   UNL A   1      41.110  28.689  34.340  1.00  0.00     0.001 A 
ATOM     76  C   UNL A   1      41.479  30.580  35.790  1.00  0.00     0.001 A 
ATOM     77  C   UNL A   1      41.189  29.228  35.623  1.00  0.00     0.000 A 
ENDBRANCH  59  72
ENDBRANCH  33  34
ENDBRANCH  25  28
ENDBRANCH  23  24
ENDBRANCH   1  23
TORSDOF 12
ENDMDL
MODEL 2
REMARK VINA RESULT:     -11.6      4.643     10.955
REMARK SMILES CCn1nc(-c2cccnc2)c2cc(C(=O)NCCCNC(=O)c3ccc(-c4c5nc(c(-c6ccccc6)c6ccc([nH]6)c(-c6ccccc6)c6nc(c(-c7ccccc7)c7ccc4[nH]7)C=C6)C=C5)cc3)sc21
REMARK SMILES IDX 19 1 18 2 17 3 15 4 16 5 14 7 3 8 4 9 73 10 5 11 12 12 72 13
REMARK SMILES IDX 13 14 2 15 1 16 6 17 7 18 11 19 8 20 10 21 9 22 20 23 21 24
REMARK SMILES IDX 22 25 23 27 24 28 25 29 71 30 26 31 70 32 27 33 28 34 29 35
REMARK SMILES IDX 64 36 30 37 69 38 63 39 65 40 31 41 68 42 62 43 61 44 32 46
REMARK SMILES IDX 54 47 39 48 53 49 40 50 43 51 52 52 66 53 41 54 42 55 51 57
REMARK SMILES IDX 67 58 44 59 33 60 34 61 38 62 35 63 37 64 36 65 55 66 56 67
REMARK SMILES IDX 60 68 57 69 59 70 58 71 45 72 46 73 50 74 47 75 49 76 48 77
REMARK H PARENT 17 6 21 26 65 45 43 56
REMARK Flexibility Score: inf
ROOT
ATOM      1  C   UNL A   1      40.200  31.864  33.692  1.00  0.00     0.042 C 
ENDROOT
BRANCH   1   2
ATOM      2  C   UNL A   1      38.666  31.942  33.596  1.00  0.00     0.118 C 
BRANCH   2   3
ATOM      3  N   UNL A   1      38.015  30.632  33.550  1.00  0.00    -0.351 N 
ATOM      4  C   UNL A   1      37.141  30.065  32.635  1.00  0.00     0.261 C 
ATOM      5  O   UNL A   1      36.940  28.855  32.766  1.00  0.00    -0.268 OA
ATOM      6  H   UNL A   1      38.240  30.045  34.308  1.00  0.00     0.163 HD
BRANCH   4   7
ATOM      7  C   UNL A   1      36.537  30.831  31.551  1.00  0.00     0.095 A 
ATOM      8  N   UNL A   1      34.674  31.654  28.440  1.00  0.00    -0.254 N 
ATOM      9  N   UNL A   1      33.982  32.814  28.620  1.00  0.00    -0.171 NA
ATOM     10  C   UNL A   1      35.493  31.420  29.480  1.00  0.00     0.122 A 
ATOM     11  C   UNL A   1      34.418  33.295  29.820  1.00  0.00     0.103 A 
ATOM     12  C   UNL A   1      35.267  32.349  30.403  1.00  0.00     0.040 A 
ATOM     13  S   UNL A   1      36.599  30.290  29.902  1.00  0.00    -0.110 S 
ATOM     14  C   UNL A   1      35.897  32.087  31.626  1.00  0.00     0.038 A 
BRANCH   8  15
ATOM     15  C   UNL A   1      34.328  30.664  27.441  1.00  0.00     0.142 C 
ATOM     16  C   UNL A   1      32.852  30.449  27.203  1.00  0.00     0.029 C 
ENDBRANCH   8  15
BRANCH  11  17
ATOM     17  C   UNL A   1      34.028  34.613  30.283  1.00  0.00     0.021 A 
ATOM     18  C   UNL A   1      34.163  34.993  31.620  1.00  0.00     0.013 A 
ATOM     19  C   UNL A   1      33.404  35.511  29.422  1.00  0.00     0.121 A 
ATOM     20  C   UNL A   1      33.682  36.233  32.035  1.00  0.00     0.021 A 
ATOM     21  N   UNL A   1      32.927  36.726  29.795  1.00  0.00    -0.264 NA
ATOM     22  C   UNL A   1      33.073  37.053  31.097  1.00  0.00     0.111 A 
ENDBRANCH  11  17
ENDBRANCH   4   7
ENDBRANCH   2   3
ENDBRANCH   1   2
BRANCH   1  23
ATOM     23  C   UNL A   1      40.878  33.186  33.403  1.00  0.00     0.118 C 
BRANCH  23  24
ATOM     24  N   UNL A   1      40.242  33.925  32.311  1.00  0.00    -0.352 N 
ATOM     25  C   UNL A   1      40.394  33.738  30.946  1.00  0.00     0.251 C 
ATOM     26  H   UNL A   1      39.630  34.648  32.581  1.00  0.00     0.163 HD
ATOM     27  O   UNL A   1      40.106  34.616  30.154  1.00  0.00    -0.269 OA
BRANCH  25  28
ATOM     28  C   UNL A   1      40.920  32.443  30.478  1.00  0.00     0.039 A 
ATOM     29  C   UNL A   1      42.291  32.201  30.359  1.00  0.00     0.014 A 
ATOM     30  C   UNL A   1      39.997  31.439  30.215  1.00  0.00     0.014 A 
ATOM     31  C   UNL A   1      42.716  30.907  30.065  1.00  0.00     0.010 A 
ATOM     32  C   UNL A   1      40.417  30.141  30.155  1.00  0.00     0.010 A 
ATOM     33  C   UNL A   1      41.768  29.874  29.992  1.00  0.00    -0.014 A 
BRANCH  33  34
ATOM     34  C   UNL A   1      42.161  28.480  29.842  1.00  0.00     0.031 A 
ATOM     35  C   UNL A   1      42.869  27.917  31.019  1.00  0.00     0.074 A 
ATOM     36  C   UNL A   1      41.717  27.697  28.833  1.00  0.00     0.049 A 
ATOM     37  N   UNL A   1      44.120  27.612  31.105  1.00  0.00    -0.248 NA
ATOM     38  C   UNL A   1      42.140  27.824  32.294  1.00  0.00     0.031 C 
ATOM     39  C   UNL A   1      40.739  28.030  27.786  1.00  0.00     0.029 A 
ATOM     40  N   UNL A   1      41.957  26.380  28.600  1.00  0.00    -0.354 N 
ATOM     41  C   UNL A   1      44.290  27.071  32.376  1.00  0.00     0.074 A 
ATOM     42  C   UNL A   1      43.106  27.416  33.121  1.00  0.00     0.031 C 
ATOM     43  C   UNL A   1      40.292  26.898  27.201  1.00  0.00     0.029 A 
ATOM     44  C   UNL A   1      41.090  25.790  27.686  1.00  0.00     0.049 A 
ATOM     45  H   UNL A   1      42.684  25.883  29.041  1.00  0.00     0.167 HD
ATOM     46  C   UNL A   1      45.251  26.136  32.614  1.00  0.00     0.031 A 
ATOM     47  C   UNL A   1      41.030  24.479  27.355  1.00  0.00     0.031 A 
ATOM     48  C   UNL A   1      46.182  26.055  31.515  1.00  0.00     0.049 A 
ATOM     49  C   UNL A   1      42.323  23.878  27.739  1.00  0.00     0.074 A 
ATOM     50  C   UNL A   1      47.089  26.903  30.918  1.00  0.00     0.029 A 
ATOM     51  N   UNL A   1      45.935  25.049  30.613  1.00  0.00    -0.354 N 
ATOM     52  N   UNL A   1      43.453  24.183  27.169  1.00  0.00    -0.248 NA
ATOM     53  C   UNL A   1      42.431  23.228  29.034  1.00  0.00     0.031 C 
ATOM     54  C   UNL A   1      47.037  26.588  29.527  1.00  0.00     0.029 A 
ATOM     55  C   UNL A   1      46.157  25.518  29.346  1.00  0.00     0.049 A 
ATOM     56  H   UNL A   1      45.645  24.136  30.839  1.00  0.00     0.167 HD
ATOM     57  C   UNL A   1      44.374  24.189  28.205  1.00  0.00     0.074 A 
ATOM     58  C   UNL A   1      43.724  23.451  29.285  1.00  0.00     0.031 C 
ATOM     59  C   UNL A   1      45.443  25.040  28.180  1.00  0.00     0.031 A 
BRANCH  46  60
ATOM     60  C   UNL A   1      45.072  24.973  33.567  1.00  0.00    -0.014 A 
ATOM     61  C   UNL A   1      44.278  23.886  33.151  1.00  0.00     0.009 A 
ATOM     62  C   UNL A   1      45.386  25.031  34.938  1.00  0.00     0.009 A 
ATOM     63  C   UNL A   1      43.759  22.965  34.070  1.00  0.00     0.001 A 
ATOM     64  C   UNL A   1      44.904  24.090  35.852  1.00  0.00     0.001 A 
ATOM     65  C   UNL A   1      44.065  23.073  35.422  1.00  0.00     0.000 A 
ENDBRANCH  46  60
BRANCH  47  66
ATOM     66  C   UNL A   1      39.869  23.653  26.965  1.00  0.00    -0.014 A 
ATOM     67  C   UNL A   1      38.636  24.255  26.663  1.00  0.00     0.009 A 
ATOM     68  C   UNL A   1      40.053  22.310  26.593  1.00  0.00     0.009 A 
ATOM     69  C   UNL A   1      37.646  23.553  25.962  1.00  0.00     0.001 A 
ATOM     70  C   UNL A   1      39.063  21.610  25.893  1.00  0.00     0.001 A 
ATOM     71  C   UNL A   1      37.867  22.238  25.561  1.00  0.00     0.000 A 
ENDBRANCH  47  66
BRANCH  59  72
ATOM     72  C   UNL A   1      45.775  25.705  26.866  1.00  0.00    -0.014 A 
ATOM     73  C   UNL A   1      45.201  26.914  26.433  1.00  0.00     0.009 A 
ATOM     74  C   UNL A   1      46.800  25.142  26.092  1.00  0.00     0.009 A 
ATOM     75  C   UNL A   1      45.626  27.523  25.246  1.00  0.00     0.001 A 
ATOM     76  C   UNL A   1      47.239  25.760  24.920  1.00  0.00     0.001 A 
ATOM     77  C   UNL A   1      46.648  26.947  24.494  1.00  0.00     0.000 A 
ENDBRANCH  59  72
ENDBRANCH  33  34
ENDBRANCH  25  28
ENDBRANCH  23  24
ENDBRANCH   1  23
TORSDOF 12
ENDMDL
MODEL 3
REMARK VINA RESULT:     -11.6      3.495      7.902
REMARK SMILES CCn1nc(-c2cccnc2)c2cc(C(=O)NCCCNC(=O)c3ccc(-c4c5nc(c(-c6ccccc6)c6ccc([nH]6)c(-c6ccccc6)c6nc(c(-c7ccccc7)c7ccc4[nH]7)C=C6)C=C5)cc3)sc21
REMARK SMILES IDX 19 1 18 2 17 3 15 4 16 5 14 7 3 8 4 9 73 10 5 11 12 12 72 13
REMARK SMILES IDX 13 14 2 15 1 16 6 17 7 18 11 19 8 20 10 21 9 22 20 23 21 24
REMARK SMILES IDX 22 25 23 27 24 28 25 29 71 30 26 31 70 32 27 33 28 34 29 35
REMARK SMILES IDX 64 36 30 37 69 38 63 39 65 40 31 41 68 42 62 43 61 44 32 46
REMARK SMILES IDX 54 47 39 48 53 49 40 50 43 51 52 52 66 53 41 54 42 55 51 57
REMARK SMILES IDX 67 58 44 59 33 60 34 61 38 62 35 63 37 64 36 65 55 66 56 67
REMARK SMILES IDX 60 68 57 69 59 70 58 71 45 72 46 73 50 74 47 75 49 76 48 77
REMARK H PARENT 17 6 21 26 65 45 43 56
REMARK Flexibility Score: inf
ROOT
ATOM      1  C   UNL A   1      34.116  30.367  27.099  1.00  0.00     0.042 C 
ENDROOT
BRANCH   1   2
ATOM      2  C   UNL A   1      32.992  29.407  26.673  1.00  0.00     0.118 C 
BRANCH   2   3
ATOM      3  N   UNL A   1      32.919  29.197  25.226  1.00  0.00    -0.351 N 
ATOM      4  C   UNL A   1      32.800  28.045  24.464  1.00  0.00     0.261 C 
ATOM      5  O   UNL A   1      32.545  28.218  23.270  1.00  0.00    -0.268 OA
ATOM      6  H   UNL A   1      32.961  30.026  24.697  1.00  0.00     0.163 HD
BRANCH   4   7
ATOM      7  C   UNL A   1      32.915  26.710  25.039  1.00  0.00     0.095 A 
ATOM      8  N   UNL A   1      32.099  23.209  25.991  1.00  0.00    -0.254 N 
ATOM      9  N   UNL A   1      33.229  22.449  25.937  1.00  0.00    -0.171 NA
ATOM     10  C   UNL A   1      32.389  24.511  25.824  1.00  0.00     0.122 A 
ATOM     11  C   UNL A   1      34.239  23.345  25.737  1.00  0.00     0.103 A 
ATOM     12  C   UNL A   1      33.684  24.614  25.541  1.00  0.00     0.040 A 
ATOM     13  S   UNL A   1      31.571  25.928  25.814  1.00  0.00    -0.110 S 
ATOM     14  C   UNL A   1      34.065  25.895  25.125  1.00  0.00     0.038 A 
BRANCH   8  15
ATOM     15  C   UNL A   1      30.762  22.658  25.908  1.00  0.00     0.142 C 
ATOM     16  C   UNL A   1      29.877  22.878  27.112  1.00  0.00     0.029 C 
ENDBRANCH   8  15
BRANCH  11  17
ATOM     17  C   UNL A   1      35.628  22.930  25.788  1.00  0.00     0.021 A 
ATOM     18  C   UNL A   1      36.653  23.826  26.096  1.00  0.00     0.013 A 
ATOM     19  C   UNL A   1      35.995  21.636  25.427  1.00  0.00     0.121 A 
ATOM     20  C   UNL A   1      37.979  23.403  26.035  1.00  0.00     0.021 A 
ATOM     21  N   UNL A   1      37.275  21.194  25.361  1.00  0.00    -0.264 NA
ATOM     22  C   UNL A   1      38.237  22.092  25.660  1.00  0.00     0.111 A 
ENDBRANCH  11  17
ENDBRANCH   4   7
ENDBRANCH   2   3
ENDBRANCH   1   2
BRANCH   1  23
ATOM     23  C   UNL A   1      35.284  29.657  27.751  1.00  0.00     0.118 C 
BRANCH  23  24
ATOM     24  N   UNL A   1      35.452  30.013  29.161  1.00  0.00    -0.352 N 
ATOM     25  C   UNL A   1      36.433  29.588  30.042  1.00  0.00     0.251 C 
ATOM     26  H   UNL A   1      34.781  30.633  29.530  1.00  0.00     0.163 HD
ATOM     27  O   UNL A   1      36.273  29.660  31.246  1.00  0.00    -0.269 OA
BRANCH  25  28
ATOM     28  C   UNL A   1      37.680  29.037  29.479  1.00  0.00     0.039 A 
ATOM     29  C   UNL A   1      38.270  29.568  28.329  1.00  0.00     0.014 A 
ATOM     30  C   UNL A   1      38.288  28.001  30.175  1.00  0.00     0.014 A 
ATOM     31  C   UNL A   1      39.527  29.101  27.950  1.00  0.00     0.010 A 
ATOM     32  C   UNL A   1      39.601  27.712  29.937  1.00  0.00     0.010 A 
ATOM     33  C   UNL A   1      40.199  28.189  28.780  1.00  0.00    -0.014 A 
BRANCH  33  34
ATOM     34  C   UNL A   1      41.573  27.783  28.520  1.00  0.00     0.031 A 
ATOM     35  C   UNL A   1      41.702  26.481  27.821  1.00  0.00     0.074 A 
ATOM     36  C   UNL A   1      42.626  28.617  28.678  1.00  0.00     0.049 A 
ATOM     37  N   UNL A   1      42.126  25.367  28.316  1.00  0.00    -0.248 NA
ATOM     38  C   UNL A   1      41.157  26.362  26.459  1.00  0.00     0.031 C 
ATOM     39  C   UNL A   1      42.611  30.043  29.040  1.00  0.00     0.029 A 
ATOM     40  N   UNL A   1      43.943  28.393  28.426  1.00  0.00    -0.354 N 
ATOM     41  C   UNL A   1      42.117  24.458  27.263  1.00  0.00     0.074 A 
ATOM     42  C   UNL A   1      41.327  25.059  26.219  1.00  0.00     0.031 C 
ATOM     43  C   UNL A   1      43.805  30.602  28.743  1.00  0.00     0.029 A 
ATOM     44  C   UNL A   1      44.721  29.545  28.365  1.00  0.00     0.049 A 
ATOM     45  H   UNL A   1      44.316  27.492  28.297  1.00  0.00     0.167 HD
ATOM     46  C   UNL A   1      43.003  23.424  27.226  1.00  0.00     0.031 A 
ATOM     47  C   UNL A   1      46.028  29.623  28.022  1.00  0.00     0.031 A 
ATOM     48  C   UNL A   1      43.664  23.258  28.497  1.00  0.00     0.049 A 
ATOM     49  C   UNL A   1      46.602  28.275  28.201  1.00  0.00     0.074 A 
ATOM     50  C   UNL A   1      43.278  22.943  29.782  1.00  0.00     0.029 A 
ATOM     51  N   UNL A   1      44.903  23.844  28.593  1.00  0.00    -0.354 N 
ATOM     52  N   UNL A   1      46.727  27.697  29.361  1.00  0.00    -0.248 NA
ATOM     53  C   UNL A   1      46.672  27.390  27.051  1.00  0.00     0.031 C 
ATOM     54  C   UNL A   1      44.124  23.721  30.628  1.00  0.00     0.029 A 
ATOM     55  C   UNL A   1      45.032  24.420  29.827  1.00  0.00     0.049 A 
ATOM     56  H   UNL A   1      45.589  23.849  27.887  1.00  0.00     0.167 HD
ATOM     57  C   UNL A   1      46.433  26.365  29.119  1.00  0.00     0.074 A 
ATOM     58  C   UNL A   1      46.559  26.213  27.672  1.00  0.00     0.031 C 
ATOM     59  C   UNL A   1      45.835  25.599  30.080  1.00  0.00     0.031 A 
BRANCH  46  60
ATOM     60  C   UNL A   1      43.633  22.905  25.950  1.00  0.00    -0.014 A 
ATOM     61  C   UNL A   1      43.718  21.511  25.767  1.00  0.00     0.009 A 
ATOM     62  C   UNL A   1      44.405  23.698  25.081  1.00  0.00     0.009 A 
ATOM     63  C   UNL A   1      44.592  20.948  24.829  1.00  0.00     0.001 A 
ATOM     64  C   UNL A   1      45.248  23.141  24.115  1.00  0.00     0.001 A 
ATOM     65  C   UNL A   1      45.364  21.763  24.009  1.00  0.00     0.000 A 
ENDBRANCH  46  60
BRANCH  47  66
ATOM     66  C   UNL A   1      46.759  30.698  27.322  1.00  0.00    -0.014 A 
ATOM     67  C   UNL A   1      46.067  31.785  26.762  1.00  0.00     0.009 A 
ATOM     68  C   UNL A   1      48.153  30.814  27.470  1.00  0.00     0.009 A 
ATOM     69  C   UNL A   1      46.739  32.966  26.418  1.00  0.00     0.001 A 
ATOM     70  C   UNL A   1      48.823  31.994  27.125  1.00  0.00     0.001 A 
ATOM     71  C   UNL A   1      48.112  33.076  26.616  1.00  0.00     0.000 A 
ENDBRANCH  47  66
BRANCH  59  72
ATOM     72  C   UNL A   1      45.824  26.133  31.492  1.00  0.00    -0.014 A 
ATOM     73  C   UNL A   1      44.805  26.952  32.011  1.00  0.00     0.009 A 
ATOM     74  C   UNL A   1      46.828  25.689  32.364  1.00  0.00     0.009 A 
ATOM     75  C   UNL A   1      44.811  27.334  33.358  1.00  0.00     0.001 A 
ATOM     76  C   UNL A   1      46.822  26.052  33.712  1.00  0.00     0.001 A 
ATOM     77  C   UNL A   1      45.817  26.879  34.208  1.00  0.00     0.000 A 
ENDBRANCH  59  72
ENDBRANCH  33  34
ENDBRANCH  25  28
ENDBRANCH  23  24
ENDBRANCH   1  23
TORSDOF 12
ENDMDL
