MODEL 1
REMARK VINA RESULT:     -10.3      0.000      0.000
REMARK SMILES COc1cnc(F)c(C(=O)NCCCNC(=O)c2ccc(-c3c4nc(c(-c5ccccc5)c5ccc([nH]5)c(-c5ccccc5)c5nc(c(-c6ccccc6)c6ccc3[nH]6)C=C5)C=C4)cc2)c1
REMARK SMILES IDX 13 1 12 2 11 3 9 4 10 5 8 7 3 8 4 9 66 10 5 11 6 12 7 13
REMARK SMILES IDX 2 14 1 15 14 16 15 17 16 18 17 20 18 21 19 22 65 23 20 24
REMARK SMILES IDX 64 25 21 26 22 27 23 28 58 29 24 30 63 31 57 32 59 33 25 34
REMARK SMILES IDX 62 35 56 36 55 37 26 39 48 40 33 41 47 42 34 43 37 44 46 45
REMARK SMILES IDX 60 46 35 47 36 48 45 50 61 51 38 52 27 53 28 54 32 55 29 56
REMARK SMILES IDX 31 57 30 58 49 59 50 60 54 61 51 62 53 63 52 64 39 65 40 66
REMARK SMILES IDX 44 67 41 68 43 69 42 70
REMARK H PARENT 11 6 15 19 59 38 37 49
REMARK Flexibility Score: inf
ROOT
ATOM      1  C   UNL A   1      37.812  19.670  24.911  1.00  0.00     0.042 C 
ENDROOT
BRANCH   1   2
ATOM      2  C   UNL A   1      36.830  20.760  24.475  1.00  0.00     0.118 C 
BRANCH   2   3
ATOM      3  N   UNL A   1      35.794  20.960  25.472  1.00  0.00    -0.352 N 
ATOM      4  C   UNL A   1      34.496  20.535  25.569  1.00  0.00     0.256 C 
ATOM      5  O   UNL A   1      33.872  20.883  26.573  1.00  0.00    -0.269 OA
ATOM      6  H   UNL A   1      36.083  21.514  26.233  1.00  0.00     0.163 HD
BRANCH   4   7
ATOM      7  C   UNL A   1      33.811  19.648  24.603  1.00  0.00     0.098 A 
ATOM      8  C   UNL A   1      33.495  17.380  23.821  1.00  0.00     0.138 A 
ATOM      9  C   UNL A   1      32.562  17.863  22.920  1.00  0.00     0.160 A 
ATOM     10  C   UNL A   1      34.154  18.287  24.643  1.00  0.00     0.066 A 
ATOM     11  N   UNL A   1      32.187  19.159  22.866  1.00  0.00    -0.224 NA
ATOM     12  C   UNL A   1      32.796  20.009  23.732  1.00  0.00     0.225 A 
ATOM     13  F   UNL A   1      32.288  21.246  23.743  1.00  0.00    -0.184 F 
BRANCH   8  14
ATOM     14  O   UNL A   1      33.749  16.041  23.859  1.00  0.00    -0.495 OA
ATOM     15  C   UNL A   1      33.231  15.463  25.061  1.00  0.00     0.278 C 
ENDBRANCH   8  14
ENDBRANCH   4   7
ENDBRANCH   2   3
ENDBRANCH   1   2
BRANCH   1  16
ATOM     16  C   UNL A   1      38.884  20.155  25.884  1.00  0.00     0.118 C 
BRANCH  16  17
ATOM     17  N   UNL A   1      40.064  19.306  25.869  1.00  0.00    -0.352 N 
ATOM     18  C   UNL A   1      41.387  19.627  26.042  1.00  0.00     0.251 C 
ATOM     19  H   UNL A   1      39.886  18.351  25.709  1.00  0.00     0.163 HD
ATOM     20  O   UNL A   1      42.245  18.787  25.782  1.00  0.00    -0.269 OA
BRANCH  18  21
ATOM     21  C   UNL A   1      41.801  20.962  26.533  1.00  0.00     0.039 A 
ATOM     22  C   UNL A   1      41.791  21.194  27.913  1.00  0.00     0.014 A 
ATOM     23  C   UNL A   1      42.122  22.004  25.658  1.00  0.00     0.014 A 
ATOM     24  C   UNL A   1      42.132  22.453  28.415  1.00  0.00     0.010 A 
ATOM     25  C   UNL A   1      42.525  23.242  26.162  1.00  0.00     0.010 A 
ATOM     26  C   UNL A   1      42.521  23.483  27.544  1.00  0.00    -0.014 A 
BRANCH  26  27
ATOM     27  C   UNL A   1      42.904  24.819  28.068  1.00  0.00     0.031 A 
ATOM     28  C   UNL A   1      41.855  25.868  28.322  1.00  0.00     0.074 A 
ATOM     29  C   UNL A   1      44.202  25.105  28.279  1.00  0.00     0.049 A 
ATOM     30  N   UNL A   1      42.003  27.097  28.750  1.00  0.00    -0.248 NA
ATOM     31  C   UNL A   1      40.460  25.494  28.038  1.00  0.00     0.031 C 
ATOM     32  C   UNL A   1      45.321  24.191  28.042  1.00  0.00     0.029 A 
ATOM     33  N   UNL A   1      44.801  26.251  28.741  1.00  0.00    -0.354 N 
ATOM     34  C   UNL A   1      40.726  27.647  28.770  1.00  0.00     0.074 A 
ATOM     35  C   UNL A   1      39.823  26.633  28.271  1.00  0.00     0.031 C 
ATOM     36  C   UNL A   1      46.467  24.802  28.385  1.00  0.00     0.029 A 
ATOM     37  C   UNL A   1      46.168  26.158  28.833  1.00  0.00     0.049 A 
ATOM     38  H   UNL A   1      44.298  27.061  28.984  1.00  0.00     0.167 HD
ATOM     39  C   UNL A   1      40.337  28.877  29.181  1.00  0.00     0.031 A 
ATOM     40  C   UNL A   1      47.081  27.064  29.232  1.00  0.00     0.031 A 
ATOM     41  C   UNL A   1      41.230  29.883  29.692  1.00  0.00     0.049 A 
ATOM     42  C   UNL A   1      46.624  28.422  29.684  1.00  0.00     0.074 A 
ATOM     43  C   UNL A   1      40.923  31.141  30.182  1.00  0.00     0.029 A 
ATOM     44  N   UNL A   1      42.606  29.746  29.776  1.00  0.00    -0.354 N 
ATOM     45  N   UNL A   1      45.407  28.903  29.754  1.00  0.00    -0.248 NA
ATOM     46  C   UNL A   1      47.669  29.357  30.125  1.00  0.00     0.031 C 
ATOM     47  C   UNL A   1      42.119  31.781  30.526  1.00  0.00     0.029 A 
ATOM     48  C   UNL A   1      43.166  30.902  30.293  1.00  0.00     0.049 A 
ATOM     49  H   UNL A   1      43.111  28.944  29.507  1.00  0.00     0.167 HD
ATOM     50  C   UNL A   1      45.536  30.185  30.270  1.00  0.00     0.074 A 
ATOM     51  C   UNL A   1      46.949  30.401  30.510  1.00  0.00     0.031 C 
ATOM     52  C   UNL A   1      44.572  31.103  30.524  1.00  0.00     0.031 A 
BRANCH  39  53
ATOM     53  C   UNL A   1      38.872  29.206  29.088  1.00  0.00    -0.014 A 
ATOM     54  C   UNL A   1      38.004  28.968  30.165  1.00  0.00     0.009 A 
ATOM     55  C   UNL A   1      38.360  29.789  27.919  1.00  0.00     0.009 A 
ATOM     56  C   UNL A   1      36.645  29.274  30.060  1.00  0.00     0.001 A 
ATOM     57  C   UNL A   1      37.007  30.120  27.826  1.00  0.00     0.001 A 
ATOM     58  C   UNL A   1      36.149  29.852  28.892  1.00  0.00     0.000 A 
ENDBRANCH  39  53
BRANCH  40  59
ATOM     59  C   UNL A   1      48.523  26.708  29.245  1.00  0.00    -0.014 A 
ATOM     60  C   UNL A   1      49.313  26.908  28.103  1.00  0.00     0.009 A 
ATOM     61  C   UNL A   1      49.116  26.166  30.397  1.00  0.00     0.009 A 
ATOM     62  C   UNL A   1      50.664  26.549  28.106  1.00  0.00     0.001 A 
ATOM     63  C   UNL A   1      50.472  25.835  30.405  1.00  0.00     0.001 A 
ATOM     64  C   UNL A   1      51.242  26.018  29.257  1.00  0.00     0.000 A 
ENDBRANCH  40  59
BRANCH  52  65
ATOM     65  C   UNL A   1      45.011  32.410  31.119  1.00  0.00    -0.014 A 
ATOM     66  C   UNL A   1      45.335  33.508  30.307  1.00  0.00     0.009 A 
ATOM     67  C   UNL A   1      45.070  32.553  32.514  1.00  0.00     0.009 A 
ATOM     68  C   UNL A   1      45.745  34.712  30.882  1.00  0.00     0.001 A 
ATOM     69  C   UNL A   1      45.454  33.765  33.086  1.00  0.00     0.001 A 
ATOM     70  C   UNL A   1      45.800  34.842  32.269  1.00  0.00     0.000 A 
ENDBRANCH  52  65
ENDBRANCH  26  27
ENDBRANCH  18  21
ENDBRANCH  16  17
ENDBRANCH   1  16
TORSDOF 11
ENDMDL
MODEL 2
REMARK VINA RESULT:     -10.2      4.908      8.868
REMARK SMILES COc1cnc(F)c(C(=O)NCCCNC(=O)c2ccc(-c3c4nc(c(-c5ccccc5)c5ccc([nH]5)c(-c5ccccc5)c5nc(c(-c6ccccc6)c6ccc3[nH]6)C=C5)C=C4)cc2)c1
REMARK SMILES IDX 13 1 12 2 11 3 9 4 10 5 8 7 3 8 4 9 66 10 5 11 6 12 7 13
REMARK SMILES IDX 2 14 1 15 14 16 15 17 16 18 17 20 18 21 19 22 65 23 20 24
REMARK SMILES IDX 64 25 21 26 22 27 23 28 58 29 24 30 63 31 57 32 59 33 25 34
REMARK SMILES IDX 62 35 56 36 55 37 26 39 48 40 33 41 47 42 34 43 37 44 46 45
REMARK SMILES IDX 60 46 35 47 36 48 45 50 61 51 38 52 27 53 28 54 32 55 29 56
REMARK SMILES IDX 31 57 30 58 49 59 50 60 54 61 51 62 53 63 52 64 39 65 40 66
REMARK SMILES IDX 44 67 41 68 43 69 42 70
REMARK H PARENT 11 6 15 19 59 38 37 49
REMARK Flexibility Score: inf
ROOT
ATOM      1  C   UNL A   1      32.263  27.803  26.248  1.00  0.00     0.042 C 
ENDROOT
BRANCH   1   2
ATOM      2  C   UNL A   1      31.847  28.740  25.112  1.00  0.00     0.118 C 
BRANCH   2   3
ATOM      3  N   UNL A   1      31.726  28.020  23.857  1.00  0.00    -0.352 N 
ATOM      4  C   UNL A   1      30.782  28.023  22.866  1.00  0.00     0.256 C 
ATOM      5  O   UNL A   1      30.988  27.280  21.903  1.00  0.00    -0.269 OA
ATOM      6  H   UNL A   1      32.475  27.404  23.684  1.00  0.00     0.163 HD
BRANCH   4   7
ATOM      7  C   UNL A   1      29.581  28.884  22.830  1.00  0.00     0.098 A 
ATOM      8  C   UNL A   1      28.645  31.014  22.162  1.00  0.00     0.138 A 
ATOM      9  C   UNL A   1      27.418  30.575  22.625  1.00  0.00     0.160 A 
ATOM     10  C   UNL A   1      29.746  30.175  22.302  1.00  0.00     0.066 A 
ATOM     11  N   UNL A   1      27.212  29.335  23.117  1.00  0.00    -0.224 NA
ATOM     12  C   UNL A   1      28.291  28.512  23.173  1.00  0.00     0.225 A 
ATOM     13  F   UNL A   1      28.010  27.254  23.526  1.00  0.00    -0.184 F 
BRANCH   8  14
ATOM     14  O   UNL A   1      28.740  32.255  21.605  1.00  0.00    -0.495 OA
ATOM     15  C   UNL A   1      27.925  32.344  20.431  1.00  0.00     0.278 C 
ENDBRANCH   8  14
ENDBRANCH   4   7
ENDBRANCH   2   3
ENDBRANCH   1   2
BRANCH   1  16
ATOM     16  C   UNL A   1      33.414  28.333  27.099  1.00  0.00     0.118 C 
BRANCH  16  17
ATOM     17  N   UNL A   1      33.377  29.781  27.232  1.00  0.00    -0.352 N 
ATOM     18  C   UNL A   1      34.271  30.638  27.823  1.00  0.00     0.251 C 
ATOM     19  H   UNL A   1      32.587  30.214  26.836  1.00  0.00     0.163 HD
ATOM     20  O   UNL A   1      33.944  31.808  28.009  1.00  0.00    -0.269 OA
BRANCH  18  21
ATOM     21  C   UNL A   1      35.617  30.183  28.243  1.00  0.00     0.039 A 
ATOM     22  C   UNL A   1      36.660  30.250  27.312  1.00  0.00     0.014 A 
ATOM     23  C   UNL A   1      35.848  29.624  29.503  1.00  0.00     0.014 A 
ATOM     24  C   UNL A   1      37.935  29.790  27.654  1.00  0.00     0.010 A 
ATOM     25  C   UNL A   1      37.135  29.224  29.865  1.00  0.00     0.010 A 
ATOM     26  C   UNL A   1      38.188  29.290  28.941  1.00  0.00    -0.014 A 
BRANCH  26  27
ATOM     27  C   UNL A   1      39.544  28.816  29.321  1.00  0.00     0.031 A 
ATOM     28  C   UNL A   1      40.446  29.681  30.159  1.00  0.00     0.074 A 
ATOM     29  C   UNL A   1      39.981  27.622  28.880  1.00  0.00     0.049 A 
ATOM     30  N   UNL A   1      41.670  29.448  30.564  1.00  0.00    -0.248 NA
ATOM     31  C   UNL A   1      39.913  30.987  30.579  1.00  0.00     0.031 C 
ATOM     32  C   UNL A   1      39.219  26.701  28.033  1.00  0.00     0.029 A 
ATOM     33  N   UNL A   1      41.176  26.977  29.081  1.00  0.00    -0.354 N 
ATOM     34  C   UNL A   1      42.058  30.582  31.270  1.00  0.00     0.074 A 
ATOM     35  C   UNL A   1      40.956  31.517  31.200  1.00  0.00     0.031 C 
ATOM     36  C   UNL A   1      39.955  25.600  27.811  1.00  0.00     0.029 A 
ATOM     37  C   UNL A   1      41.249  25.751  28.468  1.00  0.00     0.049 A 
ATOM     38  H   UNL A   1      41.910  27.359  29.615  1.00  0.00     0.167 HD
ATOM     39  C   UNL A   1      43.217  30.818  31.929  1.00  0.00     0.031 A 
ATOM     40  C   UNL A   1      42.247  24.847  28.437  1.00  0.00     0.031 A 
ATOM     41  C   UNL A   1      44.308  29.884  32.012  1.00  0.00     0.049 A 
ATOM     42  C   UNL A   1      43.524  25.132  29.177  1.00  0.00     0.074 A 
ATOM     43  C   UNL A   1      45.502  30.011  32.702  1.00  0.00     0.029 A 
ATOM     44  N   UNL A   1      44.339  28.649  31.384  1.00  0.00    -0.354 N 
ATOM     45  N   UNL A   1      43.848  26.183  29.889  1.00  0.00    -0.248 NA
ATOM     46  C   UNL A   1      44.565  24.096  29.119  1.00  0.00     0.031 C 
ATOM     47  C   UNL A   1      46.273  28.869  32.457  1.00  0.00     0.029 A 
ATOM     48  C   UNL A   1      45.538  28.011  31.654  1.00  0.00     0.049 A 
ATOM     49  H   UNL A   1      43.615  28.280  30.828  1.00  0.00     0.167 HD
ATOM     50  C   UNL A   1      45.120  25.926  30.385  1.00  0.00     0.074 A 
ATOM     51  C   UNL A   1      45.499  24.613  29.904  1.00  0.00     0.031 C 
ATOM     52  C   UNL A   1      45.903  26.707  31.168  1.00  0.00     0.031 A 
BRANCH  39  53
ATOM     53  C   UNL A   1      43.366  32.150  32.611  1.00  0.00    -0.014 A 
ATOM     54  C   UNL A   1      42.967  32.332  33.944  1.00  0.00     0.009 A 
ATOM     55  C   UNL A   1      43.939  33.228  31.919  1.00  0.00     0.009 A 
ATOM     56  C   UNL A   1      43.108  33.578  34.560  1.00  0.00     0.001 A 
ATOM     57  C   UNL A   1      44.103  34.465  32.546  1.00  0.00     0.001 A 
ATOM     58  C   UNL A   1      43.678  34.642  33.862  1.00  0.00     0.000 A 
ENDBRANCH  39  53
BRANCH  40  59
ATOM     59  C   UNL A   1      42.071  23.573  27.695  1.00  0.00    -0.014 A 
ATOM     60  C   UNL A   1      42.448  23.479  26.347  1.00  0.00     0.009 A 
ATOM     61  C   UNL A   1      41.526  22.445  28.329  1.00  0.00     0.009 A 
ATOM     62  C   UNL A   1      42.259  22.288  25.641  1.00  0.00     0.001 A 
ATOM     63  C   UNL A   1      41.363  21.249  27.629  1.00  0.00     0.001 A 
ATOM     64  C   UNL A   1      41.722  21.174  26.283  1.00  0.00     0.000 A 
ENDBRANCH  40  59
BRANCH  52  65
ATOM     65  C   UNL A   1      47.234  26.146  31.579  1.00  0.00    -0.014 A 
ATOM     66  C   UNL A   1      48.363  26.270  30.754  1.00  0.00     0.009 A 
ATOM     67  C   UNL A   1      47.366  25.512  32.824  1.00  0.00     0.009 A 
ATOM     68  C   UNL A   1      49.589  25.738  31.154  1.00  0.00     0.001 A 
ATOM     69  C   UNL A   1      48.599  25.004  33.232  1.00  0.00     0.001 A 
ATOM     70  C   UNL A   1      49.708  25.110  32.393  1.00  0.00     0.000 A 
ENDBRANCH  52  65
ENDBRANCH  26  27
ENDBRANCH  18  21
ENDBRANCH  16  17
ENDBRANCH   1  16
TORSDOF 11
ENDMDL
MODEL 3
REMARK VINA RESULT:     -10.2      2.242      6.812
REMARK SMILES COc1cnc(F)c(C(=O)NCCCNC(=O)c2ccc(-c3c4nc(c(-c5ccccc5)c5ccc([nH]5)c(-c5ccccc5)c5nc(c(-c6ccccc6)c6ccc3[nH]6)C=C5)C=C4)cc2)c1
REMARK SMILES IDX 13 1 12 2 11 3 9 4 10 5 8 7 3 8 4 9 66 10 5 11 6 12 7 13
REMARK SMILES IDX 2 14 1 15 14 16 15 17 16 18 17 20 18 21 19 22 65 23 20 24
REMARK SMILES IDX 64 25 21 26 22 27 23 28 58 29 24 30 63 31 57 32 59 33 25 34
REMARK SMILES IDX 62 35 56 36 55 37 26 39 48 40 33 41 47 42 34 43 37 44 46 45
REMARK SMILES IDX 60 46 35 47 36 48 45 50 61 51 38 52 27 53 28 54 32 55 29 56
REMARK SMILES IDX 31 57 30 58 49 59 50 60 54 61 51 62 53 63 52 64 39 65 40 66
REMARK SMILES IDX 44 67 41 68 43 69 42 70
REMARK H PARENT 11 6 15 19 59 38 37 49
REMARK Flexibility Score: inf
ROOT
ATOM      1  C   UNL A   1      38.318  19.572  24.982  1.00  0.00     0.042 C 
ENDROOT
BRANCH   1   2
ATOM      2  C   UNL A   1      37.194  20.610  24.948  1.00  0.00     0.118 C 
BRANCH   2   3
ATOM      3  N   UNL A   1      37.626  21.869  25.528  1.00  0.00    -0.352 N 
ATOM      4  C   UNL A   1      37.176  23.156  25.407  1.00  0.00     0.256 C 
ATOM      5  O   UNL A   1      37.775  24.016  26.057  1.00  0.00    -0.269 OA
ATOM      6  H   UNL A   1      38.398  21.778  26.133  1.00  0.00     0.163 HD
BRANCH   4   7
ATOM      7  C   UNL A   1      36.003  23.582  24.613  1.00  0.00     0.098 A 
ATOM      8  C   UNL A   1      33.989  24.923  24.551  1.00  0.00     0.138 A 
ATOM      9  C   UNL A   1      33.810  24.521  23.239  1.00  0.00     0.160 A 
ATOM     10  C   UNL A   1      35.076  24.417  25.257  1.00  0.00     0.066 A 
ATOM     11  N   UNL A   1      34.689  23.740  22.577  1.00  0.00    -0.224 NA
ATOM     12  C   UNL A   1      35.779  23.321  23.271  1.00  0.00     0.225 A 
ATOM     13  F   UNL A   1      36.690  22.677  22.534  1.00  0.00    -0.184 F 
BRANCH   8  14
ATOM     14  O   UNL A   1      33.090  25.781  25.112  1.00  0.00    -0.495 OA
ATOM     15  C   UNL A   1      31.756  25.289  24.952  1.00  0.00     0.278 C 
ENDBRANCH   8  14
ENDBRANCH   4   7
ENDBRANCH   2   3
ENDBRANCH   1   2
BRANCH   1  16
ATOM     16  C   UNL A   1      39.313  19.775  26.122  1.00  0.00     0.118 C 
BRANCH  16  17
ATOM     17  N   UNL A   1      40.584  19.116  25.866  1.00  0.00    -0.352 N 
ATOM     18  C   UNL A   1      41.860  19.622  25.869  1.00  0.00     0.251 C 
ATOM     19  H   UNL A   1      40.519  18.156  25.656  1.00  0.00     0.163 HD
ATOM     20  O   UNL A   1      42.775  18.938  25.418  1.00  0.00    -0.269 OA
BRANCH  18  21
ATOM     21  C   UNL A   1      42.154  20.973  26.401  1.00  0.00     0.039 A 
ATOM     22  C   UNL A   1      42.039  21.183  27.779  1.00  0.00     0.014 A 
ATOM     23  C   UNL A   1      42.463  22.046  25.561  1.00  0.00     0.014 A 
ATOM     24  C   UNL A   1      42.266  22.453  28.317  1.00  0.00     0.010 A 
ATOM     25  C   UNL A   1      42.751  23.300  26.104  1.00  0.00     0.010 A 
ATOM     26  C   UNL A   1      42.642  23.519  27.485  1.00  0.00    -0.014 A 
BRANCH  26  27
ATOM     27  C   UNL A   1      42.904  24.868  28.048  1.00  0.00     0.031 A 
ATOM     28  C   UNL A   1      44.296  25.266  28.460  1.00  0.00     0.074 A 
ATOM     29  C   UNL A   1      41.882  25.726  28.226  1.00  0.00     0.049 A 
ATOM     30  N   UNL A   1      44.710  26.387  28.995  1.00  0.00    -0.248 NA
ATOM     31  C   UNL A   1      45.357  24.266  28.265  1.00  0.00     0.031 C 
ATOM     32  C   UNL A   1      40.480  25.454  27.900  1.00  0.00     0.029 A 
ATOM     33  N   UNL A   1      41.865  27.004  28.728  1.00  0.00    -0.354 N 
ATOM     34  C   UNL A   1      46.073  26.221  29.216  1.00  0.00     0.074 A 
ATOM     35  C   UNL A   1      46.406  24.877  28.797  1.00  0.00     0.031 C 
ATOM     36  C   UNL A   1      39.745  26.540  28.186  1.00  0.00     0.029 A 
ATOM     37  C   UNL A   1      40.614  27.571  28.745  1.00  0.00     0.049 A 
ATOM     38  H   UNL A   1      42.672  27.469  29.046  1.00  0.00     0.167 HD
ATOM     39  C   UNL A   1      46.969  27.110  29.707  1.00  0.00     0.031 A 
ATOM     40  C   UNL A   1      40.210  28.785  29.164  1.00  0.00     0.031 A 
ATOM     41  C   UNL A   1      46.644  28.452  30.111  1.00  0.00     0.049 A 
ATOM     42  C   UNL A   1      41.224  29.754  29.704  1.00  0.00     0.074 A 
ATOM     43  C   UNL A   1      47.492  29.444  30.571  1.00  0.00     0.029 A 
ATOM     44  N   UNL A   1      45.367  28.990  30.104  1.00  0.00    -0.354 N 
ATOM     45  N   UNL A   1      42.517  29.600  29.848  1.00  0.00    -0.248 NA
ATOM     46  C   UNL A   1      40.720  31.069  30.126  1.00  0.00     0.031 C 
ATOM     47  C   UNL A   1      46.722  30.571  30.881  1.00  0.00     0.029 A 
ATOM     48  C   UNL A   1      45.401  30.294  30.569  1.00  0.00     0.049 A 
ATOM     49  H   UNL A   1      44.555  28.515  29.811  1.00  0.00     0.167 HD
ATOM     50  C   UNL A   1      42.987  30.806  30.353  1.00  0.00     0.074 A 
ATOM     51  C   UNL A   1      41.841  31.684  30.475  1.00  0.00     0.031 C 
ATOM     52  C   UNL A   1      44.253  31.155  30.686  1.00  0.00     0.031 A 
BRANCH  39  53
ATOM     53  C   UNL A   1      48.395  26.651  29.841  1.00  0.00    -0.014 A 
ATOM     54  C   UNL A   1      48.842  25.995  30.998  1.00  0.00     0.009 A 
ATOM     55  C   UNL A   1      49.295  26.852  28.783  1.00  0.00     0.009 A 
ATOM     56  C   UNL A   1      50.171  25.581  31.108  1.00  0.00     0.001 A 
ATOM     57  C   UNL A   1      50.616  26.412  28.885  1.00  0.00     0.001 A 
ATOM     58  C   UNL A   1      51.056  25.787  30.051  1.00  0.00     0.000 A 
ENDBRANCH  39  53
BRANCH  40  59
ATOM     59  C   UNL A   1      38.778  29.164  29.068  1.00  0.00    -0.014 A 
ATOM     60  C   UNL A   1      38.259  29.684  27.872  1.00  0.00     0.009 A 
ATOM     61  C   UNL A   1      37.921  29.009  30.169  1.00  0.00     0.009 A 
ATOM     62  C   UNL A   1      36.918  30.065  27.789  1.00  0.00     0.001 A 
ATOM     63  C   UNL A   1      36.575  29.365  30.074  1.00  0.00     0.001 A 
ATOM     64  C   UNL A   1      36.077  29.901  28.888  1.00  0.00     0.000 A 
ENDBRANCH  40  59
BRANCH  52  65
ATOM     65  C   UNL A   1      44.469  32.555  31.183  1.00  0.00    -0.014 A 
ATOM     66  C   UNL A   1      44.733  33.610  30.296  1.00  0.00     0.009 A 
ATOM     67  C   UNL A   1      44.376  32.827  32.557  1.00  0.00     0.009 A 
ATOM     68  C   UNL A   1      44.935  34.904  30.780  1.00  0.00     0.001 A 
ATOM     69  C   UNL A   1      44.552  34.126  33.035  1.00  0.00     0.001 A 
ATOM     70  C   UNL A   1      44.840  35.162  32.147  1.00  0.00     0.000 A 
ENDBRANCH  52  65
ENDBRANCH  26  27
ENDBRANCH  18  21
ENDBRANCH  16  17
ENDBRANCH   1  16
TORSDOF 11
ENDMDL
