MODEL 1
REMARK VINA RESULT:     -12.6      0.000      0.000
REMARK SMILES Cc1nc[nH]c1C(=O)N1CCC2(CC1)C[C@@H](C(=O)NCCCNC(=O)c1ccc(-c3c4nc(c(-c5ccccc5)c5ccc([nH]5)c(-c5ccccc5)c5nc(c(-c6ccccc6)c6ccc3[nH]6)C=C5)C=C4)cc1)N(C(=O)C1CC1)C2
REMARK SMILES IDX 21 1 20 2 19 3 17 4 18 5 16 7 7 8 8 9 9 10 10 11 14 12 11 13
REMARK SMILES IDX 13 14 12 15 15 16 80 17 74 18 6 19 1 20 2 21 3 22 4 23 5 24
REMARK SMILES IDX 75 26 76 27 77 28 78 29 79 30 22 31 23 32 24 33 25 35 26 36
REMARK SMILES IDX 27 37 73 38 28 39 72 40 29 41 30 42 31 43 66 44 32 45 71 46
REMARK SMILES IDX 65 47 67 48 33 49 70 50 64 51 63 52 34 54 56 55 41 56 55 57
REMARK SMILES IDX 42 58 45 59 54 60 68 61 43 62 44 63 53 65 69 66 46 67 35 68
REMARK SMILES IDX 36 69 40 70 37 71 39 72 38 73 57 74 58 75 62 76 59 77 61 78
REMARK SMILES IDX 60 79 47 80 48 81 52 82 49 83 51 84 50 85
REMARK H PARENT 19 6 5 25 23 34 67 53 45 64
REMARK Flexibility Score: inf
ROOT
ATOM      1  C   UNL A   1      31.420  31.987  26.497  1.00  0.00     0.042 C 
ENDROOT
BRANCH   1   2
ATOM      2  C   UNL A   1      31.621  30.508  26.265  1.00  0.00     0.117 C 
BRANCH   2   3
ATOM      3  N   UNL A   1      32.605  30.118  25.302  1.00  0.00    -0.354 N 
ATOM      4  C   UNL A   1      32.646  28.913  24.643  1.00  0.00     0.242 C 
ATOM      5  O   UNL A   1      33.057  28.945  23.477  1.00  0.00    -0.273 OA
ATOM      6  H   UNL A   1      33.314  30.769  25.095  1.00  0.00     0.163 HD
BRANCH   4   7
ATOM      7  C   UNL A   1      32.048  27.593  25.241  1.00  0.00     0.175 C 
ATOM      8  C   UNL A   1      34.968  21.467  24.767  1.00  0.00     0.272 C 
ATOM      9  O   UNL A   1      34.338  20.419  24.626  1.00  0.00    -0.267 OA
ATOM     10  N   UNL A   1      34.316  22.688  24.745  1.00  0.00    -0.337 N 
ATOM     11  C   UNL A   1      32.956  22.774  25.253  1.00  0.00     0.120 C 
ATOM     12  C   UNL A   1      34.726  23.768  23.872  1.00  0.00     0.120 C 
ATOM     13  C   UNL A   1      32.773  24.094  26.023  1.00  0.00     0.030 C 
ATOM     14  C   UNL A   1      34.520  25.101  24.569  1.00  0.00     0.030 C 
ATOM     15  C   UNL A   1      33.083  25.325  25.124  1.00  0.00    -0.006 C 
ATOM     16  C   UNL A   1      33.053  26.660  25.922  1.00  0.00     0.044 C 
ATOM     17  C   UNL A   1      31.939  25.463  24.089  1.00  0.00     0.127 C 
ATOM     18  N   UNL A   1      31.312  26.756  24.299  1.00  0.00    -0.330 N 
BRANCH   8  19
ATOM     19  C   UNL A   1      36.389  21.439  25.045  1.00  0.00     0.127 A 
ATOM     20  C   UNL A   1      37.174  23.692  26.123  1.00  0.00     0.069 C 
ATOM     21  C   UNL A   1      37.312  22.315  25.608  1.00  0.00     0.068 A 
ATOM     22  N   UNL A   1      38.540  21.704  25.753  1.00  0.00    -0.241 NA
ATOM     23  C   UNL A   1      38.374  20.472  25.345  1.00  0.00     0.197 A 
ATOM     24  N   UNL A   1      37.111  20.273  24.887  1.00  0.00    -0.340 N 
ATOM     25  H   UNL A   1      36.765  19.433  24.506  1.00  0.00     0.168 HD
ENDBRANCH   8  19
BRANCH  18  26
ATOM     26  C   UNL A   1      30.045  27.188  23.926  1.00  0.00     0.226 C 
ATOM     27  O   UNL A   1      29.041  26.702  24.433  1.00  0.00    -0.275 OA
BRANCH  26  28
ATOM     28  C   UNL A   1      29.810  28.273  22.932  1.00  0.00     0.079 C 
ATOM     29  C   UNL A   1      28.539  28.948  22.513  1.00  0.00     0.014 C 
ATOM     30  C   UNL A   1      29.520  29.685  23.384  1.00  0.00     0.014 C 
ENDBRANCH  26  28
ENDBRANCH  18  26
ENDBRANCH   4   7
ENDBRANCH   2   3
ENDBRANCH   1   2
BRANCH   1  31
ATOM     31  C   UNL A   1      32.585  32.631  27.218  1.00  0.00     0.118 C 
BRANCH  31  32
ATOM     32  N   UNL A   1      32.327  34.012  27.627  1.00  0.00    -0.352 N 
ATOM     33  C   UNL A   1      32.976  34.804  28.545  1.00  0.00     0.251 C 
ATOM     34  H   UNL A   1      31.567  34.443  27.172  1.00  0.00     0.163 HD
ATOM     35  O   UNL A   1      32.526  35.914  28.813  1.00  0.00    -0.269 OA
BRANCH  33  36
ATOM     36  C   UNL A   1      34.182  34.306  29.241  1.00  0.00     0.039 A 
ATOM     37  C   UNL A   1      34.031  33.543  30.402  1.00  0.00     0.014 A 
ATOM     38  C   UNL A   1      35.457  34.561  28.739  1.00  0.00     0.014 A 
ATOM     39  C   UNL A   1      35.156  32.976  31.004  1.00  0.00     0.010 A 
ATOM     40  C   UNL A   1      36.551  33.879  29.249  1.00  0.00     0.010 A 
ATOM     41  C   UNL A   1      36.419  33.100  30.403  1.00  0.00    -0.014 A 
BRANCH  41  42
ATOM     42  C   UNL A   1      37.616  32.440  30.979  1.00  0.00     0.031 A 
ATOM     43  C   UNL A   1      38.205  32.936  32.273  1.00  0.00     0.074 A 
ATOM     44  C   UNL A   1      38.203  31.431  30.307  1.00  0.00     0.049 A 
ATOM     45  N   UNL A   1      39.237  32.480  32.936  1.00  0.00    -0.248 NA
ATOM     46  C   UNL A   1      37.582  34.122  32.884  1.00  0.00     0.031 C 
ATOM     47  C   UNL A   1      37.775  30.916  29.004  1.00  0.00     0.029 A 
ATOM     48  N   UNL A   1      39.285  30.652  30.632  1.00  0.00    -0.354 N 
ATOM     49  C   UNL A   1      39.393  33.332  34.023  1.00  0.00     0.074 A 
ATOM     50  C   UNL A   1      38.402  34.374  33.891  1.00  0.00     0.031 C 
ATOM     51  C   UNL A   1      38.549  29.872  28.668  1.00  0.00     0.029 A 
ATOM     52  C   UNL A   1      39.550  29.670  29.708  1.00  0.00     0.049 A 
ATOM     53  H   UNL A   1      39.818  30.785  31.447  1.00  0.00     0.167 HD
ATOM     54  C   UNL A   1      40.263  33.240  35.056  1.00  0.00     0.031 A 
ATOM     55  C   UNL A   1      40.489  28.706  29.708  1.00  0.00     0.031 A 
ATOM     56  C   UNL A   1      41.235  32.191  35.189  1.00  0.00     0.049 A 
ATOM     57  C   UNL A   1      41.424  28.603  30.878  1.00  0.00     0.074 A 
ATOM     58  C   UNL A   1      42.115  31.958  36.231  1.00  0.00     0.029 A 
ATOM     59  N   UNL A   1      41.458  31.201  34.244  1.00  0.00    -0.354 N 
ATOM     60  N   UNL A   1      41.495  29.358  31.949  1.00  0.00    -0.248 NA
ATOM     61  C   UNL A   1      42.395  27.501  30.852  1.00  0.00     0.031 C 
ATOM     62  C   UNL A   1      42.912  30.861  35.887  1.00  0.00     0.029 A 
ATOM     63  C   UNL A   1      42.480  30.368  34.666  1.00  0.00     0.049 A 
ATOM     64  H   UNL A   1      40.962  31.104  33.399  1.00  0.00     0.167 HD
ATOM     65  C   UNL A   1      42.496  28.805  32.737  1.00  0.00     0.074 A 
ATOM     66  C   UNL A   1      42.991  27.642  32.028  1.00  0.00     0.031 C 
ATOM     67  C   UNL A   1      42.961  29.220  33.941  1.00  0.00     0.031 A 
BRANCH  54  68
ATOM     68  C   UNL A   1      40.200  34.311  36.111  1.00  0.00    -0.014 A 
ATOM     69  C   UNL A   1      40.966  35.485  36.013  1.00  0.00     0.009 A 
ATOM     70  C   UNL A   1      39.350  34.152  37.217  1.00  0.00     0.009 A 
ATOM     71  C   UNL A   1      40.919  36.451  37.021  1.00  0.00     0.001 A 
ATOM     72  C   UNL A   1      39.278  35.135  38.205  1.00  0.00     0.001 A 
ATOM     73  C   UNL A   1      40.072  36.277  38.113  1.00  0.00     0.000 A 
ENDBRANCH  54  68
BRANCH  55  74
ATOM     74  C   UNL A   1      40.557  27.741  28.579  1.00  0.00    -0.014 A 
ATOM     75  C   UNL A   1      39.871  26.517  28.641  1.00  0.00     0.009 A 
ATOM     76  C   UNL A   1      41.293  28.045  27.423  1.00  0.00     0.009 A 
ATOM     77  C   UNL A   1      39.940  25.611  27.581  1.00  0.00     0.001 A 
ATOM     78  C   UNL A   1      41.335  27.151  26.351  1.00  0.00     0.001 A 
ATOM     79  C   UNL A   1      40.666  25.931  26.434  1.00  0.00     0.000 A 
ENDBRANCH  55  74
BRANCH  67  80
ATOM     80  C   UNL A   1      44.034  28.387  34.586  1.00  0.00    -0.014 A 
ATOM     81  C   UNL A   1      45.396  28.670  34.400  1.00  0.00     0.009 A 
ATOM     82  C   UNL A   1      43.669  27.321  35.423  1.00  0.00     0.009 A 
ATOM     83  C   UNL A   1      46.370  27.877  35.007  1.00  0.00     0.001 A 
ATOM     84  C   UNL A   1      44.645  26.551  36.057  1.00  0.00     0.001 A 
ATOM     85  C   UNL A   1      45.994  26.822  35.839  1.00  0.00     0.000 A 
ENDBRANCH  67  80
ENDBRANCH  41  42
ENDBRANCH  33  36
ENDBRANCH  31  32
ENDBRANCH   1  31
TORSDOF 13
ENDMDL
MODEL 2
REMARK VINA RESULT:     -12.6      4.415     10.330
REMARK SMILES Cc1nc[nH]c1C(=O)N1CCC2(CC1)C[C@@H](C(=O)NCCCNC(=O)c1ccc(-c3c4nc(c(-c5ccccc5)c5ccc([nH]5)c(-c5ccccc5)c5nc(c(-c6ccccc6)c6ccc3[nH]6)C=C5)C=C4)cc1)N(C(=O)C1CC1)C2
REMARK SMILES IDX 21 1 20 2 19 3 17 4 18 5 16 7 7 8 8 9 9 10 10 11 14 12 11 13
REMARK SMILES IDX 13 14 12 15 15 16 80 17 74 18 6 19 1 20 2 21 3 22 4 23 5 24
REMARK SMILES IDX 75 26 76 27 77 28 78 29 79 30 22 31 23 32 24 33 25 35 26 36
REMARK SMILES IDX 27 37 73 38 28 39 72 40 29 41 30 42 31 43 66 44 32 45 71 46
REMARK SMILES IDX 65 47 67 48 33 49 70 50 64 51 63 52 34 54 56 55 41 56 55 57
REMARK SMILES IDX 42 58 45 59 54 60 68 61 43 62 44 63 53 65 69 66 46 67 35 68
REMARK SMILES IDX 36 69 40 70 37 71 39 72 38 73 57 74 58 75 62 76 59 77 61 78
REMARK SMILES IDX 60 79 47 80 48 81 52 82 49 83 51 84 50 85
REMARK H PARENT 19 6 5 25 23 34 67 53 45 64
REMARK Flexibility Score: inf
ROOT
ATOM      1  C   UNL A   1      37.824  19.609  25.110  1.00  0.00     0.042 C 
ENDROOT
BRANCH   1   2
ATOM      2  C   UNL A   1      36.845  20.731  24.855  1.00  0.00     0.117 C 
BRANCH   2   3
ATOM      3  N   UNL A   1      36.148  21.269  25.983  1.00  0.00    -0.354 N 
ATOM      4  C   UNL A   1      34.965  21.966  25.934  1.00  0.00     0.242 C 
ATOM      5  O   UNL A   1      34.190  21.790  26.882  1.00  0.00    -0.273 OA
ATOM      6  H   UNL A   1      36.550  21.127  26.870  1.00  0.00     0.163 HD
BRANCH   4   7
ATOM      7  C   UNL A   1      34.518  22.799  24.684  1.00  0.00     0.175 C 
ATOM      8  C   UNL A   1      31.462  28.870  24.981  1.00  0.00     0.272 C 
ATOM      9  O   UNL A   1      30.586  29.233  24.196  1.00  0.00    -0.267 OA
ATOM     10  N   UNL A   1      31.962  27.580  24.929  1.00  0.00    -0.337 N 
ATOM     11  C   UNL A   1      32.036  26.900  23.646  1.00  0.00     0.120 C 
ATOM     12  C   UNL A   1      32.007  26.722  26.095  1.00  0.00     0.120 C 
ATOM     13  C   UNL A   1      33.334  26.077  23.571  1.00  0.00     0.030 C 
ATOM     14  C   UNL A   1      33.251  25.852  26.045  1.00  0.00     0.030 C 
ATOM     15  C   UNL A   1      33.419  25.040  24.727  1.00  0.00    -0.006 C 
ATOM     16  C   UNL A   1      34.789  24.304  24.760  1.00  0.00     0.044 C 
ATOM     17  C   UNL A   1      32.383  23.924  24.447  1.00  0.00     0.127 C 
ATOM     18  N   UNL A   1      33.110  22.674  24.318  1.00  0.00    -0.330 N 
BRANCH   8  19
ATOM     19  C   UNL A   1      32.048  29.810  25.915  1.00  0.00     0.127 A 
ATOM     20  C   UNL A   1      34.471  29.076  26.580  1.00  0.00     0.069 C 
ATOM     21  C   UNL A   1      33.269  29.934  26.570  1.00  0.00     0.068 A 
ATOM     22  N   UNL A   1      33.335  31.127  27.258  1.00  0.00    -0.241 NA
ATOM     23  C   UNL A   1      32.216  31.751  26.995  1.00  0.00     0.197 A 
ATOM     24  N   UNL A   1      31.402  30.992  26.217  1.00  0.00    -0.340 N 
ATOM     25  H   UNL A   1      30.499  31.243  25.916  1.00  0.00     0.168 HD
ENDBRANCH   8  19
BRANCH  18  26
ATOM     26  C   UNL A   1      32.722  21.492  23.697  1.00  0.00     0.226 C 
ATOM     27  O   UNL A   1      32.523  21.454  22.489  1.00  0.00    -0.275 OA
BRANCH  26  28
ATOM     28  C   UNL A   1      32.556  20.202  24.425  1.00  0.00     0.079 C 
ATOM     29  C   UNL A   1      32.179  18.843  23.918  1.00  0.00     0.014 C 
ATOM     30  C   UNL A   1      33.601  19.118  24.324  1.00  0.00     0.014 C 
ENDBRANCH  26  28
ENDBRANCH  18  26
ENDBRANCH   4   7
ENDBRANCH   2   3
ENDBRANCH   1   2
BRANCH   1  31
ATOM     31  C   UNL A   1      39.109  20.087  25.752  1.00  0.00     0.118 C 
BRANCH  31  32
ATOM     32  N   UNL A   1      40.166  19.074  25.767  1.00  0.00    -0.352 N 
ATOM     33  C   UNL A   1      41.515  19.200  25.998  1.00  0.00     0.251 C 
ATOM     34  H   UNL A   1      39.861  18.156  25.582  1.00  0.00     0.163 HD
ATOM     35  O   UNL A   1      42.247  18.224  25.861  1.00  0.00    -0.269 OA
BRANCH  33  36
ATOM     36  C   UNL A   1      42.091  20.512  26.368  1.00  0.00     0.039 A 
ATOM     37  C   UNL A   1      42.447  21.407  25.356  1.00  0.00     0.014 A 
ATOM     38  C   UNL A   1      42.253  20.874  27.704  1.00  0.00     0.014 A 
ATOM     39  C   UNL A   1      42.887  22.688  25.694  1.00  0.00     0.010 A 
ATOM     40  C   UNL A   1      42.547  22.188  28.034  1.00  0.00     0.010 A 
ATOM     41  C   UNL A   1      42.893  23.104  27.035  1.00  0.00    -0.014 A 
BRANCH  41  42
ATOM     42  C   UNL A   1      43.280  24.485  27.413  1.00  0.00     0.031 A 
ATOM     43  C   UNL A   1      44.716  24.924  27.311  1.00  0.00     0.074 A 
ATOM     44  C   UNL A   1      42.345  25.324  27.900  1.00  0.00     0.049 A 
ATOM     45  N   UNL A   1      45.242  26.092  27.582  1.00  0.00    -0.248 NA
ATOM     46  C   UNL A   1      45.700  23.912  26.889  1.00  0.00     0.031 C 
ATOM     47  C   UNL A   1      40.937  24.988  28.123  1.00  0.00     0.029 A 
ATOM     48  N   UNL A   1      42.439  26.636  28.289  1.00  0.00    -0.354 N 
ATOM     49  C   UNL A   1      46.609  25.945  27.383  1.00  0.00     0.074 A 
ATOM     50  C   UNL A   1      46.843  24.561  27.043  1.00  0.00     0.031 C 
ATOM     51  C   UNL A   1      40.287  26.082  28.555  1.00  0.00     0.029 A 
ATOM     52  C   UNL A   1      41.238  27.180  28.678  1.00  0.00     0.049 A 
ATOM     53  H   UNL A   1      43.284  27.138  28.290  1.00  0.00     0.167 HD
ATOM     54  C   UNL A   1      47.582  26.883  27.446  1.00  0.00     0.031 A 
ATOM     55  C   UNL A   1      40.937  28.429  29.078  1.00  0.00     0.031 A 
ATOM     56  C   UNL A   1      47.340  28.263  27.769  1.00  0.00     0.049 A 
ATOM     57  C   UNL A   1      42.025  29.463  29.111  1.00  0.00     0.074 A 
ATOM     58  C   UNL A   1      48.239  29.314  27.788  1.00  0.00     0.029 A 
ATOM     59  N   UNL A   1      46.106  28.780  28.134  1.00  0.00    -0.354 N 
ATOM     60  N   UNL A   1      43.299  29.333  28.822  1.00  0.00    -0.248 NA
ATOM     61  C   UNL A   1      41.632  30.822  29.503  1.00  0.00     0.031 C 
ATOM     62  C   UNL A   1      47.559  30.457  28.224  1.00  0.00     0.029 A 
ATOM     63  C   UNL A   1      46.224  30.131  28.407  1.00  0.00     0.049 A 
ATOM     64  H   UNL A   1      45.270  28.262  28.190  1.00  0.00     0.167 HD
ATOM     65  C   UNL A   1      43.852  30.598  28.969  1.00  0.00     0.074 A 
ATOM     66  C   UNL A   1      42.771  31.484  29.355  1.00  0.00     0.031 C 
ATOM     67  C   UNL A   1      45.137  30.993  28.796  1.00  0.00     0.031 A 
BRANCH  54  68
ATOM     68  C   UNL A   1      48.993  26.439  27.168  1.00  0.00    -0.014 A 
ATOM     69  C   UNL A   1      49.512  26.420  25.862  1.00  0.00     0.009 A 
ATOM     70  C   UNL A   1      49.822  26.044  28.229  1.00  0.00     0.009 A 
ATOM     71  C   UNL A   1      50.813  25.971  25.621  1.00  0.00     0.001 A 
ATOM     72  C   UNL A   1      51.133  25.629  27.989  1.00  0.00     0.001 A 
ATOM     73  C   UNL A   1      51.623  25.580  26.685  1.00  0.00     0.000 A 
ENDBRANCH  54  68
BRANCH  55  74
ATOM     74  C   UNL A   1      39.535  28.773  29.435  1.00  0.00    -0.014 A 
ATOM     75  C   UNL A   1      38.643  29.245  28.458  1.00  0.00     0.009 A 
ATOM     76  C   UNL A   1      39.074  28.612  30.751  1.00  0.00     0.009 A 
ATOM     77  C   UNL A   1      37.328  29.571  28.798  1.00  0.00     0.001 A 
ATOM     78  C   UNL A   1      37.750  28.909  31.082  1.00  0.00     0.001 A 
ATOM     79  C   UNL A   1      36.880  29.397  30.107  1.00  0.00     0.000 A 
ENDBRANCH  55  74
BRANCH  67  80
ATOM     80  C   UNL A   1      45.437  32.454  28.983  1.00  0.00    -0.014 A 
ATOM     81  C   UNL A   1      45.841  32.968  30.225  1.00  0.00     0.009 A 
ATOM     82  C   UNL A   1      45.346  33.323  27.885  1.00  0.00     0.009 A 
ATOM     83  C   UNL A   1      46.109  34.330  30.372  1.00  0.00     0.001 A 
ATOM     84  C   UNL A   1      45.648  34.678  28.026  1.00  0.00     0.001 A 
ATOM     85  C   UNL A   1      46.017  35.182  29.271  1.00  0.00     0.000 A 
ENDBRANCH  67  80
ENDBRANCH  41  42
ENDBRANCH  33  36
ENDBRANCH  31  32
ENDBRANCH   1  31
TORSDOF 13
ENDMDL
MODEL 3
REMARK VINA RESULT:     -12.5      4.544      9.886
REMARK SMILES Cc1nc[nH]c1C(=O)N1CCC2(CC1)C[C@@H](C(=O)NCCCNC(=O)c1ccc(-c3c4nc(c(-c5ccccc5)c5ccc([nH]5)c(-c5ccccc5)c5nc(c(-c6ccccc6)c6ccc3[nH]6)C=C5)C=C4)cc1)N(C(=O)C1CC1)C2
REMARK SMILES IDX 21 1 20 2 19 3 17 4 18 5 16 7 7 8 8 9 9 10 10 11 14 12 11 13
REMARK SMILES IDX 13 14 12 15 15 16 80 17 74 18 6 19 1 20 2 21 3 22 4 23 5 24
REMARK SMILES IDX 75 26 76 27 77 28 78 29 79 30 22 31 23 32 24 33 25 35 26 36
REMARK SMILES IDX 27 37 73 38 28 39 72 40 29 41 30 42 31 43 66 44 32 45 71 46
REMARK SMILES IDX 65 47 67 48 33 49 70 50 64 51 63 52 34 54 56 55 41 56 55 57
REMARK SMILES IDX 42 58 45 59 54 60 68 61 43 62 44 63 53 65 69 66 46 67 35 68
REMARK SMILES IDX 36 69 40 70 37 71 39 72 38 73 57 74 58 75 62 76 59 77 61 78
REMARK SMILES IDX 60 79 47 80 48 81 52 82 49 83 51 84 50 85
REMARK H PARENT 19 6 5 25 23 34 67 53 45 64
REMARK Flexibility Score: inf
ROOT
ATOM      1  C   UNL A   1      38.059  19.723  24.989  1.00  0.00     0.042 C 
ENDROOT
BRANCH   1   2
ATOM      2  C   UNL A   1      37.094  20.865  24.775  1.00  0.00     0.117 C 
BRANCH   2   3
ATOM      3  N   UNL A   1      36.485  21.441  25.936  1.00  0.00    -0.354 N 
ATOM      4  C   UNL A   1      35.319  22.168  25.949  1.00  0.00     0.242 C 
ATOM      5  O   UNL A   1      34.605  22.030  26.949  1.00  0.00    -0.273 OA
ATOM      6  H   UNL A   1      36.942  21.306  26.797  1.00  0.00     0.163 HD
BRANCH   4   7
ATOM      7  C   UNL A   1      34.812  22.990  24.714  1.00  0.00     0.175 C 
ATOM      8  C   UNL A   1      31.959  29.154  25.084  1.00  0.00     0.272 C 
ATOM      9  O   UNL A   1      31.042  29.528  24.352  1.00  0.00    -0.267 OA
ATOM     10  N   UNL A   1      32.417  27.849  25.027  1.00  0.00    -0.337 N 
ATOM     11  C   UNL A   1      32.384  27.142  23.757  1.00  0.00     0.120 C 
ATOM     12  C   UNL A   1      32.517  27.013  26.205  1.00  0.00     0.120 C 
ATOM     13  C   UNL A   1      33.649  26.279  23.612  1.00  0.00     0.030 C 
ATOM     14  C   UNL A   1      33.729  26.106  26.091  1.00  0.00     0.030 C 
ATOM     15  C   UNL A   1      33.784  25.262  24.783  1.00  0.00    -0.006 C 
ATOM     16  C   UNL A   1      35.131  24.487  24.739  1.00  0.00     0.044 C 
ATOM     17  C   UNL A   1      32.700  24.173  24.598  1.00  0.00     0.127 C 
ATOM     18  N   UNL A   1      33.380  22.899  24.448  1.00  0.00    -0.330 N 
BRANCH   8  19
ATOM     19  C   UNL A   1      32.633  30.094  25.955  1.00  0.00     0.127 A 
ATOM     20  C   UNL A   1      31.020  32.027  26.673  1.00  0.00     0.069 C 
ATOM     21  C   UNL A   1      32.281  31.259  26.630  1.00  0.00     0.068 A 
ATOM     22  N   UNL A   1      33.309  31.682  27.445  1.00  0.00    -0.241 NA
ATOM     23  C   UNL A   1      34.250  30.782  27.325  1.00  0.00     0.197 A 
ATOM     24  N   UNL A   1      33.904  29.826  26.425  1.00  0.00    -0.340 N 
ATOM     25  H   UNL A   1      34.465  29.065  26.152  1.00  0.00     0.168 HD
ENDBRANCH   8  19
BRANCH  18  26
ATOM     26  C   UNL A   1      32.917  21.717  23.881  1.00  0.00     0.226 C 
ATOM     27  O   UNL A   1      32.656  21.655  22.686  1.00  0.00    -0.275 OA
BRANCH  26  28
ATOM     28  C   UNL A   1      32.738  20.455  24.652  1.00  0.00     0.079 C 
ATOM     29  C   UNL A   1      32.347  19.083  24.192  1.00  0.00     0.014 C 
ATOM     30  C   UNL A   1      33.772  19.357  24.587  1.00  0.00     0.014 C 
ENDBRANCH  26  28
ENDBRANCH  18  26
ENDBRANCH   4   7
ENDBRANCH   2   3
ENDBRANCH   1   2
BRANCH   1  31
ATOM     31  C   UNL A   1      39.295  20.136  25.760  1.00  0.00     0.118 C 
BRANCH  31  32
ATOM     32  N   UNL A   1      40.299  19.076  25.863  1.00  0.00    -0.352 N 
ATOM     33  C   UNL A   1      41.648  19.151  26.117  1.00  0.00     0.251 C 
ATOM     34  H   UNL A   1      39.952  18.164  25.731  1.00  0.00     0.163 HD
ATOM     35  O   UNL A   1      42.333  18.134  26.059  1.00  0.00    -0.269 OA
BRANCH  33  36
ATOM     36  C   UNL A   1      42.282  20.455  26.414  1.00  0.00     0.039 A 
ATOM     37  C   UNL A   1      42.784  21.222  25.360  1.00  0.00     0.014 A 
ATOM     38  C   UNL A   1      42.354  20.936  27.720  1.00  0.00     0.014 A 
ATOM     39  C   UNL A   1      43.283  22.500  25.616  1.00  0.00     0.010 A 
ATOM     40  C   UNL A   1      42.711  22.256  27.952  1.00  0.00     0.010 A 
ATOM     41  C   UNL A   1      43.204  23.046  26.908  1.00  0.00    -0.014 A 
BRANCH  41  42
ATOM     42  C   UNL A   1      43.654  24.430  27.190  1.00  0.00     0.031 A 
ATOM     43  C   UNL A   1      42.662  25.475  27.629  1.00  0.00     0.074 A 
ATOM     44  C   UNL A   1      44.945  24.759  26.995  1.00  0.00     0.049 A 
ATOM     45  N   UNL A   1      42.868  26.731  27.933  1.00  0.00    -0.248 NA
ATOM     46  C   UNL A   1      41.247  25.070  27.698  1.00  0.00     0.031 C 
ATOM     47  C   UNL A   1      45.985  23.857  26.493  1.00  0.00     0.029 A 
ATOM     48  N   UNL A   1      45.607  25.943  27.204  1.00  0.00    -0.354 N 
ATOM     49  C   UNL A   1      41.614  27.263  28.207  1.00  0.00     0.074 A 
ATOM     50  C   UNL A   1      40.646  26.220  27.961  1.00  0.00     0.031 C 
ATOM     51  C   UNL A   1      47.162  24.502  26.487  1.00  0.00     0.029 A 
ATOM     52  C   UNL A   1      46.955  25.871  26.944  1.00  0.00     0.049 A 
ATOM     53  H   UNL A   1      45.159  26.763  27.510  1.00  0.00     0.167 HD
ATOM     54  C   UNL A   1      41.296  28.500  28.654  1.00  0.00     0.031 A 
ATOM     55  C   UNL A   1      47.917  26.803  27.073  1.00  0.00     0.031 A 
ATOM     56  C   UNL A   1      42.266  29.529  28.912  1.00  0.00     0.049 A 
ATOM     57  C   UNL A   1      47.547  28.160  27.599  1.00  0.00     0.074 A 
ATOM     58  C   UNL A   1      42.064  30.793  29.437  1.00  0.00     0.029 A 
ATOM     59  N   UNL A   1      43.624  29.410  28.659  1.00  0.00    -0.354 N 
ATOM     60  N   UNL A   1      46.369  28.618  27.950  1.00  0.00    -0.248 NA
ATOM     61  C   UNL A   1      48.644  29.122  27.769  1.00  0.00     0.031 C 
ATOM     62  C   UNL A   1      43.293  31.460  29.444  1.00  0.00     0.029 A 
ATOM     63  C   UNL A   1      44.270  30.588  28.992  1.00  0.00     0.049 A 
ATOM     64  H   UNL A   1      44.064  28.607  28.296  1.00  0.00     0.167 HD
ATOM     65  C   UNL A   1      46.586  29.910  28.410  1.00  0.00     0.074 A 
ATOM     66  C   UNL A   1      48.012  30.155  28.310  1.00  0.00     0.031 C 
ATOM     67  C   UNL A   1      45.689  30.812  28.878  1.00  0.00     0.031 A 
BRANCH  54  68
ATOM     68  C   UNL A   1      39.839  28.802  28.879  1.00  0.00    -0.014 A 
ATOM     69  C   UNL A   1      39.219  28.545  30.113  1.00  0.00     0.009 A 
ATOM     70  C   UNL A   1      39.075  29.366  27.845  1.00  0.00     0.009 A 
ATOM     71  C   UNL A   1      37.857  28.799  30.291  1.00  0.00     0.001 A 
ATOM     72  C   UNL A   1      37.723  29.653  28.037  1.00  0.00     0.001 A 
ATOM     73  C   UNL A   1      37.111  29.358  29.254  1.00  0.00     0.000 A 
ENDBRANCH  54  68
BRANCH  55  74
ATOM     74  C   UNL A   1      49.324  26.463  26.735  1.00  0.00    -0.014 A 
ATOM     75  C   UNL A   1      50.166  25.871  27.690  1.00  0.00     0.009 A 
ATOM     76  C   UNL A   1      49.829  26.711  25.449  1.00  0.00     0.009 A 
ATOM     77  C   UNL A   1      51.490  25.557  27.371  1.00  0.00     0.001 A 
ATOM     78  C   UNL A   1      51.143  26.367  25.122  1.00  0.00     0.001 A 
ATOM     79  C   UNL A   1      51.975  25.799  26.086  1.00  0.00     0.000 A 
ENDBRANCH  55  74
BRANCH  67  80
ATOM     80  C   UNL A   1      46.228  32.132  29.354  1.00  0.00    -0.014 A 
ATOM     81  C   UNL A   1      46.654  32.317  30.679  1.00  0.00     0.009 A 
ATOM     82  C   UNL A   1      46.344  33.197  28.447  1.00  0.00     0.009 A 
ATOM     83  C   UNL A   1      47.146  33.555  31.095  1.00  0.00     0.001 A 
ATOM     84  C   UNL A   1      46.868  34.423  28.857  1.00  0.00     0.001 A 
ATOM     85  C   UNL A   1      47.257  34.605  30.183  1.00  0.00     0.000 A 
ENDBRANCH  67  80
ENDBRANCH  41  42
ENDBRANCH  33  36
ENDBRANCH  31  32
ENDBRANCH   1  31
TORSDOF 13
ENDMDL
