MODEL 1
REMARK VINA RESULT:     -11.0      0.000      0.000
REMARK SMILES O=C(CSCC(=O)N1CCN(c2ccc(F)cc2)CC1)NCCCNC(=O)c1ccc(-c2c3nc(c(-c4ccccc4)c4ccc([nH]4)c(-c4ccccc4)c4nc(c(-c5ccccc5)c5ccc2[nH]5)C=C4)C=C3)cc1
REMARK SMILES IDX 22 1 21 2 1 3 2 4 3 6 4 7 5 8 6 9 7 10 8 11 9 12 20 13 10 14
REMARK SMILES IDX 19 15 11 16 12 17 13 18 18 19 14 20 17 21 15 22 16 23 23 24
REMARK SMILES IDX 24 25 25 26 26 27 27 29 28 30 29 31 75 32 30 33 74 34 31 35
REMARK SMILES IDX 32 36 33 37 68 38 34 39 73 40 67 41 69 42 35 43 72 44 66 45
REMARK SMILES IDX 65 46 36 48 58 49 43 50 57 51 44 52 47 53 56 54 70 55 45 56
REMARK SMILES IDX 46 57 55 59 71 60 48 61 37 62 38 63 42 64 39 65 41 66 40 67
REMARK SMILES IDX 59 68 60 69 64 70 61 71 63 72 62 73 49 74 50 75 54 76 51 77
REMARK SMILES IDX 53 78 52 79
REMARK H PARENT 21 5 25 28 69 47 47 58
REMARK Flexibility Score: inf
ROOT
ATOM      1  C   UNL A   1      36.675  19.306  24.870  1.00  0.00     0.117 C 
ENDROOT
BRANCH   1   2
ATOM      2  N   UNL A   1      35.236  19.461  24.913  1.00  0.00    -0.355 N 
ATOM      3  O   UNL A   1      34.730  17.401  24.046  1.00  0.00    -0.274 OA
ATOM      4  C   UNL A   1      34.362  18.470  24.525  1.00  0.00     0.230 C 
ATOM      5  H   UNL A   1      34.866  20.315  25.234  1.00  0.00     0.163 HD
BRANCH   4   6
ATOM      6  C   UNL A   1      32.891  18.837  24.620  1.00  0.00     0.169 C 
BRANCH   6   7
ATOM      7  S   UNL A   1      32.507  20.452  23.871  1.00  0.00    -0.142 SA
BRANCH   7   8
ATOM      8  C   UNL A   1      32.048  21.403  25.340  1.00  0.00     0.170 C 
BRANCH   8   9
ATOM      9  C   UNL A   1      33.096  22.277  26.022  1.00  0.00     0.232 C 
ATOM     10  O   UNL A   1      34.231  21.816  26.180  1.00  0.00    -0.274 OA
ATOM     11  N   UNL A   1      32.853  23.619  26.233  1.00  0.00    -0.338 N 
ATOM     12  C   UNL A   1      33.950  24.587  26.063  1.00  0.00     0.141 C 
ATOM     13  C   UNL A   1      31.592  24.250  26.632  1.00  0.00     0.141 C 
ATOM     14  C   UNL A   1      33.557  25.678  25.033  1.00  0.00     0.138 C 
ATOM     15  C   UNL A   1      31.145  25.292  25.603  1.00  0.00     0.138 C 
ATOM     16  N   UNL A   1      32.233  26.244  25.353  1.00  0.00    -0.368 N 
BRANCH  16  17
ATOM     17  C   UNL A   1      32.102  27.577  25.675  1.00  0.00     0.037 A 
ATOM     18  C   UNL A   1      32.473  28.073  26.934  1.00  0.00     0.029 A 
ATOM     19  C   UNL A   1      31.569  28.479  24.743  1.00  0.00     0.029 A 
ATOM     20  C   UNL A   1      32.315  29.424  27.254  1.00  0.00     0.041 A 
ATOM     21  C   UNL A   1      31.391  29.828  25.063  1.00  0.00     0.041 A 
ATOM     22  C   UNL A   1      31.769  30.288  26.316  1.00  0.00     0.123 A 
ATOM     23  F   UNL A   1      31.602  31.580  26.625  1.00  0.00    -0.207 F 
ENDBRANCH  16  17
ENDBRANCH   8   9
ENDBRANCH   7   8
ENDBRANCH   6   7
ENDBRANCH   4   6
ENDBRANCH   1   2
BRANCH   1  24
ATOM     24  C   UNL A   1      37.397  20.632  24.669  1.00  0.00     0.042 C 
BRANCH  24  25
ATOM     25  C   UNL A   1      38.548  20.877  25.642  1.00  0.00     0.118 C 
BRANCH  25  26
ATOM     26  N   UNL A   1      39.553  19.822  25.629  1.00  0.00    -0.352 N 
ATOM     27  C   UNL A   1      40.879  19.856  25.986  1.00  0.00     0.251 C 
ATOM     28  H   UNL A   1      39.231  18.946  25.314  1.00  0.00     0.163 HD
ATOM     29  O   UNL A   1      41.595  18.880  25.777  1.00  0.00    -0.269 OA
BRANCH  27  30
ATOM     30  C   UNL A   1      41.460  21.073  26.591  1.00  0.00     0.039 A 
ATOM     31  C   UNL A   1      41.981  22.063  25.750  1.00  0.00     0.014 A 
ATOM     32  C   UNL A   1      41.495  21.244  27.976  1.00  0.00     0.014 A 
ATOM     33  C   UNL A   1      42.451  23.261  26.293  1.00  0.00     0.010 A 
ATOM     34  C   UNL A   1      41.901  22.464  28.512  1.00  0.00     0.010 A 
ATOM     35  C   UNL A   1      42.370  23.491  27.676  1.00  0.00    -0.014 A 
BRANCH  35  36
ATOM     36  C   UNL A   1      42.735  24.799  28.275  1.00  0.00     0.031 A 
ATOM     37  C   UNL A   1      41.688  25.856  28.483  1.00  0.00     0.074 A 
ATOM     38  C   UNL A   1      44.029  25.075  28.538  1.00  0.00     0.049 A 
ATOM     39  N   UNL A   1      41.834  27.103  28.854  1.00  0.00    -0.248 NA
ATOM     40  C   UNL A   1      40.294  25.467  28.214  1.00  0.00     0.031 C 
ATOM     41  C   UNL A   1      45.148  24.148  28.359  1.00  0.00     0.029 A 
ATOM     42  N   UNL A   1      44.622  26.227  28.993  1.00  0.00    -0.354 N 
ATOM     43  C   UNL A   1      40.559  27.653  28.838  1.00  0.00     0.074 A 
ATOM     44  C   UNL A   1      39.657  26.615  28.388  1.00  0.00     0.031 C 
ATOM     45  C   UNL A   1      46.288  24.763  28.712  1.00  0.00     0.029 A 
ATOM     46  C   UNL A   1      45.989  26.139  29.094  1.00  0.00     0.049 A 
ATOM     47  H   UNL A   1      44.115  27.038  29.225  1.00  0.00     0.167 HD
ATOM     48  C   UNL A   1      40.172  28.906  29.179  1.00  0.00     0.031 A 
ATOM     49  C   UNL A   1      46.904  27.067  29.433  1.00  0.00     0.031 A 
ATOM     50  C   UNL A   1      41.066  29.935  29.638  1.00  0.00     0.049 A 
ATOM     51  C   UNL A   1      46.453  28.458  29.781  1.00  0.00     0.074 A 
ATOM     52  C   UNL A   1      40.759  31.219  30.055  1.00  0.00     0.029 A 
ATOM     53  N   UNL A   1      42.441  29.798  29.740  1.00  0.00    -0.354 N 
ATOM     54  N   UNL A   1      45.237  28.947  29.808  1.00  0.00    -0.248 NA
ATOM     55  C   UNL A   1      47.499  29.422  30.148  1.00  0.00     0.031 C 
ATOM     56  C   UNL A   1      41.954  31.876  30.365  1.00  0.00     0.029 A 
ATOM     57  C   UNL A   1      42.999  30.982  30.193  1.00  0.00     0.049 A 
ATOM     58  H   UNL A   1      42.946  28.982  29.523  1.00  0.00     0.167 HD
ATOM     59  C   UNL A   1      45.370  30.264  30.229  1.00  0.00     0.074 A 
ATOM     60  C   UNL A   1      46.781  30.497  30.450  1.00  0.00     0.031 C 
ATOM     61  C   UNL A   1      44.405  31.196  30.420  1.00  0.00     0.031 A 
BRANCH  48  62
ATOM     62  C   UNL A   1      38.711  29.237  29.053  1.00  0.00    -0.014 A 
ATOM     63  C   UNL A   1      37.846  29.146  30.156  1.00  0.00     0.009 A 
ATOM     64  C   UNL A   1      38.201  29.687  27.825  1.00  0.00     0.009 A 
ATOM     65  C   UNL A   1      36.493  29.463  30.022  1.00  0.00     0.001 A 
ATOM     66  C   UNL A   1      36.854  30.031  27.702  1.00  0.00     0.001 A 
ATOM     67  C   UNL A   1      35.999  29.909  28.796  1.00  0.00     0.000 A 
ENDBRANCH  48  62
BRANCH  49  68
ATOM     68  C   UNL A   1      48.348  26.712  29.464  1.00  0.00    -0.014 A 
ATOM     69  C   UNL A   1      49.139  26.860  28.315  1.00  0.00     0.009 A 
ATOM     70  C   UNL A   1      48.940  26.222  30.638  1.00  0.00     0.009 A 
ATOM     71  C   UNL A   1      50.487  26.499  28.333  1.00  0.00     0.001 A 
ATOM     72  C   UNL A   1      50.296  25.889  30.661  1.00  0.00     0.001 A 
ATOM     73  C   UNL A   1      51.066  26.019  29.507  1.00  0.00     0.000 A 
ENDBRANCH  49  68
BRANCH  61  74
ATOM     74  C   UNL A   1      44.830  32.539  30.941  1.00  0.00    -0.014 A 
ATOM     75  C   UNL A   1      45.137  33.596  30.071  1.00  0.00     0.009 A 
ATOM     76  C   UNL A   1      44.863  32.764  32.326  1.00  0.00     0.009 A 
ATOM     77  C   UNL A   1      45.490  34.848  30.582  1.00  0.00     0.001 A 
ATOM     78  C   UNL A   1      45.190  34.021  32.833  1.00  0.00     0.001 A 
ATOM     79  C   UNL A   1      45.510  35.060  31.960  1.00  0.00     0.000 A 
ENDBRANCH  61  74
ENDBRANCH  35  36
ENDBRANCH  27  30
ENDBRANCH  25  26
ENDBRANCH  24  25
ENDBRANCH   1  24
TORSDOF 14
ENDMDL
MODEL 2
REMARK VINA RESULT:     -10.9      0.482      5.935
REMARK SMILES O=C(CSCC(=O)N1CCN(c2ccc(F)cc2)CC1)NCCCNC(=O)c1ccc(-c2c3nc(c(-c4ccccc4)c4ccc([nH]4)c(-c4ccccc4)c4nc(c(-c5ccccc5)c5ccc2[nH]5)C=C4)C=C3)cc1
REMARK SMILES IDX 22 1 21 2 1 3 2 4 3 6 4 7 5 8 6 9 7 10 8 11 9 12 20 13 10 14
REMARK SMILES IDX 19 15 11 16 12 17 13 18 18 19 14 20 17 21 15 22 16 23 23 24
REMARK SMILES IDX 24 25 25 26 26 27 27 29 28 30 29 31 75 32 30 33 74 34 31 35
REMARK SMILES IDX 32 36 33 37 68 38 34 39 73 40 67 41 69 42 35 43 72 44 66 45
REMARK SMILES IDX 65 46 36 48 58 49 43 50 57 51 44 52 47 53 56 54 70 55 45 56
REMARK SMILES IDX 46 57 55 59 71 60 48 61 37 62 38 63 42 64 39 65 41 66 40 67
REMARK SMILES IDX 59 68 60 69 64 70 61 71 63 72 62 73 49 74 50 75 54 76 51 77
REMARK SMILES IDX 53 78 52 79
REMARK H PARENT 21 5 25 28 69 47 47 58
REMARK Flexibility Score: inf
ROOT
ATOM      1  C   UNL A   1      36.593  19.108  24.936  1.00  0.00     0.117 C 
ENDROOT
BRANCH   1   2
ATOM      2  N   UNL A   1      35.162  19.324  24.904  1.00  0.00    -0.355 N 
ATOM      3  O   UNL A   1      34.615  17.284  24.011  1.00  0.00    -0.274 OA
ATOM      4  C   UNL A   1      34.269  18.369  24.470  1.00  0.00     0.230 C 
ATOM      5  H   UNL A   1      34.812  20.192  25.205  1.00  0.00     0.163 HD
BRANCH   4   6
ATOM      6  C   UNL A   1      32.811  18.797  24.489  1.00  0.00     0.169 C 
BRANCH   6   7
ATOM      7  S   UNL A   1      32.545  20.458  23.789  1.00  0.00    -0.142 SA
BRANCH   7   8
ATOM      8  C   UNL A   1      32.120  21.387  25.281  1.00  0.00     0.170 C 
BRANCH   8   9
ATOM      9  C   UNL A   1      33.185  22.245  25.957  1.00  0.00     0.232 C 
ATOM     10  O   UNL A   1      34.321  21.774  26.087  1.00  0.00    -0.274 OA
ATOM     11  N   UNL A   1      32.955  23.585  26.192  1.00  0.00    -0.338 N 
ATOM     12  C   UNL A   1      34.055  24.548  26.016  1.00  0.00     0.141 C 
ATOM     13  C   UNL A   1      31.706  24.218  26.623  1.00  0.00     0.141 C 
ATOM     14  C   UNL A   1      33.651  25.657  25.009  1.00  0.00     0.138 C 
ATOM     15  C   UNL A   1      31.247  25.277  25.618  1.00  0.00     0.138 C 
ATOM     16  N   UNL A   1      32.336  26.226  25.362  1.00  0.00    -0.368 N 
BRANCH  16  17
ATOM     17  C   UNL A   1      32.220  27.555  25.706  1.00  0.00     0.037 A 
ATOM     18  C   UNL A   1      32.707  28.048  26.925  1.00  0.00     0.029 A 
ATOM     19  C   UNL A   1      31.585  28.455  24.838  1.00  0.00     0.029 A 
ATOM     20  C   UNL A   1      32.563  29.395  27.270  1.00  0.00     0.041 A 
ATOM     21  C   UNL A   1      31.421  29.800  25.184  1.00  0.00     0.041 A 
ATOM     22  C   UNL A   1      31.915  30.257  26.397  1.00  0.00     0.123 A 
ATOM     23  F   UNL A   1      31.762  31.544  26.731  1.00  0.00    -0.207 F 
ENDBRANCH  16  17
ENDBRANCH   8   9
ENDBRANCH   7   8
ENDBRANCH   6   7
ENDBRANCH   4   6
ENDBRANCH   1   2
BRANCH   1  24
ATOM     24  C   UNL A   1      37.379  20.372  24.612  1.00  0.00     0.042 C 
BRANCH  24  25
ATOM     25  C   UNL A   1      38.495  20.692  25.604  1.00  0.00     0.118 C 
BRANCH  25  26
ATOM     26  N   UNL A   1      39.534  19.671  25.656  1.00  0.00    -0.352 N 
ATOM     27  C   UNL A   1      40.855  19.769  26.021  1.00  0.00     0.251 C 
ATOM     28  H   UNL A   1      39.243  18.770  25.388  1.00  0.00     0.163 HD
ATOM     29  O   UNL A   1      41.604  18.807  25.872  1.00  0.00    -0.269 OA
BRANCH  27  30
ATOM     30  C   UNL A   1      41.390  21.036  26.562  1.00  0.00     0.039 A 
ATOM     31  C   UNL A   1      41.973  21.954  25.681  1.00  0.00     0.014 A 
ATOM     32  C   UNL A   1      41.323  21.323  27.926  1.00  0.00     0.014 A 
ATOM     33  C   UNL A   1      42.403  23.196  26.154  1.00  0.00     0.010 A 
ATOM     34  C   UNL A   1      41.689  22.586  28.386  1.00  0.00     0.010 A 
ATOM     35  C   UNL A   1      42.219  23.541  27.503  1.00  0.00    -0.014 A 
BRANCH  35  36
ATOM     36  C   UNL A   1      42.540  24.897  28.014  1.00  0.00     0.031 A 
ATOM     37  C   UNL A   1      43.931  25.222  28.480  1.00  0.00     0.074 A 
ATOM     38  C   UNL A   1      41.556  25.808  28.155  1.00  0.00     0.049 A 
ATOM     39  N   UNL A   1      44.371  26.294  29.089  1.00  0.00    -0.248 NA
ATOM     40  C   UNL A   1      44.960  24.193  28.254  1.00  0.00     0.031 C 
ATOM     41  C   UNL A   1      40.158  25.616  27.765  1.00  0.00     0.029 A 
ATOM     42  N   UNL A   1      41.580  27.075  28.685  1.00  0.00    -0.354 N 
ATOM     43  C   UNL A   1      45.716  26.060  29.342  1.00  0.00     0.074 A 
ATOM     44  C   UNL A   1      46.013  24.731  28.853  1.00  0.00     0.031 C 
ATOM     45  C   UNL A   1      39.463  26.726  28.058  1.00  0.00     0.029 A 
ATOM     46  C   UNL A   1      40.351  27.689  28.700  1.00  0.00     0.049 A 
ATOM     47  H   UNL A   1      42.400  27.502  29.023  1.00  0.00     0.167 HD
ATOM     48  C   UNL A   1      46.626  26.882  29.919  1.00  0.00     0.031 A 
ATOM     49  C   UNL A   1      39.974  28.884  29.194  1.00  0.00     0.031 A 
ATOM     50  C   UNL A   1      46.335  28.208  30.395  1.00  0.00     0.049 A 
ATOM     51  C   UNL A   1      40.996  29.766  29.855  1.00  0.00     0.074 A 
ATOM     52  C   UNL A   1      47.203  29.134  30.947  1.00  0.00     0.029 A 
ATOM     53  N   UNL A   1      45.080  28.796  30.376  1.00  0.00    -0.354 N 
ATOM     54  N   UNL A   1      42.275  29.549  30.041  1.00  0.00    -0.248 NA
ATOM     55  C   UNL A   1      40.523  31.059  30.368  1.00  0.00     0.031 C 
ATOM     56  C   UNL A   1      46.465  30.266  31.306  1.00  0.00     0.029 A 
ATOM     57  C   UNL A   1      45.147  30.065  30.926  1.00  0.00     0.049 A 
ATOM     58  H   UNL A   1      44.263  28.375  30.023  1.00  0.00     0.167 HD
ATOM     59  C   UNL A   1      42.765  30.692  30.661  1.00  0.00     0.074 A 
ATOM     60  C   UNL A   1      41.649  31.601  30.814  1.00  0.00     0.031 C 
ATOM     61  C   UNL A   1      44.030  30.964  31.062  1.00  0.00     0.031 A 
BRANCH  48  62
ATOM     62  C   UNL A   1      48.026  26.360  30.080  1.00  0.00    -0.014 A 
ATOM     63  C   UNL A   1      48.977  26.501  29.057  1.00  0.00     0.009 A 
ATOM     64  C   UNL A   1      48.411  25.756  31.287  1.00  0.00     0.009 A 
ATOM     65  C   UNL A   1      50.275  26.014  29.227  1.00  0.00     0.001 A 
ATOM     66  C   UNL A   1      49.717  25.297  31.465  1.00  0.00     0.001 A 
ATOM     67  C   UNL A   1      50.645  25.417  30.432  1.00  0.00     0.000 A 
ENDBRANCH  48  62
BRANCH  49  68
ATOM     68  C   UNL A   1      38.558  29.321  29.083  1.00  0.00    -0.014 A 
ATOM     69  C   UNL A   1      38.082  29.886  27.889  1.00  0.00     0.009 A 
ATOM     70  C   UNL A   1      37.677  29.181  30.166  1.00  0.00     0.009 A 
ATOM     71  C   UNL A   1      36.760  30.325  27.792  1.00  0.00     0.001 A 
ATOM     72  C   UNL A   1      36.348  29.594  30.056  1.00  0.00     0.001 A 
ATOM     73  C   UNL A   1      35.893  30.174  28.873  1.00  0.00     0.000 A 
ENDBRANCH  49  68
BRANCH  61  74
ATOM     74  C   UNL A   1      44.293  32.317  31.660  1.00  0.00    -0.014 A 
ATOM     75  C   UNL A   1      44.223  32.530  33.045  1.00  0.00     0.009 A 
ATOM     76  C   UNL A   1      44.678  33.378  30.824  1.00  0.00     0.009 A 
ATOM     77  C   UNL A   1      44.512  33.788  33.578  1.00  0.00     0.001 A 
ATOM     78  C   UNL A   1      44.992  34.625  31.363  1.00  0.00     0.001 A 
ATOM     79  C   UNL A   1      44.903  34.831  32.738  1.00  0.00     0.000 A 
ENDBRANCH  61  74
ENDBRANCH  35  36
ENDBRANCH  27  30
ENDBRANCH  25  26
ENDBRANCH  24  25
ENDBRANCH   1  24
TORSDOF 14
ENDMDL
MODEL 3
REMARK VINA RESULT:     -10.9      1.957      6.321
REMARK SMILES O=C(CSCC(=O)N1CCN(c2ccc(F)cc2)CC1)NCCCNC(=O)c1ccc(-c2c3nc(c(-c4ccccc4)c4ccc([nH]4)c(-c4ccccc4)c4nc(c(-c5ccccc5)c5ccc2[nH]5)C=C4)C=C3)cc1
REMARK SMILES IDX 22 1 21 2 1 3 2 4 3 6 4 7 5 8 6 9 7 10 8 11 9 12 20 13 10 14
REMARK SMILES IDX 19 15 11 16 12 17 13 18 18 19 14 20 17 21 15 22 16 23 23 24
REMARK SMILES IDX 24 25 25 26 26 27 27 29 28 30 29 31 75 32 30 33 74 34 31 35
REMARK SMILES IDX 32 36 33 37 68 38 34 39 73 40 67 41 69 42 35 43 72 44 66 45
REMARK SMILES IDX 65 46 36 48 58 49 43 50 57 51 44 52 47 53 56 54 70 55 45 56
REMARK SMILES IDX 46 57 55 59 71 60 48 61 37 62 38 63 42 64 39 65 41 66 40 67
REMARK SMILES IDX 59 68 60 69 64 70 61 71 63 72 62 73 49 74 50 75 54 76 51 77
REMARK SMILES IDX 53 78 52 79
REMARK H PARENT 21 5 25 28 69 47 47 58
REMARK Flexibility Score: inf
ROOT
ATOM      1  C   UNL A   1      37.057  20.703  24.599  1.00  0.00     0.117 C 
ENDROOT
BRANCH   1   2
ATOM      2  N   UNL A   1      35.819  20.665  25.349  1.00  0.00    -0.355 N 
ATOM      3  O   UNL A   1      36.072  22.704  26.365  1.00  0.00    -0.274 OA
ATOM      4  C   UNL A   1      35.400  21.698  26.159  1.00  0.00     0.230 C 
ATOM      5  H   UNL A   1      35.252  19.864  25.278  1.00  0.00     0.163 HD
BRANCH   4   6
ATOM      6  C   UNL A   1      34.085  21.455  26.881  1.00  0.00     0.169 C 
BRANCH   6   7
ATOM      7  S   UNL A   1      32.650  21.419  25.761  1.00  0.00    -0.142 SA
BRANCH   7   8
ATOM      8  C   UNL A   1      32.529  23.169  25.315  1.00  0.00     0.170 C 
BRANCH   8   9
ATOM      9  C   UNL A   1      31.499  24.050  26.016  1.00  0.00     0.232 C 
ATOM     10  O   UNL A   1      31.457  24.033  27.251  1.00  0.00    -0.274 OA
ATOM     11  N   UNL A   1      30.810  25.012  25.308  1.00  0.00    -0.338 N 
ATOM     12  C   UNL A   1      30.527  26.311  25.941  1.00  0.00     0.141 C 
ATOM     13  C   UNL A   1      30.282  24.916  23.944  1.00  0.00     0.141 C 
ATOM     14  C   UNL A   1      31.086  27.471  25.076  1.00  0.00     0.138 C 
ATOM     15  C   UNL A   1      30.862  26.013  23.048  1.00  0.00     0.138 C 
ATOM     16  N   UNL A   1      30.660  27.325  23.672  1.00  0.00    -0.368 N 
BRANCH  16  17
ATOM     17  C   UNL A   1      29.864  28.281  23.080  1.00  0.00     0.037 A 
ATOM     18  C   UNL A   1      30.408  29.342  22.343  1.00  0.00     0.029 A 
ATOM     19  C   UNL A   1      28.470  28.223  23.220  1.00  0.00     0.029 A 
ATOM     20  C   UNL A   1      29.590  30.317  21.765  1.00  0.00     0.041 A 
ATOM     21  C   UNL A   1      27.646  29.205  22.661  1.00  0.00     0.041 A 
ATOM     22  C   UNL A   1      28.215  30.242  21.936  1.00  0.00     0.123 A 
ATOM     23  F   UNL A   1      27.429  31.182  21.398  1.00  0.00    -0.207 F 
ENDBRANCH  16  17
ENDBRANCH   8   9
ENDBRANCH   7   8
ENDBRANCH   6   7
ENDBRANCH   4   6
ENDBRANCH   1   2
BRANCH   1  24
ATOM     24  C   UNL A   1      38.017  19.594  25.005  1.00  0.00     0.042 C 
BRANCH  24  25
ATOM     25  C   UNL A   1      39.239  20.072  25.787  1.00  0.00     0.118 C 
BRANCH  25  26
ATOM     26  N   UNL A   1      40.289  19.067  25.892  1.00  0.00    -0.352 N 
ATOM     27  C   UNL A   1      41.637  19.213  26.115  1.00  0.00     0.251 C 
ATOM     28  H   UNL A   1      39.985  18.137  25.787  1.00  0.00     0.163 HD
ATOM     29  O   UNL A   1      42.379  18.237  26.041  1.00  0.00    -0.269 OA
BRANCH  27  30
ATOM     30  C   UNL A   1      42.206  20.544  26.412  1.00  0.00     0.039 A 
ATOM     31  C   UNL A   1      42.711  21.314  25.359  1.00  0.00     0.014 A 
ATOM     32  C   UNL A   1      42.247  21.036  27.719  1.00  0.00     0.014 A 
ATOM     33  C   UNL A   1      43.169  22.611  25.602  1.00  0.00     0.010 A 
ATOM     34  C   UNL A   1      42.641  22.352  27.950  1.00  0.00     0.010 A 
ATOM     35  C   UNL A   1      43.092  23.158  26.892  1.00  0.00    -0.014 A 
BRANCH  35  36
ATOM     36  C   UNL A   1      43.445  24.574  27.164  1.00  0.00     0.031 A 
ATOM     37  C   UNL A   1      44.882  25.015  27.143  1.00  0.00     0.074 A 
ATOM     38  C   UNL A   1      42.482  25.444  27.531  1.00  0.00     0.049 A 
ATOM     39  N   UNL A   1      45.399  26.165  27.493  1.00  0.00    -0.248 NA
ATOM     40  C   UNL A   1      45.870  24.022  26.691  1.00  0.00     0.031 C 
ATOM     41  C   UNL A   1      41.052  25.142  27.616  1.00  0.00     0.029 A 
ATOM     42  N   UNL A   1      42.566  26.758  27.922  1.00  0.00    -0.354 N 
ATOM     43  C   UNL A   1      46.771  26.027  27.330  1.00  0.00     0.074 A 
ATOM     44  C   UNL A   1      47.009  24.671  26.883  1.00  0.00     0.031 C 
ATOM     45  C   UNL A   1      40.394  26.239  28.020  1.00  0.00     0.029 A 
ATOM     46  C   UNL A   1      41.357  27.307  28.270  1.00  0.00     0.049 A 
ATOM     47  H   UNL A   1      43.414  27.258  27.950  1.00  0.00     0.167 HD
ATOM     48  C   UNL A   1      47.745  26.948  27.524  1.00  0.00     0.031 A 
ATOM     49  C   UNL A   1      41.055  28.526  28.759  1.00  0.00     0.031 A 
ATOM     50  C   UNL A   1      47.510  28.300  27.956  1.00  0.00     0.049 A 
ATOM     51  C   UNL A   1      42.156  29.522  28.991  1.00  0.00     0.074 A 
ATOM     52  C   UNL A   1      48.428  29.321  28.131  1.00  0.00     0.029 A 
ATOM     53  N   UNL A   1      46.266  28.819  28.284  1.00  0.00    -0.354 N 
ATOM     54  N   UNL A   1      43.443  29.391  28.784  1.00  0.00    -0.248 NA
ATOM     55  C   UNL A   1      41.761  30.835  29.519  1.00  0.00     0.031 C 
ATOM     56  C   UNL A   1      47.747  30.445  28.609  1.00  0.00     0.029 A 
ATOM     57  C   UNL A   1      46.397  30.139  28.679  1.00  0.00     0.049 A 
ATOM     58  H   UNL A   1      45.418  28.323  28.240  1.00  0.00     0.167 HD
ATOM     59  C   UNL A   1      44.007  30.614  29.123  1.00  0.00     0.074 A 
ATOM     60  C   UNL A   1      42.923  31.476  29.544  1.00  0.00     0.031 C 
ATOM     61  C   UNL A   1      45.308  30.990  29.084  1.00  0.00     0.031 A 
BRANCH  48  62
ATOM     62  C   UNL A   1      49.165  26.517  27.280  1.00  0.00    -0.014 A 
ATOM     63  C   UNL A   1      49.988  26.094  28.335  1.00  0.00     0.009 A 
ATOM     64  C   UNL A   1      49.671  26.494  25.971  1.00  0.00     0.009 A 
ATOM     65  C   UNL A   1      51.303  25.692  28.089  1.00  0.00     0.001 A 
ATOM     66  C   UNL A   1      50.976  26.064  25.724  1.00  0.00     0.001 A 
ATOM     67  C   UNL A   1      51.794  25.673  26.783  1.00  0.00     0.000 A 
ENDBRANCH  48  62
BRANCH  49  68
ATOM     68  C   UNL A   1      39.643  28.877  29.061  1.00  0.00    -0.014 A 
ATOM     69  C   UNL A   1      38.840  29.492  28.087  1.00  0.00     0.009 A 
ATOM     70  C   UNL A   1      39.091  28.604  30.322  1.00  0.00     0.009 A 
ATOM     71  C   UNL A   1      37.523  29.850  28.379  1.00  0.00     0.001 A 
ATOM     72  C   UNL A   1      37.764  28.937  30.601  1.00  0.00     0.001 A 
ATOM     73  C   UNL A   1      36.984  29.568  29.633  1.00  0.00     0.000 A 
ENDBRANCH  49  68
BRANCH  61  74
ATOM     74  C   UNL A   1      45.633  32.408  29.456  1.00  0.00    -0.014 A 
ATOM     75  C   UNL A   1      45.598  33.440  28.506  1.00  0.00     0.009 A 
ATOM     76  C   UNL A   1      45.917  32.723  30.795  1.00  0.00     0.009 A 
ATOM     77  C   UNL A   1      45.864  34.757  28.887  1.00  0.00     0.001 A 
ATOM     78  C   UNL A   1      46.156  34.042  31.177  1.00  0.00     0.001 A 
ATOM     79  C   UNL A   1      46.136  35.057  30.222  1.00  0.00     0.000 A 
ENDBRANCH  61  74
ENDBRANCH  35  36
ENDBRANCH  27  30
ENDBRANCH  25  26
ENDBRANCH  24  25
ENDBRANCH   1  24
TORSDOF 14
ENDMDL
