MODEL 1
REMARK VINA RESULT:     -12.8      0.000      0.000
REMARK SMILES C[C@@H](C(=O)NCCCNC(=O)c1ccc(-c2c3nc(c(-c4ccccc4)c4ccc([nH]4)c(-c4ccccc4)c4nc(c(-c5ccccc5)c5ccc2[nH]5)C=C4)C=C3)cc1)N1C(=O)/C(=C/c2ccc(-c3ccc([N+](=O)[O-])cc3Cl)o2)SC1=S
REMARK SMILES IDX 6 1 5 2 3 3 4 4 2 6 1 7 60 8 61 9 81 10 62 11 63 12 80 13
REMARK SMILES IDX 82 14 64 15 65 16 66 17 79 18 67 19 68 20 69 21 70 22 77 23
REMARK SMILES IDX 71 24 76 25 78 26 72 27 73 28 74 29 75 30 7 31 8 32 9 33
REMARK SMILES IDX 10 34 11 36 12 37 13 38 59 39 14 40 58 41 15 42 16 43 17 44
REMARK SMILES IDX 52 45 18 46 57 47 51 48 53 49 19 50 56 51 50 52 49 53 20 55
REMARK SMILES IDX 42 56 27 57 41 58 28 59 31 60 40 61 54 62 29 63 30 64 39 66
REMARK SMILES IDX 55 67 32 68 21 69 22 70 26 71 23 72 25 73 24 74 43 75 44 76
REMARK SMILES IDX 48 77 45 78 47 79 46 80 33 81 34 82 38 83 35 84 37 85 36 86
REMARK H PARENT 5 5 9 35 53 54 31 65
REMARK Flexibility Score: inf
ROOT
ATOM      1  C   UNL A   1      31.417  29.982  25.448  1.00  0.00     0.117 C 
ENDROOT
BRANCH   1   2
ATOM      2  N   UNL A   1      32.622  29.897  24.647  1.00  0.00    -0.354 N 
ATOM      3  C   UNL A   1      32.991  28.973  23.711  1.00  0.00     0.242 C 
ATOM      4  O   UNL A   1      34.058  29.166  23.123  1.00  0.00    -0.273 OA
ATOM      5  H   UNL A   1      33.276  30.615  24.803  1.00  0.00     0.163 HD
BRANCH   3   6
ATOM      6  C   UNL A   1      32.072  27.774  23.392  1.00  0.00     0.178 C 
ATOM      7  C   UNL A   1      30.640  27.947  23.895  1.00  0.00     0.042 C 
BRANCH   6   8
ATOM      8  N   UNL A   1      32.736  26.557  23.907  1.00  0.00    -0.281 N 
ATOM      9  C   UNL A   1      33.466  25.748  23.048  1.00  0.00     0.267 C 
ATOM     10  C   UNL A   1      32.545  26.070  25.185  1.00  0.00     0.149 C 
ATOM     11  O   UNL A   1      33.692  25.952  21.866  1.00  0.00    -0.268 OA
ATOM     12  C   UNL A   1      33.965  24.546  23.765  1.00  0.00     0.084 C 
ATOM     13  S   UNL A   1      33.387  24.541  25.382  1.00  0.00    -0.054 SA
ATOM     14  S   UNL A   1      31.679  26.753  26.440  1.00  0.00    -0.052 S 
ATOM     15  C   UNL A   1      34.781  23.670  23.164  1.00  0.00     0.068 C 
BRANCH  15  16
ATOM     16  C   UNL A   1      35.287  22.509  23.803  1.00  0.00     0.128 A 
ATOM     17  C   UNL A   1      36.565  22.246  24.281  1.00  0.00     0.051 A 
ATOM     18  O   UNL A   1      34.507  21.407  24.075  1.00  0.00    -0.457 OA
ATOM     19  C   UNL A   1      36.570  20.938  24.811  1.00  0.00     0.051 A 
ATOM     20  C   UNL A   1      35.296  20.451  24.635  1.00  0.00     0.136 A 
BRANCH  20  21
ATOM     21  C   UNL A   1      34.672  19.174  24.948  1.00  0.00     0.036 A 
ATOM     22  C   UNL A   1      35.456  18.012  24.836  1.00  0.00     0.020 A 
ATOM     23  C   UNL A   1      33.308  19.042  25.269  1.00  0.00     0.058 A 
ATOM     24  C   UNL A   1      34.895  16.745  25.014  1.00  0.00     0.086 A 
ATOM     25  C   UNL A   1      32.736  17.776  25.447  1.00  0.00     0.106 A 
ATOM     26  Cl  UNL A   1      32.246  20.404  25.391  1.00  0.00    -0.083 Cl
ATOM     27  C   UNL A   1      33.531  16.632  25.305  1.00  0.00     0.270 A 
BRANCH  27  28
ATOM     28  N   UNL A   1      32.924  15.302  25.430  1.00  0.00     0.062 N 
ATOM     29  O   UNL A   1      31.700  15.243  25.607  1.00  0.00    -0.258 OA
ATOM     30  O   UNL A   1      33.674  14.318  25.361  1.00  0.00    -0.258 OA
ENDBRANCH  27  28
ENDBRANCH  20  21
ENDBRANCH  15  16
ENDBRANCH   6   8
ENDBRANCH   3   6
ENDBRANCH   1   2
BRANCH   1  31
ATOM     31  C   UNL A   1      31.226  31.373  26.045  1.00  0.00     0.042 C 
BRANCH  31  32
ATOM     32  C   UNL A   1      32.413  31.867  26.871  1.00  0.00     0.118 C 
BRANCH  32  33
ATOM     33  N   UNL A   1      32.260  33.248  27.302  1.00  0.00    -0.352 N 
ATOM     34  C   UNL A   1      33.032  34.011  28.142  1.00  0.00     0.251 C 
ATOM     35  H   UNL A   1      31.475  33.710  26.931  1.00  0.00     0.163 HD
ATOM     36  O   UNL A   1      32.609  35.103  28.515  1.00  0.00    -0.269 OA
BRANCH  34  37
ATOM     37  C   UNL A   1      34.349  33.534  28.619  1.00  0.00     0.039 A 
ATOM     38  C   UNL A   1      34.408  32.852  29.839  1.00  0.00     0.014 A 
ATOM     39  C   UNL A   1      35.525  33.787  27.909  1.00  0.00     0.014 A 
ATOM     40  C   UNL A   1      35.631  32.367  30.309  1.00  0.00     0.010 A 
ATOM     41  C   UNL A   1      36.733  33.238  28.341  1.00  0.00     0.010 A 
ATOM     42  C   UNL A   1      36.798  32.521  29.544  1.00  0.00    -0.014 A 
BRANCH  42  43
ATOM     43  C   UNL A   1      38.080  31.911  29.982  1.00  0.00     0.031 A 
ATOM     44  C   UNL A   1      38.996  32.638  30.930  1.00  0.00     0.074 A 
ATOM     45  C   UNL A   1      38.444  30.710  29.487  1.00  0.00     0.049 A 
ATOM     46  N   UNL A   1      40.163  32.265  31.397  1.00  0.00    -0.248 NA
ATOM     47  C   UNL A   1      38.556  33.959  31.403  1.00  0.00     0.031 C 
ATOM     48  C   UNL A   1      37.667  29.919  28.530  1.00  0.00     0.029 A 
ATOM     49  N   UNL A   1      39.559  29.946  29.719  1.00  0.00    -0.354 N 
ATOM     50  C   UNL A   1      40.595  33.306  32.210  1.00  0.00     0.074 A 
ATOM     51  C   UNL A   1      39.592  34.346  32.133  1.00  0.00     0.031 C 
ATOM     52  C   UNL A   1      38.314  28.770  28.280  1.00  0.00     0.029 A 
ATOM     53  C   UNL A   1      39.570  28.762  29.023  1.00  0.00     0.049 A 
ATOM     54  H   UNL A   1      40.285  30.221  30.326  1.00  0.00     0.167 HD
ATOM     55  C   UNL A   1      41.716  33.382  32.967  1.00  0.00     0.031 A 
ATOM     56  C   UNL A   1      40.490  27.779  28.977  1.00  0.00     0.031 A 
ATOM     57  C   UNL A   1      42.716  32.350  33.045  1.00  0.00     0.049 A 
ATOM     58  C   UNL A   1      41.738  27.904  29.807  1.00  0.00     0.074 A 
ATOM     59  C   UNL A   1      43.864  32.319  33.818  1.00  0.00     0.029 A 
ATOM     60  N   UNL A   1      42.692  31.168  32.321  1.00  0.00    -0.354 N 
ATOM     61  N   UNL A   1      42.096  28.866  30.623  1.00  0.00    -0.248 NA
ATOM     62  C   UNL A   1      42.703  26.799  29.717  1.00  0.00     0.031 C 
ATOM     63  C   UNL A   1      44.561  31.145  33.521  1.00  0.00     0.029 A 
ATOM     64  C   UNL A   1      43.816  30.414  32.610  1.00  0.00     0.049 A 
ATOM     65  H   UNL A   1      41.980  30.905  31.694  1.00  0.00     0.167 HD
ATOM     66  C   UNL A   1      43.314  28.470  31.162  1.00  0.00     0.074 A 
ATOM     67  C   UNL A   1      43.618  27.169  30.601  1.00  0.00     0.031 C 
ATOM     68  C   UNL A   1      44.110  29.124  32.041  1.00  0.00     0.031 A 
BRANCH  55  69
ATOM     69  C   UNL A   1      41.923  34.631  33.781  1.00  0.00    -0.014 A 
ATOM     70  C   UNL A   1      42.587  35.746  33.243  1.00  0.00     0.009 A 
ATOM     71  C   UNL A   1      41.396  34.717  35.079  1.00  0.00     0.009 A 
ATOM     72  C   UNL A   1      42.744  36.909  33.999  1.00  0.00     0.001 A 
ATOM     73  C   UNL A   1      41.529  35.892  35.821  1.00  0.00     0.001 A 
ATOM     74  C   UNL A   1      42.209  36.984  35.284  1.00  0.00     0.000 A 
ENDBRANCH  55  69
BRANCH  56  75
ATOM     75  C   UNL A   1      40.274  26.588  28.115  1.00  0.00    -0.014 A 
ATOM     76  C   UNL A   1      40.844  26.518  26.834  1.00  0.00     0.009 A 
ATOM     77  C   UNL A   1      39.471  25.525  28.557  1.00  0.00     0.009 A 
ATOM     78  C   UNL A   1      40.582  25.427  26.001  1.00  0.00     0.001 A 
ATOM     79  C   UNL A   1      39.240  24.419  27.735  1.00  0.00     0.001 A 
ATOM     80  C   UNL A   1      39.785  24.378  26.454  1.00  0.00     0.000 A 
ENDBRANCH  56  75
BRANCH  68  81
ATOM     81  C   UNL A   1      45.371  28.427  32.474  1.00  0.00    -0.014 A 
ATOM     82  C   UNL A   1      46.600  28.684  31.848  1.00  0.00     0.009 A 
ATOM     83  C   UNL A   1      45.330  27.516  33.541  1.00  0.00     0.009 A 
ATOM     84  C   UNL A   1      47.753  28.009  32.252  1.00  0.00     0.001 A 
ATOM     85  C   UNL A   1      46.491  26.869  33.966  1.00  0.00     0.001 A 
ATOM     86  C   UNL A   1      47.699  27.106  33.313  1.00  0.00     0.000 A 
ENDBRANCH  68  81
ENDBRANCH  42  43
ENDBRANCH  34  37
ENDBRANCH  32  33
ENDBRANCH  31  32
ENDBRANCH   1  31
TORSDOF 14
ENDMDL
MODEL 2
REMARK VINA RESULT:     -12.8      3.337      9.801
REMARK SMILES C[C@@H](C(=O)NCCCNC(=O)c1ccc(-c2c3nc(c(-c4ccccc4)c4ccc([nH]4)c(-c4ccccc4)c4nc(c(-c5ccccc5)c5ccc2[nH]5)C=C4)C=C3)cc1)N1C(=O)/C(=C/c2ccc(-c3ccc([N+](=O)[O-])cc3Cl)o2)SC1=S
REMARK SMILES IDX 6 1 5 2 3 3 4 4 2 6 1 7 60 8 61 9 81 10 62 11 63 12 80 13
REMARK SMILES IDX 82 14 64 15 65 16 66 17 79 18 67 19 68 20 69 21 70 22 77 23
REMARK SMILES IDX 71 24 76 25 78 26 72 27 73 28 74 29 75 30 7 31 8 32 9 33
REMARK SMILES IDX 10 34 11 36 12 37 13 38 59 39 14 40 58 41 15 42 16 43 17 44
REMARK SMILES IDX 52 45 18 46 57 47 51 48 53 49 19 50 56 51 50 52 49 53 20 55
REMARK SMILES IDX 42 56 27 57 41 58 28 59 31 60 40 61 54 62 29 63 30 64 39 66
REMARK SMILES IDX 55 67 32 68 21 69 22 70 26 71 23 72 25 73 24 74 43 75 44 76
REMARK SMILES IDX 48 77 45 78 47 79 46 80 33 81 34 82 38 83 35 84 37 85 36 86
REMARK H PARENT 5 5 9 35 53 54 31 65
REMARK Flexibility Score: inf
ROOT
ATOM      1  C   UNL A   1      35.841  21.048  24.872  1.00  0.00     0.117 C 
ENDROOT
BRANCH   1   2
ATOM      2  N   UNL A   1      35.329  21.176  26.223  1.00  0.00    -0.354 N 
ATOM      3  C   UNL A   1      34.066  21.454  26.660  1.00  0.00     0.242 C 
ATOM      4  O   UNL A   1      33.880  21.449  27.880  1.00  0.00    -0.273 OA
ATOM      5  H   UNL A   1      35.996  21.043  26.935  1.00  0.00     0.163 HD
BRANCH   3   6
ATOM      6  C   UNL A   1      32.929  21.719  25.649  1.00  0.00     0.178 C 
ATOM      7  C   UNL A   1      33.053  20.907  24.360  1.00  0.00     0.042 C 
BRANCH   6   8
ATOM      8  N   UNL A   1      32.865  23.178  25.424  1.00  0.00    -0.281 N 
ATOM      9  C   UNL A   1      32.197  23.991  26.330  1.00  0.00     0.267 C 
ATOM     10  C   UNL A   1      33.298  23.789  24.263  1.00  0.00     0.149 C 
ATOM     11  O   UNL A   1      31.675  23.645  27.377  1.00  0.00    -0.268 OA
ATOM     12  C   UNL A   1      32.189  25.400  25.855  1.00  0.00     0.084 C 
ATOM     13  S   UNL A   1      32.934  25.507  24.312  1.00  0.00    -0.054 SA
ATOM     14  S   UNL A   1      34.076  23.101  22.955  1.00  0.00    -0.052 S 
ATOM     15  C   UNL A   1      31.689  26.383  26.615  1.00  0.00     0.068 C 
BRANCH  15  16
ATOM     16  C   UNL A   1      31.659  27.743  26.211  1.00  0.00     0.128 A 
ATOM     17  C   UNL A   1      32.284  28.849  26.774  1.00  0.00     0.051 A 
ATOM     18  O   UNL A   1      30.966  28.177  25.102  1.00  0.00    -0.457 OA
ATOM     19  C   UNL A   1      31.923  29.984  26.018  1.00  0.00     0.051 A 
ATOM     20  C   UNL A   1      31.090  29.530  25.023  1.00  0.00     0.136 A 
BRANCH  20  21
ATOM     21  C   UNL A   1      30.378  30.199  23.945  1.00  0.00     0.036 A 
ATOM     22  C   UNL A   1      29.547  31.283  24.278  1.00  0.00     0.020 A 
ATOM     23  C   UNL A   1      30.414  29.760  22.608  1.00  0.00     0.058 A 
ATOM     24  C   UNL A   1      28.749  31.903  23.312  1.00  0.00     0.086 A 
ATOM     25  C   UNL A   1      29.616  30.373  21.634  1.00  0.00     0.106 A 
ATOM     26  Cl  UNL A   1      31.371  28.409  22.100  1.00  0.00    -0.083 Cl
ATOM     27  C   UNL A   1      28.778  31.434  21.994  1.00  0.00     0.270 A 
BRANCH  27  28
ATOM     28  N   UNL A   1      27.895  32.039  20.990  1.00  0.00     0.062 N 
ATOM     29  O   UNL A   1      27.415  31.295  20.124  1.00  0.00    -0.258 OA
ATOM     30  O   UNL A   1      27.692  33.259  21.063  1.00  0.00    -0.258 OA
ENDBRANCH  27  28
ENDBRANCH  20  21
ENDBRANCH  15  16
ENDBRANCH   6   8
ENDBRANCH   3   6
ENDBRANCH   1   2
BRANCH   1  31
ATOM     31  C   UNL A   1      37.037  20.104  24.804  1.00  0.00     0.042 C 
BRANCH  31  32
ATOM     32  C   UNL A   1      38.336  20.700  25.344  1.00  0.00     0.118 C 
BRANCH  32  33
ATOM     33  N   UNL A   1      39.385  19.705  25.508  1.00  0.00    -0.352 N 
ATOM     34  C   UNL A   1      40.675  19.834  25.959  1.00  0.00     0.251 C 
ATOM     35  H   UNL A   1      39.127  18.790  25.253  1.00  0.00     0.163 HD
ATOM     36  O   UNL A   1      41.448  18.887  25.837  1.00  0.00    -0.269 OA
BRANCH  34  37
ATOM     37  C   UNL A   1      41.152  21.095  26.569  1.00  0.00     0.039 A 
ATOM     38  C   UNL A   1      41.730  22.059  25.738  1.00  0.00     0.014 A 
ATOM     39  C   UNL A   1      41.079  21.321  27.946  1.00  0.00     0.014 A 
ATOM     40  C   UNL A   1      42.171  23.271  26.275  1.00  0.00     0.010 A 
ATOM     41  C   UNL A   1      41.449  22.559  28.471  1.00  0.00     0.010 A 
ATOM     42  C   UNL A   1      41.997  23.548  27.641  1.00  0.00    -0.014 A 
BRANCH  42  43
ATOM     43  C   UNL A   1      42.360  24.877  28.200  1.00  0.00     0.031 A 
ATOM     44  C   UNL A   1      43.766  25.167  28.648  1.00  0.00     0.074 A 
ATOM     45  C   UNL A   1      41.402  25.815  28.344  1.00  0.00     0.049 A 
ATOM     46  N   UNL A   1      44.252  26.262  29.181  1.00  0.00    -0.248 NA
ATOM     47  C   UNL A   1      44.753  24.086  28.496  1.00  0.00     0.031 C 
ATOM     48  C   UNL A   1      39.991  25.649  27.986  1.00  0.00     0.029 A 
ATOM     49  N   UNL A   1      41.470  27.096  28.832  1.00  0.00    -0.354 N 
ATOM     50  C   UNL A   1      45.593  25.998  29.432  1.00  0.00     0.074 A 
ATOM     51  C   UNL A   1      45.833  24.626  29.042  1.00  0.00     0.031 C 
ATOM     52  C   UNL A   1      39.335  26.791  28.238  1.00  0.00     0.029 A 
ATOM     53  C   UNL A   1      40.265  27.756  28.815  1.00  0.00     0.049 A 
ATOM     54  H   UNL A   1      42.303  27.504  29.163  1.00  0.00     0.167 HD
ATOM     55  C   UNL A   1      46.543  26.829  29.925  1.00  0.00     0.031 A 
ATOM     56  C   UNL A   1      39.939  28.997  29.226  1.00  0.00     0.031 A 
ATOM     57  C   UNL A   1      46.308  28.194  30.315  1.00  0.00     0.049 A 
ATOM     58  C   UNL A   1      41.009  29.886  29.795  1.00  0.00     0.074 A 
ATOM     59  C   UNL A   1      47.217  29.126  30.784  1.00  0.00     0.029 A 
ATOM     60  N   UNL A   1      45.072  28.823  30.287  1.00  0.00    -0.354 N 
ATOM     61  N   UNL A   1      42.286  29.642  29.960  1.00  0.00    -0.248 NA
ATOM     62  C   UNL A   1      40.592  31.229  30.222  1.00  0.00     0.031 C 
ATOM     63  C   UNL A   1      46.524  30.299  31.092  1.00  0.00     0.029 A 
ATOM     64  C   UNL A   1      45.193  30.120  30.754  1.00  0.00     0.049 A 
ATOM     65  H   UNL A   1      44.235  28.407  29.980  1.00  0.00     0.167 HD
ATOM     66  C   UNL A   1      42.829  30.808  30.486  1.00  0.00     0.074 A 
ATOM     67  C   UNL A   1      41.747  31.766  30.586  1.00  0.00     0.031 C 
ATOM     68  C   UNL A   1      44.108  31.062  30.855  1.00  0.00     0.031 A 
BRANCH  55  69
ATOM     69  C   UNL A   1      47.938  26.283  30.070  1.00  0.00    -0.014 A 
ATOM     70  C   UNL A   1      48.384  25.745  31.289  1.00  0.00     0.009 A 
ATOM     71  C   UNL A   1      48.796  26.249  28.959  1.00  0.00     0.009 A 
ATOM     72  C   UNL A   1      49.670  25.212  31.400  1.00  0.00     0.001 A 
ATOM     73  C   UNL A   1      50.071  25.689  29.066  1.00  0.00     0.001 A 
ATOM     74  C   UNL A   1      50.510  25.178  30.287  1.00  0.00     0.000 A 
ENDBRANCH  55  69
BRANCH  56  75
ATOM     75  C   UNL A   1      38.536  29.478  29.119  1.00  0.00    -0.014 A 
ATOM     76  C   UNL A   1      37.654  29.361  30.205  1.00  0.00     0.009 A 
ATOM     77  C   UNL A   1      38.062  30.030  27.919  1.00  0.00     0.009 A 
ATOM     78  C   UNL A   1      36.319  29.752  30.078  1.00  0.00     0.001 A 
ATOM     79  C   UNL A   1      36.736  30.453  27.806  1.00  0.00     0.001 A 
ATOM     80  C   UNL A   1      35.862  30.301  28.881  1.00  0.00     0.000 A 
ENDBRANCH  56  75
BRANCH  68  81
ATOM     81  C   UNL A   1      44.410  32.442  31.370  1.00  0.00    -0.014 A 
ATOM     82  C   UNL A   1      44.338  32.744  32.739  1.00  0.00     0.009 A 
ATOM     83  C   UNL A   1      44.796  33.450  30.472  1.00  0.00     0.009 A 
ATOM     84  C   UNL A   1      44.602  34.037  33.192  1.00  0.00     0.001 A 
ATOM     85  C   UNL A   1      45.094  34.733  30.932  1.00  0.00     0.001 A 
ATOM     86  C   UNL A   1      44.984  35.029  32.290  1.00  0.00     0.000 A 
ENDBRANCH  68  81
ENDBRANCH  42  43
ENDBRANCH  34  37
ENDBRANCH  32  33
ENDBRANCH  31  32
ENDBRANCH   1  31
TORSDOF 14
ENDMDL
MODEL 3
REMARK VINA RESULT:     -12.8      0.325      5.697
REMARK SMILES C[C@@H](C(=O)NCCCNC(=O)c1ccc(-c2c3nc(c(-c4ccccc4)c4ccc([nH]4)c(-c4ccccc4)c4nc(c(-c5ccccc5)c5ccc2[nH]5)C=C4)C=C3)cc1)N1C(=O)/C(=C/c2ccc(-c3ccc([N+](=O)[O-])cc3Cl)o2)SC1=S
REMARK SMILES IDX 6 1 5 2 3 3 4 4 2 6 1 7 60 8 61 9 81 10 62 11 63 12 80 13
REMARK SMILES IDX 82 14 64 15 65 16 66 17 79 18 67 19 68 20 69 21 70 22 77 23
REMARK SMILES IDX 71 24 76 25 78 26 72 27 73 28 74 29 75 30 7 31 8 32 9 33
REMARK SMILES IDX 10 34 11 36 12 37 13 38 59 39 14 40 58 41 15 42 16 43 17 44
REMARK SMILES IDX 52 45 18 46 57 47 51 48 53 49 19 50 56 51 50 52 49 53 20 55
REMARK SMILES IDX 42 56 27 57 41 58 28 59 31 60 40 61 54 62 29 63 30 64 39 66
REMARK SMILES IDX 55 67 32 68 21 69 22 70 26 71 23 72 25 73 24 74 43 75 44 76
REMARK SMILES IDX 48 77 45 78 47 79 46 80 33 81 34 82 38 83 35 84 37 85 36 86
REMARK H PARENT 5 5 9 35 53 54 31 65
REMARK Flexibility Score: inf
ROOT
ATOM      1  C   UNL A   1      31.624  29.804  25.575  1.00  0.00     0.117 C 
ENDROOT
BRANCH   1   2
ATOM      2  N   UNL A   1      32.709  29.798  24.614  1.00  0.00    -0.354 N 
ATOM      3  C   UNL A   1      32.961  28.943  23.580  1.00  0.00     0.242 C 
ATOM      4  O   UNL A   1      33.935  29.197  22.865  1.00  0.00    -0.273 OA
ATOM      5  H   UNL A   1      33.367  30.522  24.725  1.00  0.00     0.163 HD
BRANCH   3   6
ATOM      6  C   UNL A   1      32.027  27.742  23.313  1.00  0.00     0.178 C 
ATOM      7  C   UNL A   1      30.603  27.946  23.828  1.00  0.00     0.042 C 
BRANCH   6   8
ATOM      8  N   UNL A   1      32.686  26.537  23.859  1.00  0.00    -0.281 N 
ATOM      9  C   UNL A   1      33.479  25.747  23.038  1.00  0.00     0.267 C 
ATOM     10  C   UNL A   1      32.435  26.040  25.124  1.00  0.00     0.149 C 
ATOM     11  O   UNL A   1      33.765  25.961  21.871  1.00  0.00    -0.268 OA
ATOM     12  C   UNL A   1      33.962  24.552  23.778  1.00  0.00     0.084 C 
ATOM     13  S   UNL A   1      33.297  24.528  25.361  1.00  0.00    -0.054 SA
ATOM     14  S   UNL A   1      31.488  26.700  26.331  1.00  0.00    -0.052 S 
ATOM     15  C   UNL A   1      34.828  23.696  23.219  1.00  0.00     0.068 C 
BRANCH  15  16
ATOM     16  C   UNL A   1      35.322  22.542  23.882  1.00  0.00     0.128 A 
ATOM     17  C   UNL A   1      36.577  22.301  24.426  1.00  0.00     0.051 A 
ATOM     18  O   UNL A   1      34.549  21.424  24.109  1.00  0.00    -0.457 OA
ATOM     19  C   UNL A   1      36.580  20.992  24.951  1.00  0.00     0.051 A 
ATOM     20  C   UNL A   1      35.327  20.482  24.708  1.00  0.00     0.136 A 
BRANCH  20  21
ATOM     21  C   UNL A   1      34.712  19.192  24.983  1.00  0.00     0.036 A 
ATOM     22  C   UNL A   1      35.460  18.033  24.713  1.00  0.00     0.020 A 
ATOM     23  C   UNL A   1      33.382  19.051  25.423  1.00  0.00     0.058 A 
ATOM     24  C   UNL A   1      34.895  16.762  24.849  1.00  0.00     0.086 A 
ATOM     25  C   UNL A   1      32.807  17.782  25.561  1.00  0.00     0.106 A 
ATOM     26  Cl  UNL A   1      32.361  20.412  25.746  1.00  0.00    -0.083 Cl
ATOM     27  C   UNL A   1      33.564  16.643  25.261  1.00  0.00     0.270 A 
BRANCH  27  28
ATOM     28  N   UNL A   1      32.946  15.314  25.344  1.00  0.00     0.062 N 
ATOM     29  O   UNL A   1      31.710  15.255  25.372  1.00  0.00    -0.258 OA
ATOM     30  O   UNL A   1      33.700  14.332  25.392  1.00  0.00    -0.258 OA
ENDBRANCH  27  28
ENDBRANCH  20  21
ENDBRANCH  15  16
ENDBRANCH   6   8
ENDBRANCH   3   6
ENDBRANCH   1   2
BRANCH   1  31
ATOM     31  C   UNL A   1      31.380  31.196  26.150  1.00  0.00     0.042 C 
BRANCH  31  32
ATOM     32  C   UNL A   1      32.535  31.737  26.991  1.00  0.00     0.118 C 
BRANCH  32  33
ATOM     33  N   UNL A   1      32.336  33.121  27.392  1.00  0.00    -0.352 N 
ATOM     34  C   UNL A   1      33.079  33.927  28.219  1.00  0.00     0.251 C 
ATOM     35  H   UNL A   1      31.538  33.551  27.008  1.00  0.00     0.163 HD
ATOM     36  O   UNL A   1      32.621  35.012  28.567  1.00  0.00    -0.269 OA
BRANCH  34  37
ATOM     37  C   UNL A   1      34.409  33.502  28.712  1.00  0.00     0.039 A 
ATOM     38  C   UNL A   1      34.484  32.854  29.948  1.00  0.00     0.014 A 
ATOM     39  C   UNL A   1      35.579  33.771  27.998  1.00  0.00     0.014 A 
ATOM     40  C   UNL A   1      35.719  32.418  30.434  1.00  0.00     0.010 A 
ATOM     41  C   UNL A   1      36.802  33.270  28.447  1.00  0.00     0.010 A 
ATOM     42  C   UNL A   1      36.884  32.587  29.668  1.00  0.00    -0.014 A 
BRANCH  42  43
ATOM     43  C   UNL A   1      38.183  32.027  30.126  1.00  0.00     0.031 A 
ATOM     44  C   UNL A   1      38.673  30.699  29.614  1.00  0.00     0.074 A 
ATOM     45  C   UNL A   1      38.906  32.701  31.043  1.00  0.00     0.049 A 
ATOM     46  N   UNL A   1      39.768  30.050  29.925  1.00  0.00    -0.248 NA
ATOM     47  C   UNL A   1      37.817  30.000  28.643  1.00  0.00     0.031 C 
ATOM     48  C   UNL A   1      38.525  33.979  31.650  1.00  0.00     0.029 A 
ATOM     49  N   UNL A   1      40.111  32.404  31.627  1.00  0.00    -0.354 N 
ATOM     50  C   UNL A   1      39.729  28.869  29.194  1.00  0.00     0.074 A 
ATOM     51  C   UNL A   1      38.479  28.866  28.465  1.00  0.00     0.031 C 
ATOM     52  C   UNL A   1      39.490  34.370  32.496  1.00  0.00     0.029 A 
ATOM     53  C   UNL A   1      40.535  33.353  32.527  1.00  0.00     0.049 A 
ATOM     54  H   UNL A   1      40.624  31.589  31.422  1.00  0.00     0.167 HD
ATOM     55  C   UNL A   1      40.657  27.885  29.121  1.00  0.00     0.031 A 
ATOM     56  C   UNL A   1      41.639  33.398  33.298  1.00  0.00     0.031 A 
ATOM     57  C   UNL A   1      41.900  27.884  29.846  1.00  0.00     0.049 A 
ATOM     58  C   UNL A   1      42.637  32.277  33.217  1.00  0.00     0.074 A 
ATOM     59  C   UNL A   1      42.922  26.951  29.803  1.00  0.00     0.029 A 
ATOM     60  N   UNL A   1      42.290  28.860  30.750  1.00  0.00    -0.354 N 
ATOM     61  N   UNL A   1      42.615  31.202  32.468  1.00  0.00    -0.248 NA
ATOM     62  C   UNL A   1      43.821  32.385  34.082  1.00  0.00     0.031 C 
ATOM     63  C   UNL A   1      43.904  27.335  30.721  1.00  0.00     0.029 A 
ATOM     64  C   UNL A   1      43.524  28.539  31.289  1.00  0.00     0.049 A 
ATOM     65  H   UNL A   1      41.766  29.663  30.974  1.00  0.00     0.167 HD
ATOM     66  C   UNL A   1      43.791  30.519  32.752  1.00  0.00     0.074 A 
ATOM     67  C   UNL A   1      44.515  31.316  33.721  1.00  0.00     0.031 C 
ATOM     68  C   UNL A   1      44.232  29.338  32.256  1.00  0.00     0.031 A 
BRANCH  55  69
ATOM     69  C   UNL A   1      40.363  26.717  28.219  1.00  0.00    -0.014 A 
ATOM     70  C   UNL A   1      39.590  25.631  28.664  1.00  0.00     0.009 A 
ATOM     71  C   UNL A   1      40.814  26.728  26.889  1.00  0.00     0.009 A 
ATOM     72  C   UNL A   1      39.300  24.569  27.806  1.00  0.00     0.001 A 
ATOM     73  C   UNL A   1      40.496  25.679  26.025  1.00  0.00     0.001 A 
ATOM     74  C   UNL A   1      39.746  24.597  26.485  1.00  0.00     0.000 A 
ENDBRANCH  55  69
BRANCH  56  75
ATOM     75  C   UNL A   1      41.862  34.543  34.220  1.00  0.00    -0.014 A 
ATOM     76  C   UNL A   1      41.443  34.477  35.559  1.00  0.00     0.009 A 
ATOM     77  C   UNL A   1      42.470  35.721  33.759  1.00  0.00     0.009 A 
ATOM     78  C   UNL A   1      41.594  35.579  36.403  1.00  0.00     0.001 A 
ATOM     79  C   UNL A   1      42.652  36.809  34.616  1.00  0.00     0.001 A 
ATOM     80  C   UNL A   1      42.202  36.742  35.933  1.00  0.00     0.000 A 
ENDBRANCH  56  75
BRANCH  68  81
ATOM     81  C   UNL A   1      45.574  28.854  32.731  1.00  0.00    -0.014 A 
ATOM     82  C   UNL A   1      45.700  28.052  33.876  1.00  0.00     0.009 A 
ATOM     83  C   UNL A   1      46.730  29.188  32.007  1.00  0.00     0.009 A 
ATOM     84  C   UNL A   1      46.958  27.632  34.310  1.00  0.00     0.001 A 
ATOM     85  C   UNL A   1      47.983  28.738  32.423  1.00  0.00     0.001 A 
ATOM     86  C   UNL A   1      48.098  27.971  33.581  1.00  0.00     0.000 A 
ENDBRANCH  68  81
ENDBRANCH  42  43
ENDBRANCH  34  37
ENDBRANCH  32  33
ENDBRANCH  31  32
ENDBRANCH   1  31
TORSDOF 14
ENDMDL
