MODEL 1
REMARK VINA RESULT:     -11.1      0.000      0.000
REMARK SMILES C[C@H]([C@@H]1CCCO1)n1c(SCC(=O)NCCCNC(=O)c2ccc(-c3c4nc(c(-c5ccccc5)c5ccc([nH]5)c(-c5ccccc5)c5nc(c(-c6ccccc6)c6ccc3[nH]6)C=C5)C=C4)cc2)nc2cnccc21
REMARK SMILES IDX 15 1 14 2 12 3 13 4 11 6 10 7 9 8 8 9 75 10 69 11 70 12
REMARK SMILES IDX 74 13 71 14 73 15 72 16 2 17 1 18 3 19 4 20 7 21 5 22 6 23
REMARK SMILES IDX 16 24 17 25 18 26 19 27 20 29 21 30 22 31 68 32 23 33 67 34
REMARK SMILES IDX 24 35 25 36 26 37 61 38 27 39 66 40 60 41 62 42 28 43 65 44
REMARK SMILES IDX 59 45 58 46 29 48 51 49 36 50 50 51 37 52 40 53 49 54 63 55
REMARK SMILES IDX 38 56 39 57 48 59 64 60 41 61 30 62 31 63 35 64 32 65 34 66
REMARK SMILES IDX 33 67 52 68 53 69 57 70 54 71 56 72 55 73 42 74 43 75 47 76
REMARK SMILES IDX 44 77 46 78 45 79
REMARK H PARENT 14 5 18 28 62 47 40 58
REMARK Flexibility Score: inf
ROOT
ATOM      1  C   UNL A   1      33.024  30.078  26.450  1.00  0.00     0.117 C 
ENDROOT
BRANCH   1   2
ATOM      2  N   UNL A   1      33.633  29.584  25.238  1.00  0.00    -0.355 N 
ATOM      3  C   UNL A   1      33.523  28.350  24.684  1.00  0.00     0.230 C 
ATOM      4  O   UNL A   1      33.943  28.212  23.531  1.00  0.00    -0.274 OA
ATOM      5  H   UNL A   1      34.202  30.224  24.752  1.00  0.00     0.163 HD
BRANCH   3   6
ATOM      6  C   UNL A   1      32.809  27.238  25.403  1.00  0.00     0.178 C 
BRANCH   6   7
ATOM      7  S   UNL A   1      32.740  25.601  24.731  1.00  0.00    -0.078 SA
BRANCH   7   8
ATOM      8  C   UNL A   1      34.067  24.499  24.631  1.00  0.00     0.169 A 
ATOM      9  N   UNL A   1      34.253  23.199  24.179  1.00  0.00    -0.313 N 
ATOM     10  C   UNL A   1      35.547  22.814  24.582  1.00  0.00     0.072 A 
ATOM     11  N   UNL A   1      35.104  24.874  25.364  1.00  0.00    -0.221 NA
ATOM     12  C   UNL A   1      36.003  23.851  25.375  1.00  0.00     0.108 A 
ATOM     13  C   UNL A   1      36.340  21.678  24.356  1.00  0.00     0.049 A 
ATOM     14  C   UNL A   1      37.239  23.731  26.022  1.00  0.00     0.141 A 
ATOM     15  C   UNL A   1      37.564  21.660  25.011  1.00  0.00     0.113 A 
ATOM     16  N   UNL A   1      38.015  22.632  25.831  1.00  0.00    -0.262 NA
BRANCH   9  17
ATOM     17  C   UNL A   1      33.466  22.280  23.358  1.00  0.00     0.116 C 
ATOM     18  C   UNL A   1      33.066  22.926  22.036  1.00  0.00     0.034 C 
BRANCH  17  19
ATOM     19  C   UNL A   1      32.461  21.314  24.033  1.00  0.00     0.141 C 
ATOM     20  C   UNL A   1      32.730  20.896  25.449  1.00  0.00     0.036 C 
ATOM     21  O   UNL A   1      32.286  20.125  23.251  1.00  0.00    -0.376 OA
ATOM     22  C   UNL A   1      32.855  19.395  25.436  1.00  0.00     0.031 C 
ATOM     23  C   UNL A   1      32.799  19.007  23.978  1.00  0.00     0.160 C 
ENDBRANCH  17  19
ENDBRANCH   9  17
ENDBRANCH   7   8
ENDBRANCH   6   7
ENDBRANCH   3   6
ENDBRANCH   1   2
BRANCH   1  24
ATOM     24  C   UNL A   1      34.033  30.232  27.570  1.00  0.00     0.042 C 
BRANCH  24  25
ATOM     25  C   UNL A   1      34.489  31.671  27.817  1.00  0.00     0.118 C 
BRANCH  25  26
ATOM     26  N   UNL A   1      34.483  32.109  29.204  1.00  0.00    -0.352 N 
ATOM     27  C   UNL A   1      35.320  31.978  30.272  1.00  0.00     0.251 C 
ATOM     28  H   UNL A   1      33.676  32.628  29.427  1.00  0.00     0.163 HD
ATOM     29  O   UNL A   1      34.964  32.548  31.314  1.00  0.00    -0.269 OA
BRANCH  27  30
ATOM     30  C   UNL A   1      36.560  31.161  30.302  1.00  0.00     0.039 A 
ATOM     31  C   UNL A   1      37.852  31.651  30.128  1.00  0.00     0.014 A 
ATOM     32  C   UNL A   1      36.390  29.777  30.496  1.00  0.00     0.014 A 
ATOM     33  C   UNL A   1      38.924  30.774  30.003  1.00  0.00     0.010 A 
ATOM     34  C   UNL A   1      37.467  28.900  30.436  1.00  0.00     0.010 A 
ATOM     35  C   UNL A   1      38.731  29.394  30.137  1.00  0.00    -0.014 A 
BRANCH  35  36
ATOM     36  C   UNL A   1      39.914  28.536  30.124  1.00  0.00     0.031 A 
ATOM     37  C   UNL A   1      40.579  28.387  31.451  1.00  0.00     0.074 A 
ATOM     38  C   UNL A   1      40.340  27.824  29.062  1.00  0.00     0.049 A 
ATOM     39  N   UNL A   1      41.784  28.719  31.779  1.00  0.00    -0.248 NA
ATOM     40  C   UNL A   1      39.758  27.913  32.578  1.00  0.00     0.031 C 
ATOM     41  C   UNL A   1      39.665  27.616  27.779  1.00  0.00     0.029 A 
ATOM     42  N   UNL A   1      41.450  27.037  28.952  1.00  0.00    -0.354 N 
ATOM     43  C   UNL A   1      41.934  28.358  33.117  1.00  0.00     0.074 A 
ATOM     44  C   UNL A   1      40.625  27.984  33.588  1.00  0.00     0.031 C 
ATOM     45  C   UNL A   1      40.249  26.583  27.128  1.00  0.00     0.029 A 
ATOM     46  C   UNL A   1      41.427  26.168  27.870  1.00  0.00     0.049 A 
ATOM     47  H   UNL A   1      42.202  27.081  29.587  1.00  0.00     0.167 HD
ATOM     48  C   UNL A   1      43.160  28.215  33.692  1.00  0.00     0.031 A 
ATOM     49  C   UNL A   1      42.285  25.144  27.636  1.00  0.00     0.031 A 
ATOM     50  C   UNL A   1      44.188  28.871  32.932  1.00  0.00     0.049 A 
ATOM     51  C   UNL A   1      43.515  25.400  28.414  1.00  0.00     0.074 A 
ATOM     52  C   UNL A   1      44.448  30.179  32.575  1.00  0.00     0.029 A 
ATOM     53  N   UNL A   1      44.958  28.091  32.106  1.00  0.00    -0.354 N 
ATOM     54  N   UNL A   1      44.346  26.367  28.162  1.00  0.00    -0.248 NA
ATOM     55  C   UNL A   1      43.632  24.799  29.731  1.00  0.00     0.031 C 
ATOM     56  C   UNL A   1      44.982  30.100  31.257  1.00  0.00     0.029 A 
ATOM     57  C   UNL A   1      45.081  28.750  30.911  1.00  0.00     0.049 A 
ATOM     58  H   UNL A   1      45.350  27.217  32.330  1.00  0.00     0.167 HD
ATOM     59  C   UNL A   1      44.772  26.794  29.410  1.00  0.00     0.074 A 
ATOM     60  C   UNL A   1      44.394  25.720  30.324  1.00  0.00     0.031 C 
ATOM     61  C   UNL A   1      45.137  28.093  29.623  1.00  0.00     0.031 A 
BRANCH  48  62
ATOM     62  C   UNL A   1      43.473  27.173  34.739  1.00  0.00    -0.014 A 
ATOM     63  C   UNL A   1      43.454  27.438  36.122  1.00  0.00     0.009 A 
ATOM     64  C   UNL A   1      43.522  25.818  34.360  1.00  0.00     0.009 A 
ATOM     65  C   UNL A   1      43.461  26.416  37.075  1.00  0.00     0.001 A 
ATOM     66  C   UNL A   1      43.487  24.791  35.311  1.00  0.00     0.001 A 
ATOM     67  C   UNL A   1      43.450  25.090  36.669  1.00  0.00     0.000 A 
ENDBRANCH  48  62
BRANCH  49  68
ATOM     68  C   UNL A   1      41.986  23.791  27.110  1.00  0.00    -0.014 A 
ATOM     69  C   UNL A   1      41.104  22.943  27.801  1.00  0.00     0.009 A 
ATOM     70  C   UNL A   1      42.815  23.216  26.130  1.00  0.00     0.009 A 
ATOM     71  C   UNL A   1      41.096  21.564  27.571  1.00  0.00     0.001 A 
ATOM     72  C   UNL A   1      42.810  21.833  25.903  1.00  0.00     0.001 A 
ATOM     73  C   UNL A   1      41.965  21.005  26.640  1.00  0.00     0.000 A 
ENDBRANCH  49  68
BRANCH  61  74
ATOM     74  C   UNL A   1      45.346  28.992  28.424  1.00  0.00    -0.014 A 
ATOM     75  C   UNL A   1      46.664  29.212  27.993  1.00  0.00     0.009 A 
ATOM     76  C   UNL A   1      44.320  29.751  27.835  1.00  0.00     0.009 A 
ATOM     77  C   UNL A   1      46.953  30.172  27.020  1.00  0.00     0.001 A 
ATOM     78  C   UNL A   1      44.606  30.691  26.838  1.00  0.00     0.001 A 
ATOM     79  C   UNL A   1      45.924  30.910  26.441  1.00  0.00     0.000 A 
ENDBRANCH  61  74
ENDBRANCH  35  36
ENDBRANCH  27  30
ENDBRANCH  25  26
ENDBRANCH  24  25
ENDBRANCH   1  24
TORSDOF 14
ENDMDL
MODEL 2
REMARK VINA RESULT:     -11.0      2.522      8.336
REMARK SMILES C[C@H]([C@@H]1CCCO1)n1c(SCC(=O)NCCCNC(=O)c2ccc(-c3c4nc(c(-c5ccccc5)c5ccc([nH]5)c(-c5ccccc5)c5nc(c(-c6ccccc6)c6ccc3[nH]6)C=C5)C=C4)cc2)nc2cnccc21
REMARK SMILES IDX 15 1 14 2 12 3 13 4 11 6 10 7 9 8 8 9 75 10 69 11 70 12
REMARK SMILES IDX 74 13 71 14 73 15 72 16 2 17 1 18 3 19 4 20 7 21 5 22 6 23
REMARK SMILES IDX 16 24 17 25 18 26 19 27 20 29 21 30 22 31 68 32 23 33 67 34
REMARK SMILES IDX 24 35 25 36 26 37 61 38 27 39 66 40 60 41 62 42 28 43 65 44
REMARK SMILES IDX 59 45 58 46 29 48 51 49 36 50 50 51 37 52 40 53 49 54 63 55
REMARK SMILES IDX 38 56 39 57 48 59 64 60 41 61 30 62 31 63 35 64 32 65 34 66
REMARK SMILES IDX 33 67 52 68 53 69 57 70 54 71 56 72 55 73 42 74 43 75 47 76
REMARK SMILES IDX 44 77 46 78 45 79
REMARK H PARENT 14 5 18 28 62 47 40 58
REMARK Flexibility Score: inf
ROOT
ATOM      1  C   UNL A   1      35.507  20.965  25.177  1.00  0.00     0.117 C 
ENDROOT
BRANCH   1   2
ATOM      2  N   UNL A   1      35.209  21.469  26.497  1.00  0.00    -0.355 N 
ATOM      3  C   UNL A   1      34.330  22.442  26.846  1.00  0.00     0.230 C 
ATOM      4  O   UNL A   1      34.069  22.557  28.047  1.00  0.00    -0.274 OA
ATOM      5  H   UNL A   1      35.707  21.053  27.237  1.00  0.00     0.163 HD
BRANCH   3   6
ATOM      6  C   UNL A   1      33.620  23.257  25.801  1.00  0.00     0.178 C 
BRANCH   6   7
ATOM      7  S   UNL A   1      34.278  24.801  25.231  1.00  0.00    -0.078 SA
BRANCH   7   8
ATOM      8  C   UNL A   1      33.347  26.143  24.669  1.00  0.00     0.169 A 
ATOM      9  N   UNL A   1      32.886  27.334  25.211  1.00  0.00    -0.313 N 
ATOM     10  C   UNL A   1      31.996  27.888  24.270  1.00  0.00     0.072 A 
ATOM     11  N   UNL A   1      32.718  25.892  23.530  1.00  0.00    -0.221 NA
ATOM     12  C   UNL A   1      31.867  26.926  23.284  1.00  0.00     0.108 A 
ATOM     13  C   UNL A   1      31.289  29.098  24.191  1.00  0.00     0.049 A 
ATOM     14  C   UNL A   1      30.960  27.130  22.237  1.00  0.00     0.141 A 
ATOM     15  C   UNL A   1      30.439  29.228  23.100  1.00  0.00     0.113 A 
ATOM     16  N   UNL A   1      30.253  28.288  22.151  1.00  0.00    -0.262 NA
BRANCH   9  17
ATOM     17  C   UNL A   1      33.195  28.094  26.421  1.00  0.00     0.116 C 
ATOM     18  C   UNL A   1      31.979  28.189  27.338  1.00  0.00     0.034 C 
BRANCH  17  19
ATOM     19  C   UNL A   1      34.146  29.314  26.342  1.00  0.00     0.141 C 
ATOM     20  C   UNL A   1      35.311  29.359  27.288  1.00  0.00     0.036 C 
ATOM     21  O   UNL A   1      33.421  30.543  26.483  1.00  0.00    -0.376 OA
ATOM     22  C   UNL A   1      35.152  30.614  28.104  1.00  0.00     0.031 C 
ATOM     23  C   UNL A   1      33.812  31.181  27.699  1.00  0.00     0.160 C 
ENDBRANCH  17  19
ENDBRANCH   9  17
ENDBRANCH   7   8
ENDBRANCH   6   7
ENDBRANCH   3   6
ENDBRANCH   1   2
BRANCH   1  24
ATOM     24  C   UNL A   1      36.889  21.378  24.711  1.00  0.00     0.042 C 
BRANCH  24  25
ATOM     25  C   UNL A   1      37.692  22.175  25.741  1.00  0.00     0.118 C 
BRANCH  25  26
ATOM     26  N   UNL A   1      39.107  21.852  25.831  1.00  0.00    -0.352 N 
ATOM     27  C   UNL A   1      40.198  22.408  26.430  1.00  0.00     0.251 C 
ATOM     28  H   UNL A   1      39.333  21.030  25.338  1.00  0.00     0.163 HD
ATOM     29  O   UNL A   1      41.264  21.790  26.297  1.00  0.00    -0.269 OA
BRANCH  27  30
ATOM     30  C   UNL A   1      40.219  23.706  27.151  1.00  0.00     0.039 A 
ATOM     31  C   UNL A   1      39.191  24.645  27.150  1.00  0.00     0.014 A 
ATOM     32  C   UNL A   1      41.396  24.003  27.866  1.00  0.00     0.014 A 
ATOM     33  C   UNL A   1      39.386  25.900  27.718  1.00  0.00     0.010 A 
ATOM     34  C   UNL A   1      41.572  25.232  28.490  1.00  0.00     0.010 A 
ATOM     35  C   UNL A   1      40.585  26.204  28.372  1.00  0.00    -0.014 A 
BRANCH  35  36
ATOM     36  C   UNL A   1      40.679  27.490  29.058  1.00  0.00     0.031 A 
ATOM     37  C   UNL A   1      41.603  28.466  28.410  1.00  0.00     0.074 A 
ATOM     38  C   UNL A   1      39.931  27.858  30.118  1.00  0.00     0.049 A 
ATOM     39  N   UNL A   1      42.667  29.006  28.906  1.00  0.00    -0.248 NA
ATOM     40  C   UNL A   1      41.371  28.789  26.992  1.00  0.00     0.031 C 
ATOM     41  C   UNL A   1      38.785  27.160  30.705  1.00  0.00     0.029 A 
ATOM     42  N   UNL A   1      39.984  29.016  30.839  1.00  0.00    -0.354 N 
ATOM     43  C   UNL A   1      43.163  29.859  27.922  1.00  0.00     0.074 A 
ATOM     44  C   UNL A   1      42.401  29.593  26.730  1.00  0.00     0.031 C 
ATOM     45  C   UNL A   1      38.114  28.007  31.519  1.00  0.00     0.029 A 
ATOM     46  C   UNL A   1      38.866  29.244  31.631  1.00  0.00     0.049 A 
ATOM     47  H   UNL A   1      40.749  29.635  30.801  1.00  0.00     0.167 HD
ATOM     48  C   UNL A   1      44.043  30.857  28.211  1.00  0.00     0.031 A 
ATOM     49  C   UNL A   1      38.559  30.393  32.284  1.00  0.00     0.031 A 
ATOM     50  C   UNL A   1      44.692  30.650  29.475  1.00  0.00     0.049 A 
ATOM     51  C   UNL A   1      39.806  31.172  32.437  1.00  0.00     0.074 A 
ATOM     52  C   UNL A   1      45.535  29.685  29.989  1.00  0.00     0.029 A 
ATOM     53  N   UNL A   1      44.209  31.347  30.555  1.00  0.00    -0.354 N 
ATOM     54  N   UNL A   1      40.798  30.815  33.198  1.00  0.00    -0.248 NA
ATOM     55  C   UNL A   1      40.114  32.178  31.435  1.00  0.00     0.031 C 
ATOM     56  C   UNL A   1      45.144  29.544  31.352  1.00  0.00     0.029 A 
ATOM     57  C   UNL A   1      44.135  30.476  31.610  1.00  0.00     0.049 A 
ATOM     58  H   UNL A   1      43.959  32.298  30.569  1.00  0.00     0.167 HD
ATOM     59  C   UNL A   1      41.930  31.199  32.497  1.00  0.00     0.074 A 
ATOM     60  C   UNL A   1      41.446  32.134  31.484  1.00  0.00     0.031 C 
ATOM     61  C   UNL A   1      43.103  30.513  32.624  1.00  0.00     0.031 A 
BRANCH  48  62
ATOM     62  C   UNL A   1      44.037  32.198  27.518  1.00  0.00    -0.014 A 
ATOM     63  C   UNL A   1      43.754  33.409  28.179  1.00  0.00     0.009 A 
ATOM     64  C   UNL A   1      44.596  32.303  26.229  1.00  0.00     0.009 A 
ATOM     65  C   UNL A   1      44.031  34.653  27.605  1.00  0.00     0.001 A 
ATOM     66  C   UNL A   1      44.912  33.547  25.668  1.00  0.00     0.001 A 
ATOM     67  C   UNL A   1      44.635  34.721  26.359  1.00  0.00     0.000 A 
ENDBRANCH  48  62
BRANCH  49  68
ATOM     68  C   UNL A   1      37.235  31.039  32.441  1.00  0.00    -0.014 A 
ATOM     69  C   UNL A   1      36.385  31.186  31.331  1.00  0.00     0.009 A 
ATOM     70  C   UNL A   1      36.954  31.802  33.588  1.00  0.00     0.009 A 
ATOM     71  C   UNL A   1      35.334  32.109  31.342  1.00  0.00     0.001 A 
ATOM     72  C   UNL A   1      35.904  32.731  33.596  1.00  0.00     0.001 A 
ATOM     73  C   UNL A   1      35.107  32.898  32.465  1.00  0.00     0.000 A 
ENDBRANCH  49  68
BRANCH  61  74
ATOM     74  C   UNL A   1      43.236  29.509  33.748  1.00  0.00    -0.014 A 
ATOM     75  C   UNL A   1      42.684  28.232  33.554  1.00  0.00     0.009 A 
ATOM     76  C   UNL A   1      43.719  29.834  35.028  1.00  0.00     0.009 A 
ATOM     77  C   UNL A   1      42.598  27.316  34.605  1.00  0.00     0.001 A 
ATOM     78  C   UNL A   1      43.661  28.905  36.073  1.00  0.00     0.001 A 
ATOM     79  C   UNL A   1      43.088  27.652  35.864  1.00  0.00     0.000 A 
ENDBRANCH  61  74
ENDBRANCH  35  36
ENDBRANCH  27  30
ENDBRANCH  25  26
ENDBRANCH  24  25
ENDBRANCH   1  24
TORSDOF 14
ENDMDL
MODEL 3
REMARK VINA RESULT:     -10.9      2.512      8.261
REMARK SMILES C[C@H]([C@@H]1CCCO1)n1c(SCC(=O)NCCCNC(=O)c2ccc(-c3c4nc(c(-c5ccccc5)c5ccc([nH]5)c(-c5ccccc5)c5nc(c(-c6ccccc6)c6ccc3[nH]6)C=C5)C=C4)cc2)nc2cnccc21
REMARK SMILES IDX 15 1 14 2 12 3 13 4 11 6 10 7 9 8 8 9 75 10 69 11 70 12
REMARK SMILES IDX 74 13 71 14 73 15 72 16 2 17 1 18 3 19 4 20 7 21 5 22 6 23
REMARK SMILES IDX 16 24 17 25 18 26 19 27 20 29 21 30 22 31 68 32 23 33 67 34
REMARK SMILES IDX 24 35 25 36 26 37 61 38 27 39 66 40 60 41 62 42 28 43 65 44
REMARK SMILES IDX 59 45 58 46 29 48 51 49 36 50 50 51 37 52 40 53 49 54 63 55
REMARK SMILES IDX 38 56 39 57 48 59 64 60 41 61 30 62 31 63 35 64 32 65 34 66
REMARK SMILES IDX 33 67 52 68 53 69 57 70 54 71 56 72 55 73 42 74 43 75 47 76
REMARK SMILES IDX 44 77 46 78 45 79
REMARK H PARENT 14 5 18 28 62 47 40 58
REMARK Flexibility Score: inf
ROOT
ATOM      1  C   UNL A   1      35.126  23.567  25.615  1.00  0.00     0.117 C 
ENDROOT
BRANCH   1   2
ATOM      2  N   UNL A   1      34.895  23.917  24.233  1.00  0.00    -0.355 N 
ATOM      3  C   UNL A   1      33.949  24.745  23.723  1.00  0.00     0.230 C 
ATOM      4  O   UNL A   1      34.073  25.078  22.541  1.00  0.00    -0.274 OA
ATOM      5  H   UNL A   1      35.501  23.501  23.579  1.00  0.00     0.163 HD
BRANCH   3   6
ATOM      6  C   UNL A   1      32.871  25.323  24.598  1.00  0.00     0.178 C 
BRANCH   6   7
ATOM      7  S   UNL A   1      31.243  25.634  23.971  1.00  0.00    -0.078 SA
BRANCH   7   8
ATOM      8  C   UNL A   1      30.552  27.193  23.698  1.00  0.00     0.169 A 
ATOM      9  N   UNL A   1      30.876  28.501  24.036  1.00  0.00    -0.313 N 
ATOM     10  C   UNL A   1      29.768  29.295  23.679  1.00  0.00     0.072 A 
ATOM     11  N   UNL A   1      29.300  27.134  23.272  1.00  0.00    -0.221 NA
ATOM     12  C   UNL A   1      28.792  28.398  23.283  1.00  0.00     0.108 A 
ATOM     13  C   UNL A   1      29.518  30.676  23.682  1.00  0.00     0.049 A 
ATOM     14  C   UNL A   1      27.515  28.870  22.956  1.00  0.00     0.141 A 
ATOM     15  C   UNL A   1      28.234  31.055  23.311  1.00  0.00     0.113 A 
ATOM     16  N   UNL A   1      27.246  30.202  22.970  1.00  0.00    -0.262 NA
BRANCH   9  17
ATOM     17  C   UNL A   1      32.075  29.156  24.556  1.00  0.00     0.116 C 
ATOM     18  C   UNL A   1      33.269  28.931  23.634  1.00  0.00     0.034 C 
BRANCH  17  19
ATOM     19  C   UNL A   1      32.329  29.196  26.083  1.00  0.00     0.141 C 
ATOM     20  C   UNL A   1      32.449  30.541  26.740  1.00  0.00     0.036 C 
ATOM     21  O   UNL A   1      33.492  28.433  26.432  1.00  0.00    -0.376 OA
ATOM     22  C   UNL A   1      33.815  30.587  27.372  1.00  0.00     0.031 C 
ATOM     23  C   UNL A   1      34.499  29.316  26.931  1.00  0.00     0.160 C 
ENDBRANCH  17  19
ENDBRANCH   9  17
ENDBRANCH   7   8
ENDBRANCH   6   7
ENDBRANCH   3   6
ENDBRANCH   1   2
BRANCH   1  24
ATOM     24  C   UNL A   1      36.062  22.383  25.752  1.00  0.00     0.042 C 
BRANCH  24  25
ATOM     25  C   UNL A   1      37.330  22.478  24.902  1.00  0.00     0.118 C 
BRANCH  25  26
ATOM     26  N   UNL A   1      38.495  21.776  25.418  1.00  0.00    -0.352 N 
ATOM     27  C   UNL A   1      39.490  22.059  26.306  1.00  0.00     0.251 C 
ATOM     28  H   UNL A   1      38.587  20.875  25.032  1.00  0.00     0.163 HD
ATOM     29  O   UNL A   1      40.309  21.151  26.511  1.00  0.00    -0.269 OA
BRANCH  27  30
ATOM     30  C   UNL A   1      39.705  23.368  26.974  1.00  0.00     0.039 A 
ATOM     31  C   UNL A   1      38.857  24.469  26.880  1.00  0.00     0.014 A 
ATOM     32  C   UNL A   1      40.880  23.492  27.739  1.00  0.00     0.014 A 
ATOM     33  C   UNL A   1      39.242  25.698  27.406  1.00  0.00     0.010 A 
ATOM     34  C   UNL A   1      41.240  24.702  28.322  1.00  0.00     0.010 A 
ATOM     35  C   UNL A   1      40.444  25.822  28.112  1.00  0.00    -0.014 A 
BRANCH  35  36
ATOM     36  C   UNL A   1      40.730  27.105  28.750  1.00  0.00     0.031 A 
ATOM     37  C   UNL A   1      41.876  27.847  28.149  1.00  0.00     0.074 A 
ATOM     38  C   UNL A   1      39.983  27.670  29.720  1.00  0.00     0.049 A 
ATOM     39  N   UNL A   1      42.981  28.203  28.719  1.00  0.00    -0.248 NA
ATOM     40  C   UNL A   1      41.829  28.125  26.703  1.00  0.00     0.031 C 
ATOM     41  C   UNL A   1      38.679  27.238  30.227  1.00  0.00     0.029 A 
ATOM     42  N   UNL A   1      40.201  28.836  30.394  1.00  0.00    -0.354 N 
ATOM     43  C   UNL A   1      43.712  28.887  27.750  1.00  0.00     0.074 A 
ATOM     44  C   UNL A   1      43.014  28.702  26.504  1.00  0.00     0.031 C 
ATOM     45  C   UNL A   1      38.120  28.244  30.939  1.00  0.00     0.029 A 
ATOM     46  C   UNL A   1      39.087  29.320  31.069  1.00  0.00     0.049 A 
ATOM     47  H   UNL A   1      41.072  29.296  30.400  1.00  0.00     0.167 HD
ATOM     48  C   UNL A   1      44.743  29.715  28.076  1.00  0.00     0.031 A 
ATOM     49  C   UNL A   1      38.957  30.542  31.642  1.00  0.00     0.031 A 
ATOM     50  C   UNL A   1      45.233  29.463  29.403  1.00  0.00     0.049 A 
ATOM     51  C   UNL A   1      40.315  31.077  31.877  1.00  0.00     0.074 A 
ATOM     52  C   UNL A   1      45.826  28.387  30.032  1.00  0.00     0.029 A 
ATOM     53  N   UNL A   1      44.807  30.301  30.404  1.00  0.00    -0.354 N 
ATOM     54  N   UNL A   1      41.151  30.583  32.740  1.00  0.00    -0.248 NA
ATOM     55  C   UNL A   1      40.894  31.946  30.867  1.00  0.00     0.031 C 
ATOM     56  C   UNL A   1      45.305  28.403  31.357  1.00  0.00     0.029 A 
ATOM     57  C   UNL A   1      44.478  29.523  31.483  1.00  0.00     0.049 A 
ATOM     58  H   UNL A   1      44.747  31.281  30.356  1.00  0.00     0.167 HD
ATOM     59  C   UNL A   1      42.390  30.703  32.132  1.00  0.00     0.074 A 
ATOM     60  C   UNL A   1      42.183  31.652  31.041  1.00  0.00     0.031 C 
ATOM     61  C   UNL A   1      43.393  29.815  32.395  1.00  0.00     0.031 A 
BRANCH  48  62
ATOM     62  C   UNL A   1      45.056  30.990  27.331  1.00  0.00    -0.014 A 
ATOM     63  C   UNL A   1      44.160  32.073  27.242  1.00  0.00     0.009 A 
ATOM     64  C   UNL A   1      46.383  31.240  26.933  1.00  0.00     0.009 A 
ATOM     65  C   UNL A   1      44.563  33.338  26.804  1.00  0.00     0.001 A 
ATOM     66  C   UNL A   1      46.800  32.516  26.533  1.00  0.00     0.001 A 
ATOM     67  C   UNL A   1      45.890  33.566  26.475  1.00  0.00     0.000 A 
ENDBRANCH  48  62
BRANCH  49  68
ATOM     68  C   UNL A   1      37.775  31.436  31.650  1.00  0.00    -0.014 A 
ATOM     69  C   UNL A   1      37.026  31.606  32.827  1.00  0.00     0.009 A 
ATOM     70  C   UNL A   1      37.193  31.847  30.438  1.00  0.00     0.009 A 
ATOM     71  C   UNL A   1      35.721  32.106  32.789  1.00  0.00     0.001 A 
ATOM     72  C   UNL A   1      35.883  32.343  30.399  1.00  0.00     0.001 A 
ATOM     73  C   UNL A   1      35.140  32.452  31.573  1.00  0.00     0.000 A 
ENDBRANCH  49  68
BRANCH  61  74
ATOM     74  C   UNL A   1      43.235  28.872  33.567  1.00  0.00    -0.014 A 
ATOM     75  C   UNL A   1      43.931  29.172  34.749  1.00  0.00     0.009 A 
ATOM     76  C   UNL A   1      42.579  27.631  33.482  1.00  0.00     0.009 A 
ATOM     77  C   UNL A   1      43.989  28.259  35.804  1.00  0.00     0.001 A 
ATOM     78  C   UNL A   1      42.611  26.729  34.552  1.00  0.00     0.001 A 
ATOM     79  C   UNL A   1      43.327  27.038  35.706  1.00  0.00     0.000 A 
ENDBRANCH  61  74
ENDBRANCH  35  36
ENDBRANCH  27  30
ENDBRANCH  25  26
ENDBRANCH  24  25
ENDBRANCH   1  24
TORSDOF 14
ENDMDL
