MODEL 1
REMARK VINA RESULT:      -9.8      0.000      0.000
REMARK SMILES [NH3+][C@H](CC(=O)NCCCNC(=O)c1ccc(-c2c3nc(c(-c4ccccc4)c4ccc([nH]4)c(-c4ccccc4)c4nc(c(-c5ccccc5)c5ccc2[nH]5)C=C4)C=C3)cc1)c1ccccc1Br
REMARK SMILES IDX 8 1 7 2 6 3 4 4 5 5 3 7 2 8 1 9 61 13 62 14 66 15 63 16
REMARK SMILES IDX 65 17 67 18 64 19 9 20 10 21 11 22 12 24 13 25 14 26 60 27
REMARK SMILES IDX 15 28 59 29 16 30 17 31 18 32 53 33 19 34 58 35 52 36 54 37
REMARK SMILES IDX 20 38 57 39 51 40 50 41 21 43 43 44 28 45 42 46 29 47 32 48
REMARK SMILES IDX 41 49 55 50 30 51 31 52 40 54 56 55 33 56 22 57 23 58 27 59
REMARK SMILES IDX 24 60 26 61 25 62 44 63 45 64 49 65 46 66 48 67 47 68 34 69
REMARK SMILES IDX 35 70 39 71 36 72 38 73 37 74
REMARK H PARENT 6 6 1 10 1 11 1 12 10 23 54 42 32 53
REMARK Flexibility Score: inf
ROOT
ATOM      1  C   UNL A   1      33.062  28.434  25.879  1.00  0.00     0.042 C 
ENDROOT
BRANCH   1   2
ATOM      2  C   UNL A   1      33.012  26.978  25.431  1.00  0.00     0.117 C 
BRANCH   2   3
ATOM      3  N   UNL A   1      32.156  26.161  26.273  1.00  0.00    -0.356 N 
ATOM      4  C   UNL A   1      32.147  24.809  26.457  1.00  0.00     0.226 C 
ATOM      5  O   UNL A   1      31.295  24.331  27.207  1.00  0.00    -0.275 OA
ATOM      6  H   UNL A   1      31.480  26.657  26.789  1.00  0.00     0.163 HD
BRANCH   4   7
ATOM      7  C   UNL A   1      33.176  23.937  25.768  1.00  0.00     0.170 C 
BRANCH   7   8
ATOM      8  C   UNL A   1      34.279  23.311  26.647  1.00  0.00     0.222 C 
BRANCH   8   9
ATOM      9  N   UNL A   1      33.813  22.505  27.788  1.00  0.00    -0.351 N 
ATOM     10  H   UNL A   1      33.705  21.533  27.497  1.00  0.00     0.345 HD
ATOM     11  H   UNL A   1      32.914  22.863  28.112  1.00  0.00     0.345 HD
ATOM     12  H   UNL A   1      34.494  22.560  28.545  1.00  0.00     0.345 HD
ENDBRANCH   8   9
BRANCH   8  13
ATOM     13  C   UNL A   1      35.508  22.608  26.038  1.00  0.00     0.024 A 
ATOM     14  C   UNL A   1      36.725  23.324  26.238  1.00  0.00     0.011 A 
ATOM     15  C   UNL A   1      35.628  21.365  25.385  1.00  0.00     0.027 A 
ATOM     16  C   UNL A   1      37.972  22.841  25.837  1.00  0.00     0.001 A 
ATOM     17  C   UNL A   1      36.893  20.888  24.979  1.00  0.00     0.016 A 
ATOM     18  Br  UNL A   1      34.238  20.144  24.953  1.00  0.00    -0.050 Br
ATOM     19  C   UNL A   1      38.056  21.614  25.206  1.00  0.00     0.001 A 
ENDBRANCH   8  13
ENDBRANCH   7   8
ENDBRANCH   4   7
ENDBRANCH   2   3
ENDBRANCH   1   2
BRANCH   1  20
ATOM     20  C   UNL A   1      33.700  28.653  27.241  1.00  0.00     0.118 C 
BRANCH  20  21
ATOM     21  N   UNL A   1      33.593  30.028  27.695  1.00  0.00    -0.352 N 
ATOM     22  C   UNL A   1      34.510  30.802  28.360  1.00  0.00     0.251 C 
ATOM     23  H   UNL A   1      32.735  30.468  27.498  1.00  0.00     0.163 HD
ATOM     24  O   UNL A   1      34.160  31.890  28.823  1.00  0.00    -0.269 OA
BRANCH  22  25
ATOM     25  C   UNL A   1      35.905  30.341  28.550  1.00  0.00     0.039 A 
ATOM     26  C   UNL A   1      36.274  29.811  29.790  1.00  0.00     0.014 A 
ATOM     27  C   UNL A   1      36.861  30.455  27.538  1.00  0.00     0.014 A 
ATOM     28  C   UNL A   1      37.580  29.356  29.996  1.00  0.00     0.010 A 
ATOM     29  C   UNL A   1      38.134  29.917  27.711  1.00  0.00     0.010 A 
ATOM     30  C   UNL A   1      38.515  29.380  28.950  1.00  0.00    -0.014 A 
BRANCH  30  31
ATOM     31  C   UNL A   1      39.903  28.881  29.145  1.00  0.00     0.031 A 
ATOM     32  C   UNL A   1      40.962  29.793  29.713  1.00  0.00     0.074 A 
ATOM     33  C   UNL A   1      40.230  27.631  28.765  1.00  0.00     0.049 A 
ATOM     34  N   UNL A   1      42.233  29.557  29.912  1.00  0.00    -0.248 NA
ATOM     35  C   UNL A   1      40.544  31.158  30.077  1.00  0.00     0.031 C 
ATOM     36  C   UNL A   1      39.319  26.660  28.154  1.00  0.00     0.029 A 
ATOM     37  N   UNL A   1      41.428  26.962  28.831  1.00  0.00    -0.354 N 
ATOM     38  C   UNL A   1      42.770  30.747  30.392  1.00  0.00     0.074 A 
ATOM     39  C   UNL A   1      41.697  31.716  30.417  1.00  0.00     0.031 C 
ATOM     40  C   UNL A   1      39.983  25.516  27.922  1.00  0.00     0.029 A 
ATOM     41  C   UNL A   1      41.373  25.680  28.335  1.00  0.00     0.049 A 
ATOM     42  H   UNL A   1      42.249  27.361  29.199  1.00  0.00     0.167 HD
ATOM     43  C   UNL A   1      44.036  31.008  30.794  1.00  0.00     0.031 A 
ATOM     44  C   UNL A   1      42.335  24.745  28.219  1.00  0.00     0.031 A 
ATOM     45  C   UNL A   1      45.096  30.037  30.813  1.00  0.00     0.049 A 
ATOM     46  C   UNL A   1      43.725  25.052  28.707  1.00  0.00     0.074 A 
ATOM     47  C   UNL A   1      46.388  30.185  31.286  1.00  0.00     0.029 A 
ATOM     48  N   UNL A   1      44.986  28.739  30.343  1.00  0.00    -0.354 N 
ATOM     49  N   UNL A   1      44.188  26.155  29.243  1.00  0.00    -0.248 NA
ATOM     50  C   UNL A   1      44.720  23.976  28.589  1.00  0.00     0.031 C 
ATOM     51  C   UNL A   1      47.075  28.988  31.060  1.00  0.00     0.029 A 
ATOM     52  C   UNL A   1      46.194  28.082  30.494  1.00  0.00     0.049 A 
ATOM     53  H   UNL A   1      44.170  28.344  29.958  1.00  0.00     0.167 HD
ATOM     54  C   UNL A   1      45.516  25.894  29.556  1.00  0.00     0.074 A 
ATOM     55  C   UNL A   1      45.778  24.525  29.167  1.00  0.00     0.031 C 
ATOM     56  C   UNL A   1      46.437  26.715  30.115  1.00  0.00     0.031 A 
BRANCH  43  57
ATOM     57  C   UNL A   1      44.354  32.404  31.252  1.00  0.00    -0.014 A 
ATOM     58  C   UNL A   1      44.225  32.778  32.598  1.00  0.00     0.009 A 
ATOM     59  C   UNL A   1      44.857  33.338  30.331  1.00  0.00     0.009 A 
ATOM     60  C   UNL A   1      44.572  34.067  33.009  1.00  0.00     0.001 A 
ATOM     61  C   UNL A   1      45.228  34.617  30.750  1.00  0.00     0.001 A 
ATOM     62  C   UNL A   1      45.079  34.982  32.087  1.00  0.00     0.000 A 
ENDBRANCH  43  57
BRANCH  44  63
ATOM     63  C   UNL A   1      42.027  23.417  27.624  1.00  0.00    -0.014 A 
ATOM     64  C   UNL A   1      42.243  23.178  26.258  1.00  0.00     0.009 A 
ATOM     65  C   UNL A   1      41.478  22.394  28.412  1.00  0.00     0.009 A 
ATOM     66  C   UNL A   1      41.875  21.959  25.685  1.00  0.00     0.001 A 
ATOM     67  C   UNL A   1      41.141  21.164  27.843  1.00  0.00     0.001 A 
ATOM     68  C   UNL A   1      41.326  20.952  26.478  1.00  0.00     0.000 A 
ENDBRANCH  44  63
BRANCH  56  69
ATOM     69  C   UNL A   1      47.799  26.142  30.385  1.00  0.00    -0.014 A 
ATOM     70  C   UNL A   1      48.773  26.069  29.378  1.00  0.00     0.009 A 
ATOM     71  C   UNL A   1      48.120  25.701  31.677  1.00  0.00     0.009 A 
ATOM     72  C   UNL A   1      50.032  25.530  29.653  1.00  0.00     0.001 A 
ATOM     73  C   UNL A   1      49.388  25.190  31.957  1.00  0.00     0.001 A 
ATOM     74  C   UNL A   1      50.338  25.096  30.942  1.00  0.00     0.000 A 
ENDBRANCH  56  69
ENDBRANCH  30  31
ENDBRANCH  22  25
ENDBRANCH  20  21
ENDBRANCH   1  20
TORSDOF 13
ENDMDL
MODEL 2
REMARK VINA RESULT:      -9.7      4.045      6.401
REMARK SMILES [NH3+][C@H](CC(=O)NCCCNC(=O)c1ccc(-c2c3nc(c(-c4ccccc4)c4ccc([nH]4)c(-c4ccccc4)c4nc(c(-c5ccccc5)c5ccc2[nH]5)C=C4)C=C3)cc1)c1ccccc1Br
REMARK SMILES IDX 8 1 7 2 6 3 4 4 5 5 3 7 2 8 1 9 61 13 62 14 66 15 63 16
REMARK SMILES IDX 65 17 67 18 64 19 9 20 10 21 11 22 12 24 13 25 14 26 60 27
REMARK SMILES IDX 15 28 59 29 16 30 17 31 18 32 53 33 19 34 58 35 52 36 54 37
REMARK SMILES IDX 20 38 57 39 51 40 50 41 21 43 43 44 28 45 42 46 29 47 32 48
REMARK SMILES IDX 41 49 55 50 30 51 31 52 40 54 56 55 33 56 22 57 23 58 27 59
REMARK SMILES IDX 24 60 26 61 25 62 44 63 45 64 49 65 46 66 48 67 47 68 34 69
REMARK SMILES IDX 35 70 39 71 36 72 38 73 37 74
REMARK H PARENT 6 6 1 10 1 11 1 12 10 23 54 42 32 53
REMARK Flexibility Score: inf
ROOT
ATOM      1  C   UNL A   1      33.908  34.648  28.911  1.00  0.00     0.042 C 
ENDROOT
BRANCH   1   2
ATOM      2  C   UNL A   1      33.675  35.430  30.198  1.00  0.00     0.117 C 
BRANCH   2   3
ATOM      3  N   UNL A   1      33.276  34.579  31.306  1.00  0.00    -0.356 N 
ATOM      4  C   UNL A   1      33.956  34.250  32.443  1.00  0.00     0.226 C 
ATOM      5  O   UNL A   1      33.422  33.473  33.234  1.00  0.00    -0.275 OA
ATOM      6  H   UNL A   1      32.381  34.179  31.224  1.00  0.00     0.163 HD
BRANCH   4   7
ATOM      7  C   UNL A   1      35.320  34.848  32.717  1.00  0.00     0.170 C 
BRANCH   7   8
ATOM      8  C   UNL A   1      36.509  33.873  32.846  1.00  0.00     0.222 C 
BRANCH   8   9
ATOM      9  N   UNL A   1      36.161  32.449  32.993  1.00  0.00    -0.351 N 
ATOM     10  H   UNL A   1      36.622  32.070  33.821  1.00  0.00     0.345 HD
ATOM     11  H   UNL A   1      36.473  31.937  32.167  1.00  0.00     0.345 HD
ATOM     12  H   UNL A   1      35.151  32.353  33.092  1.00  0.00     0.345 HD
ENDBRANCH   8   9
BRANCH   8  13
ATOM     13  C   UNL A   1      37.748  33.969  31.934  1.00  0.00     0.024 A 
ATOM     14  C   UNL A   1      37.460  33.712  30.562  1.00  0.00     0.011 A 
ATOM     15  C   UNL A   1      39.080  34.324  32.226  1.00  0.00     0.027 A 
ATOM     16  C   UNL A   1      38.413  33.815  29.547  1.00  0.00     0.001 A 
ATOM     17  C   UNL A   1      40.038  34.420  31.193  1.00  0.00     0.016 A 
ATOM     18  Br  UNL A   1      39.825  34.736  33.923  1.00  0.00    -0.050 Br
ATOM     19  C   UNL A   1      39.710  34.174  29.865  1.00  0.00     0.001 A 
ENDBRANCH   8  13
ENDBRANCH   7   8
ENDBRANCH   4   7
ENDBRANCH   2   3
ENDBRANCH   1   2
BRANCH   1  20
ATOM     20  C   UNL A   1      34.469  33.250  29.114  1.00  0.00     0.118 C 
BRANCH  20  21
ATOM     21  N   UNL A   1      33.885  32.275  28.210  1.00  0.00    -0.352 N 
ATOM     22  C   UNL A   1      34.416  31.108  27.723  1.00  0.00     0.251 C 
ATOM     23  H   UNL A   1      32.974  32.483  27.902  1.00  0.00     0.163 HD
ATOM     24  O   UNL A   1      33.831  30.509  26.819  1.00  0.00    -0.269 OA
BRANCH  22  25
ATOM     25  C   UNL A   1      35.693  30.571  28.250  1.00  0.00     0.039 A 
ATOM     26  C   UNL A   1      35.667  29.800  29.415  1.00  0.00     0.014 A 
ATOM     27  C   UNL A   1      36.915  30.847  27.632  1.00  0.00     0.014 A 
ATOM     28  C   UNL A   1      36.854  29.269  29.929  1.00  0.00     0.010 A 
ATOM     29  C   UNL A   1      38.084  30.242  28.090  1.00  0.00     0.010 A 
ATOM     30  C   UNL A   1      38.071  29.463  29.257  1.00  0.00    -0.014 A 
BRANCH  30  31
ATOM     31  C   UNL A   1      39.340  28.890  29.779  1.00  0.00     0.031 A 
ATOM     32  C   UNL A   1      39.998  29.491  30.995  1.00  0.00     0.074 A 
ATOM     33  C   UNL A   1      39.934  27.866  29.134  1.00  0.00     0.049 A 
ATOM     34  N   UNL A   1      41.127  29.163  31.570  1.00  0.00    -0.248 NA
ATOM     35  C   UNL A   1      39.314  30.629  31.633  1.00  0.00     0.031 C 
ATOM     36  C   UNL A   1      39.434  27.223  27.916  1.00  0.00     0.029 A 
ATOM     37  N   UNL A   1      41.096  27.189  29.411  1.00  0.00    -0.354 N 
ATOM     38  C   UNL A   1      41.302  30.069  32.610  1.00  0.00     0.074 A 
ATOM     39  C   UNL A   1      40.185  30.986  32.565  1.00  0.00     0.031 C 
ATOM     40  C   UNL A   1      40.271  26.232  27.565  1.00  0.00     0.029 A 
ATOM     41  C   UNL A   1      41.383  26.191  28.510  1.00  0.00     0.049 A 
ATOM     42  H   UNL A   1      41.670  27.398  30.183  1.00  0.00     0.167 HD
ATOM     43  C   UNL A   1      42.291  30.124  33.532  1.00  0.00     0.031 A 
ATOM     44  C   UNL A   1      42.426  25.342  28.447  1.00  0.00     0.031 A 
ATOM     45  C   UNL A   1      43.380  29.188  33.609  1.00  0.00     0.049 A 
ATOM     46  C   UNL A   1      43.493  25.405  29.507  1.00  0.00     0.074 A 
ATOM     47  C   UNL A   1      44.381  29.111  34.562  1.00  0.00     0.029 A 
ATOM     48  N   UNL A   1      43.608  28.167  32.703  1.00  0.00    -0.354 N 
ATOM     49  N   UNL A   1      43.590  26.210  30.536  1.00  0.00    -0.248 NA
ATOM     50  C   UNL A   1      44.585  24.425  29.404  1.00  0.00     0.031 C 
ATOM     51  C   UNL A   1      45.243  28.070  34.206  1.00  0.00     0.029 A 
ATOM     52  C   UNL A   1      44.748  27.468  33.061  1.00  0.00     0.049 A 
ATOM     53  H   UNL A   1      43.045  27.968  31.921  1.00  0.00     0.167 HD
ATOM     54  C   UNL A   1      44.732  25.815  31.219  1.00  0.00     0.074 A 
ATOM     55  C   UNL A   1      45.283  24.686  30.500  1.00  0.00     0.031 C 
ATOM     56  C   UNL A   1      45.276  26.339  32.343  1.00  0.00     0.031 A 
BRANCH  43  57
ATOM     57  C   UNL A   1      42.248  31.236  34.544  1.00  0.00    -0.014 A 
ATOM     58  C   UNL A   1      41.530  31.104  35.742  1.00  0.00     0.009 A 
ATOM     59  C   UNL A   1      42.994  32.404  34.323  1.00  0.00     0.009 A 
ATOM     60  C   UNL A   1      41.542  32.131  36.689  1.00  0.00     0.001 A 
ATOM     61  C   UNL A   1      43.026  33.417  35.282  1.00  0.00     0.001 A 
ATOM     62  C   UNL A   1      42.295  33.282  36.462  1.00  0.00     0.000 A 
ENDBRANCH  43  57
BRANCH  44  63
ATOM     63  C   UNL A   1      42.521  24.346  27.347  1.00  0.00    -0.014 A 
ATOM     64  C   UNL A   1      41.969  23.064  27.492  1.00  0.00     0.009 A 
ATOM     65  C   UNL A   1      43.201  24.660  26.160  1.00  0.00     0.009 A 
ATOM     66  C   UNL A   1      42.132  22.104  26.491  1.00  0.00     0.001 A 
ATOM     67  C   UNL A   1      43.335  23.708  25.147  1.00  0.00     0.001 A 
ATOM     68  C   UNL A   1      42.814  22.427  25.318  1.00  0.00     0.000 A 
ENDBRANCH  44  63
BRANCH  56  69
ATOM     69  C   UNL A   1      46.504  25.669  32.892  1.00  0.00    -0.014 A 
ATOM     70  C   UNL A   1      47.791  26.061  32.491  1.00  0.00     0.009 A 
ATOM     71  C   UNL A   1      46.368  24.654  33.850  1.00  0.00     0.009 A 
ATOM     72  C   UNL A   1      48.917  25.421  33.015  1.00  0.00     0.001 A 
ATOM     73  C   UNL A   1      47.495  24.036  34.394  1.00  0.00     0.001 A 
ATOM     74  C   UNL A   1      48.767  24.414  33.968  1.00  0.00     0.000 A 
ENDBRANCH  56  69
ENDBRANCH  30  31
ENDBRANCH  22  25
ENDBRANCH  20  21
ENDBRANCH   1  20
TORSDOF 13
ENDMDL
MODEL 3
REMARK VINA RESULT:      -9.6      2.690      7.959
REMARK SMILES [NH3+][C@H](CC(=O)NCCCNC(=O)c1ccc(-c2c3nc(c(-c4ccccc4)c4ccc([nH]4)c(-c4ccccc4)c4nc(c(-c5ccccc5)c5ccc2[nH]5)C=C4)C=C3)cc1)c1ccccc1Br
REMARK SMILES IDX 8 1 7 2 6 3 4 4 5 5 3 7 2 8 1 9 61 13 62 14 66 15 63 16
REMARK SMILES IDX 65 17 67 18 64 19 9 20 10 21 11 22 12 24 13 25 14 26 60 27
REMARK SMILES IDX 15 28 59 29 16 30 17 31 18 32 53 33 19 34 58 35 52 36 54 37
REMARK SMILES IDX 20 38 57 39 51 40 50 41 21 43 43 44 28 45 42 46 29 47 32 48
REMARK SMILES IDX 41 49 55 50 30 51 31 52 40 54 56 55 33 56 22 57 23 58 27 59
REMARK SMILES IDX 24 60 26 61 25 62 44 63 45 64 49 65 46 66 48 67 47 68 34 69
REMARK SMILES IDX 35 70 39 71 36 72 38 73 37 74
REMARK H PARENT 6 6 1 10 1 11 1 12 10 23 54 42 32 53
REMARK Flexibility Score: inf
ROOT
ATOM      1  C   UNL A   1      35.921  23.530  26.203  1.00  0.00     0.042 C 
ENDROOT
BRANCH   1   2
ATOM      2  C   UNL A   1      34.555  23.998  25.715  1.00  0.00     0.117 C 
BRANCH   2   3
ATOM      3  N   UNL A   1      33.496  23.729  26.672  1.00  0.00    -0.356 N 
ATOM      4  C   UNL A   1      32.148  23.907  26.556  1.00  0.00     0.226 C 
ATOM      5  O   UNL A   1      31.440  23.635  27.526  1.00  0.00    -0.275 OA
ATOM      6  H   UNL A   1      33.796  23.363  27.536  1.00  0.00     0.163 HD
BRANCH   4   7
ATOM      7  C   UNL A   1      31.553  24.405  25.255  1.00  0.00     0.170 C 
BRANCH   7   8
ATOM      8  C   UNL A   1      30.499  25.529  25.342  1.00  0.00     0.222 C 
BRANCH   8   9
ATOM      9  N   UNL A   1      29.365  25.280  26.250  1.00  0.00    -0.351 N 
ATOM     10  H   UNL A   1      28.714  26.065  26.203  1.00  0.00     0.345 HD
ATOM     11  H   UNL A   1      29.710  25.183  27.205  1.00  0.00     0.345 HD
ATOM     12  H   UNL A   1      28.888  24.424  25.971  1.00  0.00     0.345 HD
ENDBRANCH   8   9
BRANCH   8  13
ATOM     13  C   UNL A   1      30.896  27.012  25.472  1.00  0.00     0.024 A 
ATOM     14  C   UNL A   1      31.349  27.365  26.777  1.00  0.00     0.011 A 
ATOM     15  C   UNL A   1      30.940  28.041  24.509  1.00  0.00     0.027 A 
ATOM     16  C   UNL A   1      31.828  28.634  27.105  1.00  0.00     0.001 A 
ATOM     17  C   UNL A   1      31.421  29.323  24.852  1.00  0.00     0.016 A 
ATOM     18  Br  UNL A   1      30.425  27.943  22.683  1.00  0.00    -0.050 Br
ATOM     19  C   UNL A   1      31.867  29.618  26.135  1.00  0.00     0.001 A 
ENDBRANCH   8  13
ENDBRANCH   7   8
ENDBRANCH   4   7
ENDBRANCH   2   3
ENDBRANCH   1   2
BRANCH   1  20
ATOM     20  C   UNL A   1      37.026  23.618  25.163  1.00  0.00     0.118 C 
BRANCH  20  21
ATOM     21  N   UNL A   1      38.107  22.682  25.415  1.00  0.00    -0.352 N 
ATOM     22  C   UNL A   1      39.318  22.890  26.026  1.00  0.00     0.251 C 
ATOM     23  H   UNL A   1      37.948  21.763  25.100  1.00  0.00     0.163 HD
ATOM     24  O   UNL A   1      40.178  22.008  25.978  1.00  0.00    -0.269 OA
BRANCH  22  25
ATOM     25  C   UNL A   1      39.615  24.165  26.718  1.00  0.00     0.039 A 
ATOM     26  C   UNL A   1      39.164  24.338  28.030  1.00  0.00     0.014 A 
ATOM     27  C   UNL A   1      40.299  25.204  26.082  1.00  0.00     0.014 A 
ATOM     28  C   UNL A   1      39.440  25.526  28.714  1.00  0.00     0.010 A 
ATOM     29  C   UNL A   1      40.654  26.349  26.794  1.00  0.00     0.010 A 
ATOM     30  C   UNL A   1      40.210  26.532  28.112  1.00  0.00    -0.014 A 
BRANCH  30  31
ATOM     31  C   UNL A   1      40.529  27.794  28.831  1.00  0.00     0.031 A 
ATOM     32  C   UNL A   1      41.856  27.951  29.532  1.00  0.00     0.074 A 
ATOM     33  C   UNL A   1      39.613  28.779  28.905  1.00  0.00     0.049 A 
ATOM     34  N   UNL A   1      42.297  28.953  30.249  1.00  0.00    -0.248 NA
ATOM     35  C   UNL A   1      42.799  26.824  29.439  1.00  0.00     0.031 C 
ATOM     36  C   UNL A   1      38.271  28.739  28.318  1.00  0.00     0.029 A 
ATOM     37  N   UNL A   1      39.669  30.009  29.514  1.00  0.00    -0.354 N 
ATOM     38  C   UNL A   1      43.547  28.565  30.716  1.00  0.00     0.074 A 
ATOM     39  C   UNL A   1      43.780  27.221  30.236  1.00  0.00     0.031 C 
ATOM     40  C   UNL A   1      37.641  29.897  28.576  1.00  0.00     0.029 A 
ATOM     41  C   UNL A   1      38.519  30.748  29.374  1.00  0.00     0.049 A 
ATOM     42  H   UNL A   1      40.460  30.331  30.004  1.00  0.00     0.167 HD
ATOM     43  C   UNL A   1      44.432  29.267  31.462  1.00  0.00     0.031 A 
ATOM     44  C   UNL A   1      38.202  31.971  29.841  1.00  0.00     0.031 A 
ATOM     45  C   UNL A   1      44.225  30.620  31.905  1.00  0.00     0.049 A 
ATOM     46  C   UNL A   1      39.219  32.742  30.638  1.00  0.00     0.074 A 
ATOM     47  C   UNL A   1      45.101  31.444  32.589  1.00  0.00     0.029 A 
ATOM     48  N   UNL A   1      43.063  31.346  31.704  1.00  0.00    -0.354 N 
ATOM     49  N   UNL A   1      40.432  32.392  30.989  1.00  0.00    -0.248 NA
ATOM     50  C   UNL A   1      38.828  34.087  31.085  1.00  0.00     0.031 C 
ATOM     51  C   UNL A   1      44.452  32.655  32.844  1.00  0.00     0.029 A 
ATOM     52  C   UNL A   1      43.191  32.601  32.272  1.00  0.00     0.049 A 
ATOM     53  H   UNL A   1      42.266  31.018  31.229  1.00  0.00     0.167 HD
ATOM     54  C   UNL A   1      40.959  33.483  31.669  1.00  0.00     0.074 A 
ATOM     55  C   UNL A   1      39.941  34.512  31.664  1.00  0.00     0.031 C 
ATOM     56  C   UNL A   1      42.176  33.620  32.247  1.00  0.00     0.031 A 
BRANCH  43  57
ATOM     57  C   UNL A   1      45.717  28.590  31.852  1.00  0.00    -0.014 A 
ATOM     58  C   UNL A   1      45.816  27.836  33.031  1.00  0.00     0.009 A 
ATOM     59  C   UNL A   1      46.822  28.653  30.989  1.00  0.00     0.009 A 
ATOM     60  C   UNL A   1      47.006  27.177  33.349  1.00  0.00     0.001 A 
ATOM     61  C   UNL A   1      48.001  27.971  31.296  1.00  0.00     0.001 A 
ATOM     62  C   UNL A   1      48.093  27.239  32.479  1.00  0.00     0.000 A 
ENDBRANCH  43  57
BRANCH  44  63
ATOM     63  C   UNL A   1      36.864  32.559  29.566  1.00  0.00    -0.014 A 
ATOM     64  C   UNL A   1      35.823  32.438  30.499  1.00  0.00     0.009 A 
ATOM     65  C   UNL A   1      36.610  33.212  28.349  1.00  0.00     0.009 A 
ATOM     66  C   UNL A   1      34.546  32.918  30.203  1.00  0.00     0.001 A 
ATOM     67  C   UNL A   1      35.341  33.720  28.069  1.00  0.00     0.001 A 
ATOM     68  C   UNL A   1      34.306  33.560  28.988  1.00  0.00     0.000 A 
ENDBRANCH  44  63
BRANCH  56  69
ATOM     69  C   UNL A   1      42.494  34.946  32.879  1.00  0.00    -0.014 A 
ATOM     70  C   UNL A   1      43.252  35.914  32.203  1.00  0.00     0.009 A 
ATOM     71  C   UNL A   1      41.995  35.240  34.156  1.00  0.00     0.009 A 
ATOM     72  C   UNL A   1      43.536  37.138  32.812  1.00  0.00     0.001 A 
ATOM     73  C   UNL A   1      42.254  36.475  34.751  1.00  0.00     0.001 A 
ATOM     74  C   UNL A   1      43.033  37.419  34.082  1.00  0.00     0.000 A 
ENDBRANCH  56  69
ENDBRANCH  30  31
ENDBRANCH  22  25
ENDBRANCH  20  21
ENDBRANCH   1  20
TORSDOF 13
ENDMDL
