MODEL 1
REMARK VINA RESULT:     -10.7      0.000      0.000
REMARK SMILES CC[C@]1(C(=O)NCCCNC(=O)c2ccc(-c3c4nc(c(-c5ccccc5)c5ccc([nH]5)c(-c5ccccc5)c5nc(c(-c6ccccc6)c6ccc3[nH]6)C=C5)C=C4)cc2)CCCN(S(=O)(=O)CCOC(C)C)C1
REMARK SMILES IDX 4 1 5 2 6 3 3 5 61 6 74 7 62 8 64 9 63 10 2 11 1 12 65 13
REMARK SMILES IDX 66 14 67 15 68 16 69 17 70 18 71 19 72 20 73 21 7 22 8 23
REMARK SMILES IDX 9 24 10 25 11 26 12 28 13 29 14 30 60 31 15 32 59 33 16 34
REMARK SMILES IDX 17 35 18 36 53 37 19 38 58 39 52 40 54 41 20 42 57 43 51 44
REMARK SMILES IDX 50 45 21 47 43 48 28 49 42 50 29 51 32 52 41 53 55 54 30 55
REMARK SMILES IDX 31 56 40 58 56 59 33 60 22 61 23 62 27 63 24 64 26 65 25 66
REMARK SMILES IDX 44 67 45 68 49 69 46 70 48 71 47 72 34 73 35 74 39 75 36 76
REMARK SMILES IDX 38 77 37 78
REMARK H PARENT 6 4 10 27 54 46 32 57
REMARK Flexibility Score: inf
ROOT
ATOM      1  C   UNL A   1      31.617  28.181  27.265  1.00  0.00     0.227 C 
ATOM      2  O   UNL A   1      31.487  27.739  28.407  1.00  0.00    -0.274 OA
ATOM      3  N   UNL A   1      31.521  29.533  27.146  1.00  0.00    -0.356 N 
ATOM      4  H   UNL A   1      31.260  29.993  27.975  1.00  0.00     0.163 HD
ENDROOT
BRANCH   1   5
ATOM      5  C   UNL A   1      31.928  27.288  26.046  1.00  0.00     0.063 C 
ATOM      6  C   UNL A   1      33.389  27.491  25.565  1.00  0.00     0.019 C 
ATOM      7  C   UNL A   1      31.604  25.837  26.531  1.00  0.00     0.119 C 
ATOM      8  C   UNL A   1      33.966  26.287  24.833  1.00  0.00     0.018 C 
ATOM      9  N   UNL A   1      32.399  24.740  25.897  1.00  0.00    -0.201 NA
ATOM     10  C   UNL A   1      33.829  25.022  25.658  1.00  0.00     0.102 C 
BRANCH   5  11
ATOM     11  C   UNL A   1      30.975  27.652  24.853  1.00  0.00     0.015 C 
ATOM     12  C   UNL A   1      30.002  26.581  24.351  1.00  0.00     0.005 C 
ENDBRANCH   5  11
BRANCH   9  13
ATOM     13  S   UNL A   1      32.069  23.184  26.537  1.00  0.00     0.216 S 
ATOM     14  O   UNL A   1      33.336  22.645  26.983  1.00  0.00    -0.212 OA
ATOM     15  O   UNL A   1      30.963  23.307  27.464  1.00  0.00    -0.212 OA
BRANCH  13  16
ATOM     16  C   UNL A   1      31.527  22.264  25.091  1.00  0.00     0.182 C 
BRANCH  16  17
ATOM     17  C   UNL A   1      32.470  21.136  24.693  1.00  0.00     0.178 C 
BRANCH  17  18
ATOM     18  O   UNL A   1      32.136  19.863  25.258  1.00  0.00    -0.378 OA
BRANCH  18  19
ATOM     19  C   UNL A   1      32.783  18.691  24.758  1.00  0.00     0.112 C 
ATOM     20  C   UNL A   1      32.625  17.440  25.628  1.00  0.00     0.038 C 
ATOM     21  C   UNL A   1      32.403  18.407  23.327  1.00  0.00     0.038 C 
ENDBRANCH  18  19
ENDBRANCH  17  18
ENDBRANCH  16  17
ENDBRANCH  13  16
ENDBRANCH   9  13
ENDBRANCH   1   5
BRANCH   3  22
ATOM     22  C   UNL A   1      31.736  30.418  26.013  1.00  0.00     0.117 C 
BRANCH  22  23
ATOM     23  C   UNL A   1      31.551  31.872  26.388  1.00  0.00     0.042 C 
BRANCH  23  24
ATOM     24  C   UNL A   1      32.704  32.398  27.218  1.00  0.00     0.118 C 
BRANCH  24  25
ATOM     25  N   UNL A   1      32.486  33.775  27.646  1.00  0.00    -0.352 N 
ATOM     26  C   UNL A   1      33.158  34.503  28.594  1.00  0.00     0.251 C 
ATOM     27  H   UNL A   1      31.752  34.247  27.192  1.00  0.00     0.163 HD
ATOM     28  O   UNL A   1      32.699  35.558  29.014  1.00  0.00    -0.269 OA
BRANCH  26  29
ATOM     29  C   UNL A   1      34.436  33.982  29.111  1.00  0.00     0.039 A 
ATOM     30  C   UNL A   1      34.445  33.220  30.278  1.00  0.00     0.014 A 
ATOM     31  C   UNL A   1      35.618  34.219  28.405  1.00  0.00     0.014 A 
ATOM     32  C   UNL A   1      35.638  32.634  30.698  1.00  0.00     0.010 A 
ATOM     33  C   UNL A   1      36.769  33.534  28.752  1.00  0.00     0.010 A 
ATOM     34  C   UNL A   1      36.798  32.754  29.915  1.00  0.00    -0.014 A 
BRANCH  34  35
ATOM     35  C   UNL A   1      38.069  32.098  30.303  1.00  0.00     0.031 A 
ATOM     36  C   UNL A   1      38.988  32.782  31.280  1.00  0.00     0.074 A 
ATOM     37  C   UNL A   1      38.424  30.933  29.727  1.00  0.00     0.049 A 
ATOM     38  N   UNL A   1      40.172  32.410  31.694  1.00  0.00    -0.248 NA
ATOM     39  C   UNL A   1      38.536  34.068  31.838  1.00  0.00     0.031 C 
ATOM     40  C   UNL A   1      37.638  30.199  28.732  1.00  0.00     0.029 A 
ATOM     41  N   UNL A   1      39.545  30.161  29.898  1.00  0.00    -0.354 N 
ATOM     42  C   UNL A   1      40.611  33.427  32.533  1.00  0.00     0.074 A 
ATOM     43  C   UNL A   1      39.597  34.456  32.526  1.00  0.00     0.031 C 
ATOM     44  C   UNL A   1      38.281  29.063  28.414  1.00  0.00     0.029 A 
ATOM     45  C   UNL A   1      39.543  29.013  29.143  1.00  0.00     0.049 A 
ATOM     46  H   UNL A   1      40.281  30.407  30.503  1.00  0.00     0.167 HD
ATOM     47  C   UNL A   1      41.747  33.488  33.264  1.00  0.00     0.031 A 
ATOM     48  C   UNL A   1      40.460  28.032  29.051  1.00  0.00     0.031 A 
ATOM     49  C   UNL A   1      42.736  32.448  33.296  1.00  0.00     0.049 A 
ATOM     50  C   UNL A   1      41.716  28.130  29.872  1.00  0.00     0.074 A 
ATOM     51  C   UNL A   1      43.884  32.375  34.065  1.00  0.00     0.029 A 
ATOM     52  N   UNL A   1      42.692  31.297  32.526  1.00  0.00    -0.354 N 
ATOM     53  N   UNL A   1      42.076  29.058  30.726  1.00  0.00    -0.248 NA
ATOM     54  C   UNL A   1      42.688  27.038  29.724  1.00  0.00     0.031 C 
ATOM     55  C   UNL A   1      44.566  31.207  33.715  1.00  0.00     0.029 A 
ATOM     56  C   UNL A   1      43.810  30.521  32.777  1.00  0.00     0.049 A 
ATOM     57  H   UNL A   1      41.974  31.065  31.893  1.00  0.00     0.167 HD
ATOM     58  C   UNL A   1      43.297  28.643  31.243  1.00  0.00     0.074 A 
ATOM     59  C   UNL A   1      43.605  27.373  30.619  1.00  0.00     0.031 C 
ATOM     60  C   UNL A   1      44.092  29.256  32.152  1.00  0.00     0.031 A 
BRANCH  47  61
ATOM     61  C   UNL A   1      41.983  34.723  34.089  1.00  0.00    -0.014 A 
ATOM     62  C   UNL A   1      41.592  34.790  35.435  1.00  0.00     0.009 A 
ATOM     63  C   UNL A   1      42.654  35.818  33.523  1.00  0.00     0.009 A 
ATOM     64  C   UNL A   1      41.843  35.939  36.189  1.00  0.00     0.001 A 
ATOM     65  C   UNL A   1      42.931  36.953  34.286  1.00  0.00     0.001 A 
ATOM     66  C   UNL A   1      42.518  37.015  35.615  1.00  0.00     0.000 A 
ENDBRANCH  47  61
BRANCH  48  67
ATOM     67  C   UNL A   1      40.228  26.861  28.163  1.00  0.00    -0.014 A 
ATOM     68  C   UNL A   1      39.503  25.751  28.626  1.00  0.00     0.009 A 
ATOM     69  C   UNL A   1      40.760  26.828  26.864  1.00  0.00     0.009 A 
ATOM     70  C   UNL A   1      39.350  24.618  27.823  1.00  0.00     0.001 A 
ATOM     71  C   UNL A   1      40.576  25.707  26.052  1.00  0.00     0.001 A 
ATOM     72  C   UNL A   1      39.885  24.598  26.536  1.00  0.00     0.000 A 
ENDBRANCH  48  67
BRANCH  60  73
ATOM     73  C   UNL A   1      45.347  28.539  32.563  1.00  0.00    -0.014 A 
ATOM     74  C   UNL A   1      46.575  28.795  31.934  1.00  0.00     0.009 A 
ATOM     75  C   UNL A   1      45.302  27.626  33.628  1.00  0.00     0.009 A 
ATOM     76  C   UNL A   1      47.728  28.120  32.342  1.00  0.00     0.001 A 
ATOM     77  C   UNL A   1      46.462  26.979  34.055  1.00  0.00     0.001 A 
ATOM     78  C   UNL A   1      47.671  27.219  33.404  1.00  0.00     0.000 A 
ENDBRANCH  60  73
ENDBRANCH  34  35
ENDBRANCH  26  29
ENDBRANCH  24  25
ENDBRANCH  23  24
ENDBRANCH  22  23
ENDBRANCH   3  22
TORSDOF 16
ENDMDL
MODEL 2
REMARK VINA RESULT:     -10.7      3.738      9.282
REMARK SMILES CC[C@]1(C(=O)NCCCNC(=O)c2ccc(-c3c4nc(c(-c5ccccc5)c5ccc([nH]5)c(-c5ccccc5)c5nc(c(-c6ccccc6)c6ccc3[nH]6)C=C5)C=C4)cc2)CCCN(S(=O)(=O)CCOC(C)C)C1
REMARK SMILES IDX 4 1 5 2 6 3 3 5 61 6 74 7 62 8 64 9 63 10 2 11 1 12 65 13
REMARK SMILES IDX 66 14 67 15 68 16 69 17 70 18 71 19 72 20 73 21 7 22 8 23
REMARK SMILES IDX 9 24 10 25 11 26 12 28 13 29 14 30 60 31 15 32 59 33 16 34
REMARK SMILES IDX 17 35 18 36 53 37 19 38 58 39 52 40 54 41 20 42 57 43 51 44
REMARK SMILES IDX 50 45 21 47 43 48 28 49 42 50 29 51 32 52 41 53 55 54 30 55
REMARK SMILES IDX 31 56 40 58 56 59 33 60 22 61 23 62 27 63 24 64 26 65 25 66
REMARK SMILES IDX 44 67 45 68 49 69 46 70 48 71 47 72 34 73 35 74 39 75 36 76
REMARK SMILES IDX 38 77 37 78
REMARK H PARENT 6 4 10 27 54 46 32 57
REMARK Flexibility Score: inf
ROOT
ATOM      1  C   UNL A   1      36.353  22.738  23.529  1.00  0.00     0.227 C 
ATOM      2  O   UNL A   1      36.931  23.433  22.692  1.00  0.00    -0.274 OA
ATOM      3  N   UNL A   1      37.035  21.636  23.945  1.00  0.00    -0.356 N 
ATOM      4  H   UNL A   1      37.870  21.469  23.454  1.00  0.00     0.163 HD
ENDROOT
BRANCH   1   5
ATOM      5  C   UNL A   1      34.979  23.104  24.124  1.00  0.00     0.063 C 
ATOM      6  C   UNL A   1      35.119  23.586  25.593  1.00  0.00     0.019 C 
ATOM      7  C   UNL A   1      34.402  24.179  23.146  1.00  0.00     0.119 C 
ATOM      8  C   UNL A   1      33.999  24.515  26.042  1.00  0.00     0.018 C 
ATOM      9  N   UNL A   1      33.478  25.189  23.750  1.00  0.00    -0.201 NA
ATOM     10  C   UNL A   1      33.841  25.687  25.093  1.00  0.00     0.102 C 
BRANCH   5  11
ATOM     11  C   UNL A   1      34.036  21.849  24.118  1.00  0.00     0.015 C 
ATOM     12  C   UNL A   1      32.613  22.016  23.577  1.00  0.00     0.005 C 
ENDBRANCH   5  11
BRANCH   9  13
ATOM     13  S   UNL A   1      32.956  26.397  22.651  1.00  0.00     0.216 S 
ATOM     14  O   UNL A   1      33.635  26.136  21.400  1.00  0.00    -0.212 OA
ATOM     15  O   UNL A   1      31.509  26.449  22.697  1.00  0.00    -0.212 OA
BRANCH  13  16
ATOM     16  C   UNL A   1      33.624  27.905  23.367  1.00  0.00     0.182 C 
BRANCH  16  17
ATOM     17  C   UNL A   1      32.569  28.964  23.661  1.00  0.00     0.178 C 
BRANCH  17  18
ATOM     18  O   UNL A   1      32.048  28.920  24.994  1.00  0.00    -0.378 OA
BRANCH  18  19
ATOM     19  C   UNL A   1      32.689  29.687  26.015  1.00  0.00     0.112 C 
ATOM     20  C   UNL A   1      31.856  30.841  26.581  1.00  0.00     0.038 C 
ATOM     21  C   UNL A   1      33.226  28.813  27.121  1.00  0.00     0.038 C 
ENDBRANCH  18  19
ENDBRANCH  17  18
ENDBRANCH  16  17
ENDBRANCH  13  16
ENDBRANCH   9  13
ENDBRANCH   1   5
BRANCH   3  22
ATOM     22  C   UNL A   1      36.748  20.663  24.986  1.00  0.00     0.117 C 
BRANCH  22  23
ATOM     23  C   UNL A   1      37.852  19.637  25.121  1.00  0.00     0.042 C 
BRANCH  23  24
ATOM     24  C   UNL A   1      39.091  20.215  25.772  1.00  0.00     0.118 C 
BRANCH  24  25
ATOM     25  N   UNL A   1      40.152  19.223  25.905  1.00  0.00    -0.352 N 
ATOM     26  C   UNL A   1      41.491  19.413  26.132  1.00  0.00     0.251 C 
ATOM     27  H   UNL A   1      39.867  18.285  25.818  1.00  0.00     0.163 HD
ATOM     28  O   UNL A   1      42.289  18.498  25.970  1.00  0.00    -0.269 OA
BRANCH  26  29
ATOM     29  C   UNL A   1      41.955  20.746  26.556  1.00  0.00     0.039 A 
ATOM     30  C   UNL A   1      42.334  21.680  25.594  1.00  0.00     0.014 A 
ATOM     31  C   UNL A   1      41.966  21.076  27.913  1.00  0.00     0.014 A 
ATOM     32  C   UNL A   1      42.660  22.974  25.994  1.00  0.00     0.010 A 
ATOM     33  C   UNL A   1      42.166  22.391  28.295  1.00  0.00     0.010 A 
ATOM     34  C   UNL A   1      42.538  23.349  27.343  1.00  0.00    -0.014 A 
BRANCH  34  35
ATOM     35  C   UNL A   1      42.823  24.731  27.795  1.00  0.00     0.031 A 
ATOM     36  C   UNL A   1      44.249  25.156  28.025  1.00  0.00     0.074 A 
ATOM     37  C   UNL A   1      41.805  25.571  28.063  1.00  0.00     0.049 A 
ATOM     38  N   UNL A   1      44.704  26.294  28.484  1.00  0.00    -0.248 NA
ATOM     39  C   UNL A   1      45.299  24.164  27.736  1.00  0.00     0.031 C 
ATOM     40  C   UNL A   1      40.380  25.257  27.923  1.00  0.00     0.029 A 
ATOM     41  N   UNL A   1      41.814  26.866  28.513  1.00  0.00    -0.354 N 
ATOM     42  C   UNL A   1      46.082  26.140  28.564  1.00  0.00     0.074 A 
ATOM     43  C   UNL A   1      46.387  24.786  28.163  1.00  0.00     0.031 C 
ATOM     44  C   UNL A   1      39.657  26.343  28.238  1.00  0.00     0.029 A 
ATOM     45  C   UNL A   1      40.560  27.412  28.648  1.00  0.00     0.049 A 
ATOM     46  H   UNL A   1      42.641  27.359  28.719  1.00  0.00     0.167 HD
ATOM     47  C   UNL A   1      47.016  27.053  28.917  1.00  0.00     0.031 A 
ATOM     48  C   UNL A   1      40.186  28.637  29.059  1.00  0.00     0.031 A 
ATOM     49  C   UNL A   1      46.712  28.408  29.282  1.00  0.00     0.049 A 
ATOM     50  C   UNL A   1      41.246  29.630  29.451  1.00  0.00     0.074 A 
ATOM     51  C   UNL A   1      47.589  29.436  29.579  1.00  0.00     0.029 A 
ATOM     52  N   UNL A   1      45.432  28.924  29.397  1.00  0.00    -0.354 N 
ATOM     53  N   UNL A   1      42.550  29.495  29.439  1.00  0.00    -0.248 NA
ATOM     54  C   UNL A   1      40.780  30.949  29.903  1.00  0.00     0.031 C 
ATOM     55  C   UNL A   1      46.837  30.559  29.932  1.00  0.00     0.029 A 
ATOM     56  C   UNL A   1      45.493  30.249  29.792  1.00  0.00     0.049 A 
ATOM     57  H   UNL A   1      44.601  28.424  29.224  1.00  0.00     0.167 HD
ATOM     58  C   UNL A   1      43.060  30.722  29.845  1.00  0.00     0.074 A 
ATOM     59  C   UNL A   1      41.926  31.590  30.079  1.00  0.00     0.031 C 
ATOM     60  C   UNL A   1      44.352  31.097  30.010  1.00  0.00     0.031 A 
BRANCH  47  61
ATOM     61  C   UNL A   1      48.454  26.615  28.929  1.00  0.00    -0.014 A 
ATOM     62  C   UNL A   1      49.043  26.067  30.079  1.00  0.00     0.009 A 
ATOM     63  C   UNL A   1      49.216  26.706  27.754  1.00  0.00     0.009 A 
ATOM     64  C   UNL A   1      50.375  25.646  30.059  1.00  0.00     0.001 A 
ATOM     65  C   UNL A   1      50.537  26.256  27.729  1.00  0.00     0.001 A 
ATOM     66  C   UNL A   1      51.117  25.733  28.883  1.00  0.00     0.000 A 
ENDBRANCH  47  61
BRANCH  48  67
ATOM     67  C   UNL A   1      38.746  29.010  29.111  1.00  0.00    -0.014 A 
ATOM     68  C   UNL A   1      38.098  29.500  27.965  1.00  0.00     0.009 A 
ATOM     69  C   UNL A   1      38.022  28.916  30.309  1.00  0.00     0.009 A 
ATOM     70  C   UNL A   1      36.769  29.925  28.029  1.00  0.00     0.001 A 
ATOM     71  C   UNL A   1      36.683  29.309  30.361  1.00  0.00     0.001 A 
ATOM     72  C   UNL A   1      36.062  29.827  29.226  1.00  0.00     0.000 A 
ENDBRANCH  48  67
BRANCH  60  73
ATOM     73  C   UNL A   1      44.607  32.521  30.417  1.00  0.00    -0.014 A 
ATOM     74  C   UNL A   1      44.734  32.884  31.766  1.00  0.00     0.009 A 
ATOM     75  C   UNL A   1      44.768  33.503  29.428  1.00  0.00     0.009 A 
ATOM     76  C   UNL A   1      44.980  34.213  32.117  1.00  0.00     0.001 A 
ATOM     77  C   UNL A   1      45.047  34.823  29.780  1.00  0.00     0.001 A 
ATOM     78  C   UNL A   1      45.142  35.179  31.124  1.00  0.00     0.000 A 
ENDBRANCH  60  73
ENDBRANCH  34  35
ENDBRANCH  26  29
ENDBRANCH  24  25
ENDBRANCH  23  24
ENDBRANCH  22  23
ENDBRANCH   3  22
TORSDOF 16
ENDMDL
MODEL 3
REMARK VINA RESULT:     -10.5      1.990      6.327
REMARK SMILES CC[C@]1(C(=O)NCCCNC(=O)c2ccc(-c3c4nc(c(-c5ccccc5)c5ccc([nH]5)c(-c5ccccc5)c5nc(c(-c6ccccc6)c6ccc3[nH]6)C=C5)C=C4)cc2)CCCN(S(=O)(=O)CCOC(C)C)C1
REMARK SMILES IDX 4 1 5 2 6 3 3 5 61 6 74 7 62 8 64 9 63 10 2 11 1 12 65 13
REMARK SMILES IDX 66 14 67 15 68 16 69 17 70 18 71 19 72 20 73 21 7 22 8 23
REMARK SMILES IDX 9 24 10 25 11 26 12 28 13 29 14 30 60 31 15 32 59 33 16 34
REMARK SMILES IDX 17 35 18 36 53 37 19 38 58 39 52 40 54 41 20 42 57 43 51 44
REMARK SMILES IDX 50 45 21 47 43 48 28 49 42 50 29 51 32 52 41 53 55 54 30 55
REMARK SMILES IDX 31 56 40 58 56 59 33 60 22 61 23 62 27 63 24 64 26 65 25 66
REMARK SMILES IDX 44 67 45 68 49 69 46 70 48 71 47 72 34 73 35 74 39 75 36 76
REMARK SMILES IDX 38 77 37 78
REMARK H PARENT 6 4 10 27 54 46 32 57
REMARK Flexibility Score: inf
ROOT
ATOM      1  C   UNL A   1      31.601  28.380  27.268  1.00  0.00     0.227 C 
ATOM      2  O   UNL A   1      31.392  27.881  28.375  1.00  0.00    -0.274 OA
ATOM      3  N   UNL A   1      31.556  29.739  27.221  1.00  0.00    -0.356 N 
ATOM      4  H   UNL A   1      31.263  30.163  28.059  1.00  0.00     0.163 HD
ENDROOT
BRANCH   1   5
ATOM      5  C   UNL A   1      31.953  27.545  26.021  1.00  0.00     0.063 C 
ATOM      6  C   UNL A   1      33.422  27.790  25.583  1.00  0.00     0.019 C 
ATOM      7  C   UNL A   1      31.641  26.070  26.436  1.00  0.00     0.119 C 
ATOM      8  C   UNL A   1      34.034  26.626  24.813  1.00  0.00     0.018 C 
ATOM      9  N   UNL A   1      32.468  25.013  25.774  1.00  0.00    -0.201 NA
ATOM     10  C   UNL A   1      33.899  25.326  25.581  1.00  0.00     0.102 C 
BRANCH   5  11
ATOM     11  C   UNL A   1      31.022  27.946  24.823  1.00  0.00     0.015 C 
ATOM     12  C   UNL A   1      30.227  26.840  24.123  1.00  0.00     0.005 C 
ENDBRANCH   5  11
BRANCH   9  13
ATOM     13  S   UNL A   1      32.148  23.426  26.340  1.00  0.00     0.216 S 
ATOM     14  O   UNL A   1      33.390  22.692  26.233  1.00  0.00    -0.212 OA
ATOM     15  O   UNL A   1      31.474  23.534  27.618  1.00  0.00    -0.212 OA
BRANCH  13  16
ATOM     16  C   UNL A   1      30.994  22.791  25.117  1.00  0.00     0.182 C 
BRANCH  16  17
ATOM     17  C   UNL A   1      31.263  23.289  23.703  1.00  0.00     0.178 C 
BRANCH  17  18
ATOM     18  O   UNL A   1      32.277  22.556  23.005  1.00  0.00    -0.378 OA
BRANCH  18  19
ATOM     19  C   UNL A   1      33.272  23.274  22.273  1.00  0.00     0.112 C 
ATOM     20  C   UNL A   1      32.916  24.728  21.948  1.00  0.00     0.038 C 
ATOM     21  C   UNL A   1      34.627  23.181  22.928  1.00  0.00     0.038 C 
ENDBRANCH  18  19
ENDBRANCH  17  18
ENDBRANCH  16  17
ENDBRANCH  13  16
ENDBRANCH   9  13
ENDBRANCH   1   5
BRANCH   3  22
ATOM     22  C   UNL A   1      31.864  30.677  26.154  1.00  0.00     0.117 C 
BRANCH  22  23
ATOM     23  C   UNL A   1      31.552  32.104  26.547  1.00  0.00     0.042 C 
BRANCH  23  24
ATOM     24  C   UNL A   1      32.652  32.717  27.390  1.00  0.00     0.118 C 
BRANCH  24  25
ATOM     25  N   UNL A   1      32.449  34.146  27.597  1.00  0.00    -0.352 N 
ATOM     26  C   UNL A   1      32.997  34.969  28.547  1.00  0.00     0.251 C 
ATOM     27  H   UNL A   1      31.831  34.581  26.966  1.00  0.00     0.163 HD
ATOM     28  O   UNL A   1      32.539  36.088  28.746  1.00  0.00    -0.269 OA
BRANCH  26  29
ATOM     29  C   UNL A   1      34.136  34.474  29.340  1.00  0.00     0.039 A 
ATOM     30  C   UNL A   1      33.901  33.837  30.557  1.00  0.00     0.014 A 
ATOM     31  C   UNL A   1      35.435  34.607  28.844  1.00  0.00     0.014 A 
ATOM     32  C   UNL A   1      34.972  33.269  31.245  1.00  0.00     0.010 A 
ATOM     33  C   UNL A   1      36.475  33.935  29.463  1.00  0.00     0.010 A 
ATOM     34  C   UNL A   1      36.259  33.279  30.681  1.00  0.00    -0.014 A 
BRANCH  34  35
ATOM     35  C   UNL A   1      37.409  32.637  31.359  1.00  0.00     0.031 A 
ATOM     36  C   UNL A   1      38.088  31.459  30.713  1.00  0.00     0.074 A 
ATOM     37  C   UNL A   1      37.793  33.066  32.578  1.00  0.00     0.049 A 
ATOM     38  N   UNL A   1      39.062  30.716  31.173  1.00  0.00    -0.248 NA
ATOM     39  C   UNL A   1      37.585  31.036  29.394  1.00  0.00     0.031 C 
ATOM     40  C   UNL A   1      37.181  34.168  33.326  1.00  0.00     0.029 A 
ATOM     41  N   UNL A   1      38.793  32.621  33.404  1.00  0.00    -0.354 N 
ATOM     42  C   UNL A   1      39.264  29.729  30.216  1.00  0.00     0.074 A 
ATOM     43  C   UNL A   1      38.278  29.929  29.179  1.00  0.00     0.031 C 
ATOM     44  C   UNL A   1      37.847  34.339  34.479  1.00  0.00     0.029 A 
ATOM     45  C   UNL A   1      38.898  33.332  34.575  1.00  0.00     0.049 A 
ATOM     46  H   UNL A   1      39.380  31.863  33.180  1.00  0.00     0.167 HD
ATOM     47  C   UNL A   1      40.204  28.757  30.190  1.00  0.00     0.031 A 
ATOM     48  C   UNL A   1      39.746  33.184  35.609  1.00  0.00     0.031 A 
ATOM     49  C   UNL A   1      41.204  28.582  31.205  1.00  0.00     0.049 A 
ATOM     50  C   UNL A   1      40.776  32.090  35.554  1.00  0.00     0.074 A 
ATOM     51  C   UNL A   1      42.251  27.679  31.235  1.00  0.00     0.029 A 
ATOM     52  N   UNL A   1      41.282  29.329  32.369  1.00  0.00    -0.354 N 
ATOM     53  N   UNL A   1      41.008  31.219  34.602  1.00  0.00    -0.248 NA
ATOM     54  C   UNL A   1      41.669  31.966  36.715  1.00  0.00     0.031 C 
ATOM     55  C   UNL A   1      42.928  27.839  32.447  1.00  0.00     0.029 A 
ATOM     56  C   UNL A   1      42.342  28.886  33.141  1.00  0.00     0.049 A 
ATOM     57  H   UNL A   1      40.675  30.065  32.612  1.00  0.00     0.167 HD
ATOM     58  C   UNL A   1      42.096  30.469  35.033  1.00  0.00     0.074 A 
ATOM     59  C   UNL A   1      42.486  31.000  36.322  1.00  0.00     0.031 C 
ATOM     60  C   UNL A   1      42.718  29.435  34.417  1.00  0.00     0.031 A 
BRANCH  47  61
ATOM     61  C   UNL A   1      40.192  27.803  29.028  1.00  0.00    -0.014 A 
ATOM     62  C   UNL A   1      40.814  28.125  27.811  1.00  0.00     0.009 A 
ATOM     63  C   UNL A   1      39.593  26.542  29.170  1.00  0.00     0.009 A 
ATOM     64  C   UNL A   1      40.811  27.214  26.753  1.00  0.00     0.001 A 
ATOM     65  C   UNL A   1      39.618  25.622  28.121  1.00  0.00     0.001 A 
ATOM     66  C   UNL A   1      40.221  25.962  26.912  1.00  0.00     0.000 A 
ENDBRANCH  47  61
BRANCH  48  67
ATOM     67  C   UNL A   1      39.676  34.098  36.781  1.00  0.00    -0.014 A 
ATOM     68  C   UNL A   1      40.391  35.307  36.782  1.00  0.00     0.009 A 
ATOM     69  C   UNL A   1      38.930  33.753  37.918  1.00  0.00     0.009 A 
ATOM     70  C   UNL A   1      40.391  36.131  37.910  1.00  0.00     0.001 A 
ATOM     71  C   UNL A   1      38.904  34.595  39.032  1.00  0.00     0.001 A 
ATOM     72  C   UNL A   1      39.647  35.775  39.033  1.00  0.00     0.000 A 
ENDBRANCH  48  67
BRANCH  60  73
ATOM     73  C   UNL A   1      43.913  28.842  35.107  1.00  0.00    -0.014 A 
ATOM     74  C   UNL A   1      43.787  27.749  35.978  1.00  0.00     0.009 A 
ATOM     75  C   UNL A   1      45.190  29.361  34.843  1.00  0.00     0.009 A 
ATOM     76  C   UNL A   1      44.916  27.211  36.600  1.00  0.00     0.001 A 
ATOM     77  C   UNL A   1      46.319  28.800  35.440  1.00  0.00     0.001 A 
ATOM     78  C   UNL A   1      46.180  27.733  36.326  1.00  0.00     0.000 A 
ENDBRANCH  60  73
ENDBRANCH  34  35
ENDBRANCH  26  29
ENDBRANCH  24  25
ENDBRANCH  23  24
ENDBRANCH  22  23
ENDBRANCH   3  22
TORSDOF 16
ENDMDL
