MODEL 1
REMARK VINA RESULT:     -12.0      0.000      0.000
REMARK SMILES O=C(NC1(C(=O)NCCCNC(=O)c2ccc(-c3c4nc(c(-c5ccccc5)c5ccc([nH]5)c(-c5ccccc5)c5nc(c(-c6ccccc6)c6ccc3[nH]6)C=C5)C=C4)cc2)CC[NH2+]CC1)OCC1c2ccccc2-c2ccccc21
REMARK SMILES IDX 8 1 7 2 5 3 6 4 4 6 62 7 66 8 63 9 65 10 64 11 3 14 1 15
REMARK SMILES IDX 2 16 67 18 68 19 69 20 70 21 81 22 71 23 75 24 76 25 80 26
REMARK SMILES IDX 72 27 74 28 77 29 79 30 73 31 78 32 9 33 10 34 11 35 12 36
REMARK SMILES IDX 13 38 14 39 15 40 61 41 16 42 60 43 17 44 18 45 19 46 54 47
REMARK SMILES IDX 20 48 59 49 53 50 55 51 21 52 58 53 52 54 51 55 22 57 44 58
REMARK SMILES IDX 29 59 43 60 30 61 33 62 42 63 56 64 31 65 32 66 41 68 57 69
REMARK SMILES IDX 34 70 23 71 24 72 28 73 25 74 27 75 26 76 45 77 46 78 50 79
REMARK SMILES IDX 47 80 49 81 48 82 35 83 36 84 40 85 37 86 39 87 38 88
REMARK H PARENT 7 5 64 12 64 13 3 17 11 37 55 56 33 67
REMARK Flexibility Score: inf
ROOT
ATOM      1  C   UNL A   1      33.250  28.604  24.696  1.00  0.00     0.117 C 
ENDROOT
BRANCH   1   2
ATOM      2  N   UNL A   1      33.563  27.793  23.532  1.00  0.00    -0.354 N 
ATOM      3  C   UNL A   1      32.914  26.773  22.907  1.00  0.00     0.246 C 
ATOM      4  O   UNL A   1      33.404  26.439  21.817  1.00  0.00    -0.272 OA
ATOM      5  H   UNL A   1      34.421  28.030  23.110  1.00  0.00     0.163 HD
BRANCH   3   6
ATOM      6  C   UNL A   1      31.592  26.111  23.431  1.00  0.00     0.132 C 
ATOM      7  C   UNL A   1      31.524  25.952  24.968  1.00  0.00     0.100 C 
ATOM      8  C   UNL A   1      30.363  26.932  23.009  1.00  0.00     0.100 C 
ATOM      9  C   UNL A   1      30.243  25.252  25.393  1.00  0.00     0.263 C 
ATOM     10  C   UNL A   1      29.063  26.332  23.572  1.00  0.00     0.263 C 
ATOM     11  N   UNL A   1      29.110  26.095  25.016  1.00  0.00    -0.346 N 
ATOM     12  H   UNL A   1      29.193  26.992  25.496  1.00  0.00     0.346 HD
ATOM     13  H   UNL A   1      28.253  25.613  25.287  1.00  0.00     0.346 HD
BRANCH   6  14
ATOM     14  N   UNL A   1      31.508  24.784  22.745  1.00  0.00    -0.307 N 
ATOM     15  O   UNL A   1      31.936  22.553  22.672  1.00  0.00    -0.225 OA
ATOM     16  C   UNL A   1      32.173  23.658  23.127  1.00  0.00     0.408 C 
ATOM     17  H   UNL A   1      30.927  24.719  21.955  1.00  0.00     0.168 HD
BRANCH  16  18
ATOM     18  O   UNL A   1      33.026  23.933  24.129  1.00  0.00    -0.449 OA
BRANCH  18  19
ATOM     19  C   UNL A   1      33.356  22.878  25.022  1.00  0.00     0.248 C 
BRANCH  19  20
ATOM     20  C   UNL A   1      34.587  22.135  24.503  1.00  0.00     0.088 C 
ATOM     21  C   UNL A   1      34.674  20.610  24.612  1.00  0.00    -0.029 A 
ATOM     22  C   UNL A   1      35.933  22.543  25.099  1.00  0.00    -0.029 A 
ATOM     23  C   UNL A   1      33.688  19.636  24.552  1.00  0.00     0.005 A 
ATOM     24  C   UNL A   1      36.031  20.242  24.779  1.00  0.00    -0.014 A 
ATOM     25  C   UNL A   1      36.801  21.428  25.101  1.00  0.00    -0.014 A 
ATOM     26  C   UNL A   1      36.327  23.747  25.660  1.00  0.00     0.005 A 
ATOM     27  C   UNL A   1      34.073  18.291  24.645  1.00  0.00     0.000 A 
ATOM     28  C   UNL A   1      36.416  18.912  24.784  1.00  0.00     0.009 A 
ATOM     29  C   UNL A   1      38.106  21.544  25.550  1.00  0.00     0.009 A 
ATOM     30  C   UNL A   1      37.623  23.846  26.172  1.00  0.00     0.000 A 
ATOM     31  C   UNL A   1      35.427  17.930  24.732  1.00  0.00     0.001 A 
ATOM     32  C   UNL A   1      38.516  22.767  26.085  1.00  0.00     0.001 A 
ENDBRANCH  19  20
ENDBRANCH  18  19
ENDBRANCH  16  18
ENDBRANCH   6  14
ENDBRANCH   3   6
ENDBRANCH   1   2
BRANCH   1  33
ATOM     33  C   UNL A   1      34.100  28.246  25.914  1.00  0.00     0.042 C 
BRANCH  33  34
ATOM     34  C   UNL A   1      33.416  28.527  27.254  1.00  0.00     0.118 C 
BRANCH  34  35
ATOM     35  N   UNL A   1      33.468  29.935  27.620  1.00  0.00    -0.352 N 
ATOM     36  C   UNL A   1      34.464  30.686  28.197  1.00  0.00     0.251 C 
ATOM     37  H   UNL A   1      32.645  30.438  27.419  1.00  0.00     0.163 HD
ATOM     38  O   UNL A   1      34.187  31.815  28.599  1.00  0.00    -0.269 OA
BRANCH  36  39
ATOM     39  C   UNL A   1      35.858  30.192  28.360  1.00  0.00     0.039 A 
ATOM     40  C   UNL A   1      36.238  29.703  29.617  1.00  0.00     0.014 A 
ATOM     41  C   UNL A   1      36.826  30.301  27.359  1.00  0.00     0.014 A 
ATOM     42  C   UNL A   1      37.557  29.298  29.857  1.00  0.00     0.010 A 
ATOM     43  C   UNL A   1      38.133  29.839  27.581  1.00  0.00     0.010 A 
ATOM     44  C   UNL A   1      38.519  29.339  28.835  1.00  0.00    -0.014 A 
BRANCH  44  45
ATOM     45  C   UNL A   1      39.917  28.876  29.085  1.00  0.00     0.031 A 
ATOM     46  C   UNL A   1      40.922  29.765  29.772  1.00  0.00     0.074 A 
ATOM     47  C   UNL A   1      40.301  27.644  28.690  1.00  0.00     0.049 A 
ATOM     48  N   UNL A   1      42.177  29.522  30.068  1.00  0.00    -0.248 NA
ATOM     49  C   UNL A   1      40.464  31.105  30.170  1.00  0.00     0.031 C 
ATOM     50  C   UNL A   1      39.448  26.668  28.009  1.00  0.00     0.029 A 
ATOM     51  N   UNL A   1      41.508  26.999  28.813  1.00  0.00    -0.354 N 
ATOM     52  C   UNL A   1      42.657  30.674  30.679  1.00  0.00     0.074 A 
ATOM     53  C   UNL A   1      41.572  31.633  30.670  1.00  0.00     0.031 C 
ATOM     54  C   UNL A   1      40.148  25.541  27.804  1.00  0.00     0.029 A 
ATOM     55  C   UNL A   1      41.510  25.724  28.300  1.00  0.00     0.049 A 
ATOM     56  H   UNL A   1      42.299  27.411  29.230  1.00  0.00     0.167 HD
ATOM     57  C   UNL A   1      43.879  30.912  31.218  1.00  0.00     0.031 A 
ATOM     58  C   UNL A   1      42.490  24.802  28.227  1.00  0.00     0.031 A 
ATOM     59  C   UNL A   1      44.969  29.971  31.236  1.00  0.00     0.049 A 
ATOM     60  C   UNL A   1      43.853  25.111  28.782  1.00  0.00     0.074 A 
ATOM     61  C   UNL A   1      46.228  30.123  31.793  1.00  0.00     0.029 A 
ATOM     62  N   UNL A   1      44.934  28.706  30.671  1.00  0.00    -0.354 N 
ATOM     63  N   UNL A   1      44.272  26.190  29.397  1.00  0.00    -0.248 NA
ATOM     64  C   UNL A   1      44.878  24.065  28.640  1.00  0.00     0.031 C 
ATOM     65  C   UNL A   1      46.975  28.973  31.517  1.00  0.00     0.029 A 
ATOM     66  C   UNL A   1      46.159  28.079  30.842  1.00  0.00     0.049 A 
ATOM     67  H   UNL A   1      44.156  28.312  30.215  1.00  0.00     0.167 HD
ATOM     68  C   UNL A   1      45.595  25.941  29.739  1.00  0.00     0.074 A 
ATOM     69  C   UNL A   1      45.907  24.606  29.278  1.00  0.00     0.031 C 
ATOM     70  C   UNL A   1      46.471  26.751  30.381  1.00  0.00     0.031 A 
BRANCH  57  71
ATOM     71  C   UNL A   1      44.111  32.265  31.834  1.00  0.00    -0.014 A 
ATOM     72  C   UNL A   1      43.862  32.495  33.198  1.00  0.00     0.009 A 
ATOM     73  C   UNL A   1      44.638  33.308  31.056  1.00  0.00     0.009 A 
ATOM     74  C   UNL A   1      44.104  33.751  33.759  1.00  0.00     0.001 A 
ATOM     75  C   UNL A   1      44.907  34.553  31.627  1.00  0.00     0.001 A 
ATOM     76  C   UNL A   1      44.631  34.777  32.975  1.00  0.00     0.000 A 
ENDBRANCH  57  71
BRANCH  58  77
ATOM     77  C   UNL A   1      42.220  23.478  27.604  1.00  0.00    -0.014 A 
ATOM     78  C   UNL A   1      41.651  22.440  28.359  1.00  0.00     0.009 A 
ATOM     79  C   UNL A   1      42.545  23.242  26.261  1.00  0.00     0.009 A 
ATOM     80  C   UNL A   1      41.436  21.185  27.785  1.00  0.00     0.001 A 
ATOM     81  C   UNL A   1      42.300  21.995  25.681  1.00  0.00     0.001 A 
ATOM     82  C   UNL A   1      41.756  20.965  26.446  1.00  0.00     0.000 A 
ENDBRANCH  58  77
BRANCH  70  83
ATOM     83  C   UNL A   1      47.844  26.206  30.662  1.00  0.00    -0.014 A 
ATOM     84  C   UNL A   1      48.182  25.683  31.922  1.00  0.00     0.009 A 
ATOM     85  C   UNL A   1      48.805  26.179  29.638  1.00  0.00     0.009 A 
ATOM     86  C   UNL A   1      49.463  25.177  32.157  1.00  0.00     0.001 A 
ATOM     87  C   UNL A   1      50.074  25.646  29.868  1.00  0.00     0.001 A 
ATOM     88  C   UNL A   1      50.406  25.155  31.130  1.00  0.00     0.000 A 
ENDBRANCH  70  83
ENDBRANCH  44  45
ENDBRANCH  36  39
ENDBRANCH  34  35
ENDBRANCH  33  34
ENDBRANCH   1  33
TORSDOF 14
ENDMDL
MODEL 2
REMARK VINA RESULT:     -12.0      1.356      2.124
REMARK SMILES O=C(NC1(C(=O)NCCCNC(=O)c2ccc(-c3c4nc(c(-c5ccccc5)c5ccc([nH]5)c(-c5ccccc5)c5nc(c(-c6ccccc6)c6ccc3[nH]6)C=C5)C=C4)cc2)CC[NH2+]CC1)OCC1c2ccccc2-c2ccccc21
REMARK SMILES IDX 8 1 7 2 5 3 6 4 4 6 62 7 66 8 63 9 65 10 64 11 3 14 1 15
REMARK SMILES IDX 2 16 67 18 68 19 69 20 70 21 81 22 71 23 75 24 76 25 80 26
REMARK SMILES IDX 72 27 74 28 77 29 79 30 73 31 78 32 9 33 10 34 11 35 12 36
REMARK SMILES IDX 13 38 14 39 15 40 61 41 16 42 60 43 17 44 18 45 19 46 54 47
REMARK SMILES IDX 20 48 59 49 53 50 55 51 21 52 58 53 52 54 51 55 22 57 44 58
REMARK SMILES IDX 29 59 43 60 30 61 33 62 42 63 56 64 31 65 32 66 41 68 57 69
REMARK SMILES IDX 34 70 23 71 24 72 28 73 25 74 27 75 26 76 45 77 46 78 50 79
REMARK SMILES IDX 47 80 49 81 48 82 35 83 36 84 40 85 37 86 39 87 38 88
REMARK H PARENT 7 5 64 12 64 13 3 17 11 37 55 56 33 67
REMARK Flexibility Score: inf
ROOT
ATOM      1  C   UNL A   1      32.064  26.525  26.673  1.00  0.00     0.117 C 
ENDROOT
BRANCH   1   2
ATOM      2  N   UNL A   1      33.155  26.236  25.760  1.00  0.00    -0.354 N 
ATOM      3  C   UNL A   1      33.355  26.498  24.439  1.00  0.00     0.246 C 
ATOM      4  O   UNL A   1      34.503  26.258  24.033  1.00  0.00    -0.272 OA
ATOM      5  H   UNL A   1      33.901  25.752  26.181  1.00  0.00     0.163 HD
BRANCH   3   6
ATOM      6  C   UNL A   1      32.286  27.145  23.491  1.00  0.00     0.132 C 
ATOM      7  C   UNL A   1      30.847  26.618  23.697  1.00  0.00     0.100 C 
ATOM      8  C   UNL A   1      32.237  28.671  23.681  1.00  0.00     0.100 C 
ATOM      9  C   UNL A   1      29.882  27.248  22.707  1.00  0.00     0.263 C 
ATOM     10  C   UNL A   1      31.147  29.313  22.806  1.00  0.00     0.263 C 
ATOM     11  N   UNL A   1      29.832  28.687  22.962  1.00  0.00    -0.346 N 
ATOM     12  H   UNL A   1      29.503  28.840  23.916  1.00  0.00     0.346 HD
ATOM     13  H   UNL A   1      29.198  29.107  22.284  1.00  0.00     0.346 HD
BRANCH   6  14
ATOM     14  N   UNL A   1      32.767  26.877  22.100  1.00  0.00    -0.307 N 
ATOM     15  O   UNL A   1      33.053  25.481  20.330  1.00  0.00    -0.225 OA
ATOM     16  C   UNL A   1      32.846  25.647  21.518  1.00  0.00     0.408 C 
ATOM     17  H   UNL A   1      33.050  27.650  21.562  1.00  0.00     0.168 HD
BRANCH  16  18
ATOM     18  O   UNL A   1      32.559  24.686  22.413  1.00  0.00    -0.449 OA
BRANCH  18  19
ATOM     19  C   UNL A   1      32.956  23.357  22.103  1.00  0.00     0.248 C 
BRANCH  19  20
ATOM     20  C   UNL A   1      33.277  22.604  23.394  1.00  0.00     0.088 C 
ATOM     21  C   UNL A   1      32.433  22.828  24.651  1.00  0.00    -0.029 A 
ATOM     22  C   UNL A   1      34.685  22.782  23.957  1.00  0.00    -0.029 A 
ATOM     23  C   UNL A   1      31.086  23.123  24.802  1.00  0.00     0.005 A 
ATOM     24  C   UNL A   1      33.259  22.666  25.789  1.00  0.00    -0.014 A 
ATOM     25  C   UNL A   1      34.646  22.659  25.363  1.00  0.00    -0.014 A 
ATOM     26  C   UNL A   1      35.867  23.103  23.308  1.00  0.00     0.005 A 
ATOM     27  C   UNL A   1      30.569  23.237  26.101  1.00  0.00     0.000 A 
ATOM     28  C   UNL A   1      32.729  22.693  27.068  1.00  0.00     0.009 A 
ATOM     29  C   UNL A   1      35.805  22.735  26.117  1.00  0.00     0.009 A 
ATOM     30  C   UNL A   1      37.026  23.243  24.074  1.00  0.00     0.000 A 
ATOM     31  C   UNL A   1      31.377  22.997  27.224  1.00  0.00     0.001 A 
ATOM     32  C   UNL A   1      37.003  23.025  25.461  1.00  0.00     0.001 A 
ENDBRANCH  19  20
ENDBRANCH  18  19
ENDBRANCH  16  18
ENDBRANCH   6  14
ENDBRANCH   3   6
ENDBRANCH   1   2
BRANCH   1  33
ATOM     33  C   UNL A   1      32.123  27.944  27.239  1.00  0.00     0.042 C 
BRANCH  33  34
ATOM     34  C   UNL A   1      33.529  28.547  27.259  1.00  0.00     0.118 C 
BRANCH  34  35
ATOM     35  N   UNL A   1      33.518  29.974  27.547  1.00  0.00    -0.352 N 
ATOM     36  C   UNL A   1      34.446  30.782  28.160  1.00  0.00     0.251 C 
ATOM     37  H   UNL A   1      32.704  30.442  27.251  1.00  0.00     0.163 HD
ATOM     38  O   UNL A   1      34.110  31.924  28.473  1.00  0.00    -0.269 OA
BRANCH  36  39
ATOM     39  C   UNL A   1      35.831  30.337  28.465  1.00  0.00     0.039 A 
ATOM     40  C   UNL A   1      36.784  30.406  27.440  1.00  0.00     0.014 A 
ATOM     41  C   UNL A   1      36.191  29.748  29.681  1.00  0.00     0.014 A 
ATOM     42  C   UNL A   1      38.085  29.927  27.641  1.00  0.00     0.010 A 
ATOM     43  C   UNL A   1      37.511  29.324  29.901  1.00  0.00     0.010 A 
ATOM     44  C   UNL A   1      38.474  29.400  28.882  1.00  0.00    -0.014 A 
BRANCH  44  45
ATOM     45  C   UNL A   1      39.871  28.920  29.103  1.00  0.00     0.031 A 
ATOM     46  C   UNL A   1      40.902  29.800  29.764  1.00  0.00     0.074 A 
ATOM     47  C   UNL A   1      40.231  27.681  28.706  1.00  0.00     0.049 A 
ATOM     48  N   UNL A   1      42.159  29.541  30.035  1.00  0.00    -0.248 NA
ATOM     49  C   UNL A   1      40.469  31.147  30.165  1.00  0.00     0.031 C 
ATOM     50  C   UNL A   1      39.351  26.714  28.048  1.00  0.00     0.029 A 
ATOM     51  N   UNL A   1      41.432  27.021  28.806  1.00  0.00    -0.354 N 
ATOM     52  C   UNL A   1      42.667  30.690  30.629  1.00  0.00     0.074 A 
ATOM     53  C   UNL A   1      41.595  31.663  30.638  1.00  0.00     0.031 C 
ATOM     54  C   UNL A   1      40.032  25.576  27.835  1.00  0.00     0.029 A 
ATOM     55  C   UNL A   1      41.407  25.744  28.300  1.00  0.00     0.049 A 
ATOM     56  H   UNL A   1      42.237  27.426  29.204  1.00  0.00     0.167 HD
ATOM     57  C   UNL A   1      43.903  30.915  31.140  1.00  0.00     0.031 A 
ATOM     58  C   UNL A   1      42.373  24.810  28.210  1.00  0.00     0.031 A 
ATOM     59  C   UNL A   1      44.982  29.960  31.140  1.00  0.00     0.049 A 
ATOM     60  C   UNL A   1      43.752  25.104  28.734  1.00  0.00     0.074 A 
ATOM     61  C   UNL A   1      46.254  30.099  31.668  1.00  0.00     0.029 A 
ATOM     62  N   UNL A   1      44.919  28.694  30.582  1.00  0.00    -0.354 N 
ATOM     63  N   UNL A   1      44.197  26.180  29.335  1.00  0.00    -0.248 NA
ATOM     64  C   UNL A   1      44.761  24.045  28.575  1.00  0.00     0.031 C 
ATOM     65  C   UNL A   1      46.980  28.939  31.382  1.00  0.00     0.029 A 
ATOM     66  C   UNL A   1      46.139  28.052  30.730  1.00  0.00     0.049 A 
ATOM     67  H   UNL A   1      44.126  28.308  30.144  1.00  0.00     0.167 HD
ATOM     68  C   UNL A   1      45.524  25.916  29.649  1.00  0.00     0.074 A 
ATOM     69  C   UNL A   1      45.809  24.575  29.188  1.00  0.00     0.031 C 
ATOM     70  C   UNL A   1      46.424  26.718  30.269  1.00  0.00     0.031 A 
BRANCH  57  71
ATOM     71  C   UNL A   1      44.166  32.269  31.745  1.00  0.00    -0.014 A 
ATOM     72  C   UNL A   1      44.633  33.337  30.961  1.00  0.00     0.009 A 
ATOM     73  C   UNL A   1      43.887  32.494  33.102  1.00  0.00     0.009 A 
ATOM     74  C   UNL A   1      44.850  34.591  31.533  1.00  0.00     0.001 A 
ATOM     75  C   UNL A   1      44.076  33.759  33.664  1.00  0.00     0.001 A 
ATOM     76  C   UNL A   1      44.567  34.803  32.883  1.00  0.00     0.000 A 
ENDBRANCH  57  71
BRANCH  58  77
ATOM     77  C   UNL A   1      42.073  23.487  27.600  1.00  0.00    -0.014 A 
ATOM     78  C   UNL A   1      41.478  22.469  28.364  1.00  0.00     0.009 A 
ATOM     79  C   UNL A   1      42.395  23.229  26.260  1.00  0.00     0.009 A 
ATOM     80  C   UNL A   1      41.235  21.214  27.802  1.00  0.00     0.001 A 
ATOM     81  C   UNL A   1      42.122  21.982  25.692  1.00  0.00     0.001 A 
ATOM     82  C   UNL A   1      41.552  20.973  26.466  1.00  0.00     0.000 A 
ENDBRANCH  58  77
BRANCH  70  83
ATOM     83  C   UNL A   1      47.796  26.157  30.523  1.00  0.00    -0.014 A 
ATOM     84  C   UNL A   1      48.154  25.635  31.777  1.00  0.00     0.009 A 
ATOM     85  C   UNL A   1      48.735  26.113  29.479  1.00  0.00     0.009 A 
ATOM     86  C   UNL A   1      49.434  25.114  31.987  1.00  0.00     0.001 A 
ATOM     87  C   UNL A   1      50.001  25.565  29.684  1.00  0.00     0.001 A 
ATOM     88  C   UNL A   1      50.354  25.075  30.940  1.00  0.00     0.000 A 
ENDBRANCH  70  83
ENDBRANCH  44  45
ENDBRANCH  36  39
ENDBRANCH  34  35
ENDBRANCH  33  34
ENDBRANCH   1  33
TORSDOF 14
ENDMDL
MODEL 3
REMARK VINA RESULT:     -11.9      1.386      6.036
REMARK SMILES O=C(NC1(C(=O)NCCCNC(=O)c2ccc(-c3c4nc(c(-c5ccccc5)c5ccc([nH]5)c(-c5ccccc5)c5nc(c(-c6ccccc6)c6ccc3[nH]6)C=C5)C=C4)cc2)CC[NH2+]CC1)OCC1c2ccccc2-c2ccccc21
REMARK SMILES IDX 8 1 7 2 5 3 6 4 4 6 62 7 66 8 63 9 65 10 64 11 3 14 1 15
REMARK SMILES IDX 2 16 67 18 68 19 69 20 70 21 81 22 71 23 75 24 76 25 80 26
REMARK SMILES IDX 72 27 74 28 77 29 79 30 73 31 78 32 9 33 10 34 11 35 12 36
REMARK SMILES IDX 13 38 14 39 15 40 61 41 16 42 60 43 17 44 18 45 19 46 54 47
REMARK SMILES IDX 20 48 59 49 53 50 55 51 21 52 58 53 52 54 51 55 22 57 44 58
REMARK SMILES IDX 29 59 43 60 30 61 33 62 42 63 56 64 31 65 32 66 41 68 57 69
REMARK SMILES IDX 34 70 23 71 24 72 28 73 25 74 27 75 26 76 45 77 46 78 50 79
REMARK SMILES IDX 47 80 49 81 48 82 35 83 36 84 40 85 37 86 39 87 38 88
REMARK H PARENT 7 5 64 12 64 13 3 17 11 37 55 56 33 67
REMARK Flexibility Score: inf
ROOT
ATOM      1  C   UNL A   1      32.054  26.497  26.778  1.00  0.00     0.117 C 
ENDROOT
BRANCH   1   2
ATOM      2  N   UNL A   1      33.157  26.184  25.886  1.00  0.00    -0.354 N 
ATOM      3  C   UNL A   1      33.376  26.413  24.562  1.00  0.00     0.246 C 
ATOM      4  O   UNL A   1      34.529  26.160  24.178  1.00  0.00    -0.272 OA
ATOM      5  H   UNL A   1      33.896  25.709  26.330  1.00  0.00     0.163 HD
BRANCH   3   6
ATOM      6  C   UNL A   1      32.322  27.038  23.584  1.00  0.00     0.132 C 
ATOM      7  C   UNL A   1      30.886  26.488  23.757  1.00  0.00     0.100 C 
ATOM      8  C   UNL A   1      32.243  28.563  23.765  1.00  0.00     0.100 C 
ATOM      9  C   UNL A   1      29.937  27.099  22.739  1.00  0.00     0.263 C 
ATOM     10  C   UNL A   1      31.166  29.183  22.860  1.00  0.00     0.263 C 
ATOM     11  N   UNL A   1      29.858  28.537  22.985  1.00  0.00    -0.346 N 
ATOM     12  H   UNL A   1      29.502  28.690  23.929  1.00  0.00     0.346 HD
ATOM     13  H   UNL A   1      29.234  28.944  22.289  1.00  0.00     0.346 HD
BRANCH   6  14
ATOM     14  N   UNL A   1      32.842  26.770  22.207  1.00  0.00    -0.307 N 
ATOM     15  O   UNL A   1      33.121  25.395  20.420  1.00  0.00    -0.225 OA
ATOM     16  C   UNL A   1      32.876  25.550  21.603  1.00  0.00     0.408 C 
ATOM     17  H   UNL A   1      33.187  27.537  21.697  1.00  0.00     0.168 HD
BRANCH  16  18
ATOM     18  O   UNL A   1      32.503  24.589  22.465  1.00  0.00    -0.449 OA
BRANCH  18  19
ATOM     19  C   UNL A   1      32.886  23.253  22.169  1.00  0.00     0.248 C 
BRANCH  19  20
ATOM     20  C   UNL A   1      33.255  22.528  23.463  1.00  0.00     0.088 C 
ATOM     21  C   UNL A   1      32.446  22.765  24.742  1.00  0.00    -0.029 A 
ATOM     22  C   UNL A   1      34.678  22.734  23.980  1.00  0.00    -0.029 A 
ATOM     23  C   UNL A   1      31.101  23.047  24.928  1.00  0.00     0.005 A 
ATOM     24  C   UNL A   1      33.309  22.634  25.857  1.00  0.00    -0.014 A 
ATOM     25  C   UNL A   1      34.682  22.636  25.389  1.00  0.00    -0.014 A 
ATOM     26  C   UNL A   1      35.835  23.057  23.290  1.00  0.00     0.005 A 
ATOM     27  C   UNL A   1      30.623  23.178  26.240  1.00  0.00     0.000 A 
ATOM     28  C   UNL A   1      32.817  22.679  27.151  1.00  0.00     0.009 A 
ATOM     29  C   UNL A   1      35.863  22.741  26.106  1.00  0.00     0.009 A 
ATOM     30  C   UNL A   1      37.015  23.225  24.018  1.00  0.00     0.000 A 
ATOM     31  C   UNL A   1      31.467  22.969  27.342  1.00  0.00     0.001 A 
ATOM     32  C   UNL A   1      37.037  23.033  25.409  1.00  0.00     0.001 A 
ENDBRANCH  19  20
ENDBRANCH  18  19
ENDBRANCH  16  18
ENDBRANCH   6  14
ENDBRANCH   3   6
ENDBRANCH   1   2
BRANCH   1  33
ATOM     33  C   UNL A   1      32.129  27.917  27.338  1.00  0.00     0.042 C 
BRANCH  33  34
ATOM     34  C   UNL A   1      33.540  28.509  27.347  1.00  0.00     0.118 C 
BRANCH  34  35
ATOM     35  N   UNL A   1      33.540  29.941  27.605  1.00  0.00    -0.352 N 
ATOM     36  C   UNL A   1      34.480  30.757  28.190  1.00  0.00     0.251 C 
ATOM     37  H   UNL A   1      32.726  30.408  27.308  1.00  0.00     0.163 HD
ATOM     38  O   UNL A   1      34.154  31.907  28.482  1.00  0.00    -0.269 OA
BRANCH  36  39
ATOM     39  C   UNL A   1      35.867  30.309  28.488  1.00  0.00     0.039 A 
ATOM     40  C   UNL A   1      36.811  30.363  27.454  1.00  0.00     0.014 A 
ATOM     41  C   UNL A   1      36.235  29.735  29.707  1.00  0.00     0.014 A 
ATOM     42  C   UNL A   1      38.111  29.880  27.648  1.00  0.00     0.010 A 
ATOM     43  C   UNL A   1      37.555  29.308  29.921  1.00  0.00     0.010 A 
ATOM     44  C   UNL A   1      38.509  29.367  28.892  1.00  0.00    -0.014 A 
BRANCH  44  45
ATOM     45  C   UNL A   1      39.906  28.884  29.107  1.00  0.00     0.031 A 
ATOM     46  C   UNL A   1      40.315  27.484  28.723  1.00  0.00     0.074 A 
ATOM     47  C   UNL A   1      40.827  29.703  29.656  1.00  0.00     0.049 A 
ATOM     48  N   UNL A   1      41.485  26.902  28.839  1.00  0.00    -0.248 NA
ATOM     49  C   UNL A   1      39.274  26.622  28.144  1.00  0.00     0.031 C 
ATOM     50  C   UNL A   1      40.586  31.082  30.085  1.00  0.00     0.029 A 
ATOM     51  N   UNL A   1      42.156  29.496  29.940  1.00  0.00    -0.354 N 
ATOM     52  C   UNL A   1      41.320  25.610  28.355  1.00  0.00     0.074 A 
ATOM     53  C   UNL A   1      39.926  25.478  27.987  1.00  0.00     0.031 C 
ATOM     54  C   UNL A   1      41.734  31.605  30.545  1.00  0.00     0.029 A 
ATOM     55  C   UNL A   1      42.783  30.590  30.485  1.00  0.00     0.049 A 
ATOM     56  H   UNL A   1      42.616  28.642  29.769  1.00  0.00     0.167 HD
ATOM     57  C   UNL A   1      42.242  24.626  28.208  1.00  0.00     0.031 A 
ATOM     58  C   UNL A   1      44.054  30.766  30.898  1.00  0.00     0.031 A 
ATOM     59  C   UNL A   1      43.632  24.739  28.569  1.00  0.00     0.049 A 
ATOM     60  C   UNL A   1      45.044  29.640  30.777  1.00  0.00     0.074 A 
ATOM     61  C   UNL A   1      44.639  23.800  28.421  1.00  0.00     0.029 A 
ATOM     62  N   UNL A   1      44.212  25.854  29.153  1.00  0.00    -0.354 N 
ATOM     63  N   UNL A   1      44.878  28.442  30.273  1.00  0.00    -0.248 NA
ATOM     64  C   UNL A   1      46.404  29.899  31.275  1.00  0.00     0.031 C 
ATOM     65  C   UNL A   1      45.816  24.324  28.966  1.00  0.00     0.029 A 
ATOM     66  C   UNL A   1      45.556  25.615  29.396  1.00  0.00     0.049 A 
ATOM     67  H   UNL A   1      43.739  26.692  29.364  1.00  0.00     0.167 HD
ATOM     68  C   UNL A   1      46.116  27.818  30.367  1.00  0.00     0.074 A 
ATOM     69  C   UNL A   1      47.026  28.771  30.961  1.00  0.00     0.031 C 
ATOM     70  C   UNL A   1      46.462  26.563  29.989  1.00  0.00     0.031 A 
BRANCH  57  71
ATOM     71  C   UNL A   1      41.772  23.318  27.633  1.00  0.00    -0.014 A 
ATOM     72  C   UNL A   1      41.342  22.271  28.465  1.00  0.00     0.009 A 
ATOM     73  C   UNL A   1      41.703  23.149  26.241  1.00  0.00     0.009 A 
ATOM     74  C   UNL A   1      40.887  21.071  27.915  1.00  0.00     0.001 A 
ATOM     75  C   UNL A   1      41.219  21.959  25.694  1.00  0.00     0.001 A 
ATOM     76  C   UNL A   1      40.821  20.918  26.530  1.00  0.00     0.000 A 
ENDBRANCH  57  71
BRANCH  58  77
ATOM     77  C   UNL A   1      44.476  32.074  31.466  1.00  0.00    -0.014 A 
ATOM     78  C   UNL A   1      45.017  33.069  30.636  1.00  0.00     0.009 A 
ATOM     79  C   UNL A   1      44.357  32.327  32.841  1.00  0.00     0.009 A 
ATOM     80  C   UNL A   1      45.452  34.281  31.177  1.00  0.00     0.001 A 
ATOM     81  C   UNL A   1      44.765  33.552  33.373  1.00  0.00     0.001 A 
ATOM     82  C   UNL A   1      45.321  34.524  32.543  1.00  0.00     0.000 A 
ENDBRANCH  58  77
BRANCH  70  83
ATOM     83  C   UNL A   1      47.899  26.155  30.170  1.00  0.00    -0.014 A 
ATOM     84  C   UNL A   1      48.828  26.262  29.122  1.00  0.00     0.009 A 
ATOM     85  C   UNL A   1      48.339  25.693  31.421  1.00  0.00     0.009 A 
ATOM     86  C   UNL A   1      50.159  25.882  29.316  1.00  0.00     0.001 A 
ATOM     87  C   UNL A   1      49.675  25.342  31.619  1.00  0.00     0.001 A 
ATOM     88  C   UNL A   1      50.582  25.427  30.565  1.00  0.00     0.000 A 
ENDBRANCH  70  83
ENDBRANCH  44  45
ENDBRANCH  36  39
ENDBRANCH  34  35
ENDBRANCH  33  34
ENDBRANCH   1  33
TORSDOF 14
ENDMDL
