MODEL 1
REMARK VINA RESULT:      -9.2      0.000      0.000
REMARK SMILES O=C(C[C@@H](Br)C(=O)c1ccc2c(c1)CCC2)NCCCNC(=O)c1ccc(-c2c3nc(c(-c4ccccc4)c4ccc([nH]4)c(-c4ccccc4)c4nc(c(-c5ccccc5)c5ccc2[nH]5)C=C4)C=C3)cc1
REMARK SMILES IDX 18 1 17 2 1 3 2 4 3 6 4 7 5 8 6 9 7 10 8 11 9 12 13 13 10 14
REMARK SMILES IDX 12 15 11 16 14 17 16 18 15 19 19 20 20 21 21 22 22 23 23 25
REMARK SMILES IDX 24 26 25 27 71 28 26 29 70 30 27 31 28 32 29 33 64 34 30 35
REMARK SMILES IDX 69 36 63 37 65 38 31 39 68 40 62 41 61 42 32 44 54 45 39 46
REMARK SMILES IDX 53 47 40 48 43 49 52 50 66 51 41 52 42 53 51 55 67 56 44 57
REMARK SMILES IDX 33 58 34 59 38 60 35 61 37 62 36 63 55 64 56 65 60 66 57 67
REMARK SMILES IDX 59 68 58 69 45 70 46 71 50 72 47 73 49 74 48 75
REMARK H PARENT 17 5 21 24 65 43 43 54
REMARK Flexibility Score: inf
ROOT
ATOM      1  C   UNL A   1      33.067  35.410  32.433  1.00  0.00     0.117 C 
ENDROOT
BRANCH   1   2
ATOM      2  N   UNL A   1      34.207  35.395  33.325  1.00  0.00    -0.356 N 
ATOM      3  O   UNL A   1      34.454  33.114  33.455  1.00  0.00    -0.275 OA
ATOM      4  C   UNL A   1      34.786  34.244  33.801  1.00  0.00     0.221 C 
ATOM      5  H   UNL A   1      34.589  36.257  33.607  1.00  0.00     0.163 HD
BRANCH   4   6
ATOM      6  C   UNL A   1      35.814  34.484  34.881  1.00  0.00     0.123 C 
BRANCH   6   7
ATOM      7  C   UNL A   1      37.169  33.874  34.585  1.00  0.00     0.138 C 
ATOM      8  Br  UNL A   1      38.624  35.150  34.937  1.00  0.00    -0.080 Br
BRANCH   7   9
ATOM      9  C   UNL A   1      37.476  32.614  35.387  1.00  0.00     0.176 C 
ATOM     10  O   UNL A   1      37.108  32.485  36.554  1.00  0.00    -0.293 OA
BRANCH   9  11
ATOM     11  C   UNL A   1      38.183  31.473  34.746  1.00  0.00     0.019 A 
ATOM     12  C   UNL A   1      39.533  31.192  35.026  1.00  0.00     0.012 A 
ATOM     13  C   UNL A   1      37.465  30.689  33.833  1.00  0.00     0.015 A 
ATOM     14  C   UNL A   1      40.202  30.172  34.345  1.00  0.00     0.005 A 
ATOM     15  C   UNL A   1      38.135  29.664  33.183  1.00  0.00    -0.044 A 
ATOM     16  C   UNL A   1      39.492  29.422  33.425  1.00  0.00    -0.045 A 
ATOM     17  C   UNL A   1      37.605  28.726  32.145  1.00  0.00     0.036 C 
ATOM     18  C   UNL A   1      40.000  28.318  32.551  1.00  0.00     0.036 C 
ATOM     19  C   UNL A   1      38.686  27.633  32.152  1.00  0.00     0.010 C 
ENDBRANCH   9  11
ENDBRANCH   7   9
ENDBRANCH   6   7
ENDBRANCH   4   6
ENDBRANCH   1   2
BRANCH   1  20
ATOM     20  C   UNL A   1      33.048  36.668  31.566  1.00  0.00     0.042 C 
BRANCH  20  21
ATOM     21  C   UNL A   1      33.668  36.506  30.178  1.00  0.00     0.118 C 
BRANCH  21  22
ATOM     22  N   UNL A   1      32.915  35.616  29.311  1.00  0.00    -0.352 N 
ATOM     23  C   UNL A   1      33.268  34.415  28.750  1.00  0.00     0.251 C 
ATOM     24  H   UNL A   1      32.006  35.923  29.091  1.00  0.00     0.163 HD
ATOM     25  O   UNL A   1      32.512  33.888  27.934  1.00  0.00    -0.269 OA
BRANCH  23  26
ATOM     26  C   UNL A   1      34.547  33.749  29.089  1.00  0.00     0.039 A 
ATOM     27  C   UNL A   1      35.671  34.034  28.305  1.00  0.00     0.014 A 
ATOM     28  C   UNL A   1      34.643  32.813  30.121  1.00  0.00     0.014 A 
ATOM     29  C   UNL A   1      36.894  33.419  28.584  1.00  0.00     0.010 A 
ATOM     30  C   UNL A   1      35.879  32.246  30.438  1.00  0.00     0.010 A 
ATOM     31  C   UNL A   1      37.015  32.536  29.667  1.00  0.00    -0.014 A 
BRANCH  31  32
ATOM     32  C   UNL A   1      38.316  31.896  29.990  1.00  0.00     0.031 A 
ATOM     33  C   UNL A   1      39.309  32.594  30.882  1.00  0.00     0.074 A 
ATOM     34  C   UNL A   1      38.629  30.702  29.451  1.00  0.00     0.049 A 
ATOM     35  N   UNL A   1      40.509  32.212  31.241  1.00  0.00    -0.248 NA
ATOM     36  C   UNL A   1      38.908  33.901  31.424  1.00  0.00     0.031 C 
ATOM     37  C   UNL A   1      37.775  29.928  28.548  1.00  0.00     0.029 A 
ATOM     38  N   UNL A   1      39.758  29.931  29.583  1.00  0.00    -0.354 N 
ATOM     39  C   UNL A   1      41.012  33.238  32.031  1.00  0.00     0.074 A 
ATOM     40  C   UNL A   1      40.005  34.276  32.064  1.00  0.00     0.031 C 
ATOM     41  C   UNL A   1      38.399  28.782  28.228  1.00  0.00     0.029 A 
ATOM     42  C   UNL A   1      39.708  28.756  28.874  1.00  0.00     0.049 A 
ATOM     43  H   UNL A   1      40.530  30.195  30.134  1.00  0.00     0.167 HD
ATOM     44  C   UNL A   1      42.197  33.305  32.684  1.00  0.00     0.031 A 
ATOM     45  C   UNL A   1      40.614  27.767  28.754  1.00  0.00     0.031 A 
ATOM     46  C   UNL A   1      43.195  32.270  32.672  1.00  0.00     0.049 A 
ATOM     47  C   UNL A   1      41.921  27.865  29.489  1.00  0.00     0.074 A 
ATOM     48  C   UNL A   1      44.403  32.228  33.345  1.00  0.00     0.029 A 
ATOM     49  N   UNL A   1      43.098  31.090  31.951  1.00  0.00    -0.354 N 
ATOM     50  N   UNL A   1      42.357  28.818  30.275  1.00  0.00    -0.248 NA
ATOM     51  C   UNL A   1      42.855  26.741  29.328  1.00  0.00     0.031 C 
ATOM     52  C   UNL A   1      45.057  31.040  33.001  1.00  0.00     0.029 A 
ATOM     53  C   UNL A   1      44.233  30.322  32.150  1.00  0.00     0.049 A 
ATOM     54  H   UNL A   1      42.336  30.837  31.381  1.00  0.00     0.167 HD
ATOM     55  C   UNL A   1      43.600  28.396  30.727  1.00  0.00     0.074 A 
ATOM     56  C   UNL A   1      43.845  27.096  30.137  1.00  0.00     0.031 C 
ATOM     57  C   UNL A   1      44.462  29.029  31.561  1.00  0.00     0.031 A 
BRANCH  44  58
ATOM     58  C   UNL A   1      42.480  34.557  33.468  1.00  0.00    -0.014 A 
ATOM     59  C   UNL A   1      42.277  34.604  34.857  1.00  0.00     0.009 A 
ATOM     60  C   UNL A   1      42.986  35.691  32.816  1.00  0.00     0.009 A 
ATOM     61  C   UNL A   1      42.540  35.776  35.570  1.00  0.00     0.001 A 
ATOM     62  C   UNL A   1      43.272  36.852  33.535  1.00  0.00     0.001 A 
ATOM     63  C   UNL A   1      43.039  36.898  34.908  1.00  0.00     0.000 A 
ENDBRANCH  44  58
BRANCH  45  64
ATOM     64  C   UNL A   1      40.309  26.577  27.918  1.00  0.00    -0.014 A 
ATOM     65  C   UNL A   1      40.792  26.491  26.603  1.00  0.00     0.009 A 
ATOM     66  C   UNL A   1      39.528  25.528  28.426  1.00  0.00     0.009 A 
ATOM     67  C   UNL A   1      40.477  25.390  25.805  1.00  0.00     0.001 A 
ATOM     68  C   UNL A   1      39.237  24.416  27.634  1.00  0.00     0.001 A 
ATOM     69  C   UNL A   1      39.703  24.352  26.322  1.00  0.00     0.000 A 
ENDBRANCH  45  64
BRANCH  57  70
ATOM     70  C   UNL A   1      45.730  28.307  31.916  1.00  0.00    -0.014 A 
ATOM     71  C   UNL A   1      45.812  27.496  33.058  1.00  0.00     0.009 A 
ATOM     72  C   UNL A   1      46.848  28.415  31.074  1.00  0.00     0.009 A 
ATOM     73  C   UNL A   1      47.001  26.830  33.365  1.00  0.00     0.001 A 
ATOM     74  C   UNL A   1      48.027  27.729  31.371  1.00  0.00     0.001 A 
ATOM     75  C   UNL A   1      48.105  26.945  32.520  1.00  0.00     0.000 A 
ENDBRANCH  57  70
ENDBRANCH  31  32
ENDBRANCH  23  26
ENDBRANCH  21  22
ENDBRANCH  20  21
ENDBRANCH   1  20
TORSDOF 13
ENDMDL
MODEL 2
REMARK VINA RESULT:      -9.0      0.701      6.203
REMARK SMILES O=C(C[C@@H](Br)C(=O)c1ccc2c(c1)CCC2)NCCCNC(=O)c1ccc(-c2c3nc(c(-c4ccccc4)c4ccc([nH]4)c(-c4ccccc4)c4nc(c(-c5ccccc5)c5ccc2[nH]5)C=C4)C=C3)cc1
REMARK SMILES IDX 18 1 17 2 1 3 2 4 3 6 4 7 5 8 6 9 7 10 8 11 9 12 13 13 10 14
REMARK SMILES IDX 12 15 11 16 14 17 16 18 15 19 19 20 20 21 21 22 22 23 23 25
REMARK SMILES IDX 24 26 25 27 71 28 26 29 70 30 27 31 28 32 29 33 64 34 30 35
REMARK SMILES IDX 69 36 63 37 65 38 31 39 68 40 62 41 61 42 32 44 54 45 39 46
REMARK SMILES IDX 53 47 40 48 43 49 52 50 66 51 41 52 42 53 51 55 67 56 44 57
REMARK SMILES IDX 33 58 34 59 38 60 35 61 37 62 36 63 55 64 56 65 60 66 57 67
REMARK SMILES IDX 59 68 58 69 45 70 46 71 50 72 47 73 49 74 48 75
REMARK H PARENT 17 5 21 24 65 43 43 54
REMARK Flexibility Score: inf
ROOT
ATOM      1  C   UNL A   1      33.661  36.479  33.147  1.00  0.00     0.117 C 
ENDROOT
BRANCH   1   2
ATOM      2  N   UNL A   1      34.337  35.607  34.085  1.00  0.00    -0.356 N 
ATOM      3  O   UNL A   1      36.238  35.251  32.844  1.00  0.00    -0.275 OA
ATOM      4  C   UNL A   1      35.556  35.026  33.840  1.00  0.00     0.221 C 
ATOM      5  H   UNL A   1      33.897  35.420  34.945  1.00  0.00     0.163 HD
BRANCH   4   6
ATOM      6  C   UNL A   1      35.952  33.991  34.867  1.00  0.00     0.123 C 
BRANCH   6   7
ATOM      7  C   UNL A   1      37.397  33.547  34.766  1.00  0.00     0.138 C 
ATOM      8  Br  UNL A   1      38.606  34.836  35.632  1.00  0.00    -0.080 Br
BRANCH   7   9
ATOM      9  C   UNL A   1      37.677  32.184  35.389  1.00  0.00     0.176 C 
ATOM     10  O   UNL A   1      37.317  31.910  36.533  1.00  0.00    -0.293 OA
BRANCH   9  11
ATOM     11  C   UNL A   1      38.348  31.122  34.592  1.00  0.00     0.019 A 
ATOM     12  C   UNL A   1      37.750  30.576  33.441  1.00  0.00     0.012 A 
ATOM     13  C   UNL A   1      39.596  30.663  35.034  1.00  0.00     0.015 A 
ATOM     14  C   UNL A   1      38.355  29.517  32.760  1.00  0.00     0.005 A 
ATOM     15  C   UNL A   1      40.197  29.629  34.334  1.00  0.00    -0.044 A 
ATOM     16  C   UNL A   1      39.574  29.053  33.221  1.00  0.00    -0.045 A 
ATOM     17  C   UNL A   1      41.494  28.943  34.629  1.00  0.00     0.036 C 
ATOM     18  C   UNL A   1      40.384  27.913  32.688  1.00  0.00     0.036 C 
ATOM     19  C   UNL A   1      41.757  28.218  33.300  1.00  0.00     0.010 C 
ENDBRANCH   9  11
ENDBRANCH   7   9
ENDBRANCH   6   7
ENDBRANCH   4   6
ENDBRANCH   1   2
BRANCH   1  20
ATOM     20  C   UNL A   1      32.988  35.687  32.027  1.00  0.00     0.042 C 
BRANCH  20  21
ATOM     21  C   UNL A   1      33.345  36.138  30.611  1.00  0.00     0.118 C 
BRANCH  21  22
ATOM     22  N   UNL A   1      32.750  35.310  29.575  1.00  0.00    -0.352 N 
ATOM     23  C   UNL A   1      33.272  34.251  28.877  1.00  0.00     0.251 C 
ATOM     24  H   UNL A   1      31.825  35.546  29.336  1.00  0.00     0.163 HD
ATOM     25  O   UNL A   1      32.629  33.772  27.943  1.00  0.00    -0.269 OA
BRANCH  23  26
ATOM     26  C   UNL A   1      34.599  33.684  29.209  1.00  0.00     0.039 A 
ATOM     27  C   UNL A   1      35.678  33.987  28.371  1.00  0.00     0.014 A 
ATOM     28  C   UNL A   1      34.785  32.819  30.290  1.00  0.00     0.014 A 
ATOM     29  C   UNL A   1      36.945  33.464  28.641  1.00  0.00     0.010 A 
ATOM     30  C   UNL A   1      36.063  32.347  30.596  1.00  0.00     0.010 A 
ATOM     31  C   UNL A   1      37.155  32.657  29.770  1.00  0.00    -0.014 A 
BRANCH  31  32
ATOM     32  C   UNL A   1      38.502  32.116  30.084  1.00  0.00     0.031 A 
ATOM     33  C   UNL A   1      38.944  30.794  29.517  1.00  0.00     0.074 A 
ATOM     34  C   UNL A   1      39.320  32.792  30.914  1.00  0.00     0.049 A 
ATOM     35  N   UNL A   1      40.063  30.143  29.712  1.00  0.00    -0.248 NA
ATOM     36  C   UNL A   1      37.995  30.103  28.630  1.00  0.00     0.031 C 
ATOM     37  C   UNL A   1      39.009  34.070  31.557  1.00  0.00     0.029 A 
ATOM     38  N   UNL A   1      40.584  32.493  31.362  1.00  0.00    -0.354 N 
ATOM     39  C   UNL A   1      39.944  28.960  28.992  1.00  0.00     0.074 A 
ATOM     40  C   UNL A   1      38.628  28.965  28.390  1.00  0.00     0.031 C 
ATOM     41  C   UNL A   1      40.063  34.457  32.296  1.00  0.00     0.029 A 
ATOM     42  C   UNL A   1      41.107  33.441  32.206  1.00  0.00     0.049 A 
ATOM     43  H   UNL A   1      41.069  31.676  31.101  1.00  0.00     0.167 HD
ATOM     44  C   UNL A   1      40.852  27.968  28.831  1.00  0.00     0.031 A 
ATOM     45  C   UNL A   1      42.294  33.489  32.839  1.00  0.00     0.031 A 
ATOM     46  C   UNL A   1      42.169  27.965  29.410  1.00  0.00     0.049 A 
ATOM     47  C   UNL A   1      43.285  32.376  32.643  1.00  0.00     0.074 A 
ATOM     48  C   UNL A   1      43.175  27.027  29.259  1.00  0.00     0.029 A 
ATOM     49  N   UNL A   1      42.663  28.951  30.249  1.00  0.00    -0.354 N 
ATOM     50  N   UNL A   1      43.176  31.291  31.915  1.00  0.00    -0.248 NA
ATOM     51  C   UNL A   1      44.568  32.501  33.349  1.00  0.00     0.031 C 
ATOM     52  C   UNL A   1      44.266  27.425  30.039  1.00  0.00     0.029 A 
ATOM     53  C   UNL A   1      43.954  28.636  30.636  1.00  0.00     0.049 A 
ATOM     54  H   UNL A   1      42.169  29.756  30.527  1.00  0.00     0.167 HD
ATOM     55  C   UNL A   1      44.385  30.623  32.050  1.00  0.00     0.074 A 
ATOM     56  C   UNL A   1      45.218  31.428  32.920  1.00  0.00     0.031 C 
ATOM     57  C   UNL A   1      44.773  29.447  31.499  1.00  0.00     0.031 A 
BRANCH  44  58
ATOM     58  C   UNL A   1      40.441  26.790  27.992  1.00  0.00    -0.014 A 
ATOM     59  C   UNL A   1      40.868  26.664  26.660  1.00  0.00     0.009 A 
ATOM     60  C   UNL A   1      39.645  25.778  28.549  1.00  0.00     0.009 A 
ATOM     61  C   UNL A   1      40.473  25.565  25.892  1.00  0.00     0.001 A 
ATOM     62  C   UNL A   1      39.274  24.669  27.787  1.00  0.00     0.001 A 
ATOM     63  C   UNL A   1      39.679  24.569  26.458  1.00  0.00     0.000 A 
ENDBRANCH  44  58
BRANCH  45  64
ATOM     64  C   UNL A   1      42.629  34.649  33.706  1.00  0.00    -0.014 A 
ATOM     65  C   UNL A   1      42.385  34.595  35.086  1.00  0.00     0.009 A 
ATOM     66  C   UNL A   1      43.183  35.815  33.156  1.00  0.00     0.009 A 
ATOM     67  C   UNL A   1      42.667  35.697  35.896  1.00  0.00     0.001 A 
ATOM     68  C   UNL A   1      43.487  36.906  33.973  1.00  0.00     0.001 A 
ATOM     69  C   UNL A   1      43.220  36.850  35.340  1.00  0.00     0.000 A 
ENDBRANCH  45  64
BRANCH  57  70
ATOM     70  C   UNL A   1      46.171  28.980  31.787  1.00  0.00    -0.014 A 
ATOM     71  C   UNL A   1      47.248  29.357  30.970  1.00  0.00     0.009 A 
ATOM     72  C   UNL A   1      46.416  28.179  32.913  1.00  0.00     0.009 A 
ATOM     73  C   UNL A   1      48.541  28.915  31.261  1.00  0.00     0.001 A 
ATOM     74  C   UNL A   1      47.713  27.759  33.215  1.00  0.00     0.001 A 
ATOM     75  C   UNL A   1      48.772  28.119  32.383  1.00  0.00     0.000 A 
ENDBRANCH  57  70
ENDBRANCH  31  32
ENDBRANCH  23  26
ENDBRANCH  21  22
ENDBRANCH  20  21
ENDBRANCH   1  20
TORSDOF 13
ENDMDL
MODEL 3
REMARK VINA RESULT:      -8.7      2.175      7.111
REMARK SMILES O=C(C[C@@H](Br)C(=O)c1ccc2c(c1)CCC2)NCCCNC(=O)c1ccc(-c2c3nc(c(-c4ccccc4)c4ccc([nH]4)c(-c4ccccc4)c4nc(c(-c5ccccc5)c5ccc2[nH]5)C=C4)C=C3)cc1
REMARK SMILES IDX 18 1 17 2 1 3 2 4 3 6 4 7 5 8 6 9 7 10 8 11 9 12 13 13 10 14
REMARK SMILES IDX 12 15 11 16 14 17 16 18 15 19 19 20 20 21 21 22 22 23 23 25
REMARK SMILES IDX 24 26 25 27 71 28 26 29 70 30 27 31 28 32 29 33 64 34 30 35
REMARK SMILES IDX 69 36 63 37 65 38 31 39 68 40 62 41 61 42 32 44 54 45 39 46
REMARK SMILES IDX 53 47 40 48 43 49 52 50 66 51 41 52 42 53 51 55 67 56 44 57
REMARK SMILES IDX 33 58 34 59 38 60 35 61 37 62 36 63 55 64 56 65 60 66 57 67
REMARK SMILES IDX 59 68 58 69 45 70 46 71 50 72 47 73 49 74 48 75
REMARK H PARENT 17 5 21 24 65 43 43 54
REMARK Flexibility Score: inf
ROOT
ATOM      1  C   UNL A   1      34.028  34.296  30.111  1.00  0.00     0.117 C 
ENDROOT
BRANCH   1   2
ATOM      2  N   UNL A   1      34.950  33.353  30.710  1.00  0.00    -0.356 N 
ATOM      3  O   UNL A   1      33.707  32.866  32.580  1.00  0.00    -0.275 OA
ATOM      4  C   UNL A   1      34.736  32.744  31.921  1.00  0.00     0.221 C 
ATOM      5  H   UNL A   1      35.777  33.137  30.221  1.00  0.00     0.163 HD
BRANCH   4   6
ATOM      6  C   UNL A   1      35.932  31.977  32.435  1.00  0.00     0.123 C 
BRANCH   6   7
ATOM      7  C   UNL A   1      36.534  32.554  33.699  1.00  0.00     0.138 C 
ATOM      8  Br  UNL A   1      37.983  31.417  34.389  1.00  0.00    -0.080 Br
BRANCH   7   9
ATOM      9  C   UNL A   1      37.108  33.957  33.533  1.00  0.00     0.176 C 
ATOM     10  O   UNL A   1      36.510  34.953  33.938  1.00  0.00    -0.293 OA
BRANCH   9  11
ATOM     11  C   UNL A   1      38.452  34.148  32.923  1.00  0.00     0.019 A 
ATOM     12  C   UNL A   1      39.606  34.293  33.714  1.00  0.00     0.012 A 
ATOM     13  C   UNL A   1      38.533  34.197  31.525  1.00  0.00     0.015 A 
ATOM     14  C   UNL A   1      40.843  34.561  33.123  1.00  0.00     0.005 A 
ATOM     15  C   UNL A   1      39.772  34.439  30.951  1.00  0.00    -0.044 A 
ATOM     16  C   UNL A   1      40.909  34.635  31.743  1.00  0.00    -0.045 A 
ATOM     17  C   UNL A   1      40.107  34.578  29.499  1.00  0.00     0.036 C 
ATOM     18  C   UNL A   1      42.100  34.951  30.895  1.00  0.00     0.036 C 
ATOM     19  C   UNL A   1      41.635  34.427  29.530  1.00  0.00     0.010 C 
ENDBRANCH   9  11
ENDBRANCH   7   9
ENDBRANCH   6   7
ENDBRANCH   4   6
ENDBRANCH   1   2
BRANCH   1  20
ATOM     20  C   UNL A   1      34.111  34.272  28.586  1.00  0.00     0.042 C 
BRANCH  20  21
ATOM     21  C   UNL A   1      34.920  33.113  28.001  1.00  0.00     0.118 C 
BRANCH  21  22
ATOM     22  N   UNL A   1      34.112  31.946  27.690  1.00  0.00    -0.352 N 
ATOM     23  C   UNL A   1      34.449  30.617  27.657  1.00  0.00     0.251 C 
ATOM     24  H   UNL A   1      33.172  32.139  27.469  1.00  0.00     0.163 HD
ATOM     25  O   UNL A   1      33.629  29.800  27.238  1.00  0.00    -0.269 OA
BRANCH  23  26
ATOM     26  C   UNL A   1      35.783  30.146  28.094  1.00  0.00     0.039 A 
ATOM     27  C   UNL A   1      35.931  29.704  29.414  1.00  0.00     0.014 A 
ATOM     28  C   UNL A   1      36.896  30.189  27.250  1.00  0.00     0.014 A 
ATOM     29  C   UNL A   1      37.175  29.262  29.870  1.00  0.00     0.010 A 
ATOM     30  C   UNL A   1      38.124  29.689  27.688  1.00  0.00     0.010 A 
ATOM     31  C   UNL A   1      38.279  29.229  29.005  1.00  0.00    -0.014 A 
BRANCH  31  32
ATOM     32  C   UNL A   1      39.601  28.738  29.470  1.00  0.00     0.031 A 
ATOM     33  C   UNL A   1      40.142  27.422  28.977  1.00  0.00     0.074 A 
ATOM     34  C   UNL A   1      40.305  29.452  30.370  1.00  0.00     0.049 A 
ATOM     35  N   UNL A   1      41.253  26.811  29.302  1.00  0.00    -0.248 NA
ATOM     36  C   UNL A   1      39.314  26.687  28.008  1.00  0.00     0.031 C 
ATOM     37  C   UNL A   1      39.888  30.729  30.953  1.00  0.00     0.029 A 
ATOM     38  N   UNL A   1      41.522  29.201  30.954  1.00  0.00    -0.354 N 
ATOM     39  C   UNL A   1      41.248  25.615  28.595  1.00  0.00     0.074 A 
ATOM     40  C   UNL A   1      40.005  25.567  27.857  1.00  0.00     0.031 C 
ATOM     41  C   UNL A   1      40.844  31.161  31.793  1.00  0.00     0.029 A 
ATOM     42  C   UNL A   1      41.923  30.178  31.832  1.00  0.00     0.049 A 
ATOM     43  H   UNL A   1      42.057  28.397  30.762  1.00  0.00     0.167 HD
ATOM     44  C   UNL A   1      42.199  24.650  28.549  1.00  0.00     0.031 A 
ATOM     45  C   UNL A   1      43.034  30.274  32.587  1.00  0.00     0.031 A 
ATOM     46  C   UNL A   1      43.446  24.699  29.265  1.00  0.00     0.049 A 
ATOM     47  C   UNL A   1      44.073  29.191  32.518  1.00  0.00     0.074 A 
ATOM     48  C   UNL A   1      44.491  23.793  29.238  1.00  0.00     0.029 A 
ATOM     49  N   UNL A   1      43.817  25.713  30.133  1.00  0.00    -0.354 N 
ATOM     50  N   UNL A   1      44.077  28.093  31.802  1.00  0.00    -0.248 NA
ATOM     51  C   UNL A   1      45.270  29.369  33.354  1.00  0.00     0.031 C 
ATOM     52  C   UNL A   1      45.480  24.238  30.122  1.00  0.00     0.029 A 
ATOM     53  C   UNL A   1      45.069  25.446  30.661  1.00  0.00     0.049 A 
ATOM     54  H   UNL A   1      43.271  26.506  30.343  1.00  0.00     0.167 HD
ATOM     55  C   UNL A   1      45.285  27.467  32.076  1.00  0.00     0.074 A 
ATOM     56  C   UNL A   1      45.994  28.311  33.015  1.00  0.00     0.031 C 
ATOM     57  C   UNL A   1      45.766  26.296  31.591  1.00  0.00     0.031 A 
BRANCH  44  58
ATOM     58  C   UNL A   1      41.917  23.447  27.693  1.00  0.00    -0.014 A 
ATOM     59  C   UNL A   1      42.416  23.356  26.383  1.00  0.00     0.009 A 
ATOM     60  C   UNL A   1      41.171  22.379  28.212  1.00  0.00     0.009 A 
ATOM     61  C   UNL A   1      42.140  22.233  25.599  1.00  0.00     0.001 A 
ATOM     62  C   UNL A   1      40.920  21.247  27.435  1.00  0.00     0.001 A 
ATOM     63  C   UNL A   1      41.395  21.180  26.126  1.00  0.00     0.000 A 
ENDBRANCH  44  58
BRANCH  45  64
ATOM     64  C   UNL A   1      43.237  31.457  33.463  1.00  0.00    -0.014 A 
ATOM     65  C   UNL A   1      44.019  32.537  33.026  1.00  0.00     0.009 A 
ATOM     66  C   UNL A   1      42.659  31.508  34.741  1.00  0.00     0.009 A 
ATOM     67  C   UNL A   1      44.239  33.633  33.862  1.00  0.00     0.001 A 
ATOM     68  C   UNL A   1      42.860  32.617  35.564  1.00  0.00     0.001 A 
ATOM     69  C   UNL A   1      43.658  33.674  35.128  1.00  0.00     0.000 A 
ENDBRANCH  45  64
BRANCH  57  70
ATOM     70  C   UNL A   1      47.138  25.880  32.034  1.00  0.00    -0.014 A 
ATOM     71  C   UNL A   1      47.339  25.202  33.246  1.00  0.00     0.009 A 
ATOM     72  C   UNL A   1      48.242  26.141  31.207  1.00  0.00     0.009 A 
ATOM     73  C   UNL A   1      48.625  24.820  33.635  1.00  0.00     0.001 A 
ATOM     74  C   UNL A   1      49.523  25.736  31.588  1.00  0.00     0.001 A 
ATOM     75  C   UNL A   1      49.714  25.084  32.805  1.00  0.00     0.000 A 
ENDBRANCH  57  70
ENDBRANCH  31  32
ENDBRANCH  23  26
ENDBRANCH  21  22
ENDBRANCH  20  21
ENDBRANCH   1  20
TORSDOF 13
ENDMDL
