MODEL 1
REMARK VINA RESULT:     -12.3      0.000      0.000
REMARK SMILES C[C@@H](C(=O)NCCCNC(=O)c1ccc(-c2c3nc(c(-c4ccccc4)c4ccc([nH]4)c(-c4ccccc4)c4nc(c(-c5ccccc5)c5ccc2[nH]5)C=C4)C=C3)cc1)c1ccc(-c2cccc(OC(=O)NC3CC3)c2)c(F)c1
REMARK SMILES IDX 3 1 4 2 5 3 2 5 1 6 60 7 61 8 79 9 62 10 77 11 63 12 78 13
REMARK SMILES IDX 64 14 65 15 76 16 66 17 68 18 67 19 69 20 70 21 71 22 72 23
REMARK SMILES IDX 73 25 74 26 75 27 6 28 7 29 8 30 9 31 10 32 11 34 12 35
REMARK SMILES IDX 13 36 59 37 14 38 58 39 15 40 16 41 17 42 52 43 18 44 57 45
REMARK SMILES IDX 51 46 53 47 19 48 56 49 50 50 49 51 20 53 42 54 27 55 41 56
REMARK SMILES IDX 28 57 31 58 40 59 54 60 29 61 30 62 39 64 55 65 32 66 21 67
REMARK SMILES IDX 22 68 26 69 23 70 25 71 24 72 43 73 44 74 48 75 45 76 47 77
REMARK SMILES IDX 46 78 33 79 34 80 38 81 35 82 37 83 36 84
REMARK H PARENT 5 4 72 24 9 33 53 52 31 63
REMARK Flexibility Score: inf
ROOT
ATOM      1  C   UNL A   1      31.713  28.219  24.901  1.00  0.00     0.227 C 
ATOM      2  O   UNL A   1      30.717  27.499  24.828  1.00  0.00    -0.274 OA
ATOM      3  N   UNL A   1      31.617  29.279  25.752  1.00  0.00    -0.356 N 
ATOM      4  H   UNL A   1      30.778  29.323  26.263  1.00  0.00     0.163 HD
ENDROOT
BRANCH   1   5
ATOM      5  C   UNL A   1      33.022  27.961  24.135  1.00  0.00     0.105 C 
ATOM      6  C   UNL A   1      32.932  28.330  22.651  1.00  0.00     0.023 C 
BRANCH   5   7
ATOM      7  C   UNL A   1      33.499  26.517  24.230  1.00  0.00    -0.033 A 
ATOM      8  C   UNL A   1      33.691  25.756  23.068  1.00  0.00     0.005 A 
ATOM      9  C   UNL A   1      33.667  25.895  25.475  1.00  0.00     0.044 A 
ATOM     10  C   UNL A   1      34.024  24.399  23.152  1.00  0.00     0.012 A 
ATOM     11  C   UNL A   1      34.014  24.553  25.551  1.00  0.00     0.131 A 
ATOM     12  C   UNL A   1      34.172  23.772  24.399  1.00  0.00     0.018 A 
ATOM     13  F   UNL A   1      34.155  24.007  26.768  1.00  0.00    -0.206 F 
BRANCH  12  14
ATOM     14  C   UNL A   1      34.378  22.324  24.500  1.00  0.00    -0.012 A 
ATOM     15  C   UNL A   1      35.611  21.765  24.865  1.00  0.00     0.009 A 
ATOM     16  C   UNL A   1      33.308  21.463  24.204  1.00  0.00     0.056 A 
ATOM     17  C   UNL A   1      35.764  20.378  24.943  1.00  0.00     0.004 A 
ATOM     18  C   UNL A   1      33.460  20.086  24.282  1.00  0.00     0.133 A 
ATOM     19  C   UNL A   1      34.689  19.538  24.651  1.00  0.00     0.047 A 
BRANCH  18  20
ATOM     20  O   UNL A   1      32.429  19.157  24.002  1.00  0.00    -0.410 OA
BRANCH  20  21
ATOM     21  C   UNL A   1      32.484  18.123  23.071  1.00  0.00     0.412 C 
ATOM     22  O   UNL A   1      32.444  18.237  21.848  1.00  0.00    -0.224 OA
ATOM     23  N   UNL A   1      32.579  16.876  23.629  1.00  0.00    -0.318 N 
ATOM     24  H   UNL A   1      32.571  16.129  22.988  1.00  0.00     0.167 HD
BRANCH  23  25
ATOM     25  C   UNL A   1      32.688  16.497  24.996  1.00  0.00     0.085 C 
ATOM     26  C   UNL A   1      32.827  15.103  25.538  1.00  0.00     0.027 C 
ATOM     27  C   UNL A   1      34.022  16.005  25.498  1.00  0.00     0.027 C 
ENDBRANCH  23  25
ENDBRANCH  20  21
ENDBRANCH  18  20
ENDBRANCH  12  14
ENDBRANCH   5   7
ENDBRANCH   1   5
BRANCH   3  28
ATOM     28  C   UNL A   1      32.550  30.351  26.026  1.00  0.00     0.117 C 
BRANCH  28  29
ATOM     29  C   UNL A   1      33.210  30.180  27.390  1.00  0.00     0.042 C 
BRANCH  29  30
ATOM     30  C   UNL A   1      34.437  31.062  27.606  1.00  0.00     0.118 C 
BRANCH  30  31
ATOM     31  N   UNL A   1      34.432  31.715  28.904  1.00  0.00    -0.352 N 
ATOM     32  C   UNL A   1      35.304  31.620  29.955  1.00  0.00     0.251 C 
ATOM     33  H   UNL A   1      33.675  32.328  29.052  1.00  0.00     0.163 HD
ATOM     34  O   UNL A   1      34.986  32.097  31.041  1.00  0.00    -0.269 OA
BRANCH  32  35
ATOM     35  C   UNL A   1      36.611  30.942  29.808  1.00  0.00     0.039 A 
ATOM     36  C   UNL A   1      37.232  30.973  28.555  1.00  0.00     0.014 A 
ATOM     37  C   UNL A   1      37.204  30.237  30.859  1.00  0.00     0.014 A 
ATOM     38  C   UNL A   1      38.460  30.339  28.373  1.00  0.00     0.010 A 
ATOM     39  C   UNL A   1      38.472  29.677  30.699  1.00  0.00     0.010 A 
ATOM     40  C   UNL A   1      39.110  29.715  29.451  1.00  0.00    -0.014 A 
BRANCH  40  41
ATOM     41  C   UNL A   1      40.461  29.125  29.269  1.00  0.00     0.031 A 
ATOM     42  C   UNL A   1      40.633  27.700  28.821  1.00  0.00     0.074 A 
ATOM     43  C   UNL A   1      41.545  29.886  29.520  1.00  0.00     0.049 A 
ATOM     44  N   UNL A   1      41.738  27.051  28.548  1.00  0.00    -0.248 NA
ATOM     45  C   UNL A   1      39.413  26.891  28.676  1.00  0.00     0.031 C 
ATOM     46  C   UNL A   1      41.513  31.267  30.010  1.00  0.00     0.029 A 
ATOM     47  N   UNL A   1      42.882  29.614  29.382  1.00  0.00    -0.354 N 
ATOM     48  C   UNL A   1      41.348  25.763  28.203  1.00  0.00     0.074 A 
ATOM     49  C   UNL A   1      39.910  25.704  28.358  1.00  0.00     0.031 C 
ATOM     50  C   UNL A   1      42.767  31.737  30.081  1.00  0.00     0.029 A 
ATOM     51  C   UNL A   1      43.693  30.682  29.683  1.00  0.00     0.049 A 
ATOM     52  H   UNL A   1      43.228  28.738  29.095  1.00  0.00     0.167 HD
ATOM     53  C   UNL A   1      42.112  24.729  27.776  1.00  0.00     0.031 A 
ATOM     54  C   UNL A   1      45.032  30.803  29.640  1.00  0.00     0.031 A 
ATOM     55  C   UNL A   1      43.544  24.784  27.632  1.00  0.00     0.049 A 
ATOM     56  C   UNL A   1      45.857  29.636  29.176  1.00  0.00     0.074 A 
ATOM     57  C   UNL A   1      44.402  23.806  27.161  1.00  0.00     0.029 A 
ATOM     58  N   UNL A   1      44.330  25.876  27.968  1.00  0.00    -0.354 N 
ATOM     59  N   UNL A   1      45.463  28.452  28.774  1.00  0.00    -0.248 NA
ATOM     60  C   UNL A   1      47.312  29.831  29.148  1.00  0.00     0.031 C 
ATOM     61  C   UNL A   1      45.713  24.283  27.271  1.00  0.00     0.029 A 
ATOM     62  C   UNL A   1      45.667  25.584  27.743  1.00  0.00     0.049 A 
ATOM     63  H   UNL A   1      43.989  26.733  28.313  1.00  0.00     0.167 HD
ATOM     64  C   UNL A   1      46.620  27.768  28.425  1.00  0.00     0.074 A 
ATOM     65  C   UNL A   1      47.725  28.683  28.632  1.00  0.00     0.031 C 
ATOM     66  C   UNL A   1      46.758  26.497  27.974  1.00  0.00     0.031 A 
BRANCH  53  67
ATOM     67  C   UNL A   1      41.410  23.439  27.442  1.00  0.00    -0.014 A 
ATOM     68  C   UNL A   1      41.748  22.236  28.084  1.00  0.00     0.009 A 
ATOM     69  C   UNL A   1      40.367  23.432  26.502  1.00  0.00     0.009 A 
ATOM     70  C   UNL A   1      41.084  21.050  27.765  1.00  0.00     0.001 A 
ATOM     71  C   UNL A   1      39.683  22.250  26.208  1.00  0.00     0.001 A 
ATOM     72  C   UNL A   1      40.049  21.059  26.831  1.00  0.00     0.000 A 
ENDBRANCH  53  67
BRANCH  54  73
ATOM     73  C   UNL A   1      45.677  32.085  30.028  1.00  0.00    -0.014 A 
ATOM     74  C   UNL A   1      45.916  33.086  29.073  1.00  0.00     0.009 A 
ATOM     75  C   UNL A   1      46.066  32.312  31.358  1.00  0.00     0.009 A 
ATOM     76  C   UNL A   1      46.558  34.272  29.436  1.00  0.00     0.001 A 
ATOM     77  C   UNL A   1      46.676  33.513  31.724  1.00  0.00     0.001 A 
ATOM     78  C   UNL A   1      46.932  34.487  30.761  1.00  0.00     0.000 A 
ENDBRANCH  54  73
BRANCH  66  79
ATOM     79  C   UNL A   1      48.154  26.035  27.658  1.00  0.00    -0.014 A 
ATOM     80  C   UNL A   1      48.924  25.334  28.600  1.00  0.00     0.009 A 
ATOM     81  C   UNL A   1      48.707  26.301  26.396  1.00  0.00     0.009 A 
ATOM     82  C   UNL A   1      50.237  24.960  28.304  1.00  0.00     0.001 A 
ATOM     83  C   UNL A   1      50.006  25.893  26.089  1.00  0.00     0.001 A 
ATOM     84  C   UNL A   1      50.775  25.237  27.048  1.00  0.00     0.000 A 
ENDBRANCH  66  79
ENDBRANCH  40  41
ENDBRANCH  32  35
ENDBRANCH  30  31
ENDBRANCH  29  30
ENDBRANCH  28  29
ENDBRANCH   3  28
TORSDOF 15
ENDMDL
MODEL 2
REMARK VINA RESULT:     -12.3      3.336      6.972
REMARK SMILES C[C@@H](C(=O)NCCCNC(=O)c1ccc(-c2c3nc(c(-c4ccccc4)c4ccc([nH]4)c(-c4ccccc4)c4nc(c(-c5ccccc5)c5ccc2[nH]5)C=C4)C=C3)cc1)c1ccc(-c2cccc(OC(=O)NC3CC3)c2)c(F)c1
REMARK SMILES IDX 3 1 4 2 5 3 2 5 1 6 60 7 61 8 79 9 62 10 77 11 63 12 78 13
REMARK SMILES IDX 64 14 65 15 76 16 66 17 68 18 67 19 69 20 70 21 71 22 72 23
REMARK SMILES IDX 73 25 74 26 75 27 6 28 7 29 8 30 9 31 10 32 11 34 12 35
REMARK SMILES IDX 13 36 59 37 14 38 58 39 15 40 16 41 17 42 52 43 18 44 57 45
REMARK SMILES IDX 51 46 53 47 19 48 56 49 50 50 49 51 20 53 42 54 27 55 41 56
REMARK SMILES IDX 28 57 31 58 40 59 54 60 29 61 30 62 39 64 55 65 32 66 21 67
REMARK SMILES IDX 22 68 26 69 23 70 25 71 24 72 43 73 44 74 48 75 45 76 47 77
REMARK SMILES IDX 46 78 33 79 34 80 38 81 35 82 37 83 36 84
REMARK H PARENT 5 4 72 24 9 33 53 52 31 63
REMARK Flexibility Score: inf
ROOT
ATOM      1  C   UNL A   1      31.638  28.839  24.325  1.00  0.00     0.227 C 
ATOM      2  O   UNL A   1      30.823  28.505  23.464  1.00  0.00    -0.274 OA
ATOM      3  N   UNL A   1      31.137  29.563  25.366  1.00  0.00    -0.356 N 
ATOM      4  H   UNL A   1      30.163  29.692  25.346  1.00  0.00     0.163 HD
ENDROOT
BRANCH   1   5
ATOM      5  C   UNL A   1      33.128  28.456  24.298  1.00  0.00     0.105 C 
ATOM      6  C   UNL A   1      33.847  28.930  23.031  1.00  0.00     0.023 C 
BRANCH   5   7
ATOM      7  C   UNL A   1      33.365  26.957  24.439  1.00  0.00    -0.033 A 
ATOM      8  C   UNL A   1      33.576  26.389  25.703  1.00  0.00     0.005 A 
ATOM      9  C   UNL A   1      33.466  26.135  23.309  1.00  0.00     0.044 A 
ATOM     10  C   UNL A   1      33.901  25.034  25.830  1.00  0.00     0.012 A 
ATOM     11  C   UNL A   1      33.772  24.788  23.443  1.00  0.00     0.131 A 
ATOM     12  C   UNL A   1      34.022  24.215  24.697  1.00  0.00     0.018 A 
ATOM     13  F   UNL A   1      33.863  24.048  22.327  1.00  0.00    -0.206 F 
BRANCH  12  14
ATOM     14  C   UNL A   1      34.501  22.834  24.806  1.00  0.00    -0.012 A 
ATOM     15  C   UNL A   1      35.865  22.512  24.817  1.00  0.00     0.009 A 
ATOM     16  C   UNL A   1      33.560  21.793  24.886  1.00  0.00     0.056 A 
ATOM     17  C   UNL A   1      36.277  21.180  24.917  1.00  0.00     0.004 A 
ATOM     18  C   UNL A   1      33.970  20.471  24.986  1.00  0.00     0.133 A 
ATOM     19  C   UNL A   1      35.330  20.159  25.001  1.00  0.00     0.047 A 
BRANCH  18  20
ATOM     20  O   UNL A   1      33.083  19.371  25.073  1.00  0.00    -0.410 OA
BRANCH  20  21
ATOM     21  C   UNL A   1      32.528  18.675  24.002  1.00  0.00     0.412 C 
ATOM     22  O   UNL A   1      32.166  19.151  22.929  1.00  0.00    -0.224 OA
ATOM     23  N   UNL A   1      32.383  17.332  24.226  1.00  0.00    -0.318 N 
ATOM     24  H   UNL A   1      31.948  16.830  23.499  1.00  0.00     0.167 HD
BRANCH  23  25
ATOM     25  C   UNL A   1      32.765  16.551  25.353  1.00  0.00     0.085 C 
ATOM     26  C   UNL A   1      32.832  15.053  25.432  1.00  0.00     0.027 C 
ATOM     27  C   UNL A   1      34.097  15.845  25.316  1.00  0.00     0.027 C 
ENDBRANCH  23  25
ENDBRANCH  20  21
ENDBRANCH  18  20
ENDBRANCH  12  14
ENDBRANCH   5   7
ENDBRANCH   1   5
BRANCH   3  28
ATOM     28  C   UNL A   1      31.807  30.172  26.494  1.00  0.00     0.117 C 
BRANCH  28  29
ATOM     29  C   UNL A   1      31.401  31.633  26.660  1.00  0.00     0.042 C 
BRANCH  29  30
ATOM     30  C   UNL A   1      32.551  32.624  26.501  1.00  0.00     0.118 C 
BRANCH  30  31
ATOM     31  N   UNL A   1      32.358  33.831  27.286  1.00  0.00    -0.352 N 
ATOM     32  C   UNL A   1      33.003  34.280  28.408  1.00  0.00     0.251 C 
ATOM     33  H   UNL A   1      31.646  34.426  26.956  1.00  0.00     0.163 HD
ATOM     34  O   UNL A   1      32.528  35.225  29.032  1.00  0.00    -0.269 OA
BRANCH  32  35
ATOM     35  C   UNL A   1      34.248  33.638  28.885  1.00  0.00     0.039 A 
ATOM     36  C   UNL A   1      35.454  34.014  28.286  1.00  0.00     0.014 A 
ATOM     37  C   UNL A   1      34.240  32.641  29.865  1.00  0.00     0.014 A 
ATOM     38  C   UNL A   1      36.648  33.426  28.702  1.00  0.00     0.010 A 
ATOM     39  C   UNL A   1      35.443  32.116  30.339  1.00  0.00     0.010 A 
ATOM     40  C   UNL A   1      36.659  32.497  29.756  1.00  0.00    -0.014 A 
BRANCH  40  41
ATOM     41  C   UNL A   1      37.947  31.948  30.254  1.00  0.00     0.031 A 
ATOM     42  C   UNL A   1      38.670  32.585  31.407  1.00  0.00     0.074 A 
ATOM     43  C   UNL A   1      38.471  30.863  29.649  1.00  0.00     0.049 A 
ATOM     44  N   UNL A   1      39.766  32.194  32.009  1.00  0.00    -0.248 NA
ATOM     45  C   UNL A   1      38.104  33.831  31.947  1.00  0.00     0.031 C 
ATOM     46  C   UNL A   1      37.893  30.182  28.486  1.00  0.00     0.029 A 
ATOM     47  N   UNL A   1      39.595  30.132  29.937  1.00  0.00    -0.354 N 
ATOM     48  C   UNL A   1      40.020  33.142  32.992  1.00  0.00     0.074 A 
ATOM     49  C   UNL A   1      38.999  34.160  32.868  1.00  0.00     0.031 C 
ATOM     50  C   UNL A   1      38.638  29.105  28.194  1.00  0.00     0.029 A 
ATOM     51  C   UNL A   1      39.765  29.042  29.118  1.00  0.00     0.049 A 
ATOM     52  H   UNL A   1      40.221  30.367  30.659  1.00  0.00     0.167 HD
ATOM     53  C   UNL A   1      41.002  33.157  33.926  1.00  0.00     0.031 A 
ATOM     54  C   UNL A   1      40.718  28.092  29.112  1.00  0.00     0.031 A 
ATOM     55  C   UNL A   1      42.025  32.149  34.042  1.00  0.00     0.049 A 
ATOM     56  C   UNL A   1      41.803  28.139  30.150  1.00  0.00     0.074 A 
ATOM     57  C   UNL A   1      43.034  32.049  34.984  1.00  0.00     0.029 A 
ATOM     58  N   UNL A   1      42.175  31.073  33.181  1.00  0.00    -0.354 N 
ATOM     59  N   UNL A   1      41.980  28.999  31.124  1.00  0.00    -0.248 NA
ATOM     60  C   UNL A   1      42.812  27.073  30.094  1.00  0.00     0.031 C 
ATOM     61  C   UNL A   1      43.832  30.948  34.656  1.00  0.00     0.029 A 
ATOM     62  C   UNL A   1      43.279  30.321  33.552  1.00  0.00     0.049 A 
ATOM     63  H   UNL A   1      41.585  30.872  32.419  1.00  0.00     0.167 HD
ATOM     64  C   UNL A   1      43.107  28.566  31.810  1.00  0.00     0.074 A 
ATOM     65  C   UNL A   1      43.550  27.350  31.159  1.00  0.00     0.031 C 
ATOM     66  C   UNL A   1      43.722  29.124  32.882  1.00  0.00     0.031 A 
BRANCH  53  67
ATOM     67  C   UNL A   1      41.021  34.309  34.894  1.00  0.00    -0.014 A 
ATOM     68  C   UNL A   1      40.313  34.255  36.107  1.00  0.00     0.009 A 
ATOM     69  C   UNL A   1      41.790  35.449  34.612  1.00  0.00     0.009 A 
ATOM     70  C   UNL A   1      40.345  35.332  36.996  1.00  0.00     0.001 A 
ATOM     71  C   UNL A   1      41.845  36.512  35.517  1.00  0.00     0.001 A 
ATOM     72  C   UNL A   1      41.115  36.457  36.702  1.00  0.00     0.000 A 
ENDBRANCH  53  67
BRANCH  54  73
ATOM     73  C   UNL A   1      40.678  27.003  28.101  1.00  0.00    -0.014 A 
ATOM     74  C   UNL A   1      41.297  27.162  26.850  1.00  0.00     0.009 A 
ATOM     75  C   UNL A   1      40.013  25.798  28.378  1.00  0.00     0.009 A 
ATOM     76  C   UNL A   1      41.221  26.152  25.890  1.00  0.00     0.001 A 
ATOM     77  C   UNL A   1      39.969  24.776  27.428  1.00  0.00     0.001 A 
ATOM     78  C   UNL A   1      40.563  24.958  26.180  1.00  0.00     0.000 A 
ENDBRANCH  54  73
BRANCH  66  79
ATOM     79  C   UNL A   1      44.929  28.407  33.423  1.00  0.00    -0.014 A 
ATOM     80  C   UNL A   1      44.807  27.387  34.379  1.00  0.00     0.009 A 
ATOM     81  C   UNL A   1      46.210  28.757  32.964  1.00  0.00     0.009 A 
ATOM     82  C   UNL A   1      45.945  26.771  34.905  1.00  0.00     0.001 A 
ATOM     83  C   UNL A   1      47.342  28.113  33.464  1.00  0.00     0.001 A 
ATOM     84  C   UNL A   1      47.210  27.132  34.445  1.00  0.00     0.000 A 
ENDBRANCH  66  79
ENDBRANCH  40  41
ENDBRANCH  32  35
ENDBRANCH  30  31
ENDBRANCH  29  30
ENDBRANCH  28  29
ENDBRANCH   3  28
TORSDOF 15
ENDMDL
MODEL 3
REMARK VINA RESULT:     -12.2      4.086      8.276
REMARK SMILES C[C@@H](C(=O)NCCCNC(=O)c1ccc(-c2c3nc(c(-c4ccccc4)c4ccc([nH]4)c(-c4ccccc4)c4nc(c(-c5ccccc5)c5ccc2[nH]5)C=C4)C=C3)cc1)c1ccc(-c2cccc(OC(=O)NC3CC3)c2)c(F)c1
REMARK SMILES IDX 3 1 4 2 5 3 2 5 1 6 60 7 61 8 79 9 62 10 77 11 63 12 78 13
REMARK SMILES IDX 64 14 65 15 76 16 66 17 68 18 67 19 69 20 70 21 71 22 72 23
REMARK SMILES IDX 73 25 74 26 75 27 6 28 7 29 8 30 9 31 10 32 11 34 12 35
REMARK SMILES IDX 13 36 59 37 14 38 58 39 15 40 16 41 17 42 52 43 18 44 57 45
REMARK SMILES IDX 51 46 53 47 19 48 56 49 50 50 49 51 20 53 42 54 27 55 41 56
REMARK SMILES IDX 28 57 31 58 40 59 54 60 29 61 30 62 39 64 55 65 32 66 21 67
REMARK SMILES IDX 22 68 26 69 23 70 25 71 24 72 43 73 44 74 48 75 45 76 47 77
REMARK SMILES IDX 46 78 33 79 34 80 38 81 35 82 37 83 36 84
REMARK H PARENT 5 4 72 24 9 33 53 52 31 63
REMARK Flexibility Score: inf
ROOT
ATOM      1  C   UNL A   1      35.161  33.083  28.247  1.00  0.00     0.227 C 
ATOM      2  O   UNL A   1      35.800  33.444  27.258  1.00  0.00    -0.274 OA
ATOM      3  N   UNL A   1      34.585  34.080  28.976  1.00  0.00    -0.356 N 
ATOM      4  H   UNL A   1      34.694  34.982  28.599  1.00  0.00     0.163 HD
ENDROOT
BRANCH   1   5
ATOM      5  C   UNL A   1      34.958  31.613  28.654  1.00  0.00     0.105 C 
ATOM      6  C   UNL A   1      36.276  30.851  28.824  1.00  0.00     0.023 C 
BRANCH   5   7
ATOM      7  C   UNL A   1      34.088  30.833  27.677  1.00  0.00    -0.033 A 
ATOM      8  C   UNL A   1      32.828  31.323  27.304  1.00  0.00     0.005 A 
ATOM      9  C   UNL A   1      34.486  29.576  27.203  1.00  0.00     0.044 A 
ATOM     10  C   UNL A   1      31.979  30.561  26.493  1.00  0.00     0.012 A 
ATOM     11  C   UNL A   1      33.646  28.833  26.385  1.00  0.00     0.131 A 
ATOM     12  C   UNL A   1      32.370  29.293  26.036  1.00  0.00     0.018 A 
ATOM     13  F   UNL A   1      34.075  27.633  25.966  1.00  0.00    -0.206 F 
BRANCH  12  14
ATOM     14  C   UNL A   1      31.437  28.429  25.308  1.00  0.00    -0.012 A 
ATOM     15  C   UNL A   1      31.319  27.058  25.575  1.00  0.00     0.009 A 
ATOM     16  C   UNL A   1      30.642  28.989  24.292  1.00  0.00     0.056 A 
ATOM     17  C   UNL A   1      30.420  26.270  24.852  1.00  0.00     0.004 A 
ATOM     18  C   UNL A   1      29.750  28.206  23.575  1.00  0.00     0.133 A 
ATOM     19  C   UNL A   1      29.635  26.843  23.851  1.00  0.00     0.047 A 
BRANCH  18  20
ATOM     20  O   UNL A   1      28.916  28.698  22.542  1.00  0.00    -0.410 OA
BRANCH  20  21
ATOM     21  C   UNL A   1      27.614  29.168  22.688  1.00  0.00     0.412 C 
ATOM     22  O   UNL A   1      26.698  28.610  23.289  1.00  0.00    -0.224 OA
ATOM     23  N   UNL A   1      27.381  30.369  22.072  1.00  0.00    -0.318 N 
ATOM     24  H   UNL A   1      26.454  30.694  22.125  1.00  0.00     0.167 HD
BRANCH  23  25
ATOM     25  C   UNL A   1      28.280  31.218  21.367  1.00  0.00     0.085 C 
ATOM     26  C   UNL A   1      27.960  32.539  20.729  1.00  0.00     0.027 C 
ATOM     27  C   UNL A   1      28.712  32.505  22.022  1.00  0.00     0.027 C 
ENDBRANCH  23  25
ENDBRANCH  20  21
ENDBRANCH  18  20
ENDBRANCH  12  14
ENDBRANCH   5   7
ENDBRANCH   1   5
BRANCH   3  28
ATOM     28  C   UNL A   1      33.839  34.027  30.214  1.00  0.00     0.117 C 
BRANCH  28  29
ATOM     29  C   UNL A   1      34.767  34.063  31.425  1.00  0.00     0.042 C 
BRANCH  29  30
ATOM     30  C   UNL A   1      34.798  32.765  32.228  1.00  0.00     0.118 C 
BRANCH  30  31
ATOM     31  N   UNL A   1      35.438  32.926  33.521  1.00  0.00    -0.352 N 
ATOM     32  C   UNL A   1      36.662  32.508  33.970  1.00  0.00     0.251 C 
ATOM     33  H   UNL A   1      34.903  33.418  34.186  1.00  0.00     0.163 HD
ATOM     34  O   UNL A   1      36.910  32.564  35.172  1.00  0.00    -0.269 OA
BRANCH  32  35
ATOM     35  C   UNL A   1      37.681  31.978  33.037  1.00  0.00     0.039 A 
ATOM     36  C   UNL A   1      37.835  32.612  31.801  1.00  0.00     0.014 A 
ATOM     37  C   UNL A   1      38.442  30.844  33.334  1.00  0.00     0.014 A 
ATOM     38  C   UNL A   1      38.778  32.138  30.889  1.00  0.00     0.010 A 
ATOM     39  C   UNL A   1      39.443  30.423  32.459  1.00  0.00     0.010 A 
ATOM     40  C   UNL A   1      39.616  31.061  31.223  1.00  0.00    -0.014 A 
BRANCH  40  41
ATOM     41  C   UNL A   1      40.681  30.624  30.284  1.00  0.00     0.031 A 
ATOM     42  C   UNL A   1      41.873  31.495  30.001  1.00  0.00     0.074 A 
ATOM     43  C   UNL A   1      40.562  29.427  29.674  1.00  0.00     0.049 A 
ATOM     44  N   UNL A   1      42.924  31.236  29.261  1.00  0.00    -0.248 NA
ATOM     45  C   UNL A   1      41.884  32.834  30.608  1.00  0.00     0.031 C 
ATOM     46  C   UNL A   1      39.429  28.511  29.824  1.00  0.00     0.029 A 
ATOM     47  N   UNL A   1      41.411  28.769  28.821  1.00  0.00    -0.354 N 
ATOM     48  C   UNL A   1      43.715  32.377  29.314  1.00  0.00     0.074 A 
ATOM     49  C   UNL A   1      42.997  33.351  30.107  1.00  0.00     0.031 C 
ATOM     50  C   UNL A   1      39.676  27.389  29.131  1.00  0.00     0.029 A 
ATOM     51  C   UNL A   1      40.962  27.522  28.456  1.00  0.00     0.049 A 
ATOM     52  H   UNL A   1      42.259  29.152  28.501  1.00  0.00     0.167 HD
ATOM     53  C   UNL A   1      44.938  32.589  28.769  1.00  0.00     0.031 A 
ATOM     54  C   UNL A   1      41.524  26.586  27.669  1.00  0.00     0.031 A 
ATOM     55  C   UNL A   1      45.648  31.623  27.969  1.00  0.00     0.049 A 
ATOM     56  C   UNL A   1      42.874  26.853  27.065  1.00  0.00     0.074 A 
ATOM     57  C   UNL A   1      46.911  31.726  27.414  1.00  0.00     0.029 A 
ATOM     58  N   UNL A   1      45.150  30.382  27.604  1.00  0.00    -0.354 N 
ATOM     59  N   UNL A   1      43.645  27.906  27.194  1.00  0.00    -0.248 NA
ATOM     60  C   UNL A   1      43.435  25.792  26.219  1.00  0.00     0.031 C 
ATOM     61  C   UNL A   1      47.152  30.572  26.659  1.00  0.00     0.029 A 
ATOM     62  C   UNL A   1      46.069  29.721  26.804  1.00  0.00     0.049 A 
ATOM     63  H   UNL A   1      44.274  30.022  27.874  1.00  0.00     0.167 HD
ATOM     64  C   UNL A   1      44.791  27.625  26.462  1.00  0.00     0.074 A 
ATOM     65  C   UNL A   1      44.626  26.291  25.922  1.00  0.00     0.031 C 
ATOM     66  C   UNL A   1      45.883  28.401  26.255  1.00  0.00     0.031 A 
BRANCH  53  67
ATOM     67  C   UNL A   1      45.583  33.928  29.012  1.00  0.00    -0.014 A 
ATOM     68  C   UNL A   1      46.437  34.138  30.108  1.00  0.00     0.009 A 
ATOM     69  C   UNL A   1      45.368  34.983  28.112  1.00  0.00     0.009 A 
ATOM     70  C   UNL A   1      47.030  35.385  30.317  1.00  0.00     0.001 A 
ATOM     71  C   UNL A   1      45.988  36.220  28.306  1.00  0.00     0.001 A 
ATOM     72  C   UNL A   1      46.809  36.423  29.413  1.00  0.00     0.000 A 
ENDBRANCH  53  67
BRANCH  54  73
ATOM     73  C   UNL A   1      40.819  25.300  27.422  1.00  0.00    -0.014 A 
ATOM     74  C   UNL A   1      39.740  25.234  26.526  1.00  0.00     0.009 A 
ATOM     75  C   UNL A   1      41.218  24.131  28.088  1.00  0.00     0.009 A 
ATOM     76  C   UNL A   1      39.057  24.033  26.329  1.00  0.00     0.001 A 
ATOM     77  C   UNL A   1      40.555  22.924  27.862  1.00  0.00     0.001 A 
ATOM     78  C   UNL A   1      39.467  22.878  26.992  1.00  0.00     0.000 A 
ENDBRANCH  54  73
BRANCH  66  79
ATOM     79  C   UNL A   1      46.988  27.812  25.422  1.00  0.00    -0.014 A 
ATOM     80  C   UNL A   1      46.996  27.935  24.023  1.00  0.00     0.009 A 
ATOM     81  C   UNL A   1      48.041  27.125  26.047  1.00  0.00     0.009 A 
ATOM     82  C   UNL A   1      48.005  27.335  23.266  1.00  0.00     0.001 A 
ATOM     83  C   UNL A   1      49.068  26.560  25.290  1.00  0.00     0.001 A 
ATOM     84  C   UNL A   1      49.041  26.651  23.900  1.00  0.00     0.000 A 
ENDBRANCH  66  79
ENDBRANCH  40  41
ENDBRANCH  32  35
ENDBRANCH  30  31
ENDBRANCH  29  30
ENDBRANCH  28  29
ENDBRANCH   3  28
TORSDOF 15
ENDMDL
