MODEL 1
REMARK VINA RESULT:     -11.4      0.000      0.000
REMARK SMILES O=C(NCCCNC(=O)C1(Cc2ccncc2)Cc2ccccc2C1)c1ccc(-c2c3nc(c(-c4ccccc4)c4ccc([nH]4)c(-c4ccccc4)c4nc(c(-c5ccccc5)c5ccc2[nH]5)C=C4)C=C3)cc1
REMARK SMILES IDX 5 1 4 2 3 3 1 4 2 5 26 7 27 8 73 9 28 10 72 11 29 12 30 13
REMARK SMILES IDX 31 14 66 15 32 16 71 17 65 18 67 19 33 20 70 21 64 22 63 23
REMARK SMILES IDX 34 25 56 26 41 27 55 28 42 29 45 30 54 31 68 32 43 33 44 34
REMARK SMILES IDX 53 36 69 37 46 38 35 39 36 40 40 41 37 42 39 43 38 44 57 45
REMARK SMILES IDX 58 46 62 47 59 48 61 49 60 50 47 51 48 52 52 53 49 54 51 55
REMARK SMILES IDX 50 56 6 57 7 58 8 59 9 61 10 62 18 63 25 64 19 65 24 66
REMARK SMILES IDX 20 67 23 68 21 69 22 70 11 71 12 72 13 73 17 74 14 75 16 76
REMARK SMILES IDX 15 77
REMARK H PARENT 3 6 67 24 45 35 7 60
REMARK Flexibility Score: inf
ROOT
ATOM      1  C   UNL A   1      35.266  22.960  26.302  1.00  0.00     0.042 C 
ENDROOT
BRANCH   1   2
ATOM      2  C   UNL A   1      36.598  23.483  25.787  1.00  0.00     0.118 C 
BRANCH   2   3
ATOM      3  N   UNL A   1      37.672  22.528  26.027  1.00  0.00    -0.352 N 
ATOM      4  O   UNL A   1      39.806  21.869  26.315  1.00  0.00    -0.269 OA
ATOM      5  C   UNL A   1      38.971  22.761  26.402  1.00  0.00     0.251 C 
ATOM      6  H   UNL A   1      37.432  21.582  25.901  1.00  0.00     0.163 HD
BRANCH   5   7
ATOM      7  C   UNL A   1      39.356  24.092  26.912  1.00  0.00     0.039 A 
ATOM      8  C   UNL A   1      39.069  24.450  28.231  1.00  0.00     0.014 A 
ATOM      9  C   UNL A   1      40.038  24.979  26.074  1.00  0.00     0.014 A 
ATOM     10  C   UNL A   1      39.338  25.737  28.669  1.00  0.00     0.010 A 
ATOM     11  C   UNL A   1      40.406  26.238  26.552  1.00  0.00     0.010 A 
ATOM     12  C   UNL A   1      40.042  26.633  27.849  1.00  0.00    -0.014 A 
BRANCH  12  13
ATOM     13  C   UNL A   1      40.461  27.936  28.418  1.00  0.00     0.031 A 
ATOM     14  C   UNL A   1      39.480  29.054  28.617  1.00  0.00     0.074 A 
ATOM     15  C   UNL A   1      41.746  28.078  28.798  1.00  0.00     0.049 A 
ATOM     16  N   UNL A   1      39.682  30.237  29.143  1.00  0.00    -0.248 NA
ATOM     17  C   UNL A   1      38.098  28.823  28.169  1.00  0.00     0.031 C 
ATOM     18  C   UNL A   1      42.789  27.057  28.644  1.00  0.00     0.029 A 
ATOM     19  N   UNL A   1      42.391  29.115  29.416  1.00  0.00    -0.354 N 
ATOM     20  C   UNL A   1      38.459  30.892  29.082  1.00  0.00     0.074 A 
ATOM     21  C   UNL A   1      37.529  29.991  28.437  1.00  0.00     0.031 C 
ATOM     22  C   UNL A   1      43.922  27.495  29.206  1.00  0.00     0.029 A 
ATOM     23  C   UNL A   1      43.713  28.853  29.689  1.00  0.00     0.049 A 
ATOM     24  H   UNL A   1      41.952  29.967  29.643  1.00  0.00     0.167 HD
ATOM     25  C   UNL A   1      38.142  32.129  29.536  1.00  0.00     0.031 A 
ATOM     26  C   UNL A   1      44.660  29.627  30.247  1.00  0.00     0.031 A 
ATOM     27  C   UNL A   1      39.080  33.026  30.162  1.00  0.00     0.049 A 
ATOM     28  C   UNL A   1      44.289  31.011  30.689  1.00  0.00     0.074 A 
ATOM     29  C   UNL A   1      38.859  34.301  30.654  1.00  0.00     0.029 A 
ATOM     30  N   UNL A   1      40.421  32.743  30.378  1.00  0.00    -0.354 N 
ATOM     31  N   UNL A   1      43.121  31.606  30.648  1.00  0.00    -0.248 NA
ATOM     32  C   UNL A   1      45.366  31.830  31.257  1.00  0.00     0.031 C 
ATOM     33  C   UNL A   1      40.076  34.807  31.120  1.00  0.00     0.029 A 
ATOM     34  C   UNL A   1      41.043  33.824  30.978  1.00  0.00     0.049 A 
ATOM     35  H   UNL A   1      40.864  31.896  30.140  1.00  0.00     0.167 HD
ATOM     36  C   UNL A   1      43.318  32.862  31.201  1.00  0.00     0.074 A 
ATOM     37  C   UNL A   1      44.711  32.929  31.599  1.00  0.00     0.031 C 
ATOM     38  C   UNL A   1      42.430  33.873  31.363  1.00  0.00     0.031 A 
BRANCH  25  39
ATOM     39  C   UNL A   1      36.723  32.595  29.353  1.00  0.00    -0.014 A 
ATOM     40  C   UNL A   1      35.773  32.455  30.378  1.00  0.00     0.009 A 
ATOM     41  C   UNL A   1      36.340  33.226  28.159  1.00  0.00     0.009 A 
ATOM     42  C   UNL A   1      34.465  32.912  30.200  1.00  0.00     0.001 A 
ATOM     43  C   UNL A   1      35.040  33.708  27.994  1.00  0.00     0.001 A 
ATOM     44  C   UNL A   1      34.101  33.542  29.011  1.00  0.00     0.000 A 
ENDBRANCH  25  39
BRANCH  26  45
ATOM     45  C   UNL A   1      46.051  29.121  30.386  1.00  0.00    -0.014 A 
ATOM     46  C   UNL A   1      46.992  29.305  29.363  1.00  0.00     0.009 A 
ATOM     47  C   UNL A   1      46.440  28.434  31.549  1.00  0.00     0.009 A 
ATOM     48  C   UNL A   1      48.281  28.783  29.486  1.00  0.00     0.001 A 
ATOM     49  C   UNL A   1      47.740  27.947  31.685  1.00  0.00     0.001 A 
ATOM     50  C   UNL A   1      48.655  28.109  30.648  1.00  0.00     0.000 A 
ENDBRANCH  26  45
BRANCH  38  51
ATOM     51  C   UNL A   1      42.938  35.119  32.031  1.00  0.00    -0.014 A 
ATOM     52  C   UNL A   1      42.775  35.329  33.410  1.00  0.00     0.009 A 
ATOM     53  C   UNL A   1      43.600  36.093  31.268  1.00  0.00     0.009 A 
ATOM     54  C   UNL A   1      43.223  36.512  34.001  1.00  0.00     0.001 A 
ATOM     55  C   UNL A   1      44.078  37.259  31.868  1.00  0.00     0.001 A 
ATOM     56  C   UNL A   1      43.878  37.473  33.231  1.00  0.00     0.000 A 
ENDBRANCH  38  51
ENDBRANCH  12  13
ENDBRANCH   5   7
ENDBRANCH   2   3
ENDBRANCH   1   2
BRANCH   1  57
ATOM     57  C   UNL A   1      34.145  23.167  25.288  1.00  0.00     0.117 C 
BRANCH  57  58
ATOM     58  N   UNL A   1      32.886  23.367  25.981  1.00  0.00    -0.356 N 
ATOM     59  C   UNL A   1      32.234  24.485  26.382  1.00  0.00     0.227 C 
ATOM     60  H   UNL A   1      32.417  22.531  26.202  1.00  0.00     0.163 HD
ATOM     61  O   UNL A   1      31.255  24.286  27.113  1.00  0.00    -0.274 OA
BRANCH  59  62
ATOM     62  C   UNL A   1      32.543  25.904  25.884  1.00  0.00     0.061 C 
ATOM     63  C   UNL A   1      31.542  26.851  26.644  1.00  0.00     0.053 C 
ATOM     64  C   UNL A   1      33.929  26.512  26.200  1.00  0.00     0.053 C 
ATOM     65  C   UNL A   1      32.296  28.140  26.756  1.00  0.00    -0.044 A 
ATOM     66  C   UNL A   1      33.645  27.952  26.469  1.00  0.00    -0.044 A 
ATOM     67  C   UNL A   1      31.828  29.377  27.165  1.00  0.00     0.004 A 
ATOM     68  C   UNL A   1      34.559  28.987  26.565  1.00  0.00     0.004 A 
ATOM     69  C   UNL A   1      32.739  30.432  27.265  1.00  0.00     0.000 A 
ATOM     70  C   UNL A   1      34.096  30.240  26.962  1.00  0.00     0.000 A 
BRANCH  62  71
ATOM     71  C   UNL A   1      32.211  25.946  24.358  1.00  0.00     0.053 C 
BRANCH  71  72
ATOM     72  C   UNL A   1      30.921  26.634  23.964  1.00  0.00    -0.044 A 
ATOM     73  C   UNL A   1      30.918  27.910  23.393  1.00  0.00     0.024 A 
ATOM     74  C   UNL A   1      29.691  25.993  24.141  1.00  0.00     0.024 A 
ATOM     75  C   UNL A   1      29.704  28.505  23.081  1.00  0.00     0.111 A 
ATOM     76  C   UNL A   1      28.530  26.662  23.780  1.00  0.00     0.111 A 
ATOM     77  N   UNL A   1      28.509  27.911  23.271  1.00  0.00    -0.265 NA
ENDBRANCH  71  72
ENDBRANCH  62  71
ENDBRANCH  59  62
ENDBRANCH  57  58
ENDBRANCH   1  57
TORSDOF 12
ENDMDL
MODEL 2
REMARK VINA RESULT:     -11.3      0.397      6.029
REMARK SMILES O=C(NCCCNC(=O)C1(Cc2ccncc2)Cc2ccccc2C1)c1ccc(-c2c3nc(c(-c4ccccc4)c4ccc([nH]4)c(-c4ccccc4)c4nc(c(-c5ccccc5)c5ccc2[nH]5)C=C4)C=C3)cc1
REMARK SMILES IDX 5 1 4 2 3 3 1 4 2 5 26 7 27 8 73 9 28 10 72 11 29 12 30 13
REMARK SMILES IDX 31 14 66 15 32 16 71 17 65 18 67 19 33 20 70 21 64 22 63 23
REMARK SMILES IDX 34 25 56 26 41 27 55 28 42 29 45 30 54 31 68 32 43 33 44 34
REMARK SMILES IDX 53 36 69 37 46 38 35 39 36 40 40 41 37 42 39 43 38 44 57 45
REMARK SMILES IDX 58 46 62 47 59 48 61 49 60 50 47 51 48 52 52 53 49 54 51 55
REMARK SMILES IDX 50 56 6 57 7 58 8 59 9 61 10 62 18 63 25 64 19 65 24 66
REMARK SMILES IDX 20 67 23 68 21 69 22 70 11 71 12 72 13 73 17 74 14 75 16 76
REMARK SMILES IDX 15 77
REMARK H PARENT 3 6 67 24 45 35 7 60
REMARK Flexibility Score: inf
ROOT
ATOM      1  C   UNL A   1      35.265  23.131  26.158  1.00  0.00     0.042 C 
ENDROOT
BRANCH   1   2
ATOM      2  C   UNL A   1      36.594  23.639  25.618  1.00  0.00     0.118 C 
BRANCH   2   3
ATOM      3  N   UNL A   1      37.651  22.653  25.798  1.00  0.00    -0.352 N 
ATOM      4  O   UNL A   1      39.770  21.945  26.084  1.00  0.00    -0.269 OA
ATOM      5  C   UNL A   1      38.941  22.835  26.230  1.00  0.00     0.251 C 
ATOM      6  H   UNL A   1      37.407  21.726  25.577  1.00  0.00     0.163 HD
BRANCH   5   7
ATOM      7  C   UNL A   1      39.323  24.108  26.873  1.00  0.00     0.039 A 
ATOM      8  C   UNL A   1      39.011  24.340  28.215  1.00  0.00     0.014 A 
ATOM      9  C   UNL A   1      40.026  25.067  26.138  1.00  0.00     0.014 A 
ATOM     10  C   UNL A   1      39.278  25.577  28.780  1.00  0.00     0.010 A 
ATOM     11  C   UNL A   1      40.390  26.271  26.742  1.00  0.00     0.010 A 
ATOM     12  C   UNL A   1      40.003  26.542  28.063  1.00  0.00    -0.014 A 
BRANCH  12  13
ATOM     13  C   UNL A   1      40.417  27.782  28.763  1.00  0.00     0.031 A 
ATOM     14  C   UNL A   1      41.810  27.951  29.296  1.00  0.00     0.074 A 
ATOM     15  C   UNL A   1      39.518  28.779  28.871  1.00  0.00     0.049 A 
ATOM     16  N   UNL A   1      42.337  28.990  29.894  1.00  0.00    -0.248 NA
ATOM     17  C   UNL A   1      42.730  26.813  29.146  1.00  0.00     0.031 C 
ATOM     18  C   UNL A   1      38.131  28.720  28.394  1.00  0.00     0.029 A 
ATOM     19  N   UNL A   1      39.635  30.043  29.384  1.00  0.00    -0.354 N 
ATOM     20  C   UNL A   1      43.644  28.631  30.197  1.00  0.00     0.074 A 
ATOM     21  C   UNL A   1      43.820  27.266  29.751  1.00  0.00     0.031 C 
ATOM     22  C   UNL A   1      37.548  29.910  28.583  1.00  0.00     0.029 A 
ATOM     23  C   UNL A   1      38.488  30.791  29.261  1.00  0.00     0.049 A 
ATOM     24  H   UNL A   1      40.459  30.384  29.800  1.00  0.00     0.167 HD
ATOM     25  C   UNL A   1      44.610  29.379  30.783  1.00  0.00     0.031 A 
ATOM     26  C   UNL A   1      38.214  32.043  29.670  1.00  0.00     0.031 A 
ATOM     27  C   UNL A   1      44.420  30.732  31.239  1.00  0.00     0.049 A 
ATOM     28  C   UNL A   1      39.289  32.824  30.364  1.00  0.00     0.074 A 
ATOM     29  C   UNL A   1      45.334  31.575  31.848  1.00  0.00     0.029 A 
ATOM     30  N   UNL A   1      43.231  31.440  31.140  1.00  0.00    -0.354 N 
ATOM     31  N   UNL A   1      40.527  32.478  30.620  1.00  0.00    -0.248 NA
ATOM     32  C   UNL A   1      38.929  34.171  30.825  1.00  0.00     0.031 C 
ATOM     33  C   UNL A   1      44.683  32.772  32.163  1.00  0.00     0.029 A 
ATOM     34  C   UNL A   1      43.382  32.700  31.693  1.00  0.00     0.049 A 
ATOM     35  H   UNL A   1      42.401  31.096  30.736  1.00  0.00     0.167 HD
ATOM     36  C   UNL A   1      41.101  33.570  31.254  1.00  0.00     0.074 A 
ATOM     37  C   UNL A   1      40.082  34.600  31.314  1.00  0.00     0.031 C 
ATOM     38  C   UNL A   1      42.355  33.710  31.747  1.00  0.00     0.031 A 
BRANCH  25  39
ATOM     39  C   UNL A   1      45.959  28.741  30.984  1.00  0.00    -0.014 A 
ATOM     40  C   UNL A   1      46.965  28.847  30.010  1.00  0.00     0.009 A 
ATOM     41  C   UNL A   1      46.244  28.068  32.182  1.00  0.00     0.009 A 
ATOM     42  C   UNL A   1      48.218  28.266  30.220  1.00  0.00     0.001 A 
ATOM     43  C   UNL A   1      47.508  27.514  32.402  1.00  0.00     0.001 A 
ATOM     44  C   UNL A   1      48.490  27.606  31.418  1.00  0.00     0.000 A 
ENDBRANCH  25  39
BRANCH  26  45
ATOM     45  C   UNL A   1      36.858  32.615  29.461  1.00  0.00    -0.014 A 
ATOM     46  C   UNL A   1      36.544  33.322  28.292  1.00  0.00     0.009 A 
ATOM     47  C   UNL A   1      35.869  32.465  30.449  1.00  0.00     0.009 A 
ATOM     48  C   UNL A   1      35.281  33.895  28.130  1.00  0.00     0.001 A 
ATOM     49  C   UNL A   1      34.596  33.006  30.268  1.00  0.00     0.001 A 
ATOM     50  C   UNL A   1      34.307  33.733  29.115  1.00  0.00     0.000 A 
ENDBRANCH  26  45
BRANCH  38  51
ATOM     51  C   UNL A   1      42.697  35.038  32.359  1.00  0.00    -0.014 A 
ATOM     52  C   UNL A   1      43.376  36.027  31.630  1.00  0.00     0.009 A 
ATOM     53  C   UNL A   1      42.324  35.306  33.686  1.00  0.00     0.009 A 
ATOM     54  C   UNL A   1      43.716  37.240  32.232  1.00  0.00     0.001 A 
ATOM     55  C   UNL A   1      42.634  36.532  34.275  1.00  0.00     0.001 A 
ATOM     56  C   UNL A   1      43.340  37.493  33.552  1.00  0.00     0.000 A 
ENDBRANCH  38  51
ENDBRANCH  12  13
ENDBRANCH   5   7
ENDBRANCH   2   3
ENDBRANCH   1   2
BRANCH   1  57
ATOM     57  C   UNL A   1      34.132  23.333  25.157  1.00  0.00     0.117 C 
BRANCH  57  58
ATOM     58  N   UNL A   1      32.879  23.517  25.864  1.00  0.00    -0.356 N 
ATOM     59  C   UNL A   1      32.230  24.625  26.296  1.00  0.00     0.227 C 
ATOM     60  H   UNL A   1      32.411  22.676  26.069  1.00  0.00     0.163 HD
ATOM     61  O   UNL A   1      31.256  24.409  27.030  1.00  0.00    -0.274 OA
BRANCH  59  62
ATOM     62  C   UNL A   1      32.535  26.056  25.829  1.00  0.00     0.061 C 
ATOM     63  C   UNL A   1      31.544  26.985  26.623  1.00  0.00     0.053 C 
ATOM     64  C   UNL A   1      33.926  26.654  26.144  1.00  0.00     0.053 C 
ATOM     65  C   UNL A   1      32.301  28.270  26.758  1.00  0.00    -0.044 A 
ATOM     66  C   UNL A   1      33.646  28.087  26.452  1.00  0.00    -0.044 A 
ATOM     67  C   UNL A   1      31.839  29.497  27.202  1.00  0.00     0.004 A 
ATOM     68  C   UNL A   1      34.562  29.119  26.563  1.00  0.00     0.004 A 
ATOM     69  C   UNL A   1      32.752  30.549  27.318  1.00  0.00     0.000 A 
ATOM     70  C   UNL A   1      34.105  30.363  26.995  1.00  0.00     0.000 A 
BRANCH  62  71
ATOM     71  C   UNL A   1      32.186  26.134  24.309  1.00  0.00     0.053 C 
BRANCH  71  72
ATOM     72  C   UNL A   1      30.863  26.777  23.950  1.00  0.00    -0.044 A 
ATOM     73  C   UNL A   1      30.796  28.076  23.436  1.00  0.00     0.024 A 
ATOM     74  C   UNL A   1      29.665  26.072  24.103  1.00  0.00     0.024 A 
ATOM     75  C   UNL A   1      29.554  28.626  23.155  1.00  0.00     0.111 A 
ATOM     76  C   UNL A   1      28.472  26.701  23.776  1.00  0.00     0.111 A 
ATOM     77  N   UNL A   1      28.389  27.969  23.323  1.00  0.00    -0.265 NA
ENDBRANCH  71  72
ENDBRANCH  62  71
ENDBRANCH  59  62
ENDBRANCH  57  58
ENDBRANCH   1  57
TORSDOF 12
ENDMDL
MODEL 3
REMARK VINA RESULT:     -11.1      2.573      7.519
REMARK SMILES O=C(NCCCNC(=O)C1(Cc2ccncc2)Cc2ccccc2C1)c1ccc(-c2c3nc(c(-c4ccccc4)c4ccc([nH]4)c(-c4ccccc4)c4nc(c(-c5ccccc5)c5ccc2[nH]5)C=C4)C=C3)cc1
REMARK SMILES IDX 5 1 4 2 3 3 1 4 2 5 26 7 27 8 73 9 28 10 72 11 29 12 30 13
REMARK SMILES IDX 31 14 66 15 32 16 71 17 65 18 67 19 33 20 70 21 64 22 63 23
REMARK SMILES IDX 34 25 56 26 41 27 55 28 42 29 45 30 54 31 68 32 43 33 44 34
REMARK SMILES IDX 53 36 69 37 46 38 35 39 36 40 40 41 37 42 39 43 38 44 57 45
REMARK SMILES IDX 58 46 62 47 59 48 61 49 60 50 47 51 48 52 52 53 49 54 51 55
REMARK SMILES IDX 50 56 6 57 7 58 8 59 9 61 10 62 18 63 25 64 19 65 24 66
REMARK SMILES IDX 20 67 23 68 21 69 22 70 11 71 12 72 13 73 17 74 14 75 16 76
REMARK SMILES IDX 15 77
REMARK H PARENT 3 6 67 24 45 35 7 60
REMARK Flexibility Score: inf
ROOT
ATOM      1  C   UNL A   1      33.595  28.099  25.443  1.00  0.00     0.042 C 
ENDROOT
BRANCH   1   2
ATOM      2  C   UNL A   1      33.646  28.356  26.942  1.00  0.00     0.118 C 
BRANCH   2   3
ATOM      3  N   UNL A   1      33.522  29.776  27.241  1.00  0.00    -0.352 N 
ATOM      4  O   UNL A   1      33.998  31.696  28.318  1.00  0.00    -0.269 OA
ATOM      5  C   UNL A   1      34.373  30.592  27.944  1.00  0.00     0.251 C 
ATOM      6  H   UNL A   1      32.712  30.213  26.892  1.00  0.00     0.163 HD
BRANCH   5   7
ATOM      7  C   UNL A   1      35.743  30.130  28.244  1.00  0.00     0.039 A 
ATOM      8  C   UNL A   1      36.747  30.233  27.278  1.00  0.00     0.014 A 
ATOM      9  C   UNL A   1      36.036  29.620  29.512  1.00  0.00     0.014 A 
ATOM     10  C   UNL A   1      38.003  29.701  27.531  1.00  0.00     0.010 A 
ATOM     11  C   UNL A   1      37.330  29.184  29.801  1.00  0.00     0.010 A 
ATOM     12  C   UNL A   1      38.319  29.205  28.806  1.00  0.00    -0.014 A 
BRANCH  12  13
ATOM     13  C   UNL A   1      39.720  28.807  29.084  1.00  0.00     0.031 A 
ATOM     14  C   UNL A   1      40.659  29.716  29.822  1.00  0.00     0.074 A 
ATOM     15  C   UNL A   1      40.119  27.582  28.693  1.00  0.00     0.049 A 
ATOM     16  N   UNL A   1      41.900  29.495  30.179  1.00  0.00    -0.248 NA
ATOM     17  C   UNL A   1      40.149  31.041  30.207  1.00  0.00     0.031 C 
ATOM     18  C   UNL A   1      39.290  26.617  27.960  1.00  0.00     0.029 A 
ATOM     19  N   UNL A   1      41.305  26.921  28.878  1.00  0.00    -0.354 N 
ATOM     20  C   UNL A   1      42.320  30.652  30.823  1.00  0.00     0.074 A 
ATOM     21  C   UNL A   1      41.216  31.586  30.776  1.00  0.00     0.031 C 
ATOM     22  C   UNL A   1      39.970  25.473  27.813  1.00  0.00     0.029 A 
ATOM     23  C   UNL A   1      41.305  25.645  28.367  1.00  0.00     0.049 A 
ATOM     24  H   UNL A   1      42.081  27.321  29.333  1.00  0.00     0.167 HD
ATOM     25  C   UNL A   1      43.516  30.904  31.408  1.00  0.00     0.031 A 
ATOM     26  C   UNL A   1      42.281  24.720  28.329  1.00  0.00     0.031 A 
ATOM     27  C   UNL A   1      44.615  29.973  31.435  1.00  0.00     0.049 A 
ATOM     28  C   UNL A   1      43.610  25.051  28.938  1.00  0.00     0.074 A 
ATOM     29  C   UNL A   1      45.868  30.133  32.001  1.00  0.00     0.029 A 
ATOM     30  N   UNL A   1      44.594  28.708  30.866  1.00  0.00    -0.354 N 
ATOM     31  N   UNL A   1      43.982  26.141  29.566  1.00  0.00    -0.248 NA
ATOM     32  C   UNL A   1      44.653  24.024  28.837  1.00  0.00     0.031 C 
ATOM     33  C   UNL A   1      46.622  28.986  31.729  1.00  0.00     0.029 A 
ATOM     34  C   UNL A   1      45.817  28.085  31.050  1.00  0.00     0.049 A 
ATOM     35  H   UNL A   1      43.823  28.312  30.399  1.00  0.00     0.167 HD
ATOM     36  C   UNL A   1      45.297  25.923  29.951  1.00  0.00     0.074 A 
ATOM     37  C   UNL A   1      45.644  24.585  29.514  1.00  0.00     0.031 C 
ATOM     38  C   UNL A   1      46.144  26.755  30.604  1.00  0.00     0.031 A 
BRANCH  25  39
ATOM     39  C   UNL A   1      43.705  32.250  32.054  1.00  0.00    -0.014 A 
ATOM     40  C   UNL A   1      43.412  32.453  33.412  1.00  0.00     0.009 A 
ATOM     41  C   UNL A   1      44.228  33.318  31.308  1.00  0.00     0.009 A 
ATOM     42  C   UNL A   1      43.613  33.704  34.001  1.00  0.00     0.001 A 
ATOM     43  C   UNL A   1      44.456  34.559  31.906  1.00  0.00     0.001 A 
ATOM     44  C   UNL A   1      44.139  34.754  33.250  1.00  0.00     0.000 A 
ENDBRANCH  25  39
BRANCH  26  45
ATOM     45  C   UNL A   1      42.043  23.413  27.661  1.00  0.00    -0.014 A 
ATOM     46  C   UNL A   1      42.428  23.202  26.329  1.00  0.00     0.009 A 
ATOM     47  C   UNL A   1      41.413  22.368  28.358  1.00  0.00     0.009 A 
ATOM     48  C   UNL A   1      42.156  21.986  25.700  1.00  0.00     0.001 A 
ATOM     49  C   UNL A   1      41.178  21.141  27.738  1.00  0.00     0.001 A 
ATOM     50  C   UNL A   1      41.536  20.955  26.405  1.00  0.00     0.000 A 
ENDBRANCH  26  45
BRANCH  38  51
ATOM     51  C   UNL A   1      47.513  26.219  30.912  1.00  0.00    -0.014 A 
ATOM     52  C   UNL A   1      48.535  26.222  29.949  1.00  0.00     0.009 A 
ATOM     53  C   UNL A   1      47.787  25.713  32.193  1.00  0.00     0.009 A 
ATOM     54  C   UNL A   1      49.788  25.685  30.248  1.00  0.00     0.001 A 
ATOM     55  C   UNL A   1      49.051  25.209  32.500  1.00  0.00     0.001 A 
ATOM     56  C   UNL A   1      50.046  25.183  31.524  1.00  0.00     0.000 A 
ENDBRANCH  38  51
ENDBRANCH  12  13
ENDBRANCH   5   7
ENDBRANCH   2   3
ENDBRANCH   1   2
BRANCH   1  57
ATOM     57  C   UNL A   1      32.521  27.078  25.079  1.00  0.00     0.117 C 
BRANCH  57  58
ATOM     58  N   UNL A   1      32.794  26.526  23.766  1.00  0.00    -0.356 N 
ATOM     59  C   UNL A   1      33.587  25.508  23.351  1.00  0.00     0.227 C 
ATOM     60  H   UNL A   1      32.311  26.977  23.036  1.00  0.00     0.163 HD
ATOM     61  O   UNL A   1      33.723  25.417  22.124  1.00  0.00    -0.274 OA
BRANCH  59  62
ATOM     62  C   UNL A   1      34.176  24.428  24.270  1.00  0.00     0.061 C 
ATOM     63  C   UNL A   1      34.993  23.467  23.329  1.00  0.00     0.053 C 
ATOM     64  C   UNL A   1      35.207  24.852  25.341  1.00  0.00     0.053 C 
ATOM     65  C   UNL A   1      36.090  22.960  24.215  1.00  0.00    -0.044 A 
ATOM     66  C   UNL A   1      36.186  23.727  25.373  1.00  0.00    -0.044 A 
ATOM     67  C   UNL A   1      36.991  21.940  23.968  1.00  0.00     0.004 A 
ATOM     68  C   UNL A   1      37.167  23.490  26.320  1.00  0.00     0.004 A 
ATOM     69  C   UNL A   1      37.987  21.688  24.916  1.00  0.00     0.000 A 
ATOM     70  C   UNL A   1      38.072  22.455  26.088  1.00  0.00     0.000 A 
BRANCH  62  71
ATOM     71  C   UNL A   1      32.979  23.631  24.881  1.00  0.00     0.053 C 
BRANCH  71  72
ATOM     72  C   UNL A   1      32.783  22.215  24.382  1.00  0.00    -0.044 A 
ATOM     73  C   UNL A   1      33.126  21.110  25.167  1.00  0.00     0.024 A 
ATOM     74  C   UNL A   1      32.226  21.976  23.122  1.00  0.00     0.024 A 
ATOM     75  C   UNL A   1      32.954  19.836  24.647  1.00  0.00     0.111 A 
ATOM     76  C   UNL A   1      32.075  20.664  22.696  1.00  0.00     0.111 A 
ATOM     77  N   UNL A   1      32.444  19.589  23.424  1.00  0.00    -0.265 NA
ENDBRANCH  71  72
ENDBRANCH  62  71
ENDBRANCH  59  62
ENDBRANCH  57  58
ENDBRANCH   1  57
TORSDOF 12
ENDMDL
