MODEL 1
REMARK VINA RESULT:      -9.6      0.000      0.000
REMARK SMILES O=C(C[C@@H]1C=CS(=O)(=O)C1)NCCCNC(=O)c1ccc(-c2c3nc(c(-c4ccccc4)c4ccc([nH]4)c(-c4ccccc4)c4nc(c(-c5ccccc5)c5ccc2[nH]5)C=C4)C=C3)cc1
REMARK SMILES IDX 13 1 12 2 11 3 1 4 2 5 3 7 4 8 5 9 10 10 6 11 7 12 8 13 9 14
REMARK SMILES IDX 14 15 15 16 16 17 17 19 18 20 19 21 65 22 20 23 64 24 21 25
REMARK SMILES IDX 22 26 23 27 58 28 24 29 63 30 57 31 59 32 25 33 62 34 56 35
REMARK SMILES IDX 55 36 26 38 48 39 33 40 47 41 34 42 37 43 46 44 60 45 35 46
REMARK SMILES IDX 36 47 45 49 61 50 38 51 27 52 28 53 32 54 29 55 31 56 30 57
REMARK SMILES IDX 49 58 50 59 54 60 51 61 53 62 52 63 39 64 40 65 44 66 41 67
REMARK SMILES IDX 43 68 42 69
REMARK H PARENT 11 6 15 18 59 37 37 48
REMARK Flexibility Score: inf
ROOT
ATOM      1  C   UNL A   1      45.336  19.122  24.829  1.00  0.00     0.042 C 
ENDROOT
BRANCH   1   2
ATOM      2  C   UNL A   1      46.621  19.936  24.826  1.00  0.00     0.117 C 
BRANCH   2   3
ATOM      3  N   UNL A   1      46.437  21.272  24.294  1.00  0.00    -0.356 N 
ATOM      4  O   UNL A   1      45.992  22.299  26.305  1.00  0.00    -0.275 OA
ATOM      5  C   UNL A   1      46.220  22.362  25.103  1.00  0.00     0.220 C 
ATOM      6  H   UNL A   1      46.466  21.404  23.319  1.00  0.00     0.163 HD
BRANCH   5   7
ATOM      7  C   UNL A   1      46.320  23.694  24.387  1.00  0.00     0.108 C 
BRANCH   7   8
ATOM      8  C   UNL A   1      46.582  24.897  25.309  1.00  0.00     0.037 C 
ATOM      9  C   UNL A   1      45.483  25.934  25.274  1.00  0.00    -0.010 C 
ATOM     10  C   UNL A   1      47.910  25.622  25.036  1.00  0.00     0.150 C 
ATOM     11  C   UNL A   1      45.815  27.146  24.810  1.00  0.00     0.102 C 
ATOM     12  S   UNL A   1      47.485  27.230  24.359  1.00  0.00     0.171 S 
ATOM     13  O   UNL A   1      48.136  28.260  25.148  1.00  0.00    -0.224 OA
ATOM     14  O   UNL A   1      47.585  27.195  22.920  1.00  0.00    -0.224 OA
ENDBRANCH   7   8
ENDBRANCH   5   7
ENDBRANCH   2   3
ENDBRANCH   1   2
BRANCH   1  15
ATOM     15  C   UNL A   1      44.075  19.908  24.489  1.00  0.00     0.118 C 
BRANCH  15  16
ATOM     16  N   UNL A   1      42.855  19.331  25.029  1.00  0.00    -0.352 N 
ATOM     17  C   UNL A   1      41.980  19.834  25.962  1.00  0.00     0.251 C 
ATOM     18  H   UNL A   1      42.618  18.444  24.671  1.00  0.00     0.163 HD
ATOM     19  O   UNL A   1      41.041  19.144  26.349  1.00  0.00    -0.269 OA
BRANCH  17  20
ATOM     20  C   UNL A   1      42.172  21.190  26.530  1.00  0.00     0.039 A 
ATOM     21  C   UNL A   1      42.134  21.341  27.920  1.00  0.00     0.014 A 
ATOM     22  C   UNL A   1      42.359  22.312  25.719  1.00  0.00     0.014 A 
ATOM     23  C   UNL A   1      42.328  22.600  28.492  1.00  0.00     0.010 A 
ATOM     24  C   UNL A   1      42.638  23.552  26.293  1.00  0.00     0.010 A 
ATOM     25  C   UNL A   1      42.606  23.715  27.685  1.00  0.00    -0.014 A 
BRANCH  25  26
ATOM     26  C   UNL A   1      42.828  25.056  28.288  1.00  0.00     0.031 A 
ATOM     27  C   UNL A   1      44.208  25.475  28.724  1.00  0.00     0.074 A 
ATOM     28  C   UNL A   1      41.788  25.894  28.469  1.00  0.00     0.049 A 
ATOM     29  N   UNL A   1      44.600  26.608  29.253  1.00  0.00    -0.248 NA
ATOM     30  C   UNL A   1      45.285  24.485  28.568  1.00  0.00     0.031 C 
ATOM     31  C   UNL A   1      40.392  25.600  28.135  1.00  0.00     0.029 A 
ATOM     32  N   UNL A   1      41.746  27.170  28.973  1.00  0.00    -0.354 N 
ATOM     33  C   UNL A   1      45.959  26.460  29.501  1.00  0.00     0.074 A 
ATOM     34  C   UNL A   1      46.312  25.109  29.125  1.00  0.00     0.031 C 
ATOM     35  C   UNL A   1      39.640  26.679  28.406  1.00  0.00     0.029 A 
ATOM     36  C   UNL A   1      40.490  27.727  28.961  1.00  0.00     0.049 A 
ATOM     37  H   UNL A   1      42.541  27.642  29.312  1.00  0.00     0.167 HD
ATOM     38  C   UNL A   1      46.843  27.370  29.975  1.00  0.00     0.031 A 
ATOM     39  C   UNL A   1      40.070  28.947  29.346  1.00  0.00     0.031 A 
ATOM     40  C   UNL A   1      46.501  28.718  30.342  1.00  0.00     0.049 A 
ATOM     41  C   UNL A   1      41.071  29.941  29.867  1.00  0.00     0.074 A 
ATOM     42  C   UNL A   1      47.335  29.730  30.787  1.00  0.00     0.029 A 
ATOM     43  N   UNL A   1      45.219  29.244  30.305  1.00  0.00    -0.354 N 
ATOM     44  N   UNL A   1      42.365  29.807  30.028  1.00  0.00    -0.248 NA
ATOM     45  C   UNL A   1      40.552  31.266  30.235  1.00  0.00     0.031 C 
ATOM     46  C   UNL A   1      46.549  30.853  31.067  1.00  0.00     0.029 A 
ATOM     47  C   UNL A   1      45.236  30.560  30.735  1.00  0.00     0.049 A 
ATOM     48  H   UNL A   1      44.416  28.754  30.016  1.00  0.00     0.167 HD
ATOM     49  C   UNL A   1      42.820  31.040  30.479  1.00  0.00     0.074 A 
ATOM     50  C   UNL A   1      41.665  31.912  30.550  1.00  0.00     0.031 C 
ATOM     51  C   UNL A   1      44.082  31.419  30.799  1.00  0.00     0.031 A 
BRANCH  38  52
ATOM     52  C   UNL A   1      48.275  26.928  30.127  1.00  0.00    -0.014 A 
ATOM     53  C   UNL A   1      48.701  26.221  31.263  1.00  0.00     0.009 A 
ATOM     54  C   UNL A   1      49.203  27.199  29.112  1.00  0.00     0.009 A 
ATOM     55  C   UNL A   1      50.036  25.832  31.398  1.00  0.00     0.001 A 
ATOM     56  C   UNL A   1      50.531  26.781  29.233  1.00  0.00     0.001 A 
ATOM     57  C   UNL A   1      50.948  26.109  30.380  1.00  0.00     0.000 A 
ENDBRANCH  38  52
BRANCH  39  58
ATOM     58  C   UNL A   1      38.634  29.317  29.221  1.00  0.00    -0.014 A 
ATOM     59  C   UNL A   1      38.126  29.802  28.005  1.00  0.00     0.009 A 
ATOM     60  C   UNL A   1      37.769  29.203  30.320  1.00  0.00     0.009 A 
ATOM     61  C   UNL A   1      36.790  30.199  27.903  1.00  0.00     0.001 A 
ATOM     62  C   UNL A   1      36.426  29.571  30.205  1.00  0.00     0.001 A 
ATOM     63  C   UNL A   1      35.941  30.079  29.002  1.00  0.00     0.000 A 
ENDBRANCH  39  58
BRANCH  51  64
ATOM     64  C   UNL A   1      44.287  32.853  31.204  1.00  0.00    -0.014 A 
ATOM     65  C   UNL A   1      44.560  33.854  30.259  1.00  0.00     0.009 A 
ATOM     66  C   UNL A   1      44.187  33.207  32.559  1.00  0.00     0.009 A 
ATOM     67  C   UNL A   1      44.776  35.172  30.669  1.00  0.00     0.001 A 
ATOM     68  C   UNL A   1      44.369  34.531  32.962  1.00  0.00     0.001 A 
ATOM     69  C   UNL A   1      44.676  35.509  32.019  1.00  0.00     0.000 A 
ENDBRANCH  51  64
ENDBRANCH  25  26
ENDBRANCH  17  20
ENDBRANCH  15  16
ENDBRANCH   1  15
TORSDOF 11
ENDMDL
MODEL 2
REMARK VINA RESULT:      -9.6      2.356      3.347
REMARK SMILES O=C(C[C@@H]1C=CS(=O)(=O)C1)NCCCNC(=O)c1ccc(-c2c3nc(c(-c4ccccc4)c4ccc([nH]4)c(-c4ccccc4)c4nc(c(-c5ccccc5)c5ccc2[nH]5)C=C4)C=C3)cc1
REMARK SMILES IDX 13 1 12 2 11 3 1 4 2 5 3 7 4 8 5 9 10 10 6 11 7 12 8 13 9 14
REMARK SMILES IDX 14 15 15 16 16 17 17 19 18 20 19 21 65 22 20 23 64 24 21 25
REMARK SMILES IDX 22 26 23 27 58 28 24 29 63 30 57 31 59 32 25 33 62 34 56 35
REMARK SMILES IDX 55 36 26 38 48 39 33 40 47 41 34 42 37 43 46 44 60 45 35 46
REMARK SMILES IDX 36 47 45 49 61 50 38 51 27 52 28 53 32 54 29 55 31 56 30 57
REMARK SMILES IDX 49 58 50 59 54 60 51 61 53 62 52 63 39 64 40 65 44 66 41 67
REMARK SMILES IDX 43 68 42 69
REMARK H PARENT 11 6 15 18 59 37 37 48
REMARK Flexibility Score: inf
ROOT
ATOM      1  C   UNL A   1      42.277  19.316  27.198  1.00  0.00     0.042 C 
ENDROOT
BRANCH   1   2
ATOM      2  C   UNL A   1      42.895  19.154  25.817  1.00  0.00     0.117 C 
BRANCH   2   3
ATOM      3  N   UNL A   1      44.254  19.653  25.750  1.00  0.00    -0.356 N 
ATOM      4  O   UNL A   1      44.468  19.529  23.462  1.00  0.00    -0.275 OA
ATOM      5  C   UNL A   1      44.895  19.878  24.556  1.00  0.00     0.220 C 
ATOM      6  H   UNL A   1      44.736  19.835  26.588  1.00  0.00     0.163 HD
BRANCH   5   7
ATOM      7  C   UNL A   1      46.196  20.645  24.687  1.00  0.00     0.108 C 
BRANCH   7   8
ATOM      8  C   UNL A   1      46.028  22.166  24.858  1.00  0.00     0.037 C 
ATOM      9  C   UNL A   1      45.704  22.581  26.274  1.00  0.00    -0.010 C 
ATOM     10  C   UNL A   1      44.964  22.787  23.939  1.00  0.00     0.150 C 
ATOM     11  C   UNL A   1      44.514  23.161  26.473  1.00  0.00     0.102 C 
ATOM     12  S   UNL A   1      43.613  23.308  25.001  1.00  0.00     0.171 S 
ATOM     13  O   UNL A   1      43.335  24.711  24.755  1.00  0.00    -0.224 OA
ATOM     14  O   UNL A   1      42.570  22.311  24.987  1.00  0.00    -0.224 OA
ENDBRANCH   7   8
ENDBRANCH   5   7
ENDBRANCH   2   3
ENDBRANCH   1   2
BRANCH   1  15
ATOM     15  C   UNL A   1      41.561  20.640  27.432  1.00  0.00     0.118 C 
BRANCH  15  16
ATOM     16  N   UNL A   1      40.335  20.794  26.665  1.00  0.00    -0.352 N 
ATOM     17  C   UNL A   1      39.594  21.923  26.407  1.00  0.00     0.251 C 
ATOM     18  H   UNL A   1      39.982  19.964  26.271  1.00  0.00     0.163 HD
ATOM     19  O   UNL A   1      38.530  21.825  25.801  1.00  0.00    -0.269 OA
BRANCH  17  20
ATOM     20  C   UNL A   1      40.047  23.254  26.876  1.00  0.00     0.039 A 
ATOM     21  C   UNL A   1      39.683  24.381  26.133  1.00  0.00     0.014 A 
ATOM     22  C   UNL A   1      40.843  23.405  28.014  1.00  0.00     0.014 A 
ATOM     23  C   UNL A   1      40.077  25.653  26.554  1.00  0.00     0.010 A 
ATOM     24  C   UNL A   1      41.162  24.680  28.480  1.00  0.00     0.010 A 
ATOM     25  C   UNL A   1      40.800  25.818  27.745  1.00  0.00    -0.014 A 
BRANCH  25  26
ATOM     26  C   UNL A   1      41.210  27.170  28.207  1.00  0.00     0.031 A 
ATOM     27  C   UNL A   1      42.659  27.583  28.159  1.00  0.00     0.074 A 
ATOM     28  C   UNL A   1      40.289  28.024  28.694  1.00  0.00     0.049 A 
ATOM     29  N   UNL A   1      43.205  28.725  28.501  1.00  0.00    -0.248 NA
ATOM     30  C   UNL A   1      43.623  26.578  27.687  1.00  0.00     0.031 C 
ATOM     31  C   UNL A   1      38.860  27.739  28.840  1.00  0.00     0.029 A 
ATOM     32  N   UNL A   1      40.418  29.313  29.150  1.00  0.00    -0.354 N 
ATOM     33  C   UNL A   1      44.571  28.567  28.297  1.00  0.00     0.074 A 
ATOM     34  C   UNL A   1      44.778  27.203  27.863  1.00  0.00     0.031 C 
ATOM     35  C   UNL A   1      38.240  28.833  29.312  1.00  0.00     0.029 A 
ATOM     36  C   UNL A   1      39.227  29.884  29.533  1.00  0.00     0.049 A 
ATOM     37  H   UNL A   1      41.281  29.784  29.199  1.00  0.00     0.167 HD
ATOM     38  C   UNL A   1      45.564  29.477  28.433  1.00  0.00     0.031 A 
ATOM     39  C   UNL A   1      38.960  31.117  30.001  1.00  0.00     0.031 A 
ATOM     40  C   UNL A   1      45.364  30.838  28.856  1.00  0.00     0.049 A 
ATOM     41  C   UNL A   1      40.079  32.112  30.141  1.00  0.00     0.074 A 
ATOM     42  C   UNL A   1      46.300  31.851  28.978  1.00  0.00     0.029 A 
ATOM     43  N   UNL A   1      44.141  31.377  29.224  1.00  0.00    -0.354 N 
ATOM     44  N   UNL A   1      41.355  31.967  29.876  1.00  0.00    -0.248 NA
ATOM     45  C   UNL A   1      39.712  33.452  30.622  1.00  0.00     0.031 C 
ATOM     46  C   UNL A   1      45.652  32.990  29.469  1.00  0.00     0.029 A 
ATOM     47  C   UNL A   1      44.301  32.703  29.590  1.00  0.00     0.049 A 
ATOM     48  H   UNL A   1      43.286  30.890  29.226  1.00  0.00     0.167 HD
ATOM     49  C   UNL A   1      41.935  33.205  30.121  1.00  0.00     0.074 A 
ATOM     50  C   UNL A   1      40.869  34.092  30.540  1.00  0.00     0.031 C 
ATOM     51  C   UNL A   1      43.234  33.577  30.003  1.00  0.00     0.031 A 
BRANCH  38  52
ATOM     52  C   UNL A   1      46.965  29.023  28.123  1.00  0.00    -0.014 A 
ATOM     53  C   UNL A   1      47.808  28.525  29.130  1.00  0.00     0.009 A 
ATOM     54  C   UNL A   1      47.441  29.069  26.805  1.00  0.00     0.009 A 
ATOM     55  C   UNL A   1      49.111  28.122  28.830  1.00  0.00     0.001 A 
ATOM     56  C   UNL A   1      48.734  28.635  26.501  1.00  0.00     0.001 A 
ATOM     57  C   UNL A   1      49.571  28.173  27.515  1.00  0.00     0.000 A 
ENDBRANCH  38  52
BRANCH  39  58
ATOM     58  C   UNL A   1      37.563  31.501  30.340  1.00  0.00    -0.014 A 
ATOM     59  C   UNL A   1      36.709  32.026  29.357  1.00  0.00     0.009 A 
ATOM     60  C   UNL A   1      37.081  31.361  31.650  1.00  0.00     0.009 A 
ATOM     61  C   UNL A   1      35.414  32.435  29.687  1.00  0.00     0.001 A 
ATOM     62  C   UNL A   1      35.776  31.741  31.971  1.00  0.00     0.001 A 
ATOM     63  C   UNL A   1      34.948  32.288  30.992  1.00  0.00     0.000 A 
ENDBRANCH  39  58
BRANCH  51  64
ATOM     64  C   UNL A   1      43.564  35.018  30.280  1.00  0.00    -0.014 A 
ATOM     65  C   UNL A   1      43.929  35.458  31.562  1.00  0.00     0.009 A 
ATOM     66  C   UNL A   1      43.525  35.948  29.228  1.00  0.00     0.009 A 
ATOM     67  C   UNL A   1      44.200  36.809  31.794  1.00  0.00     0.001 A 
ATOM     68  C   UNL A   1      43.830  37.290  29.456  1.00  0.00     0.001 A 
ATOM     69  C   UNL A   1      44.154  37.722  30.741  1.00  0.00     0.000 A 
ENDBRANCH  51  64
ENDBRANCH  25  26
ENDBRANCH  17  20
ENDBRANCH  15  16
ENDBRANCH   1  15
TORSDOF 11
ENDMDL
MODEL 3
REMARK VINA RESULT:      -9.4      4.155      6.581
REMARK SMILES O=C(C[C@@H]1C=CS(=O)(=O)C1)NCCCNC(=O)c1ccc(-c2c3nc(c(-c4ccccc4)c4ccc([nH]4)c(-c4ccccc4)c4nc(c(-c5ccccc5)c5ccc2[nH]5)C=C4)C=C3)cc1
REMARK SMILES IDX 13 1 12 2 11 3 1 4 2 5 3 7 4 8 5 9 10 10 6 11 7 12 8 13 9 14
REMARK SMILES IDX 14 15 15 16 16 17 17 19 18 20 19 21 65 22 20 23 64 24 21 25
REMARK SMILES IDX 22 26 23 27 58 28 24 29 63 30 57 31 59 32 25 33 62 34 56 35
REMARK SMILES IDX 55 36 26 38 48 39 33 40 47 41 34 42 37 43 46 44 60 45 35 46
REMARK SMILES IDX 36 47 45 49 61 50 38 51 27 52 28 53 32 54 29 55 31 56 30 57
REMARK SMILES IDX 49 58 50 59 54 60 51 61 53 62 52 63 39 64 40 65 44 66 41 67
REMARK SMILES IDX 43 68 42 69
REMARK H PARENT 11 6 15 18 59 37 37 48
REMARK Flexibility Score: inf
ROOT
ATOM      1  C   UNL A   1      37.846  19.604  24.867  1.00  0.00     0.042 C 
ENDROOT
BRANCH   1   2
ATOM      2  C   UNL A   1      36.783  20.672  24.660  1.00  0.00     0.117 C 
BRANCH   2   3
ATOM      3  N   UNL A   1      35.551  20.380  25.367  1.00  0.00    -0.356 N 
ATOM      4  O   UNL A   1      34.213  21.820  24.170  1.00  0.00    -0.275 OA
ATOM      5  C   UNL A   1      34.345  20.925  24.996  1.00  0.00     0.220 C 
ATOM      6  H   UNL A   1      35.579  19.772  26.139  1.00  0.00     0.163 HD
BRANCH   5   7
ATOM      7  C   UNL A   1      33.146  20.296  25.679  1.00  0.00     0.108 C 
BRANCH   7   8
ATOM      8  C   UNL A   1      32.595  19.043  24.977  1.00  0.00     0.037 C 
ATOM      9  C   UNL A   1      32.487  17.841  25.886  1.00  0.00    -0.010 C 
ATOM     10  C   UNL A   1      33.396  18.613  23.737  1.00  0.00     0.150 C 
ATOM     11  C   UNL A   1      33.252  16.785  25.581  1.00  0.00     0.102 C 
ATOM     12  S   UNL A   1      34.201  17.065  24.160  1.00  0.00     0.171 S 
ATOM     13  O   UNL A   1      33.861  16.069  23.160  1.00  0.00    -0.224 OA
ATOM     14  O   UNL A   1      35.568  17.317  24.550  1.00  0.00    -0.224 OA
ENDBRANCH   7   8
ENDBRANCH   5   7
ENDBRANCH   2   3
ENDBRANCH   1   2
BRANCH   1  15
ATOM     15  C   UNL A   1      38.905  19.942  25.910  1.00  0.00     0.118 C 
BRANCH  15  16
ATOM     16  N   UNL A   1      40.079  19.086  25.861  1.00  0.00    -0.352 N 
ATOM     17  C   UNL A   1      41.395  19.382  26.124  1.00  0.00     0.251 C 
ATOM     18  H   UNL A   1      39.905  18.152  25.601  1.00  0.00     0.163 HD
ATOM     19  O   UNL A   1      42.258  18.527  25.940  1.00  0.00    -0.269 OA
BRANCH  17  20
ATOM     20  C   UNL A   1      41.792  20.729  26.597  1.00  0.00     0.039 A 
ATOM     21  C   UNL A   1      42.085  21.710  25.644  1.00  0.00     0.014 A 
ATOM     22  C   UNL A   1      41.907  21.031  27.956  1.00  0.00     0.014 A 
ATOM     23  C   UNL A   1      42.446  22.996  26.053  1.00  0.00     0.010 A 
ATOM     24  C   UNL A   1      42.182  22.336  28.362  1.00  0.00     0.010 A 
ATOM     25  C   UNL A   1      42.475  23.329  27.417  1.00  0.00    -0.014 A 
BRANCH  25  26
ATOM     26  C   UNL A   1      42.844  24.700  27.858  1.00  0.00     0.031 A 
ATOM     27  C   UNL A   1      44.292  25.111  27.932  1.00  0.00     0.074 A 
ATOM     28  C   UNL A   1      41.884  25.573  28.218  1.00  0.00     0.049 A 
ATOM     29  N   UNL A   1      44.807  26.266  28.277  1.00  0.00    -0.248 NA
ATOM     30  C   UNL A   1      45.294  24.087  27.598  1.00  0.00     0.031 C 
ATOM     31  C   UNL A   1      40.446  25.294  28.239  1.00  0.00     0.029 A 
ATOM     32  N   UNL A   1      41.973  26.880  28.631  1.00  0.00    -0.354 N 
ATOM     33  C   UNL A   1      46.185  26.100  28.211  1.00  0.00     0.074 A 
ATOM     34  C   UNL A   1      46.428  24.719  27.857  1.00  0.00     0.031 C 
ATOM     35  C   UNL A   1      39.787  26.407  28.603  1.00  0.00     0.029 A 
ATOM     36  C   UNL A   1      40.753  27.467  28.873  1.00  0.00     0.049 A 
ATOM     37  H   UNL A   1      42.829  27.353  28.742  1.00  0.00     0.167 HD
ATOM     38  C   UNL A   1      47.164  27.016  28.404  1.00  0.00     0.031 A 
ATOM     39  C   UNL A   1      40.446  28.718  29.261  1.00  0.00     0.031 A 
ATOM     40  C   UNL A   1      46.929  28.394  28.748  1.00  0.00     0.049 A 
ATOM     41  C   UNL A   1      41.550  29.719  29.466  1.00  0.00     0.074 A 
ATOM     42  C   UNL A   1      47.854  29.411  28.917  1.00  0.00     0.029 A 
ATOM     43  N   UNL A   1      45.679  28.947  28.974  1.00  0.00    -0.354 N 
ATOM     44  N   UNL A   1      42.845  29.563  29.331  1.00  0.00    -0.248 NA
ATOM     45  C   UNL A   1      41.145  31.077  29.854  1.00  0.00     0.031 C 
ATOM     46  C   UNL A   1      47.166  30.569  29.295  1.00  0.00     0.029 A 
ATOM     47  C   UNL A   1      45.808  30.288  29.298  1.00  0.00     0.049 A 
ATOM     48  H   UNL A   1      44.826  28.460  28.914  1.00  0.00     0.167 HD
ATOM     49  C   UNL A   1      43.404  30.811  29.578  1.00  0.00     0.074 A 
ATOM     50  C   UNL A   1      42.306  31.714  29.856  1.00  0.00     0.031 C 
ATOM     51  C   UNL A   1      44.710  31.177  29.570  1.00  0.00     0.031 A 
BRANCH  38  52
ATOM     52  C   UNL A   1      48.587  26.550  28.249  1.00  0.00    -0.014 A 
ATOM     53  C   UNL A   1      49.311  26.046  29.342  1.00  0.00     0.009 A 
ATOM     54  C   UNL A   1      49.204  26.590  26.990  1.00  0.00     0.009 A 
ATOM     55  C   UNL A   1      50.635  25.632  29.186  1.00  0.00     0.001 A 
ATOM     56  C   UNL A   1      50.519  26.145  26.830  1.00  0.00     0.001 A 
ATOM     57  C   UNL A   1      51.237  25.677  27.929  1.00  0.00     0.000 A 
ENDBRANCH  38  52
BRANCH  39  58
ATOM     58  C   UNL A   1      39.025  29.115  29.448  1.00  0.00    -0.014 A 
ATOM     59  C   UNL A   1      38.394  28.943  30.691  1.00  0.00     0.009 A 
ATOM     60  C   UNL A   1      38.286  29.652  28.382  1.00  0.00     0.009 A 
ATOM     61  C   UNL A   1      37.044  29.267  30.852  1.00  0.00     0.001 A 
ATOM     62  C   UNL A   1      36.946  30.004  28.555  1.00  0.00     0.001 A 
ATOM     63  C   UNL A   1      36.323  29.801  29.785  1.00  0.00     0.000 A 
ENDBRANCH  39  58
BRANCH  51  64
ATOM     64  C   UNL A   1      45.017  32.629  29.817  1.00  0.00    -0.014 A 
ATOM     65  C   UNL A   1      45.277  33.119  31.106  1.00  0.00     0.009 A 
ATOM     66  C   UNL A   1      45.063  33.517  28.730  1.00  0.00     0.009 A 
ATOM     67  C   UNL A   1      45.529  34.479  31.306  1.00  0.00     0.001 A 
ATOM     68  C   UNL A   1      45.350  34.868  28.929  1.00  0.00     0.001 A 
ATOM     69  C   UNL A   1      45.569  35.351  30.218  1.00  0.00     0.000 A 
ENDBRANCH  51  64
ENDBRANCH  25  26
ENDBRANCH  17  20
ENDBRANCH  15  16
ENDBRANCH   1  15
TORSDOF 11
ENDMDL
