MODEL 1
REMARK VINA RESULT:     -10.0      0.000      0.000
REMARK SMILES CC[C@H](C)[C@H](C(=O)NCCCNC(=O)c1ccc(-c2c3nc(c(-c4ccccc4)c4ccc([nH]4)c(-c4ccccc4)c4nc(c(-c5ccccc5)c5ccc2[nH]5)C=C4)C=C3)cc1)[NH+]1CC2(CC2)C1
REMARK SMILES IDX 10 1 9 2 8 3 6 4 7 5 5 7 3 8 4 9 2 10 1 11 63 12 64 13 68 14
REMARK SMILES IDX 65 16 66 17 67 18 11 19 12 20 13 21 14 23 15 24 16 25 62 26
REMARK SMILES IDX 17 27 61 28 18 29 19 30 20 31 55 32 21 33 60 34 54 35 56 36
REMARK SMILES IDX 22 37 59 38 53 39 52 40 23 42 45 43 30 44 44 45 31 46 34 47
REMARK SMILES IDX 43 48 57 49 32 50 33 51 42 53 58 54 35 55 24 56 25 57 29 58
REMARK SMILES IDX 26 59 28 60 27 61 46 62 47 63 51 64 48 65 50 66 49 67 36 68
REMARK SMILES IDX 37 69 41 70 38 71 40 72 39 73
REMARK H PARENT 8 6 63 15 12 22 56 41 34 52
REMARK Flexibility Score: inf
ROOT
ATOM      1  C   UNL A   1      32.296  28.203  27.537  1.00  0.00     0.042 C 
ENDROOT
BRANCH   1   2
ATOM      2  C   UNL A   1      31.782  27.323  26.406  1.00  0.00     0.118 C 
BRANCH   2   3
ATOM      3  N   UNL A   1      31.284  26.061  26.866  1.00  0.00    -0.351 N 
ATOM      4  C   UNL A   1      31.525  24.782  26.503  1.00  0.00     0.278 C 
ATOM      5  O   UNL A   1      30.908  23.964  27.207  1.00  0.00    -0.268 OA
ATOM      6  H   UNL A   1      30.631  26.142  27.599  1.00  0.00     0.163 HD
BRANCH   4   7
ATOM      7  C   UNL A   1      32.461  24.259  25.338  1.00  0.00     0.277 C 
BRANCH   7   8
ATOM      8  C   UNL A   1      32.195  24.507  23.811  1.00  0.00     0.054 C 
ATOM      9  C   UNL A   1      31.161  23.548  23.214  1.00  0.00     0.014 C 
BRANCH   8  10
ATOM     10  C   UNL A   1      32.259  25.964  23.252  1.00  0.00     0.006 C 
ATOM     11  C   UNL A   1      33.323  26.415  22.258  1.00  0.00     0.004 C 
ENDBRANCH   8  10
ENDBRANCH   7   8
BRANCH   7  12
ATOM     12  N   UNL A   1      33.879  24.495  25.794  1.00  0.00    -0.323 N 
ATOM     13  C   UNL A   1      34.340  23.315  26.610  1.00  0.00     0.275 C 
ATOM     14  C   UNL A   1      34.942  24.126  24.815  1.00  0.00     0.275 C 
ATOM     15  H   UNL A   1      33.816  25.455  26.131  1.00  0.00     0.348 HD
ATOM     16  C   UNL A   1      34.878  22.760  25.351  1.00  0.00     0.068 C 
ATOM     17  C   UNL A   1      34.390  21.544  24.620  1.00  0.00     0.020 C 
ATOM     18  C   UNL A   1      35.810  21.624  25.123  1.00  0.00     0.020 C 
ENDBRANCH   7  12
ENDBRANCH   4   7
ENDBRANCH   2   3
ENDBRANCH   1   2
BRANCH   1  19
ATOM     19  C   UNL A   1      33.520  29.011  27.150  1.00  0.00     0.118 C 
BRANCH  19  20
ATOM     20  N   UNL A   1      33.585  30.318  27.794  1.00  0.00    -0.352 N 
ATOM     21  C   UNL A   1      34.633  30.912  28.458  1.00  0.00     0.251 C 
ATOM     22  H   UNL A   1      32.761  30.852  27.745  1.00  0.00     0.163 HD
ATOM     23  O   UNL A   1      34.480  32.004  29.000  1.00  0.00    -0.269 OA
BRANCH  21  24
ATOM     24  C   UNL A   1      35.930  30.210  28.565  1.00  0.00     0.039 A 
ATOM     25  C   UNL A   1      36.831  30.278  27.497  1.00  0.00     0.014 A 
ATOM     26  C   UNL A   1      36.280  29.533  29.734  1.00  0.00     0.014 A 
ATOM     27  C   UNL A   1      38.116  29.748  27.641  1.00  0.00     0.010 A 
ATOM     28  C   UNL A   1      37.589  29.110  29.915  1.00  0.00     0.010 A 
ATOM     29  C   UNL A   1      38.522  29.207  28.870  1.00  0.00    -0.014 A 
BRANCH  29  30
ATOM     30  C   UNL A   1      39.895  28.694  29.101  1.00  0.00     0.031 A 
ATOM     31  C   UNL A   1      40.939  29.624  29.658  1.00  0.00     0.074 A 
ATOM     32  C   UNL A   1      40.230  27.446  28.719  1.00  0.00     0.049 A 
ATOM     33  N   UNL A   1      42.235  29.463  29.737  1.00  0.00    -0.248 NA
ATOM     34  C   UNL A   1      40.465  30.932  30.145  1.00  0.00     0.031 C 
ATOM     35  C   UNL A   1      39.324  26.454  28.137  1.00  0.00     0.029 A 
ATOM     36  N   UNL A   1      41.444  26.803  28.751  1.00  0.00    -0.354 N 
ATOM     37  C   UNL A   1      42.729  30.662  30.238  1.00  0.00     0.074 A 
ATOM     38  C   UNL A   1      41.605  31.557  30.393  1.00  0.00     0.031 C 
ATOM     39  C   UNL A   1      40.005  25.322  27.893  1.00  0.00     0.029 A 
ATOM     40  C   UNL A   1      41.405  25.523  28.252  1.00  0.00     0.049 A 
ATOM     41  H   UNL A   1      42.265  27.221  29.099  1.00  0.00     0.167 HD
ATOM     42  C   UNL A   1      44.003  30.982  30.564  1.00  0.00     0.031 A 
ATOM     43  C   UNL A   1      42.391  24.621  28.093  1.00  0.00     0.031 A 
ATOM     44  C   UNL A   1      45.111  30.076  30.459  1.00  0.00     0.049 A 
ATOM     45  C   UNL A   1      43.792  24.993  28.490  1.00  0.00     0.074 A 
ATOM     46  C   UNL A   1      46.436  30.286  30.798  1.00  0.00     0.029 A 
ATOM     47  N   UNL A   1      45.013  28.771  30.002  1.00  0.00    -0.354 N 
ATOM     48  N   UNL A   1      44.241  26.125  28.975  1.00  0.00    -0.248 NA
ATOM     49  C   UNL A   1      44.824  23.957  28.325  1.00  0.00     0.031 C 
ATOM     50  C   UNL A   1      47.144  29.110  30.531  1.00  0.00     0.029 A 
ATOM     51  C   UNL A   1      46.252  28.160  30.062  1.00  0.00     0.049 A 
ATOM     52  H   UNL A   1      44.186  28.343  29.683  1.00  0.00     0.167 HD
ATOM     53  C   UNL A   1      45.596  25.927  29.207  1.00  0.00     0.074 A 
ATOM     54  C   UNL A   1      45.894  24.563  28.818  1.00  0.00     0.031 C 
ATOM     55  C   UNL A   1      46.514  26.793  29.696  1.00  0.00     0.031 A 
BRANCH  42  56
ATOM     56  C   UNL A   1      44.251  32.369  31.086  1.00  0.00    -0.014 A 
ATOM     57  C   UNL A   1      44.552  33.427  30.212  1.00  0.00     0.009 A 
ATOM     58  C   UNL A   1      44.169  32.628  32.462  1.00  0.00     0.009 A 
ATOM     59  C   UNL A   1      44.804  34.706  30.710  1.00  0.00     0.001 A 
ATOM     60  C   UNL A   1      44.392  33.915  32.955  1.00  0.00     0.001 A 
ATOM     61  C   UNL A   1      44.719  34.951  32.079  1.00  0.00     0.000 A 
ENDBRANCH  42  56
BRANCH  43  62
ATOM     62  C   UNL A   1      42.095  23.269  27.549  1.00  0.00    -0.014 A 
ATOM     63  C   UNL A   1      42.329  22.987  26.194  1.00  0.00     0.009 A 
ATOM     64  C   UNL A   1      41.552  22.266  28.365  1.00  0.00     0.009 A 
ATOM     65  C   UNL A   1      41.991  21.741  25.659  1.00  0.00     0.001 A 
ATOM     66  C   UNL A   1      41.241  21.011  27.835  1.00  0.00     0.001 A 
ATOM     67  C   UNL A   1      41.449  20.754  26.481  1.00  0.00     0.000 A 
ENDBRANCH  43  62
BRANCH  55  68
ATOM     68  C   UNL A   1      47.907  26.276  29.901  1.00  0.00    -0.014 A 
ATOM     69  C   UNL A   1      48.842  26.272  28.856  1.00  0.00     0.009 A 
ATOM     70  C   UNL A   1      48.300  25.842  31.176  1.00  0.00     0.009 A 
ATOM     71  C   UNL A   1      50.142  25.815  29.082  1.00  0.00     0.001 A 
ATOM     72  C   UNL A   1      49.605  25.408  31.404  1.00  0.00     0.001 A 
ATOM     73  C   UNL A   1      50.523  25.390  30.355  1.00  0.00     0.000 A 
ENDBRANCH  55  68
ENDBRANCH  29  30
ENDBRANCH  21  24
ENDBRANCH  19  20
ENDBRANCH   1  19
TORSDOF 13
ENDMDL
MODEL 2
REMARK VINA RESULT:     -10.0      1.702      2.266
REMARK SMILES CC[C@H](C)[C@H](C(=O)NCCCNC(=O)c1ccc(-c2c3nc(c(-c4ccccc4)c4ccc([nH]4)c(-c4ccccc4)c4nc(c(-c5ccccc5)c5ccc2[nH]5)C=C4)C=C3)cc1)[NH+]1CC2(CC2)C1
REMARK SMILES IDX 10 1 9 2 8 3 6 4 7 5 5 7 3 8 4 9 2 10 1 11 63 12 64 13 68 14
REMARK SMILES IDX 65 16 66 17 67 18 11 19 12 20 13 21 14 23 15 24 16 25 62 26
REMARK SMILES IDX 17 27 61 28 18 29 19 30 20 31 55 32 21 33 60 34 54 35 56 36
REMARK SMILES IDX 22 37 59 38 53 39 52 40 23 42 45 43 30 44 44 45 31 46 34 47
REMARK SMILES IDX 43 48 57 49 32 50 33 51 42 53 58 54 35 55 24 56 25 57 29 58
REMARK SMILES IDX 26 59 28 60 27 61 46 62 47 63 51 64 48 65 50 66 49 67 36 68
REMARK SMILES IDX 37 69 41 70 38 71 40 72 39 73
REMARK H PARENT 8 6 63 15 12 22 56 41 34 52
REMARK Flexibility Score: inf
ROOT
ATOM      1  C   UNL A   1      32.167  28.988  26.933  1.00  0.00     0.042 C 
ENDROOT
BRANCH   1   2
ATOM      2  C   UNL A   1      31.715  29.645  25.636  1.00  0.00     0.118 C 
BRANCH   2   3
ATOM      3  N   UNL A   1      32.713  29.594  24.609  1.00  0.00    -0.351 N 
ATOM      4  C   UNL A   1      32.832  28.878  23.469  1.00  0.00     0.278 C 
ATOM      5  O   UNL A   1      33.851  29.180  22.823  1.00  0.00    -0.268 OA
ATOM      6  H   UNL A   1      33.468  30.206  24.766  1.00  0.00     0.163 HD
BRANCH   4   7
ATOM      7  C   UNL A   1      31.858  27.762  22.911  1.00  0.00     0.277 C 
BRANCH   7   8
ATOM      8  C   UNL A   1      30.343  28.000  22.577  1.00  0.00     0.054 C 
ATOM      9  C   UNL A   1      29.391  27.278  23.536  1.00  0.00     0.014 C 
BRANCH   8  10
ATOM     10  C   UNL A   1      29.896  29.378  21.994  1.00  0.00     0.006 C 
ATOM     11  C   UNL A   1      28.460  29.880  22.085  1.00  0.00     0.004 C 
ENDBRANCH   8  10
ENDBRANCH   7   8
BRANCH   7  12
ATOM     12  N   UNL A   1      32.637  26.998  21.871  1.00  0.00    -0.323 N 
ATOM     13  C   UNL A   1      33.556  26.022  22.558  1.00  0.00     0.275 C 
ATOM     14  C   UNL A   1      31.947  25.811  21.289  1.00  0.00     0.275 C 
ATOM     15  H   UNL A   1      32.937  27.757  21.258  1.00  0.00     0.348 HD
ATOM     16  C   UNL A   1      32.470  25.030  22.417  1.00  0.00     0.068 C 
ATOM     17  C   UNL A   1      31.660  24.417  23.520  1.00  0.00     0.020 C 
ATOM     18  C   UNL A   1      32.488  23.554  22.600  1.00  0.00     0.020 C 
ENDBRANCH   7  12
ENDBRANCH   4   7
ENDBRANCH   2   3
ENDBRANCH   1   2
BRANCH   1  19
ATOM     19  C   UNL A   1      33.579  29.370  27.330  1.00  0.00     0.118 C 
BRANCH  19  20
ATOM     20  N   UNL A   1      33.663  30.637  28.047  1.00  0.00    -0.352 N 
ATOM     21  C   UNL A   1      34.719  31.176  28.746  1.00  0.00     0.251 C 
ATOM     22  H   UNL A   1      32.847  31.186  28.027  1.00  0.00     0.163 HD
ATOM     23  O   UNL A   1      34.581  32.238  29.348  1.00  0.00    -0.269 OA
BRANCH  21  24
ATOM     24  C   UNL A   1      36.004  30.449  28.815  1.00  0.00     0.039 A 
ATOM     25  C   UNL A   1      36.848  30.451  27.700  1.00  0.00     0.014 A 
ATOM     26  C   UNL A   1      36.401  29.814  29.992  1.00  0.00     0.014 A 
ATOM     27  C   UNL A   1      38.127  29.898  27.800  1.00  0.00     0.010 A 
ATOM     28  C   UNL A   1      37.709  29.369  30.124  1.00  0.00     0.010 A 
ATOM     29  C   UNL A   1      38.586  29.400  29.028  1.00  0.00    -0.014 A 
BRANCH  29  30
ATOM     30  C   UNL A   1      39.959  28.865  29.210  1.00  0.00     0.031 A 
ATOM     31  C   UNL A   1      41.038  29.780  29.721  1.00  0.00     0.074 A 
ATOM     32  C   UNL A   1      40.259  27.610  28.822  1.00  0.00     0.049 A 
ATOM     33  N   UNL A   1      42.334  29.598  29.752  1.00  0.00    -0.248 NA
ATOM     34  C   UNL A   1      40.605  31.098  30.218  1.00  0.00     0.031 C 
ATOM     35  C   UNL A   1      39.315  26.630  28.280  1.00  0.00     0.029 A 
ATOM     36  N   UNL A   1      41.462  26.947  28.811  1.00  0.00    -0.354 N 
ATOM     37  C   UNL A   1      42.866  30.791  30.226  1.00  0.00     0.074 A 
ATOM     38  C   UNL A   1      41.764  31.705  30.420  1.00  0.00     0.031 C 
ATOM     39  C   UNL A   1      39.967  25.486  28.016  1.00  0.00     0.029 A 
ATOM     40  C   UNL A   1      41.383  25.666  28.320  1.00  0.00     0.049 A 
ATOM     41  H   UNL A   1      42.302  27.353  29.125  1.00  0.00     0.167 HD
ATOM     42  C   UNL A   1      44.157  31.092  30.502  1.00  0.00     0.031 A 
ATOM     43  C   UNL A   1      42.347  24.746  28.128  1.00  0.00     0.031 A 
ATOM     44  C   UNL A   1      45.245  30.166  30.360  1.00  0.00     0.049 A 
ATOM     45  C   UNL A   1      43.769  25.096  28.470  1.00  0.00     0.074 A 
ATOM     46  C   UNL A   1      46.586  30.356  30.647  1.00  0.00     0.029 A 
ATOM     47  N   UNL A   1      45.109  28.861  29.914  1.00  0.00    -0.354 N 
ATOM     48  N   UNL A   1      44.254  26.223  28.932  1.00  0.00    -0.248 NA
ATOM     49  C   UNL A   1      44.776  24.043  28.271  1.00  0.00     0.031 C 
ATOM     50  C   UNL A   1      47.264  29.167  30.359  1.00  0.00     0.029 A 
ATOM     51  C   UNL A   1      46.338  28.230  29.930  1.00  0.00     0.049 A 
ATOM     52  H   UNL A   1      44.263  28.446  29.629  1.00  0.00     0.167 HD
ATOM     53  C   UNL A   1      45.613  26.004  29.112  1.00  0.00     0.074 A 
ATOM     54  C   UNL A   1      45.874  24.634  28.720  1.00  0.00     0.031 C 
ATOM     55  C   UNL A   1      46.563  26.857  29.562  1.00  0.00     0.031 A 
BRANCH  42  56
ATOM     56  C   UNL A   1      44.448  32.477  31.007  1.00  0.00    -0.014 A 
ATOM     57  C   UNL A   1      44.732  33.525  30.116  1.00  0.00     0.009 A 
ATOM     58  C   UNL A   1      44.423  32.743  32.384  1.00  0.00     0.009 A 
ATOM     59  C   UNL A   1      45.024  34.802  30.597  1.00  0.00     0.001 A 
ATOM     60  C   UNL A   1      44.686  34.029  32.860  1.00  0.00     0.001 A 
ATOM     61  C   UNL A   1      44.996  35.054  31.968  1.00  0.00     0.000 A 
ENDBRANCH  42  56
BRANCH  43  62
ATOM     62  C   UNL A   1      42.009  23.397  27.604  1.00  0.00    -0.014 A 
ATOM     63  C   UNL A   1      42.120  23.125  26.231  1.00  0.00     0.009 A 
ATOM     64  C   UNL A   1      41.544  22.386  28.458  1.00  0.00     0.009 A 
ATOM     65  C   UNL A   1      41.740  21.881  25.720  1.00  0.00     0.001 A 
ATOM     66  C   UNL A   1      41.191  21.134  27.949  1.00  0.00     0.001 A 
ATOM     67  C   UNL A   1      41.278  20.887  26.580  1.00  0.00     0.000 A 
ENDBRANCH  43  62
BRANCH  55  68
ATOM     68  C   UNL A   1      47.954  26.318  29.716  1.00  0.00    -0.014 A 
ATOM     69  C   UNL A   1      48.880  26.380  28.664  1.00  0.00     0.009 A 
ATOM     70  C   UNL A   1      48.356  25.793  30.954  1.00  0.00     0.009 A 
ATOM     71  C   UNL A   1      50.178  25.900  28.844  1.00  0.00     0.001 A 
ATOM     72  C   UNL A   1      49.661  25.336  31.137  1.00  0.00     0.001 A 
ATOM     73  C   UNL A   1      50.568  25.385  30.081  1.00  0.00     0.000 A 
ENDBRANCH  55  68
ENDBRANCH  29  30
ENDBRANCH  21  24
ENDBRANCH  19  20
ENDBRANCH   1  19
TORSDOF 13
ENDMDL
MODEL 3
REMARK VINA RESULT:     -10.0      3.163      4.551
REMARK SMILES CC[C@H](C)[C@H](C(=O)NCCCNC(=O)c1ccc(-c2c3nc(c(-c4ccccc4)c4ccc([nH]4)c(-c4ccccc4)c4nc(c(-c5ccccc5)c5ccc2[nH]5)C=C4)C=C3)cc1)[NH+]1CC2(CC2)C1
REMARK SMILES IDX 10 1 9 2 8 3 6 4 7 5 5 7 3 8 4 9 2 10 1 11 63 12 64 13 68 14
REMARK SMILES IDX 65 16 66 17 67 18 11 19 12 20 13 21 14 23 15 24 16 25 62 26
REMARK SMILES IDX 17 27 61 28 18 29 19 30 20 31 55 32 21 33 60 34 54 35 56 36
REMARK SMILES IDX 22 37 59 38 53 39 52 40 23 42 45 43 30 44 44 45 31 46 34 47
REMARK SMILES IDX 43 48 57 49 32 50 33 51 42 53 58 54 35 55 24 56 25 57 29 58
REMARK SMILES IDX 26 59 28 60 27 61 46 62 47 63 51 64 48 65 50 66 49 67 36 68
REMARK SMILES IDX 37 69 41 70 38 71 40 72 39 73
REMARK H PARENT 8 6 63 15 12 22 56 41 34 52
REMARK Flexibility Score: inf
ROOT
ATOM      1  C   UNL A   1      31.453  31.822  26.501  1.00  0.00     0.042 C 
ENDROOT
BRANCH   1   2
ATOM      2  C   UNL A   1      31.778  30.462  25.898  1.00  0.00     0.118 C 
BRANCH   2   3
ATOM      3  N   UNL A   1      31.583  29.384  26.821  1.00  0.00    -0.351 N 
ATOM      4  C   UNL A   1      31.535  28.041  26.678  1.00  0.00     0.278 C 
ATOM      5  O   UNL A   1      31.395  27.453  27.765  1.00  0.00    -0.268 OA
ATOM      6  H   UNL A   1      31.459  29.682  27.751  1.00  0.00     0.163 HD
BRANCH   4   7
ATOM      7  C   UNL A   1      31.635  27.197  25.342  1.00  0.00     0.277 C 
BRANCH   7   8
ATOM      8  C   UNL A   1      30.504  27.125  24.257  1.00  0.00     0.054 C 
ATOM      9  C   UNL A   1      29.540  25.953  24.465  1.00  0.00     0.014 C 
BRANCH   8  10
ATOM     10  C   UNL A   1      29.936  28.449  23.656  1.00  0.00     0.006 C 
ATOM     11  C   UNL A   1      30.483  29.071  22.376  1.00  0.00     0.004 C 
ENDBRANCH   8  10
ENDBRANCH   7   8
BRANCH   7  12
ATOM     12  N   UNL A   1      33.030  27.408  24.810  1.00  0.00    -0.323 N 
ATOM     13  C   UNL A   1      34.028  26.971  25.850  1.00  0.00     0.275 C 
ATOM     14  C   UNL A   1      33.567  26.312  23.953  1.00  0.00     0.275 C 
ATOM     15  H   UNL A   1      32.951  28.351  24.429  1.00  0.00     0.348 HD
ATOM     16  C   UNL A   1      34.017  25.651  25.186  1.00  0.00     0.068 C 
ATOM     17  C   UNL A   1      33.484  24.365  25.746  1.00  0.00     0.020 C 
ATOM     18  C   UNL A   1      34.932  24.490  25.341  1.00  0.00     0.020 C 
ENDBRANCH   7  12
ENDBRANCH   4   7
ENDBRANCH   2   3
ENDBRANCH   1   2
BRANCH   1  19
ATOM     19  C   UNL A   1      32.625  32.439  27.239  1.00  0.00     0.118 C 
BRANCH  19  20
ATOM     20  N   UNL A   1      32.408  33.828  27.626  1.00  0.00    -0.352 N 
ATOM     21  C   UNL A   1      33.124  34.614  28.498  1.00  0.00     0.251 C 
ATOM     22  H   UNL A   1      31.636  34.267  27.200  1.00  0.00     0.163 HD
ATOM     23  O   UNL A   1      32.748  35.755  28.752  1.00  0.00    -0.269 OA
BRANCH  21  24
ATOM     24  C   UNL A   1      34.321  34.064  29.171  1.00  0.00     0.039 A 
ATOM     25  C   UNL A   1      34.158  33.283  30.319  1.00  0.00     0.014 A 
ATOM     26  C   UNL A   1      35.595  34.273  28.641  1.00  0.00     0.014 A 
ATOM     27  C   UNL A   1      35.263  32.635  30.877  1.00  0.00     0.010 A 
ATOM     28  C   UNL A   1      36.668  33.540  29.127  1.00  0.00     0.010 A 
ATOM     29  C   UNL A   1      36.517  32.716  30.254  1.00  0.00    -0.014 A 
BRANCH  29  30
ATOM     30  C   UNL A   1      37.709  31.993  30.763  1.00  0.00     0.031 A 
ATOM     31  C   UNL A   1      38.479  32.575  31.917  1.00  0.00     0.074 A 
ATOM     32  C   UNL A   1      38.159  30.890  30.133  1.00  0.00     0.049 A 
ATOM     33  N   UNL A   1      39.655  32.241  32.383  1.00  0.00    -0.248 NA
ATOM     34  C   UNL A   1      37.863  33.720  32.611  1.00  0.00     0.031 C 
ATOM     35  C   UNL A   1      37.527  30.241  28.983  1.00  0.00     0.029 A 
ATOM     36  N   UNL A   1      39.275  30.125  30.370  1.00  0.00    -0.354 N 
ATOM     37  C   UNL A   1      39.934  33.160  33.387  1.00  0.00     0.074 A 
ATOM     38  C   UNL A   1      38.833  34.096  33.429  1.00  0.00     0.031 C 
ATOM     39  C   UNL A   1      38.248  29.163  28.632  1.00  0.00     0.029 A 
ATOM     40  C   UNL A   1      39.419  29.073  29.497  1.00  0.00     0.049 A 
ATOM     41  H   UNL A   1      39.912  30.314  31.096  1.00  0.00     0.167 HD
ATOM     42  C   UNL A   1      41.001  33.209  34.219  1.00  0.00     0.031 A 
ATOM     43  C   UNL A   1      40.393  28.149  29.402  1.00  0.00     0.031 A 
ATOM     44  C   UNL A   1      42.068  32.249  34.211  1.00  0.00     0.049 A 
ATOM     45  C   UNL A   1      41.552  28.208  30.357  1.00  0.00     0.074 A 
ATOM     46  C   UNL A   1      43.178  32.183  35.036  1.00  0.00     0.029 A 
ATOM     47  N   UNL A   1      42.142  31.167  33.349  1.00  0.00    -0.354 N 
ATOM     48  N   UNL A   1      41.794  29.074  31.311  1.00  0.00    -0.248 NA
ATOM     49  C   UNL A   1      42.570  27.154  30.229  1.00  0.00     0.031 C 
ATOM     50  C   UNL A   1      43.932  31.066  34.661  1.00  0.00     0.029 A 
ATOM     51  C   UNL A   1      43.271  30.421  33.628  1.00  0.00     0.049 A 
ATOM     52  H   UNL A   1      41.488  30.962  32.641  1.00  0.00     0.167 HD
ATOM     53  C   UNL A   1      42.970  28.651  31.917  1.00  0.00     0.074 A 
ATOM     54  C   UNL A   1      43.387  27.446  31.231  1.00  0.00     0.031 C 
ATOM     55  C   UNL A   1      43.646  29.209  32.949  1.00  0.00     0.031 A 
BRANCH  42  56
ATOM     56  C   UNL A   1      41.044  34.329  35.218  1.00  0.00    -0.014 A 
ATOM     57  C   UNL A   1      41.660  35.552  34.907  1.00  0.00     0.009 A 
ATOM     58  C   UNL A   1      40.448  34.171  36.478  1.00  0.00     0.009 A 
ATOM     59  C   UNL A   1      41.715  36.578  35.851  1.00  0.00     0.001 A 
ATOM     60  C   UNL A   1      40.478  35.210  37.411  1.00  0.00     0.001 A 
ATOM     61  C   UNL A   1      41.120  36.408  37.100  1.00  0.00     0.000 A 
ENDBRANCH  42  56
BRANCH  43  62
ATOM     62  C   UNL A   1      40.314  27.073  28.378  1.00  0.00    -0.014 A 
ATOM     63  C   UNL A   1      40.905  27.253  27.118  1.00  0.00     0.009 A 
ATOM     64  C   UNL A   1      39.626  25.878  28.638  1.00  0.00     0.009 A 
ATOM     65  C   UNL A   1      40.778  26.277  26.127  1.00  0.00     0.001 A 
ATOM     66  C   UNL A   1      39.524  24.891  27.656  1.00  0.00     0.001 A 
ATOM     67  C   UNL A   1      40.090  25.096  26.398  1.00  0.00     0.000 A 
ENDBRANCH  43  62
BRANCH  55  68
ATOM     68  C   UNL A   1      44.866  28.488  33.441  1.00  0.00    -0.014 A 
ATOM     69  C   UNL A   1      46.142  28.794  32.944  1.00  0.00     0.009 A 
ATOM     70  C   UNL A   1      44.737  27.530  34.457  1.00  0.00     0.009 A 
ATOM     71  C   UNL A   1      47.265  28.131  33.442  1.00  0.00     0.001 A 
ATOM     72  C   UNL A   1      45.863  26.886  34.968  1.00  0.00     0.001 A 
ATOM     73  C   UNL A   1      47.125  27.183  34.456  1.00  0.00     0.000 A 
ENDBRANCH  55  68
ENDBRANCH  29  30
ENDBRANCH  21  24
ENDBRANCH  19  20
ENDBRANCH   1  19
TORSDOF 13
ENDMDL
