MODEL 1
REMARK VINA RESULT:     -10.2      0.000      0.000
REMARK SMILES CC[NH2+][C@]1(C(=O)NCCCNC(=O)c2ccc(-c3c4nc(c(-c5ccccc5)c5ccc([nH]5)c(-c5ccccc5)c5nc(c(-c6ccccc6)c6ccc3[nH]6)C=C5)C=C4)cc2)CCC[C@@H]1CCSc1ccccc1F
REMARK SMILES IDX 8 1 7 2 5 3 6 4 4 6 62 7 65 8 63 9 64 10 3 11 2 14 1 15
REMARK SMILES IDX 66 16 67 17 68 18 69 19 70 20 74 21 71 22 73 23 75 24 72 25
REMARK SMILES IDX 9 26 10 27 11 28 12 29 13 31 14 32 15 33 61 34 16 35 60 36
REMARK SMILES IDX 17 37 18 38 19 39 54 40 20 41 59 42 53 43 55 44 21 45 58 46
REMARK SMILES IDX 52 47 51 48 22 50 44 51 29 52 43 53 30 54 33 55 42 56 56 57
REMARK SMILES IDX 31 58 32 59 41 61 57 62 34 63 23 64 24 65 28 66 25 67 27 68
REMARK SMILES IDX 26 69 45 70 46 71 50 72 47 73 49 74 48 75 35 76 36 77 40 78
REMARK SMILES IDX 37 79 39 80 38 81
REMARK H PARENT 7 5 3 12 3 13 11 30 55 49 33 60
REMARK Flexibility Score: inf
ROOT
ATOM      1  C   UNL A   1      37.208  21.032  24.146  1.00  0.00     0.118 C 
ENDROOT
BRANCH   1   2
ATOM      2  N   UNL A   1      37.048  22.227  24.929  1.00  0.00    -0.351 N 
ATOM      3  C   UNL A   1      36.112  22.828  25.678  1.00  0.00     0.281 C 
ATOM      4  O   UNL A   1      36.728  23.577  26.452  1.00  0.00    -0.268 OA
ATOM      5  H   UNL A   1      37.872  22.765  24.909  1.00  0.00     0.163 HD
BRANCH   3   6
ATOM      6  C   UNL A   1      34.568  22.526  25.870  1.00  0.00     0.178 C 
ATOM      7  C   UNL A   1      34.176  21.963  27.231  1.00  0.00     0.079 C 
ATOM      8  C   UNL A   1      34.021  23.952  25.840  1.00  0.00     0.061 C 
ATOM      9  C   UNL A   1      32.829  22.584  27.549  1.00  0.00     0.008 C 
ATOM     10  C   UNL A   1      32.767  23.906  26.752  1.00  0.00     0.011 C 
BRANCH   6  11
ATOM     11  N   UNL A   1      33.894  21.654  24.844  1.00  0.00    -0.334 N 
ATOM     12  H   UNL A   1      32.993  22.087  24.641  1.00  0.00     0.347 HD
ATOM     13  H   UNL A   1      34.588  21.610  24.097  1.00  0.00     0.347 HD
BRANCH  11  14
ATOM     14  C   UNL A   1      33.621  20.225  25.117  1.00  0.00     0.257 C 
ATOM     15  C   UNL A   1      32.980  19.388  24.011  1.00  0.00     0.071 C 
ENDBRANCH  11  14
ENDBRANCH   6  11
BRANCH   8  16
ATOM     16  C   UNL A   1      33.917  24.614  24.411  1.00  0.00     0.022 C 
BRANCH  16  17
ATOM     17  C   UNL A   1      32.581  25.224  23.729  1.00  0.00     0.075 C 
BRANCH  17  18
ATOM     18  S   UNL A   1      31.457  26.809  23.979  1.00  0.00    -0.123 SA
BRANCH  18  19
ATOM     19  C   UNL A   1      32.046  27.961  25.269  1.00  0.00     0.043 A 
ATOM     20  C   UNL A   1      32.863  27.597  26.347  1.00  0.00     0.018 A 
ATOM     21  C   UNL A   1      31.600  29.302  25.283  1.00  0.00     0.136 A 
ATOM     22  C   UNL A   1      33.365  28.559  27.253  1.00  0.00     0.001 A 
ATOM     23  C   UNL A   1      32.110  30.270  26.162  1.00  0.00     0.040 A 
ATOM     24  F   UNL A   1      30.668  29.734  24.425  1.00  0.00    -0.206 F 
ATOM     25  C   UNL A   1      33.023  29.904  27.136  1.00  0.00     0.003 A 
ENDBRANCH  18  19
ENDBRANCH  17  18
ENDBRANCH  16  17
ENDBRANCH   8  16
ENDBRANCH   3   6
ENDBRANCH   1   2
BRANCH   1  26
ATOM     26  C   UNL A   1      37.737  19.893  24.998  1.00  0.00     0.042 C 
BRANCH  26  27
ATOM     27  C   UNL A   1      38.912  20.279  25.900  1.00  0.00     0.118 C 
BRANCH  27  28
ATOM     28  N   UNL A   1      40.034  19.350  25.854  1.00  0.00    -0.352 N 
ATOM     29  C   UNL A   1      41.357  19.570  26.127  1.00  0.00     0.251 C 
ATOM     30  H   UNL A   1      39.806  18.430  25.586  1.00  0.00     0.163 HD
ATOM     31  O   UNL A   1      42.180  18.665  25.969  1.00  0.00    -0.269 OA
BRANCH  29  32
ATOM     32  C   UNL A   1      41.811  20.893  26.584  1.00  0.00     0.039 A 
ATOM     33  C   UNL A   1      42.206  21.828  25.626  1.00  0.00     0.014 A 
ATOM     34  C   UNL A   1      41.869  21.207  27.947  1.00  0.00     0.014 A 
ATOM     35  C   UNL A   1      42.619  23.098  26.030  1.00  0.00     0.010 A 
ATOM     36  C   UNL A   1      42.233  22.493  28.344  1.00  0.00     0.010 A 
ATOM     37  C   UNL A   1      42.615  23.450  27.389  1.00  0.00    -0.014 A 
BRANCH  37  38
ATOM     38  C   UNL A   1      43.014  24.817  27.811  1.00  0.00     0.031 A 
ATOM     39  C   UNL A   1      41.972  25.862  28.101  1.00  0.00     0.074 A 
ATOM     40  C   UNL A   1      44.321  25.125  27.923  1.00  0.00     0.049 A 
ATOM     41  N   UNL A   1      42.133  27.101  28.493  1.00  0.00    -0.248 NA
ATOM     42  C   UNL A   1      40.567  25.468  27.915  1.00  0.00     0.031 C 
ATOM     43  C   UNL A   1      45.432  24.208  27.655  1.00  0.00     0.029 A 
ATOM     44  N   UNL A   1      44.937  26.293  28.298  1.00  0.00    -0.354 N 
ATOM     45  C   UNL A   1      40.855  27.635  28.595  1.00  0.00     0.074 A 
ATOM     46  C   UNL A   1      39.932  26.602  28.176  1.00  0.00     0.031 C 
ATOM     47  C   UNL A   1      46.590  24.840  27.903  1.00  0.00     0.029 A 
ATOM     48  C   UNL A   1      46.309  26.214  28.308  1.00  0.00     0.049 A 
ATOM     49  H   UNL A   1      44.442  27.109  28.538  1.00  0.00     0.167 HD
ATOM     50  C   UNL A   1      40.480  28.866  29.016  1.00  0.00     0.031 A 
ATOM     51  C   UNL A   1      47.237  27.145  28.601  1.00  0.00     0.031 A 
ATOM     52  C   UNL A   1      41.397  29.899  29.425  1.00  0.00     0.049 A 
ATOM     53  C   UNL A   1      46.795  28.520  29.019  1.00  0.00     0.074 A 
ATOM     54  C   UNL A   1      41.109  31.165  29.904  1.00  0.00     0.029 A 
ATOM     55  N   UNL A   1      42.778  29.788  29.393  1.00  0.00    -0.354 N 
ATOM     56  N   UNL A   1      45.580  28.987  29.174  1.00  0.00    -0.248 NA
ATOM     57  C   UNL A   1      47.856  29.494  29.315  1.00  0.00     0.031 C 
ATOM     58  C   UNL A   1      42.316  31.843  30.100  1.00  0.00     0.029 A 
ATOM     59  C   UNL A   1      43.356  30.974  29.812  1.00  0.00     0.049 A 
ATOM     60  H   UNL A   1      43.273  28.985  29.113  1.00  0.00     0.167 HD
ATOM     61  C   UNL A   1      45.730  30.297  29.615  1.00  0.00     0.074 A 
ATOM     62  C   UNL A   1      47.153  30.542  29.720  1.00  0.00     0.031 C 
ATOM     63  C   UNL A   1      44.774  31.211  29.910  1.00  0.00     0.031 A 
BRANCH  50  64
ATOM     64  C   UNL A   1      39.007  29.174  29.037  1.00  0.00    -0.014 A 
ATOM     65  C   UNL A   1      38.244  29.020  30.207  1.00  0.00     0.009 A 
ATOM     66  C   UNL A   1      38.378  29.661  27.880  1.00  0.00     0.009 A 
ATOM     67  C   UNL A   1      36.877  29.310  30.206  1.00  0.00     0.001 A 
ATOM     68  C   UNL A   1      37.019  29.980  27.891  1.00  0.00     0.001 A 
ATOM     69  C   UNL A   1      36.268  29.795  29.049  1.00  0.00     0.000 A 
ENDBRANCH  50  64
BRANCH  51  70
ATOM     70  C   UNL A   1      48.684  26.808  28.515  1.00  0.00    -0.014 A 
ATOM     71  C   UNL A   1      49.370  26.902  27.294  1.00  0.00     0.009 A 
ATOM     72  C   UNL A   1      49.382  26.373  29.652  1.00  0.00     0.009 A 
ATOM     73  C   UNL A   1      50.716  26.539  27.208  1.00  0.00     0.001 A 
ATOM     74  C   UNL A   1      50.736  26.043  29.570  1.00  0.00     0.001 A 
ATOM     75  C   UNL A   1      51.399  26.115  28.347  1.00  0.00     0.000 A 
ENDBRANCH  51  70
BRANCH  63  76
ATOM     76  C   UNL A   1      45.233  32.553  30.414  1.00  0.00    -0.014 A 
ATOM     77  C   UNL A   1      45.453  32.789  31.780  1.00  0.00     0.009 A 
ATOM     78  C   UNL A   1      45.488  33.586  29.498  1.00  0.00     0.009 A 
ATOM     79  C   UNL A   1      45.883  34.043  32.220  1.00  0.00     0.001 A 
ATOM     80  C   UNL A   1      45.951  34.827  29.936  1.00  0.00     0.001 A 
ATOM     81  C   UNL A   1      46.137  35.058  31.298  1.00  0.00     0.000 A 
ENDBRANCH  63  76
ENDBRANCH  37  38
ENDBRANCH  29  32
ENDBRANCH  27  28
ENDBRANCH  26  27
ENDBRANCH   1  26
TORSDOF 16
ENDMDL
MODEL 2
REMARK VINA RESULT:     -10.2      4.596      9.196
REMARK SMILES CC[NH2+][C@]1(C(=O)NCCCNC(=O)c2ccc(-c3c4nc(c(-c5ccccc5)c5ccc([nH]5)c(-c5ccccc5)c5nc(c(-c6ccccc6)c6ccc3[nH]6)C=C5)C=C4)cc2)CCC[C@@H]1CCSc1ccccc1F
REMARK SMILES IDX 8 1 7 2 5 3 6 4 4 6 62 7 65 8 63 9 64 10 3 11 2 14 1 15
REMARK SMILES IDX 66 16 67 17 68 18 69 19 70 20 74 21 71 22 73 23 75 24 72 25
REMARK SMILES IDX 9 26 10 27 11 28 12 29 13 31 14 32 15 33 61 34 16 35 60 36
REMARK SMILES IDX 17 37 18 38 19 39 54 40 20 41 59 42 53 43 55 44 21 45 58 46
REMARK SMILES IDX 52 47 51 48 22 50 44 51 29 52 43 53 30 54 33 55 42 56 56 57
REMARK SMILES IDX 31 58 32 59 41 61 57 62 34 63 23 64 24 65 28 66 25 67 27 68
REMARK SMILES IDX 26 69 45 70 46 71 50 72 47 73 49 74 48 75 35 76 36 77 40 78
REMARK SMILES IDX 37 79 39 80 38 81
REMARK H PARENT 7 5 3 12 3 13 11 30 55 49 33 60
REMARK Flexibility Score: inf
ROOT
ATOM      1  C   UNL A   1      31.608  30.614  26.536  1.00  0.00     0.118 C 
ENDROOT
BRANCH   1   2
ATOM      2  N   UNL A   1      31.394  30.163  25.187  1.00  0.00    -0.351 N 
ATOM      3  C   UNL A   1      31.284  29.010  24.511  1.00  0.00     0.281 C 
ATOM      4  O   UNL A   1      30.647  29.282  23.482  1.00  0.00    -0.268 OA
ATOM      5  H   UNL A   1      31.300  30.931  24.578  1.00  0.00     0.163 HD
BRANCH   3   6
ATOM      6  C   UNL A   1      31.568  27.511  24.939  1.00  0.00     0.178 C 
ATOM      7  C   UNL A   1      30.647  26.954  26.018  1.00  0.00     0.079 C 
ATOM      8  C   UNL A   1      31.174  26.796  23.649  1.00  0.00     0.061 C 
ATOM      9  C   UNL A   1      30.423  25.501  25.642  1.00  0.00     0.008 C 
ATOM     10  C   UNL A   1      30.649  25.412  24.117  1.00  0.00     0.011 C 
BRANCH   6  11
ATOM     11  N   UNL A   1      32.970  27.159  25.360  1.00  0.00    -0.334 N 
ATOM     12  H   UNL A   1      32.901  26.766  26.299  1.00  0.00     0.347 HD
ATOM     13  H   UNL A   1      33.285  26.551  24.604  1.00  0.00     0.347 HD
BRANCH  11  14
ATOM     14  C   UNL A   1      34.033  28.189  25.413  1.00  0.00     0.257 C 
ATOM     15  C   UNL A   1      34.525  28.648  26.785  1.00  0.00     0.071 C 
ENDBRANCH  11  14
ENDBRANCH   6  11
BRANCH   8  16
ATOM     16  C   UNL A   1      32.228  26.870  22.478  1.00  0.00     0.022 C 
BRANCH  16  17
ATOM     17  C   UNL A   1      33.256  25.699  22.033  1.00  0.00     0.075 C 
BRANCH  17  18
ATOM     18  S   UNL A   1      33.637  23.859  22.587  1.00  0.00    -0.123 SA
BRANCH  18  19
ATOM     19  C   UNL A   1      34.969  23.700  23.827  1.00  0.00     0.043 A 
ATOM     20  C   UNL A   1      34.928  24.252  25.113  1.00  0.00     0.018 A 
ATOM     21  C   UNL A   1      36.186  23.068  23.486  1.00  0.00     0.136 A 
ATOM     22  C   UNL A   1      35.950  24.004  26.059  1.00  0.00     0.001 A 
ATOM     23  C   UNL A   1      37.197  22.797  24.422  1.00  0.00     0.040 A 
ATOM     24  F   UNL A   1      36.435  22.666  22.234  1.00  0.00    -0.206 F 
ATOM     25  C   UNL A   1      37.066  23.240  25.726  1.00  0.00     0.003 A 
ENDBRANCH  18  19
ENDBRANCH  17  18
ENDBRANCH  16  17
ENDBRANCH   8  16
ENDBRANCH   3   6
ENDBRANCH   1   2
BRANCH   1  26
ATOM     26  C   UNL A   1      31.377  32.108  26.650  1.00  0.00     0.042 C 
BRANCH  26  27
ATOM     27  C   UNL A   1      32.632  32.910  27.011  1.00  0.00     0.118 C 
BRANCH  27  28
ATOM     28  N   UNL A   1      32.363  34.172  27.687  1.00  0.00    -0.352 N 
ATOM     29  C   UNL A   1      33.065  34.790  28.686  1.00  0.00     0.251 C 
ATOM     30  H   UNL A   1      31.557  34.649  27.381  1.00  0.00     0.163 HD
ATOM     31  O   UNL A   1      32.643  35.836  29.183  1.00  0.00    -0.269 OA
BRANCH  29  32
ATOM     32  C   UNL A   1      34.314  34.197  29.193  1.00  0.00     0.039 A 
ATOM     33  C   UNL A   1      34.253  33.394  30.333  1.00  0.00     0.014 A 
ATOM     34  C   UNL A   1      35.539  34.446  28.565  1.00  0.00     0.014 A 
ATOM     35  C   UNL A   1      35.418  32.801  30.821  1.00  0.00     0.010 A 
ATOM     36  C   UNL A   1      36.692  33.811  29.025  1.00  0.00     0.010 A 
ATOM     37  C   UNL A   1      36.643  32.985  30.161  1.00  0.00    -0.014 A 
BRANCH  37  38
ATOM     38  C   UNL A   1      37.872  32.316  30.659  1.00  0.00     0.031 A 
ATOM     39  C   UNL A   1      38.634  32.887  31.823  1.00  0.00     0.074 A 
ATOM     40  C   UNL A   1      38.312  31.195  30.055  1.00  0.00     0.049 A 
ATOM     41  N   UNL A   1      39.717  32.432  32.401  1.00  0.00    -0.248 NA
ATOM     42  C   UNL A   1      38.121  34.136  32.405  1.00  0.00     0.031 C 
ATOM     43  C   UNL A   1      37.674  30.548  28.905  1.00  0.00     0.029 A 
ATOM     44  N   UNL A   1      39.395  30.397  30.326  1.00  0.00    -0.354 N 
ATOM     45  C   UNL A   1      40.017  33.339  33.410  1.00  0.00     0.074 A 
ATOM     46  C   UNL A   1      39.032  34.396  33.331  1.00  0.00     0.031 C 
ATOM     47  C   UNL A   1      38.361  29.438  28.591  1.00  0.00     0.029 A 
ATOM     48  C   UNL A   1      39.507  29.315  29.486  1.00  0.00     0.049 A 
ATOM     49  H   UNL A   1      40.031  30.582  31.054  1.00  0.00     0.167 HD
ATOM     50  C   UNL A   1      41.010  33.290  34.329  1.00  0.00     0.031 A 
ATOM     51  C   UNL A   1      40.432  28.338  29.437  1.00  0.00     0.031 A 
ATOM     52  C   UNL A   1      41.998  32.244  34.403  1.00  0.00     0.049 A 
ATOM     53  C   UNL A   1      41.554  28.333  30.439  1.00  0.00     0.074 A 
ATOM     54  C   UNL A   1      43.020  32.089  35.323  1.00  0.00     0.029 A 
ATOM     55  N   UNL A   1      42.093  31.183  33.517  1.00  0.00    -0.354 N 
ATOM     56  N   UNL A   1      41.784  29.163  31.426  1.00  0.00    -0.248 NA
ATOM     57  C   UNL A   1      42.538  27.247  30.324  1.00  0.00     0.031 C 
ATOM     58  C   UNL A   1      43.772  30.969  34.955  1.00  0.00     0.029 A 
ATOM     59  C   UNL A   1      43.176  30.386  33.849  1.00  0.00     0.049 A 
ATOM     60  H   UNL A   1      41.481  31.020  32.763  1.00  0.00     0.167 HD
ATOM     61  C   UNL A   1      42.918  28.682  32.070  1.00  0.00     0.074 A 
ATOM     62  C   UNL A   1      43.317  27.479  31.371  1.00  0.00     0.031 C 
ATOM     63  C   UNL A   1      43.567  29.191  33.145  1.00  0.00     0.031 A 
BRANCH  50  64
ATOM     64  C   UNL A   1      41.093  34.418  35.323  1.00  0.00    -0.014 A 
ATOM     65  C   UNL A   1      40.396  34.370  36.542  1.00  0.00     0.009 A 
ATOM     66  C   UNL A   1      41.909  35.527  35.055  1.00  0.00     0.009 A 
ATOM     67  C   UNL A   1      40.484  35.426  37.451  1.00  0.00     0.001 A 
ATOM     68  C   UNL A   1      42.021  36.567  35.979  1.00  0.00     0.001 A 
ATOM     69  C   UNL A   1      41.301  36.522  37.170  1.00  0.00     0.000 A 
ENDBRANCH  50  64
BRANCH  51  70
ATOM     70  C   UNL A   1      40.338  27.274  28.401  1.00  0.00    -0.014 A 
ATOM     71  C   UNL A   1      40.965  27.429  27.155  1.00  0.00     0.009 A 
ATOM     72  C   UNL A   1      39.605  26.103  28.649  1.00  0.00     0.009 A 
ATOM     73  C   UNL A   1      40.833  26.449  26.169  1.00  0.00     0.001 A 
ATOM     74  C   UNL A   1      39.503  25.109  27.673  1.00  0.00     0.001 A 
ATOM     75  C   UNL A   1      40.106  25.287  26.430  1.00  0.00     0.000 A 
ENDBRANCH  51  70
BRANCH  63  76
ATOM     76  C   UNL A   1      44.757  28.427  33.660  1.00  0.00    -0.014 A 
ATOM     77  C   UNL A   1      46.055  28.682  33.188  1.00  0.00     0.009 A 
ATOM     78  C   UNL A   1      44.578  27.462  34.664  1.00  0.00     0.009 A 
ATOM     79  C   UNL A   1      47.142  27.960  33.687  1.00  0.00     0.001 A 
ATOM     80  C   UNL A   1      45.670  26.766  35.184  1.00  0.00     0.001 A 
ATOM     81  C   UNL A   1      46.949  27.007  34.688  1.00  0.00     0.000 A 
ENDBRANCH  63  76
ENDBRANCH  37  38
ENDBRANCH  29  32
ENDBRANCH  27  28
ENDBRANCH  26  27
ENDBRANCH   1  26
TORSDOF 16
ENDMDL
MODEL 3
REMARK VINA RESULT:     -10.1      1.546      6.260
REMARK SMILES CC[NH2+][C@]1(C(=O)NCCCNC(=O)c2ccc(-c3c4nc(c(-c5ccccc5)c5ccc([nH]5)c(-c5ccccc5)c5nc(c(-c6ccccc6)c6ccc3[nH]6)C=C5)C=C4)cc2)CCC[C@@H]1CCSc1ccccc1F
REMARK SMILES IDX 8 1 7 2 5 3 6 4 4 6 62 7 65 8 63 9 64 10 3 11 2 14 1 15
REMARK SMILES IDX 66 16 67 17 68 18 69 19 70 20 74 21 71 22 73 23 75 24 72 25
REMARK SMILES IDX 9 26 10 27 11 28 12 29 13 31 14 32 15 33 61 34 16 35 60 36
REMARK SMILES IDX 17 37 18 38 19 39 54 40 20 41 59 42 53 43 55 44 21 45 58 46
REMARK SMILES IDX 52 47 51 48 22 50 44 51 29 52 43 53 30 54 33 55 42 56 56 57
REMARK SMILES IDX 31 58 32 59 41 61 57 62 34 63 23 64 24 65 28 66 25 67 27 68
REMARK SMILES IDX 26 69 45 70 46 71 50 72 47 73 49 74 48 75 35 76 36 77 40 78
REMARK SMILES IDX 37 79 39 80 38 81
REMARK H PARENT 7 5 3 12 3 13 11 30 55 49 33 60
REMARK Flexibility Score: inf
ROOT
ATOM      1  C   UNL A   1      36.055  20.787  25.598  1.00  0.00     0.118 C 
ENDROOT
BRANCH   1   2
ATOM      2  N   UNL A   1      34.771  20.406  25.075  1.00  0.00    -0.351 N 
ATOM      3  C   UNL A   1      33.732  20.965  24.438  1.00  0.00     0.281 C 
ATOM      4  O   UNL A   1      33.153  20.035  23.856  1.00  0.00    -0.268 OA
ATOM      5  H   UNL A   1      34.606  19.449  25.231  1.00  0.00     0.163 HD
BRANCH   3   6
ATOM      6  C   UNL A   1      33.375  22.480  24.141  1.00  0.00     0.178 C 
ATOM      7  C   UNL A   1      33.718  22.969  22.738  1.00  0.00     0.079 C 
ATOM      8  C   UNL A   1      31.850  22.399  24.189  1.00  0.00     0.061 C 
ATOM      9  C   UNL A   1      32.598  23.920  22.360  1.00  0.00     0.008 C 
ATOM     10  C   UNL A   1      31.373  23.496  23.199  1.00  0.00     0.011 C 
BRANCH   6  11
ATOM     11  N   UNL A   1      33.904  23.522  25.090  1.00  0.00    -0.334 N 
ATOM     12  H   UNL A   1      33.141  24.179  25.254  1.00  0.00     0.347 HD
ATOM     13  H   UNL A   1      34.235  22.961  25.876  1.00  0.00     0.347 HD
BRANCH  11  14
ATOM     14  C   UNL A   1      35.093  24.334  24.748  1.00  0.00     0.257 C 
ATOM     15  C   UNL A   1      36.336  24.200  25.627  1.00  0.00     0.071 C 
ENDBRANCH  11  14
ENDBRANCH   6  11
BRANCH   8  16
ATOM     16  C   UNL A   1      31.216  22.327  25.631  1.00  0.00     0.022 C 
BRANCH  16  17
ATOM     17  C   UNL A   1      30.599  23.565  26.474  1.00  0.00     0.075 C 
BRANCH  17  18
ATOM     18  S   UNL A   1      30.181  25.447  26.131  1.00  0.00    -0.123 SA
BRANCH  18  19
ATOM     19  C   UNL A   1      31.607  26.456  25.595  1.00  0.00     0.043 A 
ATOM     20  C   UNL A   1      32.643  26.879  26.438  1.00  0.00     0.018 A 
ATOM     21  C   UNL A   1      31.672  26.951  24.273  1.00  0.00     0.136 A 
ATOM     22  C   UNL A   1      33.769  27.572  25.936  1.00  0.00     0.001 A 
ATOM     23  C   UNL A   1      32.794  27.618  23.759  1.00  0.00     0.040 A 
ATOM     24  F   UNL A   1      30.656  26.784  23.417  1.00  0.00    -0.206 F 
ATOM     25  C   UNL A   1      33.865  27.905  24.587  1.00  0.00     0.003 A 
ENDBRANCH  18  19
ENDBRANCH  17  18
ENDBRANCH  16  17
ENDBRANCH   8  16
ENDBRANCH   3   6
ENDBRANCH   1   2
BRANCH   1  26
ATOM     26  C   UNL A   1      37.152  19.899  25.041  1.00  0.00     0.042 C 
BRANCH  26  27
ATOM     27  C   UNL A   1      38.561  20.482  25.180  1.00  0.00     0.118 C 
BRANCH  27  28
ATOM     28  N   UNL A   1      39.602  19.488  25.403  1.00  0.00    -0.352 N 
ATOM     29  C   UNL A   1      40.824  19.627  26.005  1.00  0.00     0.251 C 
ATOM     30  H   UNL A   1      39.397  18.584  25.070  1.00  0.00     0.163 HD
ATOM     31  O   UNL A   1      41.606  18.675  26.044  1.00  0.00    -0.269 OA
BRANCH  29  32
ATOM     32  C   UNL A   1      41.223  20.920  26.585  1.00  0.00     0.039 A 
ATOM     33  C   UNL A   1      41.788  21.880  25.744  1.00  0.00     0.014 A 
ATOM     34  C   UNL A   1      41.062  21.180  27.950  1.00  0.00     0.014 A 
ATOM     35  C   UNL A   1      42.154  23.122  26.263  1.00  0.00     0.010 A 
ATOM     36  C   UNL A   1      41.382  22.440  28.456  1.00  0.00     0.010 A 
ATOM     37  C   UNL A   1      41.934  23.422  27.617  1.00  0.00    -0.014 A 
BRANCH  37  38
ATOM     38  C   UNL A   1      42.285  24.761  28.155  1.00  0.00     0.031 A 
ATOM     39  C   UNL A   1      43.701  25.078  28.552  1.00  0.00     0.074 A 
ATOM     40  C   UNL A   1      41.324  25.694  28.297  1.00  0.00     0.049 A 
ATOM     41  N   UNL A   1      44.193  26.195  29.026  1.00  0.00    -0.248 NA
ATOM     42  C   UNL A   1      44.688  23.997  28.411  1.00  0.00     0.031 C 
ATOM     43  C   UNL A   1      39.910  25.509  27.965  1.00  0.00     0.029 A 
ATOM     44  N   UNL A   1      41.392  26.987  28.753  1.00  0.00    -0.354 N 
ATOM     45  C   UNL A   1      45.544  25.951  29.244  1.00  0.00     0.074 A 
ATOM     46  C   UNL A   1      45.782  24.566  28.898  1.00  0.00     0.031 C 
ATOM     47  C   UNL A   1      39.251  26.655  28.200  1.00  0.00     0.029 A 
ATOM     48  C   UNL A   1      40.183  27.641  28.736  1.00  0.00     0.049 A 
ATOM     49  H   UNL A   1      42.227  27.406  29.063  1.00  0.00     0.167 HD
ATOM     50  C   UNL A   1      46.502  26.804  29.675  1.00  0.00     0.031 A 
ATOM     51  C   UNL A   1      39.860  28.892  29.116  1.00  0.00     0.031 A 
ATOM     52  C   UNL A   1      46.266  28.180  30.028  1.00  0.00     0.049 A 
ATOM     53  C   UNL A   1      40.935  29.805  29.638  1.00  0.00     0.074 A 
ATOM     54  C   UNL A   1      47.182  29.133  30.439  1.00  0.00     0.029 A 
ATOM     55  N   UNL A   1      45.023  28.795  30.024  1.00  0.00    -0.354 N 
ATOM     56  N   UNL A   1      42.219  29.578  29.774  1.00  0.00    -0.248 NA
ATOM     57  C   UNL A   1      40.516  31.154  30.047  1.00  0.00     0.031 C 
ATOM     58  C   UNL A   1      46.484  30.306  30.745  1.00  0.00     0.029 A 
ATOM     59  C   UNL A   1      45.144  30.106  30.456  1.00  0.00     0.049 A 
ATOM     60  H   UNL A   1      44.181  28.364  29.754  1.00  0.00     0.167 HD
ATOM     61  C   UNL A   1      42.765  30.763  30.254  1.00  0.00     0.074 A 
ATOM     62  C   UNL A   1      41.676  31.710  30.366  1.00  0.00     0.031 C 
ATOM     63  C   UNL A   1      44.054  31.040  30.568  1.00  0.00     0.031 A 
BRANCH  50  64
ATOM     64  C   UNL A   1      47.901  26.266  29.809  1.00  0.00    -0.014 A 
ATOM     65  C   UNL A   1      48.380  25.771  31.034  1.00  0.00     0.009 A 
ATOM     66  C   UNL A   1      48.742  26.217  28.686  1.00  0.00     0.009 A 
ATOM     67  C   UNL A   1      49.682  25.276  31.138  1.00  0.00     0.001 A 
ATOM     68  C   UNL A   1      50.032  25.692  28.786  1.00  0.00     0.001 A 
ATOM     69  C   UNL A   1      50.505  25.233  30.013  1.00  0.00     0.000 A 
ENDBRANCH  50  64
BRANCH  51  70
ATOM     70  C   UNL A   1      38.452  29.362  29.014  1.00  0.00    -0.014 A 
ATOM     71  C   UNL A   1      37.578  29.248  30.106  1.00  0.00     0.009 A 
ATOM     72  C   UNL A   1      37.970  29.912  27.816  1.00  0.00     0.009 A 
ATOM     73  C   UNL A   1      36.244  29.645  29.990  1.00  0.00     0.001 A 
ATOM     74  C   UNL A   1      36.645  30.340  27.714  1.00  0.00     0.001 A 
ATOM     75  C   UNL A   1      35.779  30.196  28.796  1.00  0.00     0.000 A 
ENDBRANCH  51  70
BRANCH  63  76
ATOM     76  C   UNL A   1      44.367  32.439  31.028  1.00  0.00    -0.014 A 
ATOM     77  C   UNL A   1      44.565  33.486  30.114  1.00  0.00     0.009 A 
ATOM     78  C   UNL A   1      44.424  32.719  32.403  1.00  0.00     0.009 A 
ATOM     79  C   UNL A   1      44.850  34.776  30.568  1.00  0.00     0.001 A 
ATOM     80  C   UNL A   1      44.675  34.015  32.854  1.00  0.00     0.001 A 
ATOM     81  C   UNL A   1      44.899  35.040  31.937  1.00  0.00     0.000 A 
ENDBRANCH  63  76
ENDBRANCH  37  38
ENDBRANCH  29  32
ENDBRANCH  27  28
ENDBRANCH  26  27
ENDBRANCH   1  26
TORSDOF 16
ENDMDL
