MODEL 1
REMARK VINA RESULT:      -8.7      0.000      0.000
REMARK SMILES CCCCOC(=O)[C@@H]1[C@H]2c3ccccc3[C@H](c3ccccc32)[C@@H]1C(=O)NCCCNC(=O)c1ccc(-c2c3nc(c(-c4ccccc4)c4ccc([nH]4)c(-c4ccccc4)c4nc(c(-c5ccccc5)c5ccc2[nH]5)C=C4)C=C3)cc1
REMARK SMILES IDX 24 1 25 2 26 3 23 5 8 6 9 7 22 8 10 9 16 10 21 11 17 12
REMARK SMILES IDX 15 13 11 14 20 15 18 16 14 17 12 18 19 19 13 20 6 21 7 22
REMARK SMILES IDX 5 23 4 24 3 25 2 26 1 27 27 28 28 29 29 30 30 31 31 32 32 34
REMARK SMILES IDX 33 35 34 36 80 37 35 38 79 39 36 40 37 41 38 42 73 43 39 44
REMARK SMILES IDX 78 45 72 46 74 47 40 48 77 49 71 50 70 51 41 53 63 54 48 55
REMARK SMILES IDX 62 56 49 57 52 58 61 59 75 60 50 61 51 62 60 64 76 65 53 66
REMARK SMILES IDX 42 67 43 68 47 69 44 70 46 71 45 72 64 73 65 74 69 75 66 76
REMARK SMILES IDX 68 77 67 78 54 79 55 80 59 81 56 82 58 83 57 84
REMARK H PARENT 26 4 30 33 74 52 52 63
REMARK Flexibility Score: inf
ROOT
ATOM      1  C   UNL A   1      44.441  23.800  30.619  1.00  0.00     0.224 C 
ATOM      2  O   UNL A   1      44.612  22.812  29.893  1.00  0.00    -0.275 OA
ATOM      3  N   UNL A   1      44.320  23.540  31.941  1.00  0.00    -0.356 N 
ATOM      4  H   UNL A   1      44.265  22.582  32.158  1.00  0.00     0.163 HD
ENDROOT
BRANCH   1   5
ATOM      5  C   UNL A   1      44.286  25.173  29.965  1.00  0.00     0.105 C 
ATOM      6  C   UNL A   1      43.432  25.399  28.669  1.00  0.00     0.124 C 
ATOM      7  C   UNL A   1      44.273  26.213  27.630  1.00  0.00     0.065 C 
ATOM      8  C   UNL A   1      45.648  25.570  27.424  1.00  0.00    -0.036 A 
ATOM      9  C   UNL A   1      44.590  27.548  28.344  1.00  0.00    -0.036 A 
ATOM     10  C   UNL A   1      45.650  25.918  29.869  1.00  0.00     0.063 C 
ATOM     11  C   UNL A   1      46.236  25.286  26.198  1.00  0.00     0.004 A 
ATOM     12  C   UNL A   1      46.402  25.454  28.624  1.00  0.00    -0.036 A 
ATOM     13  C   UNL A   1      45.305  27.378  29.568  1.00  0.00    -0.036 A 
ATOM     14  C   UNL A   1      44.365  28.821  27.842  1.00  0.00     0.004 A 
ATOM     15  C   UNL A   1      47.585  24.918  26.169  1.00  0.00     0.000 A 
ATOM     16  C   UNL A   1      47.753  25.127  28.587  1.00  0.00     0.004 A 
ATOM     17  C   UNL A   1      45.751  28.469  30.300  1.00  0.00     0.004 A 
ATOM     18  C   UNL A   1      44.834  29.917  28.574  1.00  0.00     0.000 A 
ATOM     19  C   UNL A   1      48.342  24.856  27.351  1.00  0.00     0.000 A 
ATOM     20  C   UNL A   1      45.510  29.744  29.793  1.00  0.00     0.000 A 
BRANCH   6  21
ATOM     21  C   UNL A   1      42.645  24.200  28.177  1.00  0.00     0.310 C 
ATOM     22  O   UNL A   1      41.673  23.740  28.773  1.00  0.00    -0.252 OA
BRANCH  21  23
ATOM     23  O   UNL A   1      43.020  23.792  26.937  1.00  0.00    -0.465 OA
BRANCH  23  24
ATOM     24  C   UNL A   1      43.316  22.383  26.802  1.00  0.00     0.233 C 
BRANCH  24  25
ATOM     25  C   UNL A   1      42.441  21.743  25.727  1.00  0.00     0.041 C 
BRANCH  25  26
ATOM     26  C   UNL A   1      41.311  20.868  26.270  1.00  0.00     0.000 C 
ATOM     27  C   UNL A   1      40.043  21.655  26.564  1.00  0.00     0.004 C 
ENDBRANCH  25  26
ENDBRANCH  24  25
ENDBRANCH  23  24
ENDBRANCH  21  23
ENDBRANCH   6  21
ENDBRANCH   1   5
BRANCH   3  28
ATOM     28  C   UNL A   1      44.255  24.407  33.099  1.00  0.00     0.117 C 
BRANCH  28  29
ATOM     29  C   UNL A   1      45.629  24.711  33.663  1.00  0.00     0.042 C 
BRANCH  29  30
ATOM     30  C   UNL A   1      45.736  24.371  35.135  1.00  0.00     0.118 C 
BRANCH  30  31
ATOM     31  N   UNL A   1      46.685  25.239  35.832  1.00  0.00    -0.352 N 
ATOM     32  C   UNL A   1      46.750  26.606  35.984  1.00  0.00     0.251 C 
ATOM     33  H   UNL A   1      47.417  24.754  36.275  1.00  0.00     0.163 HD
ATOM     34  O   UNL A   1      47.766  27.109  36.460  1.00  0.00    -0.269 OA
BRANCH  32  35
ATOM     35  C   UNL A   1      45.644  27.480  35.534  1.00  0.00     0.039 A 
ATOM     36  C   UNL A   1      44.373  27.363  36.079  1.00  0.00     0.014 A 
ATOM     37  C   UNL A   1      45.872  28.424  34.527  1.00  0.00     0.014 A 
ATOM     38  C   UNL A   1      43.293  27.940  35.433  1.00  0.00     0.010 A 
ATOM     39  C   UNL A   1      44.800  29.152  33.996  1.00  0.00     0.010 A 
ATOM     40  C   UNL A   1      43.486  28.859  34.392  1.00  0.00    -0.014 A 
BRANCH  40  41
ATOM     41  C   UNL A   1      42.300  29.487  33.749  1.00  0.00     0.031 A 
ATOM     42  C   UNL A   1      41.634  30.693  34.365  1.00  0.00     0.074 A 
ATOM     43  C   UNL A   1      41.875  29.020  32.556  1.00  0.00     0.049 A 
ATOM     44  N   UNL A   1      40.598  31.367  33.933  1.00  0.00    -0.248 NA
ATOM     45  C   UNL A   1      42.193  31.210  35.627  1.00  0.00     0.031 C 
ATOM     46  C   UNL A   1      42.464  27.885  31.837  1.00  0.00     0.029 A 
ATOM     47  N   UNL A   1      40.890  29.464  31.709  1.00  0.00    -0.354 N 
ATOM     48  C   UNL A   1      40.368  32.362  34.878  1.00  0.00     0.074 A 
ATOM     49  C   UNL A   1      41.347  32.187  35.924  1.00  0.00     0.031 C 
ATOM     50  C   UNL A   1      41.903  27.790  30.624  1.00  0.00     0.029 A 
ATOM     51  C   UNL A   1      40.836  28.776  30.521  1.00  0.00     0.049 A 
ATOM     52  H   UNL A   1      40.282  30.205  31.932  1.00  0.00     0.167 HD
ATOM     53  C   UNL A   1      39.433  33.341  34.863  1.00  0.00     0.031 A 
ATOM     54  C   UNL A   1      40.010  28.902  29.464  1.00  0.00     0.031 A 
ATOM     55  C   UNL A   1      38.476  33.523  33.803  1.00  0.00     0.049 A 
ATOM     56  C   UNL A   1      38.939  29.952  29.510  1.00  0.00     0.074 A 
ATOM     57  C   UNL A   1      37.482  34.481  33.703  1.00  0.00     0.029 A 
ATOM     58  N   UNL A   1      38.404  32.748  32.656  1.00  0.00    -0.354 N 
ATOM     59  N   UNL A   1      38.719  30.863  30.426  1.00  0.00    -0.248 NA
ATOM     60  C   UNL A   1      37.999  29.992  28.381  1.00  0.00     0.031 C 
ATOM     61  C   UNL A   1      36.767  34.245  32.529  1.00  0.00     0.029 A 
ATOM     62  C   UNL A   1      37.370  33.197  31.852  1.00  0.00     0.049 A 
ATOM     63  H   UNL A   1      38.997  31.991  32.445  1.00  0.00     0.167 HD
ATOM     64  C   UNL A   1      37.637  31.605  29.972  1.00  0.00     0.074 A 
ATOM     65  C   UNL A   1      37.257  31.048  28.690  1.00  0.00     0.031 C 
ATOM     66  C   UNL A   1      37.016  32.650  30.568  1.00  0.00     0.031 A 
BRANCH  53  67
ATOM     67  C   UNL A   1      39.380  34.304  36.020  1.00  0.00    -0.014 A 
ATOM     68  C   UNL A   1      40.079  35.520  35.946  1.00  0.00     0.009 A 
ATOM     69  C   UNL A   1      38.750  33.958  37.226  1.00  0.00     0.009 A 
ATOM     70  C   UNL A   1      40.176  36.354  37.062  1.00  0.00     0.001 A 
ATOM     71  C   UNL A   1      38.820  34.810  38.330  1.00  0.00     0.001 A 
ATOM     72  C   UNL A   1      39.544  36.000  38.252  1.00  0.00     0.000 A 
ENDBRANCH  53  67
BRANCH  54  73
ATOM     73  C   UNL A   1      40.175  28.011  28.283  1.00  0.00    -0.014 A 
ATOM     74  C   UNL A   1      39.546  26.754  28.234  1.00  0.00     0.009 A 
ATOM     75  C   UNL A   1      40.998  28.391  27.212  1.00  0.00     0.009 A 
ATOM     76  C   UNL A   1      39.764  25.888  27.161  1.00  0.00     0.001 A 
ATOM     77  C   UNL A   1      41.180  27.540  26.119  1.00  0.00     0.001 A 
ATOM     78  C   UNL A   1      40.575  26.285  26.101  1.00  0.00     0.000 A 
ENDBRANCH  54  73
BRANCH  66  79
ATOM     79  C   UNL A   1      35.883  33.311  29.831  1.00  0.00    -0.014 A 
ATOM     80  C   UNL A   1      36.168  34.171  28.757  1.00  0.00     0.009 A 
ATOM     81  C   UNL A   1      34.556  33.183  30.266  1.00  0.00     0.009 A 
ATOM     82  C   UNL A   1      35.152  34.906  28.148  1.00  0.00     0.001 A 
ATOM     83  C   UNL A   1      33.535  33.893  29.629  1.00  0.00     0.001 A 
ATOM     84  C   UNL A   1      33.836  34.763  28.581  1.00  0.00     0.000 A 
ENDBRANCH  66  79
ENDBRANCH  40  41
ENDBRANCH  32  35
ENDBRANCH  30  31
ENDBRANCH  29  30
ENDBRANCH  28  29
ENDBRANCH   3  28
TORSDOF 15
ENDMDL
MODEL 2
REMARK VINA RESULT:      -8.7      2.041      6.655
REMARK SMILES CCCCOC(=O)[C@@H]1[C@H]2c3ccccc3[C@H](c3ccccc32)[C@@H]1C(=O)NCCCNC(=O)c1ccc(-c2c3nc(c(-c4ccccc4)c4ccc([nH]4)c(-c4ccccc4)c4nc(c(-c5ccccc5)c5ccc2[nH]5)C=C4)C=C3)cc1
REMARK SMILES IDX 24 1 25 2 26 3 23 5 8 6 9 7 22 8 10 9 16 10 21 11 17 12
REMARK SMILES IDX 15 13 11 14 20 15 18 16 14 17 12 18 19 19 13 20 6 21 7 22
REMARK SMILES IDX 5 23 4 24 3 25 2 26 1 27 27 28 28 29 29 30 30 31 31 32 32 34
REMARK SMILES IDX 33 35 34 36 80 37 35 38 79 39 36 40 37 41 38 42 73 43 39 44
REMARK SMILES IDX 78 45 72 46 74 47 40 48 77 49 71 50 70 51 41 53 63 54 48 55
REMARK SMILES IDX 62 56 49 57 52 58 61 59 75 60 50 61 51 62 60 64 76 65 53 66
REMARK SMILES IDX 42 67 43 68 47 69 44 70 46 71 45 72 64 73 65 74 69 75 66 76
REMARK SMILES IDX 68 77 67 78 54 79 55 80 59 81 56 82 58 83 57 84
REMARK H PARENT 26 4 30 33 74 52 52 63
REMARK Flexibility Score: inf
ROOT
ATOM      1  C   UNL A   1      44.133  23.225  28.141  1.00  0.00     0.224 C 
ATOM      2  O   UNL A   1      45.215  22.624  28.138  1.00  0.00    -0.275 OA
ATOM      3  N   UNL A   1      43.062  22.499  28.535  1.00  0.00    -0.356 N 
ATOM      4  H   UNL A   1      43.252  21.541  28.663  1.00  0.00     0.163 HD
ENDROOT
BRANCH   1   5
ATOM      5  C   UNL A   1      44.089  24.660  27.617  1.00  0.00     0.105 C 
ATOM      6  C   UNL A   1      44.124  25.002  26.086  1.00  0.00     0.124 C 
ATOM      7  C   UNL A   1      45.208  26.100  25.825  1.00  0.00     0.065 C 
ATOM      8  C   UNL A   1      46.546  25.700  26.453  1.00  0.00    -0.036 A 
ATOM      9  C   UNL A   1      44.748  27.312  26.670  1.00  0.00    -0.036 A 
ATOM     10  C   UNL A   1      45.051  25.589  28.415  1.00  0.00     0.063 C 
ATOM     11  C   UNL A   1      47.782  25.729  25.818  1.00  0.00     0.004 A 
ATOM     12  C   UNL A   1      46.465  25.469  27.854  1.00  0.00    -0.036 A 
ATOM     13  C   UNL A   1      44.634  27.018  28.062  1.00  0.00    -0.036 A 
ATOM     14  C   UNL A   1      44.583  28.612  26.218  1.00  0.00     0.004 A 
ATOM     15  C   UNL A   1      48.937  25.560  26.589  1.00  0.00     0.000 A 
ATOM     16  C   UNL A   1      47.618  25.343  28.622  1.00  0.00     0.004 A 
ATOM     17  C   UNL A   1      44.319  28.007  28.984  1.00  0.00     0.004 A 
ATOM     18  C   UNL A   1      44.285  29.608  27.153  1.00  0.00     0.000 A 
ATOM     19  C   UNL A   1      48.857  25.386  27.980  1.00  0.00     0.000 A 
ATOM     20  C   UNL A   1      44.144  29.308  28.518  1.00  0.00     0.000 A 
BRANCH   6  21
ATOM     21  C   UNL A   1      44.056  23.818  25.142  1.00  0.00     0.310 C 
ATOM     22  O   UNL A   1      43.107  23.036  25.106  1.00  0.00    -0.252 OA
BRANCH  21  23
ATOM     23  O   UNL A   1      45.067  23.804  24.235  1.00  0.00    -0.465 OA
BRANCH  23  24
ATOM     24  C   UNL A   1      45.497  22.497  23.792  1.00  0.00     0.233 C 
BRANCH  24  25
ATOM     25  C   UNL A   1      46.160  21.727  24.932  1.00  0.00     0.041 C 
BRANCH  25  26
ATOM     26  C   UNL A   1      46.434  20.254  24.625  1.00  0.00     0.000 C 
ATOM     27  C   UNL A   1      45.170  19.407  24.614  1.00  0.00     0.004 C 
ENDBRANCH  25  26
ENDBRANCH  24  25
ENDBRANCH  23  24
ENDBRANCH  21  23
ENDBRANCH   6  21
ENDBRANCH   1   5
BRANCH   3  28
ATOM     28  C   UNL A   1      41.688  22.864  28.806  1.00  0.00     0.117 C 
BRANCH  28  29
ATOM     29  C   UNL A   1      40.738  22.345  27.744  1.00  0.00     0.042 C 
BRANCH  29  30
ATOM     30  C   UNL A   1      39.897  23.448  27.135  1.00  0.00     0.118 C 
BRANCH  30  31
ATOM     31  N   UNL A   1      40.627  24.189  26.105  1.00  0.00    -0.352 N 
ATOM     32  C   UNL A   1      40.853  25.533  25.917  1.00  0.00     0.251 C 
ATOM     33  H   UNL A   1      41.032  23.616  25.415  1.00  0.00     0.163 HD
ATOM     34  O   UNL A   1      41.341  25.917  24.856  1.00  0.00    -0.269 OA
BRANCH  32  35
ATOM     35  C   UNL A   1      40.467  26.526  26.944  1.00  0.00     0.039 A 
ATOM     36  C   UNL A   1      40.770  27.872  26.788  1.00  0.00     0.014 A 
ATOM     37  C   UNL A   1      39.807  26.103  28.103  1.00  0.00     0.014 A 
ATOM     38  C   UNL A   1      40.703  28.721  27.880  1.00  0.00     0.010 A 
ATOM     39  C   UNL A   1      39.569  27.012  29.142  1.00  0.00     0.010 A 
ATOM     40  C   UNL A   1      40.085  28.315  29.070  1.00  0.00    -0.014 A 
BRANCH  40  41
ATOM     41  C   UNL A   1      40.000  29.271  30.207  1.00  0.00     0.031 A 
ATOM     42  C   UNL A   1      38.957  30.361  30.224  1.00  0.00     0.074 A 
ATOM     43  C   UNL A   1      40.813  29.100  31.272  1.00  0.00     0.049 A 
ATOM     44  N   UNL A   1      38.739  31.273  31.139  1.00  0.00    -0.248 NA
ATOM     45  C   UNL A   1      38.043  30.448  29.072  1.00  0.00     0.031 C 
ATOM     46  C   UNL A   1      41.836  28.056  31.393  1.00  0.00     0.029 A 
ATOM     47  N   UNL A   1      40.878  29.759  32.474  1.00  0.00    -0.354 N 
ATOM     48  C   UNL A   1      37.689  32.050  30.661  1.00  0.00     0.074 A 
ATOM     49  C   UNL A   1      37.333  31.529  29.362  1.00  0.00     0.031 C 
ATOM     50  C   UNL A   1      42.348  28.079  32.629  1.00  0.00     0.029 A 
ATOM     51  C   UNL A   1      41.782  29.210  33.353  1.00  0.00     0.049 A 
ATOM     52  H   UNL A   1      40.331  30.549  32.687  1.00  0.00     0.167 HD
ATOM     53  C   UNL A   1      37.070  33.094  31.261  1.00  0.00     0.031 A 
ATOM     54  C   UNL A   1      42.138  29.578  34.599  1.00  0.00     0.031 A 
ATOM     55  C   UNL A   1      37.415  33.591  32.568  1.00  0.00     0.049 A 
ATOM     56  C   UNL A   1      41.482  30.783  35.207  1.00  0.00     0.074 A 
ATOM     57  C   UNL A   1      36.852  34.651  33.256  1.00  0.00     0.029 A 
ATOM     58  N   UNL A   1      38.396  33.055  33.388  1.00  0.00    -0.354 N 
ATOM     59  N   UNL A   1      40.513  31.523  34.727  1.00  0.00    -0.248 NA
ATOM     60  C   UNL A   1      41.968  31.208  36.527  1.00  0.00     0.031 C 
ATOM     61  C   UNL A   1      37.534  34.797  34.464  1.00  0.00     0.029 A 
ATOM     62  C   UNL A   1      38.463  33.775  34.568  1.00  0.00     0.049 A 
ATOM     63  H   UNL A   1      38.960  32.280  33.164  1.00  0.00     0.167 HD
ATOM     64  C   UNL A   1      40.251  32.481  35.696  1.00  0.00     0.074 A 
ATOM     65  C   UNL A   1      41.151  32.217  36.800  1.00  0.00     0.031 C 
ATOM     66  C   UNL A   1      39.347  33.489  35.669  1.00  0.00     0.031 A 
BRANCH  53  67
ATOM     67  C   UNL A   1      35.951  33.786  30.528  1.00  0.00    -0.014 A 
ATOM     68  C   UNL A   1      34.676  33.860  31.112  1.00  0.00     0.009 A 
ATOM     69  C   UNL A   1      36.120  34.250  29.214  1.00  0.00     0.009 A 
ATOM     70  C   UNL A   1      33.589  34.353  30.388  1.00  0.00     0.001 A 
ATOM     71  C   UNL A   1      35.038  34.774  28.504  1.00  0.00     0.001 A 
ATOM     72  C   UNL A   1      33.771  34.812  29.085  1.00  0.00     0.000 A 
ENDBRANCH  53  67
BRANCH  54  73
ATOM     73  C   UNL A   1      43.160  28.791  35.341  1.00  0.00    -0.014 A 
ATOM     74  C   UNL A   1      42.778  27.781  36.242  1.00  0.00     0.009 A 
ATOM     75  C   UNL A   1      44.527  29.070  35.187  1.00  0.00     0.009 A 
ATOM     76  C   UNL A   1      43.734  27.097  36.996  1.00  0.00     0.001 A 
ATOM     77  C   UNL A   1      45.484  28.355  35.911  1.00  0.00     0.001 A 
ATOM     78  C   UNL A   1      45.087  27.379  36.823  1.00  0.00     0.000 A 
ENDBRANCH  54  73
BRANCH  66  79
ATOM     79  C   UNL A   1      39.235  34.369  36.884  1.00  0.00    -0.014 A 
ATOM     80  C   UNL A   1      39.907  35.602  36.905  1.00  0.00     0.009 A 
ATOM     81  C   UNL A   1      38.574  33.934  38.042  1.00  0.00     0.009 A 
ATOM     82  C   UNL A   1      39.939  36.373  38.067  1.00  0.00     0.001 A 
ATOM     83  C   UNL A   1      38.576  34.726  39.193  1.00  0.00     0.001 A 
ATOM     84  C   UNL A   1      39.269  35.937  39.208  1.00  0.00     0.000 A 
ENDBRANCH  66  79
ENDBRANCH  40  41
ENDBRANCH  32  35
ENDBRANCH  30  31
ENDBRANCH  29  30
ENDBRANCH  28  29
ENDBRANCH   3  28
TORSDOF 15
ENDMDL
MODEL 3
REMARK VINA RESULT:      -8.6      2.067      6.690
REMARK SMILES CCCCOC(=O)[C@@H]1[C@H]2c3ccccc3[C@H](c3ccccc32)[C@@H]1C(=O)NCCCNC(=O)c1ccc(-c2c3nc(c(-c4ccccc4)c4ccc([nH]4)c(-c4ccccc4)c4nc(c(-c5ccccc5)c5ccc2[nH]5)C=C4)C=C3)cc1
REMARK SMILES IDX 24 1 25 2 26 3 23 5 8 6 9 7 22 8 10 9 16 10 21 11 17 12
REMARK SMILES IDX 15 13 11 14 20 15 18 16 14 17 12 18 19 19 13 20 6 21 7 22
REMARK SMILES IDX 5 23 4 24 3 25 2 26 1 27 27 28 28 29 29 30 30 31 31 32 32 34
REMARK SMILES IDX 33 35 34 36 80 37 35 38 79 39 36 40 37 41 38 42 73 43 39 44
REMARK SMILES IDX 78 45 72 46 74 47 40 48 77 49 71 50 70 51 41 53 63 54 48 55
REMARK SMILES IDX 62 56 49 57 52 58 61 59 75 60 50 61 51 62 60 64 76 65 53 66
REMARK SMILES IDX 42 67 43 68 47 69 44 70 46 71 45 72 64 73 65 74 69 75 66 76
REMARK SMILES IDX 68 77 67 78 54 79 55 80 59 81 56 82 58 83 57 84
REMARK H PARENT 26 4 30 33 74 52 52 63
REMARK Flexibility Score: inf
ROOT
ATOM      1  C   UNL A   1      44.318  23.316  28.002  1.00  0.00     0.224 C 
ATOM      2  O   UNL A   1      45.426  22.770  27.929  1.00  0.00    -0.275 OA
ATOM      3  N   UNL A   1      43.297  22.519  28.394  1.00  0.00    -0.356 N 
ATOM      4  H   UNL A   1      43.536  21.566  28.462  1.00  0.00     0.163 HD
ENDROOT
BRANCH   1   5
ATOM      5  C   UNL A   1      44.187  24.773  27.559  1.00  0.00     0.105 C 
ATOM      6  C   UNL A   1      44.158  25.197  26.049  1.00  0.00     0.124 C 
ATOM      7  C   UNL A   1      45.178  26.361  25.818  1.00  0.00     0.065 C 
ATOM      8  C   UNL A   1      46.553  25.997  26.386  1.00  0.00    -0.036 A 
ATOM      9  C   UNL A   1      44.685  27.502  26.740  1.00  0.00    -0.036 A 
ATOM     10  C   UNL A   1      45.126  25.706  28.380  1.00  0.00     0.063 C 
ATOM     11  C   UNL A   1      47.766  26.122  25.719  1.00  0.00     0.004 A 
ATOM     12  C   UNL A   1      46.527  25.688  27.774  1.00  0.00    -0.036 A 
ATOM     13  C   UNL A   1      44.629  27.129  28.117  1.00  0.00    -0.036 A 
ATOM     14  C   UNL A   1      44.443  28.814  26.365  1.00  0.00     0.004 A 
ATOM     15  C   UNL A   1      48.951  25.972  26.447  1.00  0.00     0.000 A 
ATOM     16  C   UNL A   1      47.707  25.580  28.501  1.00  0.00     0.004 A 
ATOM     17  C   UNL A   1      44.294  28.050  29.100  1.00  0.00     0.004 A 
ATOM     18  C   UNL A   1      44.125  29.743  27.361  1.00  0.00     0.000 A 
ATOM     19  C   UNL A   1      48.922  25.720  27.828  1.00  0.00     0.000 A 
ATOM     20  C   UNL A   1      44.041  29.363  28.711  1.00  0.00     0.000 A 
BRANCH   6  21
ATOM     21  C   UNL A   1      44.119  24.063  25.044  1.00  0.00     0.310 C 
ATOM     22  O   UNL A   1      43.083  23.495  24.705  1.00  0.00    -0.252 OA
BRANCH  21  23
ATOM     23  O   UNL A   1      45.317  23.850  24.439  1.00  0.00    -0.465 OA
BRANCH  23  24
ATOM     24  C   UNL A   1      45.475  22.567  23.792  1.00  0.00     0.233 C 
BRANCH  24  25
ATOM     25  C   UNL A   1      46.371  21.647  24.617  1.00  0.00     0.041 C 
BRANCH  25  26
ATOM     26  C   UNL A   1      45.794  20.250  24.858  1.00  0.00     0.000 C 
ATOM     27  C   UNL A   1      44.306  20.272  25.176  1.00  0.00     0.004 C 
ENDBRANCH  25  26
ENDBRANCH  24  25
ENDBRANCH  23  24
ENDBRANCH  21  23
ENDBRANCH   6  21
ENDBRANCH   1   5
BRANCH   3  28
ATOM     28  C   UNL A   1      41.918  22.802  28.732  1.00  0.00     0.117 C 
BRANCH  28  29
ATOM     29  C   UNL A   1      40.962  22.376  27.635  1.00  0.00     0.042 C 
BRANCH  29  30
ATOM     30  C   UNL A   1      40.064  23.509  27.182  1.00  0.00     0.118 C 
BRANCH  30  31
ATOM     31  N   UNL A   1      40.713  24.354  26.179  1.00  0.00    -0.352 N 
ATOM     32  C   UNL A   1      40.835  25.720  26.058  1.00  0.00     0.251 C 
ATOM     33  H   UNL A   1      41.143  23.850  25.452  1.00  0.00     0.163 HD
ATOM     34  O   UNL A   1      41.269  26.193  25.010  1.00  0.00    -0.269 OA
BRANCH  32  35
ATOM     35  C   UNL A   1      40.401  26.626  27.145  1.00  0.00     0.039 A 
ATOM     36  C   UNL A   1      40.696  27.983  27.106  1.00  0.00     0.014 A 
ATOM     37  C   UNL A   1      39.703  26.110  28.241  1.00  0.00     0.014 A 
ATOM     38  C   UNL A   1      40.580  28.743  28.257  1.00  0.00     0.010 A 
ATOM     39  C   UNL A   1      39.417  26.933  29.338  1.00  0.00     0.010 A 
ATOM     40  C   UNL A   1      39.923  28.240  29.388  1.00  0.00    -0.014 A 
BRANCH  40  41
ATOM     41  C   UNL A   1      39.786  29.104  30.592  1.00  0.00     0.031 A 
ATOM     42  C   UNL A   1      40.791  29.030  31.715  1.00  0.00     0.074 A 
ATOM     43  C   UNL A   1      38.798  30.023  30.632  1.00  0.00     0.049 A 
ATOM     44  N   UNL A   1      40.825  29.715  32.830  1.00  0.00    -0.248 NA
ATOM     45  C   UNL A   1      41.896  28.065  31.578  1.00  0.00     0.031 C 
ATOM     46  C   UNL A   1      37.787  30.222  29.587  1.00  0.00     0.029 A 
ATOM     47  N   UNL A   1      38.506  30.997  31.555  1.00  0.00    -0.354 N 
ATOM     48  C   UNL A   1      41.931  29.247  33.532  1.00  0.00     0.074 A 
ATOM     49  C   UNL A   1      42.523  28.196  32.738  1.00  0.00     0.031 C 
ATOM     50  C   UNL A   1      37.060  31.308  29.875  1.00  0.00     0.029 A 
ATOM     51  C   UNL A   1      37.468  31.816  31.178  1.00  0.00     0.049 A 
ATOM     52  H   UNL A   1      38.993  31.098  32.404  1.00  0.00     0.167 HD
ATOM     53  C   UNL A   1      42.414  29.668  34.725  1.00  0.00     0.031 A 
ATOM     54  C   UNL A   1      36.887  32.853  31.812  1.00  0.00     0.031 A 
ATOM     55  C   UNL A   1      41.832  30.733  35.498  1.00  0.00     0.049 A 
ATOM     56  C   UNL A   1      37.403  33.249  33.165  1.00  0.00     0.074 A 
ATOM     57  C   UNL A   1      42.244  31.224  36.725  1.00  0.00     0.029 A 
ATOM     58  N   UNL A   1      40.728  31.480  35.117  1.00  0.00    -0.354 N 
ATOM     59  N   UNL A   1      38.430  32.774  33.825  1.00  0.00    -0.248 NA
ATOM     60  C   UNL A   1      36.680  34.321  33.863  1.00  0.00     0.031 C 
ATOM     61  C   UNL A   1      41.353  32.224  37.115  1.00  0.00     0.029 A 
ATOM     62  C   UNL A   1      40.437  32.417  36.093  1.00  0.00     0.049 A 
ATOM     63  H   UNL A   1      40.226  31.361  34.278  1.00  0.00     0.167 HD
ATOM     64  C   UNL A   1      38.497  33.507  35.001  1.00  0.00     0.074 A 
ATOM     65  C   UNL A   1      37.418  34.472  34.956  1.00  0.00     0.031 C 
ATOM     66  C   UNL A   1      39.375  33.387  36.026  1.00  0.00     0.031 A 
BRANCH  53  67
ATOM     67  C   UNL A   1      43.635  28.988  35.288  1.00  0.00    -0.014 A 
ATOM     68  C   UNL A   1      44.913  29.379  34.853  1.00  0.00     0.009 A 
ATOM     69  C   UNL A   1      43.522  27.882  36.144  1.00  0.00     0.009 A 
ATOM     70  C   UNL A   1      46.046  28.661  35.238  1.00  0.00     0.001 A 
ATOM     71  C   UNL A   1      44.661  27.186  36.555  1.00  0.00     0.001 A 
ATOM     72  C   UNL A   1      45.920  27.566  36.090  1.00  0.00     0.000 A 
ENDBRANCH  53  67
BRANCH  54  73
ATOM     73  C   UNL A   1      35.761  33.582  31.166  1.00  0.00    -0.014 A 
ATOM     74  C   UNL A   1      35.775  33.851  29.785  1.00  0.00     0.009 A 
ATOM     75  C   UNL A   1      34.682  34.051  31.930  1.00  0.00     0.009 A 
ATOM     76  C   UNL A   1      34.756  34.602  29.194  1.00  0.00     0.001 A 
ATOM     77  C   UNL A   1      33.643  34.765  31.328  1.00  0.00     0.001 A 
ATOM     78  C   UNL A   1      33.687  35.051  29.965  1.00  0.00     0.000 A 
ENDBRANCH  54  73
BRANCH  66  79
ATOM     79  C   UNL A   1      39.252  34.348  37.176  1.00  0.00    -0.014 A 
ATOM     80  C   UNL A   1      39.856  35.614  37.084  1.00  0.00     0.009 A 
ATOM     81  C   UNL A   1      38.652  33.968  38.386  1.00  0.00     0.009 A 
ATOM     82  C   UNL A   1      39.881  36.470  38.184  1.00  0.00     0.001 A 
ATOM     83  C   UNL A   1      38.646  34.843  39.475  1.00  0.00     0.001 A 
ATOM     84  C   UNL A   1      39.272  36.086  39.377  1.00  0.00     0.000 A 
ENDBRANCH  66  79
ENDBRANCH  40  41
ENDBRANCH  32  35
ENDBRANCH  30  31
ENDBRANCH  29  30
ENDBRANCH  28  29
ENDBRANCH   3  28
TORSDOF 15
ENDMDL
