MODEL 1
REMARK VINA RESULT:     -11.6      0.000      0.000
REMARK SMILES C[C@@H]1C[N@@H+]([C@@H]2CC[C@]([NH2+]C3CC3)(C(=O)NCCCNC(=O)c3ccc(-c4c5nc(c(-c6ccccc6)c6ccc([nH]6)c(-c6ccccc6)c6nc(c(-c7ccccc7)c7ccc4[nH]7)C=C6)C=C5)cc3)C2)CC(C)(C)O1
REMARK SMILES IDX 17 1 16 2 15 3 13 4 14 5 8 7 5 8 6 9 70 10 7 11 4 12 1 13
REMARK SMILES IDX 2 14 3 15 75 16 72 17 71 18 73 20 74 21 9 22 10 25 11 26
REMARK SMILES IDX 12 27 18 28 19 29 20 30 21 32 22 33 23 34 69 35 24 36 68 37
REMARK SMILES IDX 25 38 26 39 27 40 62 41 28 42 67 43 61 44 63 45 29 46 66 47
REMARK SMILES IDX 60 48 59 49 30 51 52 52 37 53 51 54 38 55 41 56 50 57 64 58
REMARK SMILES IDX 39 59 40 60 49 62 65 63 42 64 31 65 32 66 36 67 33 68 35 69
REMARK SMILES IDX 34 70 53 71 54 72 58 73 55 74 57 75 56 76 43 77 44 78 48 79
REMARK SMILES IDX 45 80 47 81 46 82
REMARK H PARENT 15 6 4 19 9 23 9 24 19 31 63 50 41 61
REMARK Flexibility Score: inf
ROOT
ATOM      1  C   UNL A   1      33.943  28.754  26.108  1.00  0.00     0.042 C 
ENDROOT
BRANCH   1   2
ATOM      2  C   UNL A   1      33.269  29.365  24.897  1.00  0.00     0.118 C 
BRANCH   2   3
ATOM      3  N   UNL A   1      33.859  29.070  23.611  1.00  0.00    -0.351 N 
ATOM      4  C   UNL A   1      33.580  28.061  22.729  1.00  0.00     0.281 C 
ATOM      5  O   UNL A   1      34.161  28.137  21.637  1.00  0.00    -0.268 OA
ATOM      6  H   UNL A   1      34.570  29.690  23.326  1.00  0.00     0.163 HD
BRANCH   4   7
ATOM      7  C   UNL A   1      32.732  26.785  23.107  1.00  0.00     0.181 C 
ATOM      8  C   UNL A   1      33.181  24.427  23.584  1.00  0.00     0.191 C 
ATOM      9  C   UNL A   1      33.148  24.590  22.061  1.00  0.00     0.072 C 
ATOM     10  C   UNL A   1      33.364  25.843  24.156  1.00  0.00     0.144 C 
ATOM     11  C   UNL A   1      32.563  25.970  21.801  1.00  0.00     0.085 C 
BRANCH   8  12
ATOM     12  N   UNL A   1      34.094  23.412  24.136  1.00  0.00    -0.328 N 
ATOM     13  C   UNL A   1      34.665  20.271  24.897  1.00  0.00     0.045 C 
ATOM     14  C   UNL A   1      34.537  21.519  25.764  1.00  0.00     0.171 C 
ATOM     15  C   UNL A   1      33.535  22.552  25.197  1.00  0.00     0.294 C 
ATOM     16  O   UNL A   1      35.810  22.090  26.091  1.00  0.00    -0.361 OA
ATOM     17  C   UNL A   1      36.361  22.996  25.118  1.00  0.00     0.112 C 
ATOM     18  C   UNL A   1      35.314  24.048  24.678  1.00  0.00     0.297 C 
ATOM     19  H   UNL A   1      34.289  22.810  23.337  1.00  0.00     0.348 HD
ATOM     20  C   UNL A   1      36.942  22.241  23.916  1.00  0.00     0.048 C 
ATOM     21  C   UNL A   1      37.508  23.718  25.838  1.00  0.00     0.048 C 
ENDBRANCH   8  12
BRANCH   7  22
ATOM     22  N   UNL A   1      31.409  27.277  23.599  1.00  0.00    -0.331 N 
ATOM     23  H   UNL A   1      31.588  27.968  24.328  1.00  0.00     0.347 HD
ATOM     24  H   UNL A   1      30.914  26.442  23.912  1.00  0.00     0.347 HD
BRANCH  22  25
ATOM     25  C   UNL A   1      30.523  27.899  22.607  1.00  0.00     0.183 C 
ATOM     26  C   UNL A   1      29.106  28.202  23.018  1.00  0.00     0.071 C 
ATOM     27  C   UNL A   1      30.073  29.321  22.785  1.00  0.00     0.071 C 
ENDBRANCH  22  25
ENDBRANCH   7  22
ENDBRANCH   4   7
ENDBRANCH   2   3
ENDBRANCH   1   2
BRANCH   1  28
ATOM     28  C   UNL A   1      33.329  29.125  27.444  1.00  0.00     0.118 C 
BRANCH  28  29
ATOM     29  N   UNL A   1      33.608  30.494  27.857  1.00  0.00    -0.352 N 
ATOM     30  C   UNL A   1      34.738  31.082  28.377  1.00  0.00     0.251 C 
ATOM     31  H   UNL A   1      32.849  31.112  27.744  1.00  0.00     0.163 HD
ATOM     32  O   UNL A   1      34.686  32.249  28.760  1.00  0.00    -0.269 OA
BRANCH  30  33
ATOM     33  C   UNL A   1      35.999  30.321  28.537  1.00  0.00     0.039 A 
ATOM     34  C   UNL A   1      36.929  30.331  27.492  1.00  0.00     0.014 A 
ATOM     35  C   UNL A   1      36.282  29.605  29.699  1.00  0.00     0.014 A 
ATOM     36  C   UNL A   1      38.182  29.735  27.666  1.00  0.00     0.010 A 
ATOM     37  C   UNL A   1      37.566  29.114  29.916  1.00  0.00     0.010 A 
ATOM     38  C   UNL A   1      38.537  29.188  28.908  1.00  0.00    -0.014 A 
BRANCH  38  39
ATOM     39  C   UNL A   1      39.919  28.729  29.198  1.00  0.00     0.031 A 
ATOM     40  C   UNL A   1      40.913  29.653  29.845  1.00  0.00     0.074 A 
ATOM     41  C   UNL A   1      40.312  27.508  28.783  1.00  0.00     0.049 A 
ATOM     42  N   UNL A   1      42.187  29.465  30.077  1.00  0.00    -0.248 NA
ATOM     43  C   UNL A   1      40.413  30.973  30.261  1.00  0.00     0.031 C 
ATOM     44  C   UNL A   1      39.460  26.524  28.112  1.00  0.00     0.029 A 
ATOM     45  N   UNL A   1      41.536  26.888  28.856  1.00  0.00    -0.354 N 
ATOM     46  C   UNL A   1      42.645  30.646  30.648  1.00  0.00     0.074 A 
ATOM     47  C   UNL A   1      41.525  31.563  30.673  1.00  0.00     0.031 C 
ATOM     48  C   UNL A   1      40.173  25.414  27.868  1.00  0.00     0.029 A 
ATOM     49  C   UNL A   1      41.547  25.627  28.311  1.00  0.00     0.049 A 
ATOM     50  H   UNL A   1      42.329  27.309  29.259  1.00  0.00     0.167 HD
ATOM     51  C   UNL A   1      43.879  30.938  31.124  1.00  0.00     0.031 A 
ATOM     52  C   UNL A   1      42.552  24.743  28.169  1.00  0.00     0.031 A 
ATOM     53  C   UNL A   1      44.994  30.028  31.092  1.00  0.00     0.049 A 
ATOM     54  C   UNL A   1      43.927  25.111  28.645  1.00  0.00     0.074 A 
ATOM     55  C   UNL A   1      46.267  30.204  31.602  1.00  0.00     0.029 A 
ATOM     56  N   UNL A   1      44.970  28.772  30.503  1.00  0.00    -0.354 N 
ATOM     57  N   UNL A   1      44.326  26.204  29.247  1.00  0.00    -0.248 NA
ATOM     58  C   UNL A   1      44.992  24.123  28.416  1.00  0.00     0.031 C 
ATOM     59  C   UNL A   1      47.034  29.085  31.263  1.00  0.00     0.029 A 
ATOM     60  C   UNL A   1      46.220  28.183  30.595  1.00  0.00     0.049 A 
ATOM     61  H   UNL A   1      44.181  28.361  30.082  1.00  0.00     0.167 HD
ATOM     62  C   UNL A   1      45.683  26.031  29.484  1.00  0.00     0.074 A 
ATOM     63  C   UNL A   1      46.034  24.719  28.979  1.00  0.00     0.031 C 
ATOM     64  C   UNL A   1      46.560  26.885  30.070  1.00  0.00     0.031 A 
BRANCH  51  65
ATOM     65  C   UNL A   1      44.086  32.314  31.699  1.00  0.00    -0.014 A 
ATOM     66  C   UNL A   1      43.853  32.580  33.058  1.00  0.00     0.009 A 
ATOM     67  C   UNL A   1      44.522  33.358  30.871  1.00  0.00     0.009 A 
ATOM     68  C   UNL A   1      44.000  33.874  33.562  1.00  0.00     0.001 A 
ATOM     69  C   UNL A   1      44.702  34.644  31.385  1.00  0.00     0.001 A 
ATOM     70  C   UNL A   1      44.426  34.904  32.726  1.00  0.00     0.000 A 
ENDBRANCH  51  65
BRANCH  52  71
ATOM     71  C   UNL A   1      42.286  23.415  27.554  1.00  0.00    -0.014 A 
ATOM     72  C   UNL A   1      42.532  23.209  26.188  1.00  0.00     0.009 A 
ATOM     73  C   UNL A   1      41.810  22.344  28.326  1.00  0.00     0.009 A 
ATOM     74  C   UNL A   1      42.296  21.962  25.606  1.00  0.00     0.001 A 
ATOM     75  C   UNL A   1      41.603  21.090  27.748  1.00  0.00     0.001 A 
ATOM     76  C   UNL A   1      41.841  20.901  26.388  1.00  0.00     0.000 A 
ENDBRANCH  52  71
BRANCH  64  77
ATOM     77  C   UNL A   1      47.985  26.425  30.197  1.00  0.00    -0.014 A 
ATOM     78  C   UNL A   1      48.431  25.760  31.350  1.00  0.00     0.009 A 
ATOM     79  C   UNL A   1      48.879  26.611  29.131  1.00  0.00     0.009 A 
ATOM     80  C   UNL A   1      49.751  25.313  31.441  1.00  0.00     0.001 A 
ATOM     81  C   UNL A   1      50.188  26.136  29.213  1.00  0.00     0.001 A 
ATOM     82  C   UNL A   1      50.625  25.495  30.370  1.00  0.00     0.000 A 
ENDBRANCH  64  77
ENDBRANCH  38  39
ENDBRANCH  30  33
ENDBRANCH  28  29
ENDBRANCH   1  28
TORSDOF 13
ENDMDL
MODEL 2
REMARK VINA RESULT:     -11.4      0.826      5.987
REMARK SMILES C[C@@H]1C[N@@H+]([C@@H]2CC[C@]([NH2+]C3CC3)(C(=O)NCCCNC(=O)c3ccc(-c4c5nc(c(-c6ccccc6)c6ccc([nH]6)c(-c6ccccc6)c6nc(c(-c7ccccc7)c7ccc4[nH]7)C=C6)C=C5)cc3)C2)CC(C)(C)O1
REMARK SMILES IDX 17 1 16 2 15 3 13 4 14 5 8 7 5 8 6 9 70 10 7 11 4 12 1 13
REMARK SMILES IDX 2 14 3 15 75 16 72 17 71 18 73 20 74 21 9 22 10 25 11 26
REMARK SMILES IDX 12 27 18 28 19 29 20 30 21 32 22 33 23 34 69 35 24 36 68 37
REMARK SMILES IDX 25 38 26 39 27 40 62 41 28 42 67 43 61 44 63 45 29 46 66 47
REMARK SMILES IDX 60 48 59 49 30 51 52 52 37 53 51 54 38 55 41 56 50 57 64 58
REMARK SMILES IDX 39 59 40 60 49 62 65 63 42 64 31 65 32 66 36 67 33 68 35 69
REMARK SMILES IDX 34 70 53 71 54 72 58 73 55 74 57 75 56 76 43 77 44 78 48 79
REMARK SMILES IDX 45 80 47 81 46 82
REMARK H PARENT 15 6 4 19 9 23 9 24 19 31 63 50 41 61
REMARK Flexibility Score: inf
ROOT
ATOM      1  C   UNL A   1      33.885  28.768  25.984  1.00  0.00     0.042 C 
ENDROOT
BRANCH   1   2
ATOM      2  C   UNL A   1      33.214  29.317  24.742  1.00  0.00     0.118 C 
BRANCH   2   3
ATOM      3  N   UNL A   1      33.815  28.968  23.475  1.00  0.00    -0.351 N 
ATOM      4  C   UNL A   1      33.558  27.910  22.645  1.00  0.00     0.281 C 
ATOM      5  O   UNL A   1      34.142  27.940  21.552  1.00  0.00    -0.268 OA
ATOM      6  H   UNL A   1      34.515  29.585  23.160  1.00  0.00     0.163 HD
BRANCH   4   7
ATOM      7  C   UNL A   1      32.732  26.639  23.086  1.00  0.00     0.181 C 
ATOM      8  C   UNL A   1      33.214  24.298  23.611  1.00  0.00     0.191 C 
ATOM      9  C   UNL A   1      33.129  24.418  22.086  1.00  0.00     0.072 C 
ATOM     10  C   UNL A   1      33.406  25.730  24.138  1.00  0.00     0.144 C 
ATOM     11  C   UNL A   1      32.525  25.787  21.809  1.00  0.00     0.085 C 
BRANCH   8  12
ATOM     12  N   UNL A   1      34.152  23.304  24.159  1.00  0.00    -0.328 N 
ATOM     13  C   UNL A   1      34.788  20.181  24.943  1.00  0.00     0.045 C 
ATOM     14  C   UNL A   1      34.652  21.436  25.800  1.00  0.00     0.171 C 
ATOM     15  C   UNL A   1      33.625  22.446  25.238  1.00  0.00     0.294 C 
ATOM     16  O   UNL A   1      35.921  22.031  26.101  1.00  0.00    -0.361 OA
ATOM     17  C   UNL A   1      36.440  22.936  25.111  1.00  0.00     0.112 C 
ATOM     18  C   UNL A   1      35.370  23.965  24.676  1.00  0.00     0.297 C 
ATOM     19  H   UNL A   1      34.345  22.697  23.363  1.00  0.00     0.348 HD
ATOM     20  C   UNL A   1      37.016  22.178  23.908  1.00  0.00     0.048 C 
ATOM     21  C   UNL A   1      37.587  23.685  25.805  1.00  0.00     0.048 C 
ENDBRANCH   8  12
BRANCH   7  22
ATOM     22  N   UNL A   1      31.423  27.136  23.609  1.00  0.00    -0.331 N 
ATOM     23  H   UNL A   1      31.620  27.877  24.282  1.00  0.00     0.347 HD
ATOM     24  H   UNL A   1      30.964  26.314  24.000  1.00  0.00     0.347 HD
BRANCH  22  25
ATOM     25  C   UNL A   1      30.477  27.672  22.623  1.00  0.00     0.183 C 
ATOM     26  C   UNL A   1      29.146  28.173  23.122  1.00  0.00     0.071 C 
ATOM     27  C   UNL A   1      30.162  29.141  22.602  1.00  0.00     0.071 C 
ENDBRANCH  22  25
ENDBRANCH   7  22
ENDBRANCH   4   7
ENDBRANCH   2   3
ENDBRANCH   1   2
BRANCH   1  28
ATOM     28  C   UNL A   1      33.224  29.149  27.295  1.00  0.00     0.118 C 
BRANCH  28  29
ATOM     29  N   UNL A   1      33.471  30.527  27.697  1.00  0.00    -0.352 N 
ATOM     30  C   UNL A   1      34.571  31.135  28.256  1.00  0.00     0.251 C 
ATOM     31  H   UNL A   1      32.711  31.134  27.541  1.00  0.00     0.163 HD
ATOM     32  O   UNL A   1      34.490  32.308  28.618  1.00  0.00    -0.269 OA
BRANCH  30  33
ATOM     33  C   UNL A   1      35.832  30.391  28.484  1.00  0.00     0.039 A 
ATOM     34  C   UNL A   1      36.803  30.389  27.476  1.00  0.00     0.014 A 
ATOM     35  C   UNL A   1      36.074  29.702  29.670  1.00  0.00     0.014 A 
ATOM     36  C   UNL A   1      38.054  29.809  27.714  1.00  0.00     0.010 A 
ATOM     37  C   UNL A   1      37.353  29.230  29.950  1.00  0.00     0.010 A 
ATOM     38  C   UNL A   1      38.363  29.291  28.981  1.00  0.00    -0.014 A 
BRANCH  38  39
ATOM     39  C   UNL A   1      39.737  28.853  29.336  1.00  0.00     0.031 A 
ATOM     40  C   UNL A   1      40.253  27.515  28.888  1.00  0.00     0.074 A 
ATOM     41  C   UNL A   1      40.486  29.621  30.153  1.00  0.00     0.049 A 
ATOM     42  N   UNL A   1      41.380  26.921  29.189  1.00  0.00    -0.248 NA
ATOM     43  C   UNL A   1      39.375  26.729  28.007  1.00  0.00     0.031 C 
ATOM     44  C   UNL A   1      40.092  30.926  30.689  1.00  0.00     0.029 A 
ATOM     45  N   UNL A   1      41.734  29.409  30.685  1.00  0.00    -0.354 N 
ATOM     46  C   UNL A   1      41.339  25.688  28.551  1.00  0.00     0.074 A 
ATOM     47  C   UNL A   1      40.052  25.596  27.895  1.00  0.00     0.031 C 
ATOM     48  C   UNL A   1      41.091  31.415  31.440  1.00  0.00     0.029 A 
ATOM     49  C   UNL A   1      42.170  30.434  31.490  1.00  0.00     0.049 A 
ATOM     50  H   UNL A   1      42.265  28.600  30.508  1.00  0.00     0.167 HD
ATOM     51  C   UNL A   1      42.290  24.724  28.500  1.00  0.00     0.031 A 
ATOM     52  C   UNL A   1      43.305  30.568  32.201  1.00  0.00     0.031 A 
ATOM     53  C   UNL A   1      43.567  24.813  29.158  1.00  0.00     0.049 A 
ATOM     54  C   UNL A   1      44.318  29.460  32.182  1.00  0.00     0.074 A 
ATOM     55  C   UNL A   1      44.623  23.920  29.119  1.00  0.00     0.029 A 
ATOM     56  N   UNL A   1      43.955  25.855  29.988  1.00  0.00    -0.354 N 
ATOM     57  N   UNL A   1      44.294  28.332  31.516  1.00  0.00    -0.248 NA
ATOM     58  C   UNL A   1      45.514  29.644  33.018  1.00  0.00     0.031 C 
ATOM     59  C   UNL A   1      45.622  24.387  29.979  1.00  0.00     0.029 A 
ATOM     60  C   UNL A   1      45.215  25.602  30.505  1.00  0.00     0.049 A 
ATOM     61  H   UNL A   1      43.415  26.654  30.182  1.00  0.00     0.167 HD
ATOM     62  C   UNL A   1      45.475  27.677  31.839  1.00  0.00     0.074 A 
ATOM     63  C   UNL A   1      46.202  28.544  32.744  1.00  0.00     0.031 C 
ATOM     64  C   UNL A   1      45.918  26.465  31.421  1.00  0.00     0.031 A 
BRANCH  51  65
ATOM     65  C   UNL A   1      41.965  23.479  27.719  1.00  0.00    -0.014 A 
ATOM     66  C   UNL A   1      42.331  23.346  26.369  1.00  0.00     0.009 A 
ATOM     67  C   UNL A   1      41.285  22.421  28.342  1.00  0.00     0.009 A 
ATOM     68  C   UNL A   1      41.975  22.205  25.648  1.00  0.00     0.001 A 
ATOM     69  C   UNL A   1      40.961  21.266  27.627  1.00  0.00     0.001 A 
ATOM     70  C   UNL A   1      41.292  21.166  26.277  1.00  0.00     0.000 A 
ENDBRANCH  51  65
BRANCH  52  71
ATOM     71  C   UNL A   1      43.544  31.809  32.984  1.00  0.00    -0.014 A 
ATOM     72  C   UNL A   1      43.119  31.893  34.318  1.00  0.00     0.009 A 
ATOM     73  C   UNL A   1      44.215  32.903  32.416  1.00  0.00     0.009 A 
ATOM     74  C   UNL A   1      43.351  33.051  35.064  1.00  0.00     0.001 A 
ATOM     75  C   UNL A   1      44.472  34.048  33.173  1.00  0.00     0.001 A 
ATOM     76  C   UNL A   1      44.035  34.123  34.494  1.00  0.00     0.000 A 
ENDBRANCH  52  71
BRANCH  64  77
ATOM     77  C   UNL A   1      47.252  26.005  31.938  1.00  0.00    -0.014 A 
ATOM     78  C   UNL A   1      47.355  25.281  33.135  1.00  0.00     0.009 A 
ATOM     79  C   UNL A   1      48.415  26.253  31.191  1.00  0.00     0.009 A 
ATOM     80  C   UNL A   1      48.600  24.836  33.587  1.00  0.00     0.001 A 
ATOM     81  C   UNL A   1      49.653  25.782  31.629  1.00  0.00     0.001 A 
ATOM     82  C   UNL A   1      49.745  25.080  32.830  1.00  0.00     0.000 A 
ENDBRANCH  64  77
ENDBRANCH  38  39
ENDBRANCH  30  33
ENDBRANCH  28  29
ENDBRANCH   1  28
TORSDOF 13
ENDMDL
MODEL 3
REMARK VINA RESULT:     -11.3      3.005      6.515
REMARK SMILES C[C@@H]1C[N@@H+]([C@@H]2CC[C@]([NH2+]C3CC3)(C(=O)NCCCNC(=O)c3ccc(-c4c5nc(c(-c6ccccc6)c6ccc([nH]6)c(-c6ccccc6)c6nc(c(-c7ccccc7)c7ccc4[nH]7)C=C6)C=C5)cc3)C2)CC(C)(C)O1
REMARK SMILES IDX 17 1 16 2 15 3 13 4 14 5 8 7 5 8 6 9 70 10 7 11 4 12 1 13
REMARK SMILES IDX 2 14 3 15 75 16 72 17 71 18 73 20 74 21 9 22 10 25 11 26
REMARK SMILES IDX 12 27 18 28 19 29 20 30 21 32 22 33 23 34 69 35 24 36 68 37
REMARK SMILES IDX 25 38 26 39 27 40 62 41 28 42 67 43 61 44 63 45 29 46 66 47
REMARK SMILES IDX 60 48 59 49 30 51 52 52 37 53 51 54 38 55 41 56 50 57 64 58
REMARK SMILES IDX 39 59 40 60 49 62 65 63 42 64 31 65 32 66 36 67 33 68 35 69
REMARK SMILES IDX 34 70 53 71 54 72 58 73 55 74 57 75 56 76 43 77 44 78 48 79
REMARK SMILES IDX 45 80 47 81 46 82
REMARK H PARENT 15 6 4 19 9 23 9 24 19 31 63 50 41 61
REMARK Flexibility Score: inf
ROOT
ATOM      1  C   UNL A   1      32.163  30.081  25.355  1.00  0.00     0.042 C 
ENDROOT
BRANCH   1   2
ATOM      2  C   UNL A   1      33.352  29.154  25.209  1.00  0.00     0.118 C 
BRANCH   2   3
ATOM      3  N   UNL A   1      33.882  28.987  23.876  1.00  0.00    -0.351 N 
ATOM      4  C   UNL A   1      33.561  28.067  22.914  1.00  0.00     0.281 C 
ATOM      5  O   UNL A   1      34.092  28.250  21.809  1.00  0.00    -0.268 OA
ATOM      6  H   UNL A   1      34.580  29.633  23.620  1.00  0.00     0.163 HD
BRANCH   4   7
ATOM      7  C   UNL A   1      32.729  26.758  23.205  1.00  0.00     0.181 C 
ATOM      8  C   UNL A   1      33.215  24.393  23.602  1.00  0.00     0.191 C 
ATOM      9  C   UNL A   1      33.238  24.618  22.086  1.00  0.00     0.072 C 
ATOM     10  C   UNL A   1      33.342  25.787  24.239  1.00  0.00     0.144 C 
ATOM     11  C   UNL A   1      32.630  25.995  21.861  1.00  0.00     0.085 C 
BRANCH   8  12
ATOM     12  N   UNL A   1      34.130  23.376  24.147  1.00  0.00    -0.328 N 
ATOM     13  C   UNL A   1      34.701  20.232  24.901  1.00  0.00     0.045 C 
ATOM     14  C   UNL A   1      34.578  21.480  25.771  1.00  0.00     0.171 C 
ATOM     15  C   UNL A   1      33.575  22.514  25.211  1.00  0.00     0.294 C 
ATOM     16  O   UNL A   1      35.855  22.049  26.092  1.00  0.00    -0.361 OA
ATOM     17  C   UNL A   1      36.401  22.955  25.118  1.00  0.00     0.112 C 
ATOM     18  C   UNL A   1      35.353  24.009  24.684  1.00  0.00     0.297 C 
ATOM     19  H   UNL A   1      34.320  22.775  23.347  1.00  0.00     0.348 HD
ATOM     20  C   UNL A   1      36.976  22.201  23.912  1.00  0.00     0.048 C 
ATOM     21  C   UNL A   1      37.553  23.675  25.833  1.00  0.00     0.048 C 
ENDBRANCH   8  12
BRANCH   7  22
ATOM     22  N   UNL A   1      31.377  27.200  23.663  1.00  0.00    -0.331 N 
ATOM     23  H   UNL A   1      31.507  27.998  24.285  1.00  0.00     0.347 HD
ATOM     24  H   UNL A   1      30.964  26.377  24.103  1.00  0.00     0.347 HD
BRANCH  22  25
ATOM     25  C   UNL A   1      30.422  27.599  22.622  1.00  0.00     0.183 C 
ATOM     26  C   UNL A   1      29.144  28.270  23.056  1.00  0.00     0.071 C 
ATOM     27  C   UNL A   1      30.192  29.054  22.329  1.00  0.00     0.071 C 
ENDBRANCH  22  25
ENDBRANCH   7  22
ENDBRANCH   4   7
ENDBRANCH   2   3
ENDBRANCH   1   2
BRANCH   1  28
ATOM     28  C   UNL A   1      31.856  30.519  26.774  1.00  0.00     0.118 C 
BRANCH  28  29
ATOM     29  N   UNL A   1      31.897  31.963  26.964  1.00  0.00    -0.352 N 
ATOM     30  C   UNL A   1      32.860  32.790  27.494  1.00  0.00     0.251 C 
ATOM     31  H   UNL A   1      31.088  32.433  26.657  1.00  0.00     0.163 HD
ATOM     32  O   UNL A   1      32.606  33.983  27.653  1.00  0.00    -0.269 OA
BRANCH  30  33
ATOM     33  C   UNL A   1      34.175  32.264  27.930  1.00  0.00     0.039 A 
ATOM     34  C   UNL A   1      35.252  33.151  28.042  1.00  0.00     0.014 A 
ATOM     35  C   UNL A   1      34.362  30.917  28.234  1.00  0.00     0.014 A 
ATOM     36  C   UNL A   1      36.466  32.711  28.578  1.00  0.00     0.010 A 
ATOM     37  C   UNL A   1      35.528  30.506  28.874  1.00  0.00     0.010 A 
ATOM     38  C   UNL A   1      36.588  31.401  29.067  1.00  0.00    -0.014 A 
BRANCH  38  39
ATOM     39  C   UNL A   1      37.786  30.955  29.824  1.00  0.00     0.031 A 
ATOM     40  C   UNL A   1      38.775  30.009  29.202  1.00  0.00     0.074 A 
ATOM     41  C   UNL A   1      37.929  31.322  31.113  1.00  0.00     0.049 A 
ATOM     42  N   UNL A   1      39.817  29.430  29.743  1.00  0.00    -0.248 NA
ATOM     43  C   UNL A   1      38.547  29.645  27.795  1.00  0.00     0.031 C 
ATOM     44  C   UNL A   1      37.024  32.207  31.850  1.00  0.00     0.029 A 
ATOM     45  N   UNL A   1      38.886  30.986  32.038  1.00  0.00    -0.354 N 
ATOM     46  C   UNL A   1      40.357  28.622  28.751  1.00  0.00     0.074 A 
ATOM     47  C   UNL A   1      39.494  28.741  27.595  1.00  0.00     0.031 C 
ATOM     48  C   UNL A   1      37.488  32.374  33.098  1.00  0.00     0.029 A 
ATOM     49  C   UNL A   1      38.688  31.563  33.269  1.00  0.00     0.049 A 
ATOM     50  H   UNL A   1      39.642  30.388  31.839  1.00  0.00     0.167 HD
ATOM     51  C   UNL A   1      41.478  27.861  28.790  1.00  0.00     0.031 A 
ATOM     52  C   UNL A   1      39.384  31.444  34.416  1.00  0.00     0.031 A 
ATOM     53  C   UNL A   1      42.331  27.738  29.942  1.00  0.00     0.049 A 
ATOM     54  C   UNL A   1      40.586  30.546  34.455  1.00  0.00     0.074 A 
ATOM     55  C   UNL A   1      43.521  27.043  30.064  1.00  0.00     0.029 A 
ATOM     56  N   UNL A   1      42.076  28.315  31.177  1.00  0.00    -0.354 N 
ATOM     57  N   UNL A   1      41.124  29.845  33.487  1.00  0.00    -0.248 NA
ATOM     58  C   UNL A   1      41.274  30.420  35.748  1.00  0.00     0.031 C 
ATOM     59  C   UNL A   1      43.950  27.141  31.391  1.00  0.00     0.029 A 
ATOM     60  C   UNL A   1      43.062  27.951  32.081  1.00  0.00     0.049 A 
ATOM     61  H   UNL A   1      41.309  28.896  31.382  1.00  0.00     0.167 HD
ATOM     62  C   UNL A   1      42.222  29.206  34.048  1.00  0.00     0.074 A 
ATOM     63  C   UNL A   1      42.285  29.620  35.436  1.00  0.00     0.031 C 
ATOM     64  C   UNL A   1      43.100  28.353  33.464  1.00  0.00     0.031 A 
BRANCH  51  65
ATOM     65  C   UNL A   1      41.825  27.086  27.546  1.00  0.00    -0.014 A 
ATOM     66  C   UNL A   1      42.607  27.652  26.527  1.00  0.00     0.009 A 
ATOM     67  C   UNL A   1      41.365  25.770  27.393  1.00  0.00     0.009 A 
ATOM     68  C   UNL A   1      42.875  26.936  25.359  1.00  0.00     0.001 A 
ATOM     69  C   UNL A   1      41.664  25.043  26.239  1.00  0.00     0.001 A 
ATOM     70  C   UNL A   1      42.404  25.632  25.216  1.00  0.00     0.000 A 
ENDBRANCH  51  65
BRANCH  52  71
ATOM     71  C   UNL A   1      38.961  32.209  35.619  1.00  0.00    -0.014 A 
ATOM     72  C   UNL A   1      39.368  33.541  35.787  1.00  0.00     0.009 A 
ATOM     73  C   UNL A   1      38.133  31.625  36.591  1.00  0.00     0.009 A 
ATOM     74  C   UNL A   1      38.964  34.268  36.908  1.00  0.00     0.001 A 
ATOM     75  C   UNL A   1      37.707  32.364  37.696  1.00  0.00     0.001 A 
ATOM     76  C   UNL A   1      38.127  33.683  37.857  1.00  0.00     0.000 A 
ENDBRANCH  52  71
BRANCH  64  77
ATOM     77  C   UNL A   1      44.207  27.812  34.324  1.00  0.00    -0.014 A 
ATOM     78  C   UNL A   1      44.063  26.594  35.008  1.00  0.00     0.009 A 
ATOM     79  C   UNL A   1      45.427  28.500  34.409  1.00  0.00     0.009 A 
ATOM     80  C   UNL A   1      45.112  26.090  35.780  1.00  0.00     0.001 A 
ATOM     81  C   UNL A   1      46.484  27.978  35.157  1.00  0.00     0.001 A 
ATOM     82  C   UNL A   1      46.323  26.778  35.847  1.00  0.00     0.000 A 
ENDBRANCH  64  77
ENDBRANCH  38  39
ENDBRANCH  30  33
ENDBRANCH  28  29
ENDBRANCH   1  28
TORSDOF 13
ENDMDL
