MODEL 1
REMARK VINA RESULT:      -9.6      0.000      0.000
REMARK SMILES C[C@H](CNS(=O)(=O)CCC(=O)NCCCNC(=O)c1ccc(-c2c3nc(c(-c4ccccc4)c4ccc([nH]4)c(-c4ccccc4)c4nc(c(-c5ccccc5)c5ccc2[nH]5)C=C4)C=C3)cc1)c1ccccc1
REMARK SMILES IDX 10 1 11 2 12 3 9 5 8 6 5 7 6 8 7 9 4 10 3 12 2 13 1 14 67 15
REMARK SMILES IDX 68 16 72 17 69 18 71 19 70 20 13 21 14 22 15 23 16 24 17 25
REMARK SMILES IDX 18 27 19 28 20 29 66 30 21 31 65 32 22 33 23 34 24 35 59 36
REMARK SMILES IDX 25 37 64 38 58 39 60 40 26 41 63 42 57 43 56 44 27 46 49 47
REMARK SMILES IDX 34 48 48 49 35 50 38 51 47 52 61 53 36 54 37 55 46 57 62 58
REMARK SMILES IDX 39 59 28 60 29 61 33 62 30 63 32 64 31 65 50 66 51 67 55 68
REMARK SMILES IDX 52 69 54 70 53 71 40 72 41 73 45 74 42 75 44 76 43 77
REMARK H PARENT 12 4 4 11 16 26 60 45 38 56
REMARK Flexibility Score: inf
ROOT
ATOM      1  C   UNL A   1      44.544  18.758  25.325  1.00  0.00     0.221 C 
ATOM      2  O   UNL A   1      45.383  17.914  25.650  1.00  0.00    -0.275 OA
ATOM      3  N   UNL A   1      43.332  18.713  25.951  1.00  0.00    -0.356 N 
ATOM      4  H   UNL A   1      43.187  17.902  26.490  1.00  0.00     0.163 HD
ENDROOT
BRANCH   1   5
ATOM      5  C   UNL A   1      44.811  19.686  24.167  1.00  0.00     0.117 C 
BRANCH   5   6
ATOM      6  C   UNL A   1      45.343  21.025  24.666  1.00  0.00     0.164 C 
BRANCH   6   7
ATOM      7  S   UNL A   1      44.431  22.421  24.020  1.00  0.00     0.212 S 
ATOM      8  O   UNL A   1      43.293  22.665  24.882  1.00  0.00    -0.212 OA
ATOM      9  O   UNL A   1      44.252  22.194  22.607  1.00  0.00    -0.212 OA
BRANCH   7  10
ATOM     10  N   UNL A   1      45.503  23.717  24.208  1.00  0.00    -0.215 NA
ATOM     11  H   UNL A   1      46.446  23.334  24.275  1.00  0.00     0.141 HD
BRANCH  10  12
ATOM     12  C   UNL A   1      45.283  24.584  25.387  1.00  0.00     0.106 C 
BRANCH  12  13
ATOM     13  C   UNL A   1      46.205  24.325  26.610  1.00  0.00     0.031 C 
ATOM     14  C   UNL A   1      47.326  25.313  26.899  1.00  0.00     0.014 C 
BRANCH  13  15
ATOM     15  C   UNL A   1      45.424  24.176  27.909  1.00  0.00    -0.044 A 
ATOM     16  C   UNL A   1      45.872  24.845  29.056  1.00  0.00     0.004 A 
ATOM     17  C   UNL A   1      44.213  23.467  27.971  1.00  0.00     0.004 A 
ATOM     18  C   UNL A   1      45.160  24.755  30.251  1.00  0.00     0.000 A 
ATOM     19  C   UNL A   1      43.517  23.356  29.173  1.00  0.00     0.000 A 
ATOM     20  C   UNL A   1      43.995  23.994  30.314  1.00  0.00     0.000 A 
ENDBRANCH  13  15
ENDBRANCH  12  13
ENDBRANCH  10  12
ENDBRANCH   7  10
ENDBRANCH   6   7
ENDBRANCH   5   6
ENDBRANCH   1   5
BRANCH   3  21
ATOM     21  C   UNL A   1      42.208  19.647  25.968  1.00  0.00     0.117 C 
BRANCH  21  22
ATOM     22  C   UNL A   1      41.722  20.140  27.344  1.00  0.00     0.042 C 
BRANCH  22  23
ATOM     23  C   UNL A   1      40.949  21.452  27.440  1.00  0.00     0.118 C 
BRANCH  23  24
ATOM     24  N   UNL A   1      39.783  21.536  26.589  1.00  0.00    -0.352 N 
ATOM     25  C   UNL A   1      39.036  22.655  26.295  1.00  0.00     0.251 C 
ATOM     26  H   UNL A   1      39.489  20.695  26.170  1.00  0.00     0.163 HD
ATOM     27  O   UNL A   1      38.017  22.558  25.619  1.00  0.00    -0.269 OA
BRANCH  25  28
ATOM     28  C   UNL A   1      39.444  23.987  26.802  1.00  0.00     0.039 A 
ATOM     29  C   UNL A   1      40.216  24.819  25.991  1.00  0.00     0.014 A 
ATOM     30  C   UNL A   1      39.151  24.373  28.111  1.00  0.00     0.014 A 
ATOM     31  C   UNL A   1      40.673  26.047  26.487  1.00  0.00     0.010 A 
ATOM     32  C   UNL A   1      39.558  25.628  28.585  1.00  0.00     0.010 A 
ATOM     33  C   UNL A   1      40.339  26.478  27.785  1.00  0.00    -0.014 A 
BRANCH  33  34
ATOM     34  C   UNL A   1      40.812  27.804  28.288  1.00  0.00     0.031 A 
ATOM     35  C   UNL A   1      42.277  28.170  28.288  1.00  0.00     0.074 A 
ATOM     36  C   UNL A   1      39.918  28.701  28.756  1.00  0.00     0.049 A 
ATOM     37  N   UNL A   1      42.850  29.296  28.645  1.00  0.00    -0.248 NA
ATOM     38  C   UNL A   1      43.222  27.136  27.844  1.00  0.00     0.031 C 
ATOM     39  C   UNL A   1      38.474  28.482  28.849  1.00  0.00     0.029 A 
ATOM     40  N   UNL A   1      40.090  29.981  29.228  1.00  0.00    -0.354 N 
ATOM     41  C   UNL A   1      44.217  29.101  28.477  1.00  0.00     0.074 A 
ATOM     42  C   UNL A   1      44.390  27.733  28.037  1.00  0.00     0.031 C 
ATOM     43  C   UNL A   1      37.889  29.601  29.305  1.00  0.00     0.029 A 
ATOM     44  C   UNL A   1      38.915  30.603  29.578  1.00  0.00     0.049 A 
ATOM     45  H   UNL A   1      40.972  30.411  29.309  1.00  0.00     0.167 HD
ATOM     46  C   UNL A   1      45.237  29.978  28.654  1.00  0.00     0.031 A 
ATOM     47  C   UNL A   1      38.679  31.839  30.062  1.00  0.00     0.031 A 
ATOM     48  C   UNL A   1      45.077  31.340  29.098  1.00  0.00     0.049 A 
ATOM     49  C   UNL A   1      39.828  32.784  30.281  1.00  0.00     0.074 A 
ATOM     50  C   UNL A   1      46.048  32.316  29.257  1.00  0.00     0.029 A 
ATOM     51  N   UNL A   1      43.872  31.918  29.466  1.00  0.00    -0.354 N 
ATOM     52  N   UNL A   1      41.105  32.604  30.045  1.00  0.00    -0.248 NA
ATOM     53  C   UNL A   1      39.499  34.110  30.824  1.00  0.00     0.031 C 
ATOM     54  C   UNL A   1      45.440  33.460  29.782  1.00  0.00     0.029 A 
ATOM     55  C   UNL A   1      44.080  33.223  29.882  1.00  0.00     0.049 A 
ATOM     56  H   UNL A   1      42.997  31.466  29.436  1.00  0.00     0.167 HD
ATOM     57  C   UNL A   1      41.725  33.800  30.382  1.00  0.00     0.074 A 
ATOM     58  C   UNL A   1      40.683  34.705  30.821  1.00  0.00     0.031 C 
ATOM     59  C   UNL A   1      43.042  34.119  30.327  1.00  0.00     0.031 A 
BRANCH  46  60
ATOM     60  C   UNL A   1      46.634  29.483  28.379  1.00  0.00    -0.014 A 
ATOM     61  C   UNL A   1      47.401  28.863  29.381  1.00  0.00     0.009 A 
ATOM     62  C   UNL A   1      47.181  29.605  27.092  1.00  0.00     0.009 A 
ATOM     63  C   UNL A   1      48.698  28.422  29.111  1.00  0.00     0.001 A 
ATOM     64  C   UNL A   1      48.466  29.132  26.816  1.00  0.00     0.001 A 
ATOM     65  C   UNL A   1      49.229  28.553  27.829  1.00  0.00     0.000 A 
ENDBRANCH  46  60
BRANCH  47  66
ATOM     66  C   UNL A   1      37.285  32.264  30.360  1.00  0.00    -0.014 A 
ATOM     67  C   UNL A   1      36.726  32.047  31.630  1.00  0.00     0.009 A 
ATOM     68  C   UNL A   1      36.502  32.889  29.376  1.00  0.00     0.009 A 
ATOM     69  C   UNL A   1      35.409  32.425  31.900  1.00  0.00     0.001 A 
ATOM     70  C   UNL A   1      35.196  33.295  29.658  1.00  0.00     0.001 A 
ATOM     71  C   UNL A   1      34.648  33.055  30.917  1.00  0.00     0.000 A 
ENDBRANCH  47  66
BRANCH  59  72
ATOM     72  C   UNL A   1      43.432  35.519  30.721  1.00  0.00    -0.014 A 
ATOM     73  C   UNL A   1      43.515  36.553  29.775  1.00  0.00     0.009 A 
ATOM     74  C   UNL A   1      43.686  35.814  32.070  1.00  0.00     0.009 A 
ATOM     75  C   UNL A   1      43.883  37.843  30.167  1.00  0.00     0.001 A 
ATOM     76  C   UNL A   1      44.020  37.111  32.464  1.00  0.00     0.001 A 
ATOM     77  C   UNL A   1      44.130  38.122  31.511  1.00  0.00     0.000 A 
ENDBRANCH  59  72
ENDBRANCH  33  34
ENDBRANCH  25  28
ENDBRANCH  23  24
ENDBRANCH  22  23
ENDBRANCH  21  22
ENDBRANCH   3  21
TORSDOF 16
ENDMDL
MODEL 2
REMARK VINA RESULT:      -9.6      4.051      7.088
REMARK SMILES C[C@H](CNS(=O)(=O)CCC(=O)NCCCNC(=O)c1ccc(-c2c3nc(c(-c4ccccc4)c4ccc([nH]4)c(-c4ccccc4)c4nc(c(-c5ccccc5)c5ccc2[nH]5)C=C4)C=C3)cc1)c1ccccc1
REMARK SMILES IDX 10 1 11 2 12 3 9 5 8 6 5 7 6 8 7 9 4 10 3 12 2 13 1 14 67 15
REMARK SMILES IDX 68 16 72 17 69 18 71 19 70 20 13 21 14 22 15 23 16 24 17 25
REMARK SMILES IDX 18 27 19 28 20 29 66 30 21 31 65 32 22 33 23 34 24 35 59 36
REMARK SMILES IDX 25 37 64 38 58 39 60 40 26 41 63 42 57 43 56 44 27 46 49 47
REMARK SMILES IDX 34 48 48 49 35 50 38 51 47 52 61 53 36 54 37 55 46 57 62 58
REMARK SMILES IDX 39 59 28 60 29 61 33 62 30 63 32 64 31 65 50 66 51 67 55 68
REMARK SMILES IDX 52 69 54 70 53 71 40 72 41 73 45 74 42 75 44 76 43 77
REMARK H PARENT 12 4 4 11 16 26 60 45 38 56
REMARK Flexibility Score: inf
ROOT
ATOM      1  C   UNL A   1      33.459  20.043  25.097  1.00  0.00     0.221 C 
ATOM      2  O   UNL A   1      32.610  19.230  24.725  1.00  0.00    -0.275 OA
ATOM      3  N   UNL A   1      34.770  19.675  24.996  1.00  0.00    -0.356 N 
ATOM      4  H   UNL A   1      34.905  18.722  24.786  1.00  0.00     0.163 HD
ENDROOT
BRANCH   1   5
ATOM      5  C   UNL A   1      33.039  21.318  25.783  1.00  0.00     0.117 C 
BRANCH   5   6
ATOM      6  C   UNL A   1      31.724  21.830  25.204  1.00  0.00     0.164 C 
BRANCH   6   7
ATOM      7  S   UNL A   1      30.810  22.856  26.349  1.00  0.00     0.212 S 
ATOM      8  O   UNL A   1      31.725  23.347  27.358  1.00  0.00    -0.212 OA
ATOM      9  O   UNL A   1      29.624  22.124  26.720  1.00  0.00    -0.212 OA
BRANCH   7  10
ATOM     10  N   UNL A   1      30.332  24.177  25.404  1.00  0.00    -0.215 NA
ATOM     11  H   UNL A   1      29.372  24.011  25.100  1.00  0.00     0.141 HD
BRANCH  10  12
ATOM     12  C   UNL A   1      31.146  24.447  24.197  1.00  0.00     0.106 C 
BRANCH  12  13
ATOM     13  C   UNL A   1      32.296  25.478  24.363  1.00  0.00     0.031 C 
ATOM     14  C   UNL A   1      32.264  26.418  25.560  1.00  0.00     0.014 C 
BRANCH  13  15
ATOM     15  C   UNL A   1      33.670  24.821  24.374  1.00  0.00    -0.044 A 
ATOM     16  C   UNL A   1      34.447  24.881  25.540  1.00  0.00     0.004 A 
ATOM     17  C   UNL A   1      34.146  24.075  23.283  1.00  0.00     0.004 A 
ATOM     18  C   UNL A   1      35.694  24.262  25.591  1.00  0.00     0.000 A 
ATOM     19  C   UNL A   1      35.405  23.480  23.327  1.00  0.00     0.000 A 
ATOM     20  C   UNL A   1      36.181  23.580  24.479  1.00  0.00     0.000 A 
ENDBRANCH  13  15
ENDBRANCH  12  13
ENDBRANCH  10  12
ENDBRANCH   7  10
ENDBRANCH   6   7
ENDBRANCH   5   6
ENDBRANCH   1   5
BRANCH   3  21
ATOM     21  C   UNL A   1      36.010  20.433  25.144  1.00  0.00     0.117 C 
BRANCH  21  22
ATOM     22  C   UNL A   1      37.332  19.668  24.944  1.00  0.00     0.042 C 
BRANCH  22  23
ATOM     23  C   UNL A   1      38.601  20.173  25.626  1.00  0.00     0.118 C 
BRANCH  23  24
ATOM     24  N   UNL A   1      39.702  19.235  25.634  1.00  0.00    -0.352 N 
ATOM     25  C   UNL A   1      41.006  19.473  26.007  1.00  0.00     0.251 C 
ATOM     26  H   UNL A   1      39.495  18.318  25.339  1.00  0.00     0.163 HD
ATOM     27  O   UNL A   1      41.854  18.596  25.882  1.00  0.00    -0.269 OA
BRANCH  25  28
ATOM     28  C   UNL A   1      41.404  20.793  26.551  1.00  0.00     0.039 A 
ATOM     29  C   UNL A   1      41.227  21.054  27.910  1.00  0.00     0.014 A 
ATOM     30  C   UNL A   1      41.857  21.807  25.704  1.00  0.00     0.014 A 
ATOM     31  C   UNL A   1      41.526  22.324  28.421  1.00  0.00     0.010 A 
ATOM     32  C   UNL A   1      42.214  23.058  26.228  1.00  0.00     0.010 A 
ATOM     33  C   UNL A   1      42.039  23.340  27.593  1.00  0.00    -0.014 A 
BRANCH  33  34
ATOM     34  C   UNL A   1      42.380  24.680  28.160  1.00  0.00     0.031 A 
ATOM     35  C   UNL A   1      43.794  25.031  28.558  1.00  0.00     0.074 A 
ATOM     36  C   UNL A   1      41.411  25.604  28.325  1.00  0.00     0.049 A 
ATOM     37  N   UNL A   1      44.268  26.165  29.021  1.00  0.00    -0.248 NA
ATOM     38  C   UNL A   1      44.803  23.970  28.436  1.00  0.00     0.031 C 
ATOM     39  C   UNL A   1      39.994  25.405  28.018  1.00  0.00     0.029 A 
ATOM     40  N   UNL A   1      41.471  26.901  28.780  1.00  0.00    -0.354 N 
ATOM     41  C   UNL A   1      45.623  25.949  29.250  1.00  0.00     0.074 A 
ATOM     42  C   UNL A   1      45.883  24.563  28.926  1.00  0.00     0.031 C 
ATOM     43  C   UNL A   1      39.328  26.547  28.250  1.00  0.00     0.029 A 
ATOM     44  C   UNL A   1      40.258  27.549  28.763  1.00  0.00     0.049 A 
ATOM     45  H   UNL A   1      42.303  27.325  29.090  1.00  0.00     0.167 HD
ATOM     46  C   UNL A   1      46.571  26.823  29.673  1.00  0.00     0.031 A 
ATOM     47  C   UNL A   1      39.923  28.805  29.116  1.00  0.00     0.031 A 
ATOM     48  C   UNL A   1      46.322  28.203  30.005  1.00  0.00     0.049 A 
ATOM     49  C   UNL A   1      40.984  29.747  29.614  1.00  0.00     0.074 A 
ATOM     50  C   UNL A   1      47.231  29.175  30.394  1.00  0.00     0.029 A 
ATOM     51  N   UNL A   1      45.075  28.807  29.998  1.00  0.00    -0.354 N 
ATOM     52  N   UNL A   1      42.272  29.545  29.752  1.00  0.00    -0.248 NA
ATOM     53  C   UNL A   1      40.544  31.098  29.994  1.00  0.00     0.031 C 
ATOM     54  C   UNL A   1      46.524  30.346  30.686  1.00  0.00     0.029 A 
ATOM     55  C   UNL A   1      45.185  30.127  30.409  1.00  0.00     0.049 A 
ATOM     56  H   UNL A   1      44.234  28.363  29.741  1.00  0.00     0.167 HD
ATOM     57  C   UNL A   1      42.798  30.747  30.206  1.00  0.00     0.074 A 
ATOM     58  C   UNL A   1      41.694  31.680  30.302  1.00  0.00     0.031 C 
ATOM     59  C   UNL A   1      44.084  31.051  30.511  1.00  0.00     0.031 A 
BRANCH  46  60
ATOM     60  C   UNL A   1      47.978  26.303  29.820  1.00  0.00    -0.014 A 
ATOM     61  C   UNL A   1      48.445  25.791  31.044  1.00  0.00     0.009 A 
ATOM     62  C   UNL A   1      48.840  26.289  28.712  1.00  0.00     0.009 A 
ATOM     63  C   UNL A   1      49.757  25.326  31.164  1.00  0.00     0.001 A 
ATOM     64  C   UNL A   1      50.140  25.790  28.827  1.00  0.00     0.001 A 
ATOM     65  C   UNL A   1      50.602  25.322  30.056  1.00  0.00     0.000 A 
ENDBRANCH  46  60
BRANCH  47  66
ATOM     66  C   UNL A   1      38.510  29.257  28.995  1.00  0.00    -0.014 A 
ATOM     67  C   UNL A   1      37.657  29.244  30.110  1.00  0.00     0.009 A 
ATOM     68  C   UNL A   1      38.005  29.702  27.763  1.00  0.00     0.009 A 
ATOM     69  C   UNL A   1      36.324  29.645  29.989  1.00  0.00     0.001 A 
ATOM     70  C   UNL A   1      36.681  30.134  27.651  1.00  0.00     0.001 A 
ATOM     71  C   UNL A   1      35.840  30.096  28.762  1.00  0.00     0.000 A 
ENDBRANCH  47  66
BRANCH  59  72
ATOM     72  C   UNL A   1      44.378  32.461  30.947  1.00  0.00    -0.014 A 
ATOM     73  C   UNL A   1      44.353  32.832  32.301  1.00  0.00     0.009 A 
ATOM     74  C   UNL A   1      44.720  33.427  29.988  1.00  0.00     0.009 A 
ATOM     75  C   UNL A   1      44.628  34.149  32.679  1.00  0.00     0.001 A 
ATOM     76  C   UNL A   1      45.027  34.734  30.371  1.00  0.00     0.001 A 
ATOM     77  C   UNL A   1      44.969  35.097  31.715  1.00  0.00     0.000 A 
ENDBRANCH  59  72
ENDBRANCH  33  34
ENDBRANCH  25  28
ENDBRANCH  23  24
ENDBRANCH  22  23
ENDBRANCH  21  22
ENDBRANCH   3  21
TORSDOF 16
ENDMDL
MODEL 3
REMARK VINA RESULT:      -9.6      0.976      2.094
REMARK SMILES C[C@H](CNS(=O)(=O)CCC(=O)NCCCNC(=O)c1ccc(-c2c3nc(c(-c4ccccc4)c4ccc([nH]4)c(-c4ccccc4)c4nc(c(-c5ccccc5)c5ccc2[nH]5)C=C4)C=C3)cc1)c1ccccc1
REMARK SMILES IDX 10 1 11 2 12 3 9 5 8 6 5 7 6 8 7 9 4 10 3 12 2 13 1 14 67 15
REMARK SMILES IDX 68 16 72 17 69 18 71 19 70 20 13 21 14 22 15 23 16 24 17 25
REMARK SMILES IDX 18 27 19 28 20 29 66 30 21 31 65 32 22 33 23 34 24 35 59 36
REMARK SMILES IDX 25 37 64 38 58 39 60 40 26 41 63 42 57 43 56 44 27 46 49 47
REMARK SMILES IDX 34 48 48 49 35 50 38 51 47 52 61 53 36 54 37 55 46 57 62 58
REMARK SMILES IDX 39 59 28 60 29 61 33 62 30 63 32 64 31 65 50 66 51 67 55 68
REMARK SMILES IDX 52 69 54 70 53 71 40 72 41 73 45 74 42 75 44 76 43 77
REMARK H PARENT 12 4 4 11 16 26 60 45 38 56
REMARK Flexibility Score: inf
ROOT
ATOM      1  C   UNL A   1      44.683  19.037  25.199  1.00  0.00     0.221 C 
ATOM      2  O   UNL A   1      45.311  17.990  25.376  1.00  0.00    -0.275 OA
ATOM      3  N   UNL A   1      43.585  19.251  25.982  1.00  0.00    -0.356 N 
ATOM      4  H   UNL A   1      43.304  18.466  26.505  1.00  0.00     0.163 HD
ENDROOT
BRANCH   1   5
ATOM      5  C   UNL A   1      45.037  19.948  24.052  1.00  0.00     0.117 C 
BRANCH   5   6
ATOM      6  C   UNL A   1      46.220  20.837  24.419  1.00  0.00     0.164 C 
BRANCH   6   7
ATOM      7  S   UNL A   1      45.772  22.561  24.587  1.00  0.00     0.212 S 
ATOM      8  O   UNL A   1      44.365  22.703  24.276  1.00  0.00    -0.212 OA
ATOM      9  O   UNL A   1      46.767  23.328  23.879  1.00  0.00    -0.212 OA
BRANCH   7  10
ATOM     10  N   UNL A   1      45.964  22.861  26.242  1.00  0.00    -0.215 NA
ATOM     11  H   UNL A   1      45.575  22.066  26.750  1.00  0.00     0.141 HD
BRANCH  10  12
ATOM     12  C   UNL A   1      45.320  24.088  26.764  1.00  0.00     0.106 C 
BRANCH  12  13
ATOM     13  C   UNL A   1      46.276  25.196  27.283  1.00  0.00     0.031 C 
ATOM     14  C   UNL A   1      47.315  24.827  28.333  1.00  0.00     0.014 C 
BRANCH  13  15
ATOM     15  C   UNL A   1      47.036  25.885  26.157  1.00  0.00    -0.044 A 
ATOM     16  C   UNL A   1      48.396  25.598  25.974  1.00  0.00     0.004 A 
ATOM     17  C   UNL A   1      46.394  26.728  25.235  1.00  0.00     0.004 A 
ATOM     18  C   UNL A   1      49.109  26.188  24.933  1.00  0.00     0.000 A 
ATOM     19  C   UNL A   1      47.115  27.338  24.210  1.00  0.00     0.000 A 
ATOM     20  C   UNL A   1      48.474  27.073  24.064  1.00  0.00     0.000 A 
ENDBRANCH  13  15
ENDBRANCH  12  13
ENDBRANCH  10  12
ENDBRANCH   7  10
ENDBRANCH   6   7
ENDBRANCH   5   6
ENDBRANCH   1   5
BRANCH   3  21
ATOM     21  C   UNL A   1      42.750  20.433  26.186  1.00  0.00     0.117 C 
BRANCH  21  22
ATOM     22  C   UNL A   1      41.540  20.286  27.128  1.00  0.00     0.042 C 
BRANCH  22  23
ATOM     23  C   UNL A   1      40.632  21.487  27.375  1.00  0.00     0.118 C 
BRANCH  23  24
ATOM     24  N   UNL A   1      39.520  21.610  26.458  1.00  0.00    -0.352 N 
ATOM     25  C   UNL A   1      38.826  22.752  26.127  1.00  0.00     0.251 C 
ATOM     26  H   UNL A   1      39.226  20.779  26.017  1.00  0.00     0.163 HD
ATOM     27  O   UNL A   1      37.846  22.688  25.392  1.00  0.00    -0.269 OA
BRANCH  25  28
ATOM     28  C   UNL A   1      39.243  24.068  26.665  1.00  0.00     0.039 A 
ATOM     29  C   UNL A   1      39.952  24.948  25.845  1.00  0.00     0.014 A 
ATOM     30  C   UNL A   1      39.025  24.394  28.005  1.00  0.00     0.014 A 
ATOM     31  C   UNL A   1      40.419  26.162  26.365  1.00  0.00     0.010 A 
ATOM     32  C   UNL A   1      39.440  25.636  28.507  1.00  0.00     0.010 A 
ATOM     33  C   UNL A   1      40.158  26.533  27.697  1.00  0.00    -0.014 A 
BRANCH  33  34
ATOM     34  C   UNL A   1      40.639  27.845  28.228  1.00  0.00     0.031 A 
ATOM     35  C   UNL A   1      42.112  28.169  28.307  1.00  0.00     0.074 A 
ATOM     36  C   UNL A   1      39.748  28.766  28.648  1.00  0.00     0.049 A 
ATOM     37  N   UNL A   1      42.696  29.279  28.696  1.00  0.00    -0.248 NA
ATOM     38  C   UNL A   1      43.050  27.109  27.913  1.00  0.00     0.031 C 
ATOM     39  C   UNL A   1      38.295  28.588  28.664  1.00  0.00     0.029 A 
ATOM     40  N   UNL A   1      39.930  30.041  29.131  1.00  0.00    -0.354 N 
ATOM     41  C   UNL A   1      44.065  29.046  28.601  1.00  0.00     0.074 A 
ATOM     42  C   UNL A   1      44.222  27.674  28.169  1.00  0.00     0.031 C 
ATOM     43  C   UNL A   1      37.717  29.723  29.089  1.00  0.00     0.029 A 
ATOM     44  C   UNL A   1      38.755  30.695  29.418  1.00  0.00     0.049 A 
ATOM     45  H   UNL A   1      40.817  30.446  29.260  1.00  0.00     0.167 HD
ATOM     46  C   UNL A   1      45.097  29.895  28.833  1.00  0.00     0.031 A 
ATOM     47  C   UNL A   1      38.528  31.937  29.891  1.00  0.00     0.031 A 
ATOM     48  C   UNL A   1      44.952  31.260  29.271  1.00  0.00     0.049 A 
ATOM     49  C   UNL A   1      39.690  32.850  30.173  1.00  0.00     0.074 A 
ATOM     50  C   UNL A   1      45.940  32.209  29.483  1.00  0.00     0.029 A 
ATOM     51  N   UNL A   1      43.745  31.871  29.574  1.00  0.00    -0.354 N 
ATOM     52  N   UNL A   1      40.972  32.634  30.005  1.00  0.00    -0.248 NA
ATOM     53  C   UNL A   1      39.369  34.185  30.700  1.00  0.00     0.031 C 
ATOM     54  C   UNL A   1      45.337  33.370  29.977  1.00  0.00     0.029 A 
ATOM     55  C   UNL A   1      43.967  33.171  30.003  1.00  0.00     0.049 A 
ATOM     56  H   UNL A   1      42.861  31.444  29.497  1.00  0.00     0.167 HD
ATOM     57  C   UNL A   1      41.606  33.813  30.377  1.00  0.00     0.074 A 
ATOM     58  C   UNL A   1      40.568  34.746  30.761  1.00  0.00     0.031 C 
ATOM     59  C   UNL A   1      42.932  34.095  30.393  1.00  0.00     0.031 A 
BRANCH  46  60
ATOM     60  C   UNL A   1      46.493  29.361  28.633  1.00  0.00    -0.014 A 
ATOM     61  C   UNL A   1      47.199  29.588  27.439  1.00  0.00     0.009 A 
ATOM     62  C   UNL A   1      47.127  28.652  29.666  1.00  0.00     0.009 A 
ATOM     63  C   UNL A   1      48.487  29.074  27.267  1.00  0.00     0.001 A 
ATOM     64  C   UNL A   1      48.428  28.169  29.505  1.00  0.00     0.001 A 
ATOM     65  C   UNL A   1      49.102  28.369  28.300  1.00  0.00     0.000 A 
ENDBRANCH  46  60
BRANCH  47  66
ATOM     66  C   UNL A   1      37.132  32.401  30.115  1.00  0.00    -0.014 A 
ATOM     67  C   UNL A   1      36.439  33.095  29.110  1.00  0.00     0.009 A 
ATOM     68  C   UNL A   1      36.485  32.156  31.336  1.00  0.00     0.009 A 
ATOM     69  C   UNL A   1      35.138  33.551  29.331  1.00  0.00     0.001 A 
ATOM     70  C   UNL A   1      35.172  32.585  31.543  1.00  0.00     0.001 A 
ATOM     71  C   UNL A   1      34.503  33.290  30.544  1.00  0.00     0.000 A 
ENDBRANCH  47  66
BRANCH  59  72
ATOM     72  C   UNL A   1      43.339  35.483  30.810  1.00  0.00    -0.014 A 
ATOM     73  C   UNL A   1      43.593  35.803  32.153  1.00  0.00     0.009 A 
ATOM     74  C   UNL A   1      43.506  36.479  29.834  1.00  0.00     0.009 A 
ATOM     75  C   UNL A   1      43.968  37.100  32.513  1.00  0.00     0.001 A 
ATOM     76  C   UNL A   1      43.913  37.766  30.193  1.00  0.00     0.001 A 
ATOM     77  C   UNL A   1      44.132  38.078  31.533  1.00  0.00     0.000 A 
ENDBRANCH  59  72
ENDBRANCH  33  34
ENDBRANCH  25  28
ENDBRANCH  23  24
ENDBRANCH  22  23
ENDBRANCH  21  22
ENDBRANCH   3  21
TORSDOF 16
ENDMDL
