MODEL 1
REMARK VINA RESULT:     -10.9      0.000      0.000
REMARK SMILES Cc1cc(C(=O)NC[C@@H]2CC[C@H](C(=O)NCCCNC(=O)c3ccc(-c4c5nc(c(-c6ccccc6)c6ccc([nH]6)c(-c6ccccc6)c6nc(c(-c7ccccc7)c7ccc4[nH]7)C=C6)C=C5)cc3)O2)on1
REMARK SMILES IDX 16 1 15 2 13 3 14 4 12 6 9 7 10 8 70 9 11 10 8 11 7 12 5 13
REMARK SMILES IDX 6 14 4 16 1 17 2 18 3 19 72 20 71 21 17 22 18 23 19 24 20 25
REMARK SMILES IDX 21 27 22 28 23 29 69 30 24 31 68 32 25 33 26 34 27 35 62 36
REMARK SMILES IDX 28 37 67 38 61 39 63 40 29 41 66 42 60 43 59 44 30 46 52 47
REMARK SMILES IDX 37 48 51 49 38 50 41 51 50 52 64 53 39 54 40 55 49 57 65 58
REMARK SMILES IDX 42 59 31 60 32 61 36 62 33 63 35 64 34 65 53 66 54 67 58 68
REMARK SMILES IDX 55 69 57 70 56 71 43 72 44 73 48 74 45 75 47 76 46 77
REMARK H PARENT 15 5 7 15 19 26 63 45 41 56
REMARK Flexibility Score: inf
ROOT
ATOM      1  C   UNL A   1      37.579  21.275  24.809  1.00  0.00     0.117 C 
ENDROOT
BRANCH   1   2
ATOM      2  N   UNL A   1      36.617  21.529  25.856  1.00  0.00    -0.354 N 
ATOM      3  C   UNL A   1      35.252  21.493  25.817  1.00  0.00     0.249 C 
ATOM      4  O   UNL A   1      34.651  21.735  26.868  1.00  0.00    -0.272 OA
ATOM      5  H   UNL A   1      37.003  21.764  26.731  1.00  0.00     0.163 HD
BRANCH   3   6
ATOM      6  C   UNL A   1      34.474  21.218  24.508  1.00  0.00     0.207 C 
ATOM      7  C   UNL A   1      32.365  21.819  23.672  1.00  0.00     0.138 C 
ATOM      8  C   UNL A   1      32.191  20.469  24.352  1.00  0.00     0.037 C 
ATOM      9  O   UNL A   1      33.666  22.304  24.049  1.00  0.00    -0.363 OA
ATOM     10  C   UNL A   1      33.600  19.975  24.576  1.00  0.00     0.045 C 
BRANCH   7  11
ATOM     11  C   UNL A   1      31.317  22.864  24.101  1.00  0.00     0.148 C 
BRANCH  11  12
ATOM     12  N   UNL A   1      30.915  22.715  25.485  1.00  0.00    -0.347 N 
ATOM     13  C   UNL A   1      30.850  23.634  26.506  1.00  0.00     0.289 C 
ATOM     14  O   UNL A   1      30.188  23.294  27.488  1.00  0.00    -0.266 OA
ATOM     15  H   UNL A   1      30.641  21.803  25.736  1.00  0.00     0.164 HD
BRANCH  13  16
ATOM     16  C   UNL A   1      31.525  24.908  26.417  1.00  0.00     0.224 A 
ATOM     17  C   UNL A   1      33.861  27.726  26.152  1.00  0.00     0.070 C 
ATOM     18  C   UNL A   1      32.758  26.747  26.281  1.00  0.00     0.081 A 
ATOM     19  C   UNL A   1      32.829  25.336  26.284  1.00  0.00     0.083 A 
ATOM     20  N   UNL A   1      31.500  27.164  26.438  1.00  0.00    -0.084 NA
ATOM     21  O   UNL A   1      30.734  26.020  26.535  1.00  0.00    -0.351 OA
ENDBRANCH  13  16
ENDBRANCH  11  12
ENDBRANCH   7  11
ENDBRANCH   3   6
ENDBRANCH   1   2
BRANCH   1  22
ATOM     22  C   UNL A   1      38.300  19.946  24.986  1.00  0.00     0.042 C 
BRANCH  22  23
ATOM     23  C   UNL A   1      39.229  19.939  26.191  1.00  0.00     0.118 C 
BRANCH  23  24
ATOM     24  N   UNL A   1      40.461  19.205  25.927  1.00  0.00    -0.352 N 
ATOM     25  C   UNL A   1      41.768  19.623  25.945  1.00  0.00     0.251 C 
ATOM     26  H   UNL A   1      40.334  18.256  25.698  1.00  0.00     0.163 HD
ATOM     27  O   UNL A   1      42.644  18.883  25.506  1.00  0.00    -0.269 OA
BRANCH  25  28
ATOM     28  C   UNL A   1      42.129  20.960  26.465  1.00  0.00     0.039 A 
ATOM     29  C   UNL A   1      42.471  21.967  25.557  1.00  0.00     0.014 A 
ATOM     30  C   UNL A   1      42.161  21.220  27.837  1.00  0.00     0.014 A 
ATOM     31  C   UNL A   1      42.778  23.248  26.021  1.00  0.00     0.010 A 
ATOM     32  C   UNL A   1      42.382  22.515  28.293  1.00  0.00     0.010 A 
ATOM     33  C   UNL A   1      42.701  23.541  27.391  1.00  0.00    -0.014 A 
BRANCH  33  34
ATOM     34  C   UNL A   1      42.963  24.906  27.913  1.00  0.00     0.031 A 
ATOM     35  C   UNL A   1      44.353  25.291  28.344  1.00  0.00     0.074 A 
ATOM     36  C   UNL A   1      41.939  25.764  28.085  1.00  0.00     0.049 A 
ATOM     37  N   UNL A   1      44.760  26.389  28.930  1.00  0.00    -0.248 NA
ATOM     38  C   UNL A   1      45.420  24.302  28.115  1.00  0.00     0.031 C 
ATOM     39  C   UNL A   1      40.536  25.494  27.756  1.00  0.00     0.029 A 
ATOM     40  N   UNL A   1      41.919  27.037  28.598  1.00  0.00    -0.354 N 
ATOM     41  C   UNL A   1      46.115  26.203  29.176  1.00  0.00     0.074 A 
ATOM     42  C   UNL A   1      46.456  24.879  28.705  1.00  0.00     0.031 C 
ATOM     43  C   UNL A   1      39.798  26.575  28.057  1.00  0.00     0.029 A 
ATOM     44  C   UNL A   1      40.665  27.597  28.634  1.00  0.00     0.049 A 
ATOM     45  H   UNL A   1      42.727  27.504  28.911  1.00  0.00     0.167 HD
ATOM     46  C   UNL A   1      47.000  27.064  29.731  1.00  0.00     0.031 A 
ATOM     47  C   UNL A   1      40.257  28.796  29.090  1.00  0.00     0.031 A 
ATOM     48  C   UNL A   1      46.674  28.399  30.150  1.00  0.00     0.049 A 
ATOM     49  C   UNL A   1      41.270  29.746  29.665  1.00  0.00     0.074 A 
ATOM     50  C   UNL A   1      47.522  29.379  30.637  1.00  0.00     0.029 A 
ATOM     51  N   UNL A   1      45.402  28.945  30.123  1.00  0.00    -0.354 N 
ATOM     52  N   UNL A   1      42.561  29.582  29.819  1.00  0.00    -0.248 NA
ATOM     53  C   UNL A   1      40.770  31.053  30.118  1.00  0.00     0.031 C 
ATOM     54  C   UNL A   1      46.755  30.508  30.939  1.00  0.00     0.029 A 
ATOM     55  C   UNL A   1      45.437  30.242  30.602  1.00  0.00     0.049 A 
ATOM     56  H   UNL A   1      44.593  28.479  29.810  1.00  0.00     0.167 HD
ATOM     57  C   UNL A   1      43.030  30.773  30.359  1.00  0.00     0.074 A 
ATOM     58  C   UNL A   1      41.889  31.654  30.492  1.00  0.00     0.031 C 
ATOM     59  C   UNL A   1      44.295  31.107  30.714  1.00  0.00     0.031 A 
BRANCH  46  60
ATOM     60  C   UNL A   1      48.413  26.590  29.916  1.00  0.00    -0.014 A 
ATOM     61  C   UNL A   1      49.399  26.847  28.951  1.00  0.00     0.009 A 
ATOM     62  C   UNL A   1      48.775  25.931  31.101  1.00  0.00     0.009 A 
ATOM     63  C   UNL A   1      50.715  26.429  29.158  1.00  0.00     0.001 A 
ATOM     64  C   UNL A   1      50.097  25.536  31.315  1.00  0.00     0.001 A 
ATOM     65  C   UNL A   1      51.064  25.779  30.341  1.00  0.00     0.000 A 
ENDBRANCH  46  60
BRANCH  47  66
ATOM     66  C   UNL A   1      38.824  29.180  29.016  1.00  0.00    -0.014 A 
ATOM     67  C   UNL A   1      37.990  29.025  30.134  1.00  0.00     0.009 A 
ATOM     68  C   UNL A   1      38.276  29.673  27.823  1.00  0.00     0.009 A 
ATOM     69  C   UNL A   1      36.628  29.325  30.048  1.00  0.00     0.001 A 
ATOM     70  C   UNL A   1      36.920  29.996  27.747  1.00  0.00     0.001 A 
ATOM     71  C   UNL A   1      36.095  29.812  28.856  1.00  0.00     0.000 A 
ENDBRANCH  47  66
BRANCH  59  72
ATOM     72  C   UNL A   1      44.514  32.494  31.240  1.00  0.00    -0.014 A 
ATOM     73  C   UNL A   1      44.453  32.768  32.614  1.00  0.00     0.009 A 
ATOM     74  C   UNL A   1      44.827  33.532  30.348  1.00  0.00     0.009 A 
ATOM     75  C   UNL A   1      44.674  34.063  33.083  1.00  0.00     0.001 A 
ATOM     76  C   UNL A   1      45.072  34.820  30.823  1.00  0.00     0.001 A 
ATOM     77  C   UNL A   1      44.988  35.086  32.189  1.00  0.00     0.000 A 
ENDBRANCH  59  72
ENDBRANCH  33  34
ENDBRANCH  25  28
ENDBRANCH  23  24
ENDBRANCH  22  23
ENDBRANCH   1  22
TORSDOF 13
ENDMDL
MODEL 2
REMARK VINA RESULT:     -10.9      2.517      7.575
REMARK SMILES Cc1cc(C(=O)NC[C@@H]2CC[C@H](C(=O)NCCCNC(=O)c3ccc(-c4c5nc(c(-c6ccccc6)c6ccc([nH]6)c(-c6ccccc6)c6nc(c(-c7ccccc7)c7ccc4[nH]7)C=C6)C=C5)cc3)O2)on1
REMARK SMILES IDX 16 1 15 2 13 3 14 4 12 6 9 7 10 8 70 9 11 10 8 11 7 12 5 13
REMARK SMILES IDX 6 14 4 16 1 17 2 18 3 19 72 20 71 21 17 22 18 23 19 24 20 25
REMARK SMILES IDX 21 27 22 28 23 29 69 30 24 31 68 32 25 33 26 34 27 35 62 36
REMARK SMILES IDX 28 37 67 38 61 39 63 40 29 41 66 42 60 43 59 44 30 46 52 47
REMARK SMILES IDX 37 48 51 49 38 50 41 51 50 52 64 53 39 54 40 55 49 57 65 58
REMARK SMILES IDX 42 59 31 60 32 61 36 62 33 63 35 64 34 65 53 66 54 67 58 68
REMARK SMILES IDX 55 69 57 70 56 71 43 72 44 73 48 74 45 75 47 76 46 77
REMARK H PARENT 15 5 7 15 19 26 63 45 41 56
REMARK Flexibility Score: inf
ROOT
ATOM      1  C   UNL A   1      31.802  27.323  25.820  1.00  0.00     0.117 C 
ENDROOT
BRANCH   1   2
ATOM      2  N   UNL A   1      31.533  26.189  26.673  1.00  0.00    -0.354 N 
ATOM      3  C   UNL A   1      31.667  24.853  26.418  1.00  0.00     0.249 C 
ATOM      4  O   UNL A   1      31.385  24.074  27.333  1.00  0.00    -0.272 OA
ATOM      5  H   UNL A   1      31.204  26.411  27.574  1.00  0.00     0.163 HD
BRANCH   3   6
ATOM      6  C   UNL A   1      32.096  24.319  25.031  1.00  0.00     0.207 C 
ATOM      7  C   UNL A   1      31.765  25.005  22.811  1.00  0.00     0.138 C 
ATOM      8  C   UNL A   1      30.655  24.014  23.126  1.00  0.00     0.037 C 
ATOM      9  O   UNL A   1      32.397  25.327  24.064  1.00  0.00    -0.363 OA
ATOM     10  C   UNL A   1      31.088  23.360  24.417  1.00  0.00     0.045 C 
BRANCH   7  11
ATOM     11  C   UNL A   1      31.260  26.314  22.174  1.00  0.00     0.148 C 
BRANCH  11  12
ATOM     12  N   UNL A   1      32.248  27.372  22.218  1.00  0.00    -0.347 N 
ATOM     13  C   UNL A   1      32.128  28.701  22.553  1.00  0.00     0.289 C 
ATOM     14  O   UNL A   1      33.184  29.288  22.793  1.00  0.00    -0.266 OA
ATOM     15  H   UNL A   1      33.159  27.093  21.966  1.00  0.00     0.164 HD
BRANCH  13  16
ATOM     16  C   UNL A   1      30.839  29.350  22.611  1.00  0.00     0.224 A 
ATOM     17  C   UNL A   1      27.651  30.935  23.501  1.00  0.00     0.070 C 
ATOM     18  C   UNL A   1      28.869  30.319  22.927  1.00  0.00     0.081 A 
ATOM     19  C   UNL A   1      29.983  29.776  23.604  1.00  0.00     0.083 A 
ATOM     20  N   UNL A   1      29.009  30.205  21.605  1.00  0.00    -0.084 NA
ATOM     21  O   UNL A   1      30.229  29.590  21.408  1.00  0.00    -0.351 OA
ENDBRANCH  13  16
ENDBRANCH  11  12
ENDBRANCH   7  11
ENDBRANCH   3   6
ENDBRANCH   1   2
BRANCH   1  22
ATOM     22  C   UNL A   1      33.148  27.971  26.114  1.00  0.00     0.042 C 
BRANCH  22  23
ATOM     23  C   UNL A   1      33.256  28.473  27.547  1.00  0.00     0.118 C 
BRANCH  23  24
ATOM     24  N   UNL A   1      33.331  29.928  27.611  1.00  0.00    -0.352 N 
ATOM     25  C   UNL A   1      34.353  30.751  28.014  1.00  0.00     0.251 C 
ATOM     26  H   UNL A   1      32.515  30.396  27.317  1.00  0.00     0.163 HD
ATOM     27  O   UNL A   1      34.138  31.950  28.166  1.00  0.00    -0.269 OA
BRANCH  25  28
ATOM     28  C   UNL A   1      35.700  30.206  28.288  1.00  0.00     0.039 A 
ATOM     29  C   UNL A   1      36.638  30.170  27.252  1.00  0.00     0.014 A 
ATOM     30  C   UNL A   1      36.036  29.703  29.547  1.00  0.00     0.014 A 
ATOM     31  C   UNL A   1      37.929  29.695  27.496  1.00  0.00     0.010 A 
ATOM     32  C   UNL A   1      37.344  29.311  29.812  1.00  0.00     0.010 A 
ATOM     33  C   UNL A   1      38.302  29.295  28.788  1.00  0.00    -0.014 A 
BRANCH  33  34
ATOM     34  C   UNL A   1      39.682  28.842  29.096  1.00  0.00     0.031 A 
ATOM     35  C   UNL A   1      40.662  29.796  29.725  1.00  0.00     0.074 A 
ATOM     36  C   UNL A   1      40.078  27.608  28.728  1.00  0.00     0.049 A 
ATOM     37  N   UNL A   1      41.938  29.628  29.963  1.00  0.00    -0.248 NA
ATOM     38  C   UNL A   1      40.150  31.124  30.105  1.00  0.00     0.031 C 
ATOM     39  C   UNL A   1      39.239  26.606  28.065  1.00  0.00     0.029 A 
ATOM     40  N   UNL A   1      41.298  26.992  28.847  1.00  0.00    -0.354 N 
ATOM     41  C   UNL A   1      42.386  30.837  30.480  1.00  0.00     0.074 A 
ATOM     42  C   UNL A   1      41.257  31.740  30.493  1.00  0.00     0.031 C 
ATOM     43  C   UNL A   1      39.965  25.496  27.854  1.00  0.00     0.029 A 
ATOM     44  C   UNL A   1      41.326  25.719  28.330  1.00  0.00     0.049 A 
ATOM     45  H   UNL A   1      42.081  27.421  29.263  1.00  0.00     0.167 HD
ATOM     46  C   UNL A   1      43.625  31.163  30.920  1.00  0.00     0.031 A 
ATOM     47  C   UNL A   1      42.336  24.835  28.241  1.00  0.00     0.031 A 
ATOM     48  C   UNL A   1      44.734  30.251  30.958  1.00  0.00     0.049 A 
ATOM     49  C   UNL A   1      43.691  25.211  28.774  1.00  0.00     0.074 A 
ATOM     50  C   UNL A   1      46.003  30.459  31.472  1.00  0.00     0.029 A 
ATOM     51  N   UNL A   1      44.705  28.954  30.470  1.00  0.00    -0.354 N 
ATOM     52  N   UNL A   1      44.076  26.333  29.330  1.00  0.00    -0.248 NA
ATOM     53  C   UNL A   1      44.746  24.192  28.677  1.00  0.00     0.031 C 
ATOM     54  C   UNL A   1      46.754  29.299  31.263  1.00  0.00     0.029 A 
ATOM     55  C   UNL A   1      45.939  28.357  30.655  1.00  0.00     0.049 A 
ATOM     56  H   UNL A   1      43.924  28.523  30.055  1.00  0.00     0.167 HD
ATOM     57  C   UNL A   1      45.408  26.145  29.674  1.00  0.00     0.074 A 
ATOM     58  C   UNL A   1      45.760  24.798  29.278  1.00  0.00     0.031 C 
ATOM     59  C   UNL A   1      46.265  27.012  30.266  1.00  0.00     0.031 A 
BRANCH  46  60
ATOM     60  C   UNL A   1      43.848  32.568  31.401  1.00  0.00    -0.014 A 
ATOM     61  C   UNL A   1      43.653  32.916  32.746  1.00  0.00     0.009 A 
ATOM     62  C   UNL A   1      44.320  33.541  30.507  1.00  0.00     0.009 A 
ATOM     63  C   UNL A   1      43.899  34.220  33.181  1.00  0.00     0.001 A 
ATOM     64  C   UNL A   1      44.588  34.837  30.950  1.00  0.00     0.001 A 
ATOM     65  C   UNL A   1      44.372  35.177  32.284  1.00  0.00     0.000 A 
ENDBRANCH  46  60
BRANCH  47  66
ATOM     66  C   UNL A   1      42.113  23.498  27.633  1.00  0.00    -0.014 A 
ATOM     67  C   UNL A   1      42.459  23.262  26.293  1.00  0.00     0.009 A 
ATOM     68  C   UNL A   1      41.527  22.463  28.376  1.00  0.00     0.009 A 
ATOM     69  C   UNL A   1      42.190  22.026  25.701  1.00  0.00     0.001 A 
ATOM     70  C   UNL A   1      41.284  21.219  27.788  1.00  0.00     0.001 A 
ATOM     71  C   UNL A   1      41.605  21.006  26.449  1.00  0.00     0.000 A 
ENDBRANCH  47  66
BRANCH  59  72
ATOM     72  C   UNL A   1      47.651  26.514  30.556  1.00  0.00    -0.014 A 
ATOM     73  C   UNL A   1      47.975  25.954  31.800  1.00  0.00     0.009 A 
ATOM     74  C   UNL A   1      48.631  26.571  29.553  1.00  0.00     0.009 A 
ATOM     75  C   UNL A   1      49.266  25.485  32.044  1.00  0.00     0.001 A 
ATOM     76  C   UNL A   1      49.913  26.078  29.792  1.00  0.00     0.001 A 
ATOM     77  C   UNL A   1      50.232  25.542  31.039  1.00  0.00     0.000 A 
ENDBRANCH  59  72
ENDBRANCH  33  34
ENDBRANCH  25  28
ENDBRANCH  23  24
ENDBRANCH  22  23
ENDBRANCH   1  22
TORSDOF 13
ENDMDL
MODEL 3
REMARK VINA RESULT:     -10.8      2.110      7.838
REMARK SMILES Cc1cc(C(=O)NC[C@@H]2CC[C@H](C(=O)NCCCNC(=O)c3ccc(-c4c5nc(c(-c6ccccc6)c6ccc([nH]6)c(-c6ccccc6)c6nc(c(-c7ccccc7)c7ccc4[nH]7)C=C6)C=C5)cc3)O2)on1
REMARK SMILES IDX 16 1 15 2 13 3 14 4 12 6 9 7 10 8 70 9 11 10 8 11 7 12 5 13
REMARK SMILES IDX 6 14 4 16 1 17 2 18 3 19 72 20 71 21 17 22 18 23 19 24 20 25
REMARK SMILES IDX 21 27 22 28 23 29 69 30 24 31 68 32 25 33 26 34 27 35 62 36
REMARK SMILES IDX 28 37 67 38 61 39 63 40 29 41 66 42 60 43 59 44 30 46 52 47
REMARK SMILES IDX 37 48 51 49 38 50 41 51 50 52 64 53 39 54 40 55 49 57 65 58
REMARK SMILES IDX 42 59 31 60 32 61 36 62 33 63 35 64 34 65 53 66 54 67 58 68
REMARK SMILES IDX 55 69 57 70 56 71 43 72 44 73 48 74 45 75 47 76 46 77
REMARK H PARENT 15 5 7 15 19 26 63 45 41 56
REMARK Flexibility Score: inf
ROOT
ATOM      1  C   UNL A   1      32.025  26.821  26.170  1.00  0.00     0.117 C 
ENDROOT
BRANCH   1   2
ATOM      2  N   UNL A   1      31.393  25.686  26.802  1.00  0.00    -0.354 N 
ATOM      3  C   UNL A   1      31.582  24.350  26.589  1.00  0.00     0.249 C 
ATOM      4  O   UNL A   1      30.922  23.570  27.283  1.00  0.00    -0.272 OA
ATOM      5  H   UNL A   1      30.726  25.909  27.491  1.00  0.00     0.163 HD
BRANCH   3   6
ATOM      6  C   UNL A   1      32.533  23.819  25.491  1.00  0.00     0.207 C 
ATOM      7  C   UNL A   1      33.016  21.705  24.593  1.00  0.00     0.138 C 
ATOM      8  C   UNL A   1      34.028  21.943  25.703  1.00  0.00     0.037 C 
ATOM      9  O   UNL A   1      32.016  22.731  24.721  1.00  0.00    -0.363 OA
ATOM     10  C   UNL A   1      33.899  23.413  26.022  1.00  0.00     0.045 C 
BRANCH   7  11
ATOM     11  C   UNL A   1      32.317  20.335  24.679  1.00  0.00     0.148 C 
BRANCH  11  12
ATOM     12  N   UNL A   1      32.233  19.670  23.395  1.00  0.00    -0.347 N 
ATOM     13  C   UNL A   1      32.556  18.385  23.026  1.00  0.00     0.289 C 
ATOM     14  O   UNL A   1      32.098  18.010  21.946  1.00  0.00    -0.266 OA
ATOM     15  H   UNL A   1      31.884  20.231  22.665  1.00  0.00     0.164 HD
BRANCH  13  16
ATOM     16  C   UNL A   1      33.384  17.546  23.862  1.00  0.00     0.224 A 
ATOM     17  C   UNL A   1      36.055  15.788  25.662  1.00  0.00     0.070 C 
ATOM     18  C   UNL A   1      34.836  16.356  25.043  1.00  0.00     0.081 A 
ATOM     19  C   UNL A   1      34.735  17.399  24.095  1.00  0.00     0.083 A 
ATOM     20  N   UNL A   1      33.633  15.868  25.349  1.00  0.00    -0.084 NA
ATOM     21  O   UNL A   1      32.729  16.600  24.604  1.00  0.00    -0.351 OA
ENDBRANCH  13  16
ENDBRANCH  11  12
ENDBRANCH   7  11
ENDBRANCH   3   6
ENDBRANCH   1   2
BRANCH   1  22
ATOM     22  C   UNL A   1      32.524  27.849  27.176  1.00  0.00     0.042 C 
BRANCH  22  23
ATOM     23  C   UNL A   1      33.653  28.708  26.625  1.00  0.00     0.118 C 
BRANCH  23  24
ATOM     24  N   UNL A   1      33.605  30.071  27.143  1.00  0.00    -0.352 N 
ATOM     25  C   UNL A   1      34.490  30.752  27.940  1.00  0.00     0.251 C 
ATOM     26  H   UNL A   1      32.808  30.585  26.876  1.00  0.00     0.163 HD
ATOM     27  O   UNL A   1      34.163  31.836  28.414  1.00  0.00    -0.269 OA
BRANCH  25  28
ATOM     28  C   UNL A   1      35.820  30.185  28.252  1.00  0.00     0.039 A 
ATOM     29  C   UNL A   1      36.824  30.246  27.281  1.00  0.00     0.014 A 
ATOM     30  C   UNL A   1      36.076  29.570  29.479  1.00  0.00     0.014 A 
ATOM     31  C   UNL A   1      38.100  29.752  27.565  1.00  0.00     0.010 A 
ATOM     32  C   UNL A   1      37.366  29.157  29.792  1.00  0.00     0.010 A 
ATOM     33  C   UNL A   1      38.390  29.236  28.837  1.00  0.00    -0.014 A 
BRANCH  33  34
ATOM     34  C   UNL A   1      39.749  28.757  29.192  1.00  0.00     0.031 A 
ATOM     35  C   UNL A   1      40.702  29.672  29.915  1.00  0.00     0.074 A 
ATOM     36  C   UNL A   1      40.157  27.538  28.788  1.00  0.00     0.049 A 
ATOM     37  N   UNL A   1      41.963  29.483  30.209  1.00  0.00    -0.248 NA
ATOM     38  C   UNL A   1      40.179  30.985  30.331  1.00  0.00     0.031 C 
ATOM     39  C   UNL A   1      39.347  26.575  28.036  1.00  0.00     0.029 A 
ATOM     40  N   UNL A   1      41.366  26.907  28.939  1.00  0.00    -0.354 N 
ATOM     41  C   UNL A   1      42.392  30.663  30.805  1.00  0.00     0.074 A 
ATOM     42  C   UNL A   1      41.268  31.574  30.803  1.00  0.00     0.031 C 
ATOM     43  C   UNL A   1      40.077  25.470  27.810  1.00  0.00     0.029 A 
ATOM     44  C   UNL A   1      41.412  25.660  28.365  1.00  0.00     0.049 A 
ATOM     45  H   UNL A   1      42.129  27.311  29.414  1.00  0.00     0.167 HD
ATOM     46  C   UNL A   1      43.608  30.958  31.321  1.00  0.00     0.031 A 
ATOM     47  C   UNL A   1      42.421  24.773  28.285  1.00  0.00     0.031 A 
ATOM     48  C   UNL A   1      44.709  30.036  31.372  1.00  0.00     0.049 A 
ATOM     49  C   UNL A   1      43.749  25.112  28.903  1.00  0.00     0.074 A 
ATOM     50  C   UNL A   1      45.950  30.210  31.959  1.00  0.00     0.029 A 
ATOM     51  N   UNL A   1      44.697  28.764  30.823  1.00  0.00    -0.354 N 
ATOM     52  N   UNL A   1      44.112  26.205  29.530  1.00  0.00    -0.248 NA
ATOM     53  C   UNL A   1      44.802  24.091  28.812  1.00  0.00     0.031 C 
ATOM     54  C   UNL A   1      46.705  29.055  31.733  1.00  0.00     0.029 A 
ATOM     55  C   UNL A   1      45.916  28.149  31.042  1.00  0.00     0.049 A 
ATOM     56  H   UNL A   1      43.936  28.360  30.349  1.00  0.00     0.167 HD
ATOM     57  C   UNL A   1      45.424  25.989  29.932  1.00  0.00     0.074 A 
ATOM     58  C   UNL A   1      45.788  24.659  29.491  1.00  0.00     0.031 C 
ATOM     59  C   UNL A   1      46.254  26.821  30.607  1.00  0.00     0.031 A 
BRANCH  46  60
ATOM     60  C   UNL A   1      43.815  32.337  31.879  1.00  0.00    -0.014 A 
ATOM     61  C   UNL A   1      44.256  33.392  31.066  1.00  0.00     0.009 A 
ATOM     62  C   UNL A   1      43.504  32.596  33.222  1.00  0.00     0.009 A 
ATOM     63  C   UNL A   1      44.409  34.675  31.595  1.00  0.00     0.001 A 
ATOM     64  C   UNL A   1      43.634  33.885  33.743  1.00  0.00     0.001 A 
ATOM     65  C   UNL A   1      44.092  34.922  32.931  1.00  0.00     0.000 A 
ENDBRANCH  46  60
BRANCH  47  66
ATOM     66  C   UNL A   1      42.222  23.467  27.604  1.00  0.00    -0.014 A 
ATOM     67  C   UNL A   1      41.760  22.355  28.325  1.00  0.00     0.009 A 
ATOM     68  C   UNL A   1      42.519  23.319  26.241  1.00  0.00     0.009 A 
ATOM     69  C   UNL A   1      41.634  21.112  27.701  1.00  0.00     0.001 A 
ATOM     70  C   UNL A   1      42.367  22.080  25.615  1.00  0.00     0.001 A 
ATOM     71  C   UNL A   1      41.935  20.976  26.347  1.00  0.00     0.000 A 
ENDBRANCH  47  66
BRANCH  59  72
ATOM     72  C   UNL A   1      47.620  26.299  30.943  1.00  0.00    -0.014 A 
ATOM     73  C   UNL A   1      47.894  25.736  32.197  1.00  0.00     0.009 A 
ATOM     74  C   UNL A   1      48.634  26.336  29.973  1.00  0.00     0.009 A 
ATOM     75  C   UNL A   1      49.168  25.244  32.484  1.00  0.00     0.001 A 
ATOM     76  C   UNL A   1      49.898  25.820  30.254  1.00  0.00     0.001 A 
ATOM     77  C   UNL A   1      50.167  25.282  31.512  1.00  0.00     0.000 A 
ENDBRANCH  59  72
ENDBRANCH  33  34
ENDBRANCH  25  28
ENDBRANCH  23  24
ENDBRANCH  22  23
ENDBRANCH   1  22
TORSDOF 13
ENDMDL
