MODEL 1
REMARK VINA RESULT:     -10.4      0.000      0.000
REMARK SMILES C[C@H](Cc1cccs1)N(C)C(=O)N1CCC[C@]1(C)C(=O)NCCCNC(=O)c1ccc(-c2c3nc(c(-c4ccccc4)c4ccc([nH]4)c(-c4ccccc4)c4nc(c(-c5ccccc5)c5ccc2[nH]5)C=C4)C=C3)cc1
REMARK SMILES IDX 19 1 20 2 21 3 17 5 13 6 14 7 15 8 16 9 18 10 11 11 12 12
REMARK SMILES IDX 9 13 10 14 2 15 1 16 3 17 4 18 5 19 8 20 6 21 7 22 22 23
REMARK SMILES IDX 23 24 24 25 25 26 26 27 27 29 28 30 29 31 75 32 30 33 74 34
REMARK SMILES IDX 31 35 32 36 33 37 68 38 34 39 73 40 67 41 69 42 35 43 72 44
REMARK SMILES IDX 66 45 65 46 36 48 58 49 43 50 57 51 44 52 47 53 56 54 70 55
REMARK SMILES IDX 45 56 46 57 55 59 71 60 48 61 37 62 38 63 42 64 39 65 41 66
REMARK SMILES IDX 40 67 59 68 60 69 64 70 61 71 63 72 62 73 49 74 50 75 54 76
REMARK SMILES IDX 51 77 53 78 52 79
REMARK H PARENT 21 4 25 28 69 47 47 58
REMARK Flexibility Score: inf
ROOT
ATOM      1  C   UNL A   1      33.910  24.935  23.624  1.00  0.00     0.245 C 
ATOM      2  O   UNL A   1      34.007  25.054  22.395  1.00  0.00    -0.272 OA
ATOM      3  N   UNL A   1      34.788  24.050  24.180  1.00  0.00    -0.354 N 
ATOM      4  H   UNL A   1      35.502  23.767  23.563  1.00  0.00     0.163 HD
ENDROOT
BRANCH   1   5
ATOM      5  C   UNL A   1      32.846  25.752  24.450  1.00  0.00     0.120 C 
ATOM      6  N   UNL A   1      31.415  25.315  24.341  1.00  0.00    -0.310 N 
ATOM      7  C   UNL A   1      30.619  26.387  23.760  1.00  0.00     0.122 C 
ATOM      8  C   UNL A   1      31.586  27.215  22.947  1.00  0.00     0.025 C 
ATOM      9  C   UNL A   1      32.813  27.204  23.834  1.00  0.00     0.040 C 
ATOM     10  C   UNL A   1      33.277  25.979  25.909  1.00  0.00     0.046 C 
BRANCH   6  11
ATOM     11  C   UNL A   1      31.056  24.046  23.902  1.00  0.00     0.320 C 
ATOM     12  O   UNL A   1      30.344  23.918  22.911  1.00  0.00    -0.248 OA
BRANCH  11  13
ATOM     13  N   UNL A   1      31.449  22.991  24.729  1.00  0.00    -0.325 N 
ATOM     14  C   UNL A   1      31.025  22.937  26.123  1.00  0.00     0.149 C 
BRANCH  13  15
ATOM     15  C   UNL A   1      32.228  21.809  24.242  1.00  0.00     0.088 C 
ATOM     16  C   UNL A   1      32.148  21.446  22.751  1.00  0.00     0.031 C 
BRANCH  15  17
ATOM     17  C   UNL A   1      32.030  20.537  25.113  1.00  0.00     0.071 C 
BRANCH  17  18
ATOM     18  C   UNL A   1      33.047  19.455  24.877  1.00  0.00     0.007 A 
ATOM     19  C   UNL A   1      34.406  19.586  24.677  1.00  0.00     0.015 A 
ATOM     20  S   UNL A   1      32.567  17.812  24.783  1.00  0.00    -0.149 S 
ATOM     21  C   UNL A   1      35.069  18.336  24.559  1.00  0.00     0.012 A 
ATOM     22  C   UNL A   1      34.181  17.286  24.575  1.00  0.00     0.065 A 
ENDBRANCH  17  18
ENDBRANCH  15  17
ENDBRANCH  13  15
ENDBRANCH  11  13
ENDBRANCH   6  11
ENDBRANCH   1   5
BRANCH   3  23
ATOM     23  C   UNL A   1      34.885  23.439  25.495  1.00  0.00     0.117 C 
BRANCH  23  24
ATOM     24  C   UNL A   1      36.317  23.450  26.003  1.00  0.00     0.042 C 
BRANCH  24  25
ATOM     25  C   UNL A   1      37.382  23.327  24.930  1.00  0.00     0.118 C 
BRANCH  25  26
ATOM     26  N   UNL A   1      38.523  22.555  25.394  1.00  0.00    -0.352 N 
ATOM     27  C   UNL A   1      39.648  22.907  26.097  1.00  0.00     0.251 C 
ATOM     28  H   UNL A   1      38.479  21.599  25.161  1.00  0.00     0.163 HD
ATOM     29  O   UNL A   1      40.580  22.100  26.126  1.00  0.00    -0.269 OA
BRANCH  27  30
ATOM     30  C   UNL A   1      39.799  24.203  26.815  1.00  0.00     0.039 A 
ATOM     31  C   UNL A   1      40.536  25.221  26.189  1.00  0.00     0.014 A 
ATOM     32  C   UNL A   1      39.343  24.420  28.116  1.00  0.00     0.014 A 
ATOM     33  C   UNL A   1      40.793  26.431  26.848  1.00  0.00     0.010 A 
ATOM     34  C   UNL A   1      39.503  25.665  28.730  1.00  0.00     0.010 A 
ATOM     35  C   UNL A   1      40.262  26.674  28.122  1.00  0.00    -0.014 A 
BRANCH  35  36
ATOM     36  C   UNL A   1      40.540  27.938  28.859  1.00  0.00     0.031 A 
ATOM     37  C   UNL A   1      41.838  28.113  29.609  1.00  0.00     0.074 A 
ATOM     38  C   UNL A   1      39.613  28.915  28.910  1.00  0.00     0.049 A 
ATOM     39  N   UNL A   1      42.226  29.100  30.381  1.00  0.00    -0.248 NA
ATOM     40  C   UNL A   1      42.818  27.021  29.500  1.00  0.00     0.031 C 
ATOM     41  C   UNL A   1      38.303  28.875  28.259  1.00  0.00     0.029 A 
ATOM     42  N   UNL A   1      39.631  30.129  29.554  1.00  0.00    -0.354 N 
ATOM     43  C   UNL A   1      43.473  28.731  30.871  1.00  0.00     0.074 A 
ATOM     44  C   UNL A   1      43.755  27.411  30.350  1.00  0.00     0.031 C 
ATOM     45  C   UNL A   1      37.651  30.020  28.519  1.00  0.00     0.029 A 
ATOM     46  C   UNL A   1      38.473  30.852  29.392  1.00  0.00     0.049 A 
ATOM     47  H   UNL A   1      40.398  30.450  30.079  1.00  0.00     0.167 HD
ATOM     48  C   UNL A   1      44.321  29.429  31.666  1.00  0.00     0.031 A 
ATOM     49  C   UNL A   1      38.106  32.045  29.899  1.00  0.00     0.031 A 
ATOM     50  C   UNL A   1      44.055  30.748  32.175  1.00  0.00     0.049 A 
ATOM     51  C   UNL A   1      39.052  32.799  30.788  1.00  0.00     0.074 A 
ATOM     52  C   UNL A   1      44.876  31.559  32.938  1.00  0.00     0.029 A 
ATOM     53  N   UNL A   1      42.876  31.447  31.975  1.00  0.00    -0.354 N 
ATOM     54  N   UNL A   1      40.252  32.462  31.192  1.00  0.00    -0.248 NA
ATOM     55  C   UNL A   1      38.596  34.107  31.282  1.00  0.00     0.031 C 
ATOM     56  C   UNL A   1      44.172  32.729  33.246  1.00  0.00     0.029 A 
ATOM     57  C   UNL A   1      42.937  32.671  32.622  1.00  0.00     0.049 A 
ATOM     58  H   UNL A   1      42.108  31.123  31.451  1.00  0.00     0.167 HD
ATOM     59  C   UNL A   1      40.705  33.523  31.967  1.00  0.00     0.074 A 
ATOM     60  C   UNL A   1      39.656  34.521  31.964  1.00  0.00     0.031 C 
ATOM     61  C   UNL A   1      41.886  33.657  32.617  1.00  0.00     0.031 A 
BRANCH  48  62
ATOM     62  C   UNL A   1      45.614  28.758  32.048  1.00  0.00    -0.014 A 
ATOM     63  C   UNL A   1      46.770  28.891  31.260  1.00  0.00     0.009 A 
ATOM     64  C   UNL A   1      45.680  27.987  33.219  1.00  0.00     0.009 A 
ATOM     65  C   UNL A   1      47.946  28.221  31.607  1.00  0.00     0.001 A 
ATOM     66  C   UNL A   1      46.868  27.347  33.582  1.00  0.00     0.001 A 
ATOM     67  C   UNL A   1      47.994  27.452  32.768  1.00  0.00     0.000 A 
ENDBRANCH  48  62
BRANCH  49  68
ATOM     68  C   UNL A   1      36.769  32.600  29.561  1.00  0.00    -0.014 A 
ATOM     69  C   UNL A   1      35.675  32.400  30.416  1.00  0.00     0.009 A 
ATOM     70  C   UNL A   1      36.588  33.360  28.393  1.00  0.00     0.009 A 
ATOM     71  C   UNL A   1      34.425  32.937  30.103  1.00  0.00     0.001 A 
ATOM     72  C   UNL A   1      35.343  33.919  28.097  1.00  0.00     0.001 A 
ATOM     73  C   UNL A   1      34.261  33.701  28.949  1.00  0.00     0.000 A 
ENDBRANCH  49  68
BRANCH  61  74
ATOM     74  C   UNL A   1      42.128  34.945  33.356  1.00  0.00    -0.014 A 
ATOM     75  C   UNL A   1      41.598  35.165  34.636  1.00  0.00     0.009 A 
ATOM     76  C   UNL A   1      42.944  35.931  32.779  1.00  0.00     0.009 A 
ATOM     77  C   UNL A   1      41.857  36.360  35.311  1.00  0.00     0.001 A 
ATOM     78  C   UNL A   1      43.226  37.112  33.468  1.00  0.00     0.001 A 
ATOM     79  C   UNL A   1      42.675  37.329  34.730  1.00  0.00     0.000 A 
ENDBRANCH  61  74
ENDBRANCH  35  36
ENDBRANCH  27  30
ENDBRANCH  25  26
ENDBRANCH  24  25
ENDBRANCH  23  24
ENDBRANCH   3  23
TORSDOF 15
ENDMDL
MODEL 2
REMARK VINA RESULT:     -10.4      2.727      7.082
REMARK SMILES C[C@H](Cc1cccs1)N(C)C(=O)N1CCC[C@]1(C)C(=O)NCCCNC(=O)c1ccc(-c2c3nc(c(-c4ccccc4)c4ccc([nH]4)c(-c4ccccc4)c4nc(c(-c5ccccc5)c5ccc2[nH]5)C=C4)C=C3)cc1
REMARK SMILES IDX 19 1 20 2 21 3 17 5 13 6 14 7 15 8 16 9 18 10 11 11 12 12
REMARK SMILES IDX 9 13 10 14 2 15 1 16 3 17 4 18 5 19 8 20 6 21 7 22 22 23
REMARK SMILES IDX 23 24 24 25 25 26 26 27 27 29 28 30 29 31 75 32 30 33 74 34
REMARK SMILES IDX 31 35 32 36 33 37 68 38 34 39 73 40 67 41 69 42 35 43 72 44
REMARK SMILES IDX 66 45 65 46 36 48 58 49 43 50 57 51 44 52 47 53 56 54 70 55
REMARK SMILES IDX 45 56 46 57 55 59 71 60 48 61 37 62 38 63 42 64 39 65 41 66
REMARK SMILES IDX 40 67 59 68 60 69 64 70 61 71 63 72 62 73 49 74 50 75 54 76
REMARK SMILES IDX 51 77 53 78 52 79
REMARK H PARENT 21 4 25 28 69 47 47 58
REMARK Flexibility Score: inf
ROOT
ATOM      1  C   UNL A   1      36.202  22.928  24.106  1.00  0.00     0.245 C 
ATOM      2  O   UNL A   1      36.614  23.723  23.249  1.00  0.00    -0.272 OA
ATOM      3  N   UNL A   1      36.903  21.759  24.180  1.00  0.00    -0.354 N 
ATOM      4  H   UNL A   1      37.751  21.778  23.681  1.00  0.00     0.163 HD
ENDROOT
BRANCH   1   5
ATOM      5  C   UNL A   1      34.963  23.270  25.018  1.00  0.00     0.120 C 
ATOM      6  N   UNL A   1      33.609  23.218  24.377  1.00  0.00    -0.310 N 
ATOM      7  C   UNL A   1      32.998  24.540  24.417  1.00  0.00     0.122 C 
ATOM      8  C   UNL A   1      34.148  25.516  24.490  1.00  0.00     0.025 C 
ATOM      9  C   UNL A   1      35.101  24.790  25.417  1.00  0.00     0.040 C 
ATOM     10  C   UNL A   1      34.999  22.529  26.366  1.00  0.00     0.046 C 
BRANCH   6  11
ATOM     11  C   UNL A   1      33.370  22.523  23.197  1.00  0.00     0.320 C 
ATOM     12  O   UNL A   1      33.802  22.953  22.133  1.00  0.00    -0.248 OA
BRANCH  11  13
ATOM     13  N   UNL A   1      32.521  21.419  23.313  1.00  0.00    -0.325 N 
ATOM     14  C   UNL A   1      31.982  20.763  22.128  1.00  0.00     0.149 C 
BRANCH  13  15
ATOM     15  C   UNL A   1      32.187  20.772  24.621  1.00  0.00     0.088 C 
ATOM     16  C   UNL A   1      31.535  21.631  25.716  1.00  0.00     0.031 C 
BRANCH  15  17
ATOM     17  C   UNL A   1      33.359  19.944  25.218  1.00  0.00     0.071 C 
BRANCH  17  18
ATOM     18  C   UNL A   1      33.414  18.515  24.752  1.00  0.00     0.007 A 
ATOM     19  C   UNL A   1      34.047  18.002  23.639  1.00  0.00     0.015 A 
ATOM     20  S   UNL A   1      32.587  17.285  25.612  1.00  0.00    -0.149 S 
ATOM     21  C   UNL A   1      33.950  16.588  23.551  1.00  0.00     0.012 A 
ATOM     22  C   UNL A   1      33.159  16.071  24.551  1.00  0.00     0.065 A 
ENDBRANCH  17  18
ENDBRANCH  15  17
ENDBRANCH  13  15
ENDBRANCH  11  13
ENDBRANCH   6  11
ENDBRANCH   1   5
BRANCH   3  23
ATOM     23  C   UNL A   1      36.652  20.492  24.847  1.00  0.00     0.117 C 
BRANCH  23  24
ATOM     24  C   UNL A   1      37.916  19.653  24.926  1.00  0.00     0.042 C 
BRANCH  24  25
ATOM     25  C   UNL A   1      38.959  20.148  25.911  1.00  0.00     0.118 C 
BRANCH  25  26
ATOM     26  N   UNL A   1      40.147  19.310  25.900  1.00  0.00    -0.352 N 
ATOM     27  C   UNL A   1      41.483  19.606  26.016  1.00  0.00     0.251 C 
ATOM     28  H   UNL A   1      39.958  18.350  25.790  1.00  0.00     0.163 HD
ATOM     29  O   UNL A   1      42.291  18.729  25.708  1.00  0.00    -0.269 OA
BRANCH  27  30
ATOM     30  C   UNL A   1      41.996  20.923  26.487  1.00  0.00     0.039 A 
ATOM     31  C   UNL A   1      42.053  21.150  27.871  1.00  0.00     0.014 A 
ATOM     32  C   UNL A   1      42.318  21.975  25.629  1.00  0.00     0.014 A 
ATOM     33  C   UNL A   1      42.439  22.398  28.378  1.00  0.00     0.010 A 
ATOM     34  C   UNL A   1      42.808  23.183  26.133  1.00  0.00     0.010 A 
ATOM     35  C   UNL A   1      42.840  23.425  27.514  1.00  0.00    -0.014 A 
BRANCH  35  36
ATOM     36  C   UNL A   1      43.229  24.771  28.020  1.00  0.00     0.031 A 
ATOM     37  C   UNL A   1      42.175  25.814  28.299  1.00  0.00     0.074 A 
ATOM     38  C   UNL A   1      44.528  25.089  28.181  1.00  0.00     0.049 A 
ATOM     39  N   UNL A   1      42.320  27.067  28.658  1.00  0.00    -0.248 NA
ATOM     40  C   UNL A   1      40.773  25.402  28.124  1.00  0.00     0.031 C 
ATOM     41  C   UNL A   1      45.658  24.194  27.924  1.00  0.00     0.029 A 
ATOM     42  N   UNL A   1      45.117  26.262  28.588  1.00  0.00    -0.354 N 
ATOM     43  C   UNL A   1      41.035  27.595  28.718  1.00  0.00     0.074 A 
ATOM     44  C   UNL A   1      40.129  26.544  28.311  1.00  0.00     0.031 C 
ATOM     45  C   UNL A   1      46.801  24.843  28.198  1.00  0.00     0.029 A 
ATOM     46  C   UNL A   1      46.490  26.211  28.604  1.00  0.00     0.049 A 
ATOM     47  H   UNL A   1      44.604  27.062  28.844  1.00  0.00     0.167 HD
ATOM     48  C   UNL A   1      40.637  28.835  29.094  1.00  0.00     0.031 A 
ATOM     49  C   UNL A   1      47.400  27.159  28.896  1.00  0.00     0.031 A 
ATOM     50  C   UNL A   1      41.530  29.882  29.515  1.00  0.00     0.049 A 
ATOM     51  C   UNL A   1      46.942  28.532  29.299  1.00  0.00     0.074 A 
ATOM     52  C   UNL A   1      41.217  31.150  29.971  1.00  0.00     0.029 A 
ATOM     53  N   UNL A   1      42.912  29.781  29.528  1.00  0.00    -0.354 N 
ATOM     54  N   UNL A   1      45.721  28.996  29.408  1.00  0.00    -0.248 NA
ATOM     55  C   UNL A   1      47.989  29.509  29.632  1.00  0.00     0.031 C 
ATOM     56  C   UNL A   1      42.413  31.837  30.209  1.00  0.00     0.029 A 
ATOM     57  C   UNL A   1      43.468  30.974  29.959  1.00  0.00     0.049 A 
ATOM     58  H   UNL A   1      43.422  28.980  29.268  1.00  0.00     0.167 HD
ATOM     59  C   UNL A   1      45.851  30.309  29.844  1.00  0.00     0.074 A 
ATOM     60  C   UNL A   1      47.270  30.562  29.993  1.00  0.00     0.031 C 
ATOM     61  C   UNL A   1      44.881  31.219  30.101  1.00  0.00     0.031 A 
BRANCH  48  62
ATOM     62  C   UNL A   1      39.160  29.127  29.045  1.00  0.00    -0.014 A 
ATOM     63  C   UNL A   1      38.546  29.609  27.877  1.00  0.00     0.009 A 
ATOM     64  C   UNL A   1      38.368  28.910  30.184  1.00  0.00     0.009 A 
ATOM     65  C   UNL A   1      37.184  29.921  27.868  1.00  0.00     0.001 A 
ATOM     66  C   UNL A   1      37.000  29.188  30.161  1.00  0.00     0.001 A 
ATOM     67  C   UNL A   1      36.412  29.708  29.009  1.00  0.00     0.000 A 
ENDBRANCH  48  62
BRANCH  49  68
ATOM     68  C   UNL A   1      48.848  26.829  28.824  1.00  0.00    -0.014 A 
ATOM     69  C   UNL A   1      49.564  27.015  27.632  1.00  0.00     0.009 A 
ATOM     70  C   UNL A   1      49.527  26.352  29.957  1.00  0.00     0.009 A 
ATOM     71  C   UNL A   1      50.927  26.717  27.572  1.00  0.00     0.001 A 
ATOM     72  C   UNL A   1      50.896  26.082  29.902  1.00  0.00     0.001 A 
ATOM     73  C   UNL A   1      51.593  26.259  28.708  1.00  0.00     0.000 A 
ENDBRANCH  49  68
BRANCH  61  74
ATOM     74  C   UNL A   1      45.313  32.569  30.605  1.00  0.00    -0.014 A 
ATOM     75  C   UNL A   1      45.554  33.635  29.727  1.00  0.00     0.009 A 
ATOM     76  C   UNL A   1      45.428  32.787  31.987  1.00  0.00     0.009 A 
ATOM     77  C   UNL A   1      45.932  34.886  30.221  1.00  0.00     0.001 A 
ATOM     78  C   UNL A   1      45.776  34.046  32.481  1.00  0.00     0.001 A 
ATOM     79  C   UNL A   1      46.036  35.092  31.597  1.00  0.00     0.000 A 
ENDBRANCH  61  74
ENDBRANCH  35  36
ENDBRANCH  27  30
ENDBRANCH  25  26
ENDBRANCH  24  25
ENDBRANCH  23  24
ENDBRANCH   3  23
TORSDOF 15
ENDMDL
MODEL 3
REMARK VINA RESULT:     -10.4      2.680      4.669
REMARK SMILES C[C@H](Cc1cccs1)N(C)C(=O)N1CCC[C@]1(C)C(=O)NCCCNC(=O)c1ccc(-c2c3nc(c(-c4ccccc4)c4ccc([nH]4)c(-c4ccccc4)c4nc(c(-c5ccccc5)c5ccc2[nH]5)C=C4)C=C3)cc1
REMARK SMILES IDX 19 1 20 2 21 3 17 5 13 6 14 7 15 8 16 9 18 10 11 11 12 12
REMARK SMILES IDX 9 13 10 14 2 15 1 16 3 17 4 18 5 19 8 20 6 21 7 22 22 23
REMARK SMILES IDX 23 24 24 25 25 26 26 27 27 29 28 30 29 31 75 32 30 33 74 34
REMARK SMILES IDX 31 35 32 36 33 37 68 38 34 39 73 40 67 41 69 42 35 43 72 44
REMARK SMILES IDX 66 45 65 46 36 48 58 49 43 50 57 51 44 52 47 53 56 54 70 55
REMARK SMILES IDX 45 56 46 57 55 59 71 60 48 61 37 62 38 63 42 64 39 65 41 66
REMARK SMILES IDX 40 67 59 68 60 69 64 70 61 71 63 72 62 73 49 74 50 75 54 76
REMARK SMILES IDX 51 77 53 78 52 79
REMARK H PARENT 21 4 25 28 69 47 47 58
REMARK Flexibility Score: inf
ROOT
ATOM      1  C   UNL A   1      34.535  20.825  25.319  1.00  0.00     0.245 C 
ATOM      2  O   UNL A   1      33.668  19.942  25.378  1.00  0.00    -0.272 OA
ATOM      3  N   UNL A   1      35.735  20.410  24.819  1.00  0.00    -0.354 N 
ATOM      4  H   UNL A   1      35.697  19.520  24.398  1.00  0.00     0.163 HD
ENDROOT
BRANCH   1   5
ATOM      5  C   UNL A   1      34.243  22.299  25.794  1.00  0.00     0.120 C 
ATOM      6  N   UNL A   1      34.340  23.381  24.760  1.00  0.00    -0.310 N 
ATOM      7  C   UNL A   1      35.395  24.315  25.127  1.00  0.00     0.122 C 
ATOM      8  C   UNL A   1      36.348  23.529  25.997  1.00  0.00     0.025 C 
ATOM      9  C   UNL A   1      35.388  22.683  26.807  1.00  0.00     0.040 C 
ATOM     10  C   UNL A   1      32.957  22.407  26.631  1.00  0.00     0.046 C 
BRANCH   6  11
ATOM     11  C   UNL A   1      34.273  23.115  23.397  1.00  0.00     0.320 C 
ATOM     12  O   UNL A   1      35.304  22.954  22.751  1.00  0.00    -0.248 OA
BRANCH  11  13
ATOM     13  N   UNL A   1      32.996  23.182  22.835  1.00  0.00    -0.325 N 
ATOM     14  C   UNL A   1      32.152  21.996  22.753  1.00  0.00     0.149 C 
BRANCH  13  15
ATOM     15  C   UNL A   1      32.364  24.460  22.379  1.00  0.00     0.088 C 
ATOM     16  C   UNL A   1      33.260  25.695  22.197  1.00  0.00     0.031 C 
BRANCH  15  17
ATOM     17  C   UNL A   1      31.088  24.840  23.182  1.00  0.00     0.071 C 
BRANCH  17  18
ATOM     18  C   UNL A   1      31.302  25.896  24.231  1.00  0.00     0.007 A 
ATOM     19  C   UNL A   1      31.857  25.755  25.486  1.00  0.00     0.015 A 
ATOM     20  S   UNL A   1      30.794  27.510  23.960  1.00  0.00    -0.149 S 
ATOM     21  C   UNL A   1      31.968  26.988  26.182  1.00  0.00     0.012 A 
ATOM     22  C   UNL A   1      31.404  28.023  25.473  1.00  0.00     0.065 A 
ENDBRANCH  17  18
ENDBRANCH  15  17
ENDBRANCH  13  15
ENDBRANCH  11  13
ENDBRANCH   6  11
ENDBRANCH   1   5
BRANCH   3  23
ATOM     23  C   UNL A   1      37.057  21.013  24.780  1.00  0.00     0.117 C 
BRANCH  23  24
ATOM     24  C   UNL A   1      38.146  19.953  24.817  1.00  0.00     0.042 C 
BRANCH  24  25
ATOM     25  C   UNL A   1      38.907  19.857  26.126  1.00  0.00     0.118 C 
BRANCH  25  26
ATOM     26  N   UNL A   1      40.181  19.177  25.956  1.00  0.00    -0.352 N 
ATOM     27  C   UNL A   1      41.476  19.634  25.962  1.00  0.00     0.251 C 
ATOM     28  H   UNL A   1      40.100  18.206  25.811  1.00  0.00     0.163 HD
ATOM     29  O   UNL A   1      42.350  18.880  25.530  1.00  0.00    -0.269 OA
BRANCH  27  30
ATOM     30  C   UNL A   1      41.871  20.982  26.454  1.00  0.00     0.039 A 
ATOM     31  C   UNL A   1      41.795  21.228  27.835  1.00  0.00     0.014 A 
ATOM     32  C   UNL A   1      42.205  22.042  25.611  1.00  0.00     0.014 A 
ATOM     33  C   UNL A   1      42.064  22.502  28.353  1.00  0.00     0.010 A 
ATOM     34  C   UNL A   1      42.581  23.282  26.136  1.00  0.00     0.010 A 
ATOM     35  C   UNL A   1      42.479  23.541  27.510  1.00  0.00    -0.014 A 
BRANCH  35  36
ATOM     36  C   UNL A   1      42.746  24.912  28.026  1.00  0.00     0.031 A 
ATOM     37  C   UNL A   1      44.137  25.303  28.464  1.00  0.00     0.074 A 
ATOM     38  C   UNL A   1      41.740  25.798  28.159  1.00  0.00     0.049 A 
ATOM     39  N   UNL A   1      44.550  26.417  29.021  1.00  0.00    -0.248 NA
ATOM     40  C   UNL A   1      45.197  24.301  28.275  1.00  0.00     0.031 C 
ATOM     41  C   UNL A   1      40.342  25.551  27.805  1.00  0.00     0.029 A 
ATOM     42  N   UNL A   1      41.741  27.083  28.644  1.00  0.00    -0.354 N 
ATOM     43  C   UNL A   1      45.904  26.232  29.278  1.00  0.00     0.074 A 
ATOM     44  C   UNL A   1      46.230  24.886  28.862  1.00  0.00     0.031 C 
ATOM     45  C   UNL A   1      39.623  26.656  28.066  1.00  0.00     0.029 A 
ATOM     46  C   UNL A   1      40.498  27.670  28.647  1.00  0.00     0.049 A 
ATOM     47  H   UNL A   1      42.553  27.541  28.959  1.00  0.00     0.167 HD
ATOM     48  C   UNL A   1      46.803  27.104  29.795  1.00  0.00     0.031 A 
ATOM     49  C   UNL A   1      40.100  28.880  29.083  1.00  0.00     0.031 A 
ATOM     50  C   UNL A   1      46.490  28.450  30.197  1.00  0.00     0.049 A 
ATOM     51  C   UNL A   1      41.107  29.831  29.664  1.00  0.00     0.074 A 
ATOM     52  C   UNL A   1      47.344  29.429  30.676  1.00  0.00     0.029 A 
ATOM     53  N   UNL A   1      45.220  29.006  30.170  1.00  0.00    -0.354 N 
ATOM     54  N   UNL A   1      42.394  29.661  29.844  1.00  0.00    -0.248 NA
ATOM     55  C   UNL A   1      40.607  31.146  30.092  1.00  0.00     0.031 C 
ATOM     56  C   UNL A   1      46.582  30.559  30.990  1.00  0.00     0.029 A 
ATOM     57  C   UNL A   1      45.264  30.305  30.649  1.00  0.00     0.049 A 
ATOM     58  H   UNL A   1      44.409  28.545  29.858  1.00  0.00     0.167 HD
ATOM     59  C   UNL A   1      42.863  30.854  30.382  1.00  0.00     0.074 A 
ATOM     60  C   UNL A   1      41.724  31.743  30.487  1.00  0.00     0.031 C 
ATOM     61  C   UNL A   1      44.125  31.182  30.753  1.00  0.00     0.031 A 
BRANCH  48  62
ATOM     62  C   UNL A   1      48.216  26.613  29.972  1.00  0.00    -0.014 A 
ATOM     63  C   UNL A   1      48.623  25.959  31.147  1.00  0.00     0.009 A 
ATOM     64  C   UNL A   1      49.153  26.800  28.943  1.00  0.00     0.009 A 
ATOM     65  C   UNL A   1      49.951  25.555  31.309  1.00  0.00     0.001 A 
ATOM     66  C   UNL A   1      50.470  26.363  29.095  1.00  0.00     0.001 A 
ATOM     67  C   UNL A   1      50.872  25.755  30.283  1.00  0.00     0.000 A 
ENDBRANCH  48  62
BRANCH  49  68
ATOM     68  C   UNL A   1      38.667  29.261  28.971  1.00  0.00    -0.014 A 
ATOM     69  C   UNL A   1      38.147  29.734  27.757  1.00  0.00     0.009 A 
ATOM     70  C   UNL A   1      37.806  29.126  30.072  1.00  0.00     0.009 A 
ATOM     71  C   UNL A   1      36.797  30.076  27.651  1.00  0.00     0.001 A 
ATOM     72  C   UNL A   1      36.451  29.443  29.956  1.00  0.00     0.001 A 
ATOM     73  C   UNL A   1      35.949  29.924  28.747  1.00  0.00     0.000 A 
ENDBRANCH  49  68
BRANCH  61  74
ATOM     74  C   UNL A   1      44.355  32.574  31.275  1.00  0.00    -0.014 A 
ATOM     75  C   UNL A   1      44.671  33.635  30.414  1.00  0.00     0.009 A 
ATOM     76  C   UNL A   1      44.200  32.833  32.646  1.00  0.00     0.009 A 
ATOM     77  C   UNL A   1      44.856  34.923  30.921  1.00  0.00     0.001 A 
ATOM     78  C   UNL A   1      44.357  34.126  33.146  1.00  0.00     0.001 A 
ATOM     79  C   UNL A   1      44.693  35.169  32.284  1.00  0.00     0.000 A 
ENDBRANCH  61  74
ENDBRANCH  35  36
ENDBRANCH  27  30
ENDBRANCH  25  26
ENDBRANCH  24  25
ENDBRANCH  23  24
ENDBRANCH   3  23
TORSDOF 15
ENDMDL
