MODEL 1
REMARK VINA RESULT:      -8.6      0.000      0.000
REMARK SMILES N#C[C@@H]1CN(C(=O)NCCCC(=O)NCCCNC(=O)c2ccc(-c3c4nc(c(-c5ccccc5)c5ccc([nH]5)c(-c5ccccc5)c5nc(c(-c6ccccc6)c6ccc3[nH]6)C=C5)C=C4)cc2)CCO1
REMARK SMILES IDX 12 1 13 2 14 3 11 5 10 6 9 7 8 8 6 9 7 10 5 12 3 13 4 14
REMARK SMILES IDX 71 15 70 16 69 17 2 18 1 19 15 20 16 21 17 22 18 23 19 24
REMARK SMILES IDX 20 26 21 27 22 28 68 29 23 30 67 31 24 32 25 33 26 34 61 35
REMARK SMILES IDX 27 36 66 37 60 38 62 39 28 40 65 41 59 42 58 43 29 45 51 46
REMARK SMILES IDX 36 47 50 48 37 49 40 50 49 51 63 52 38 53 39 54 48 56 64 57
REMARK SMILES IDX 41 58 30 59 31 60 35 61 32 62 34 63 33 64 52 65 53 66 57 67
REMARK SMILES IDX 54 68 56 69 55 70 42 71 43 72 47 73 44 74 46 75 45 76
REMARK H PARENT 14 4 8 11 18 25 62 44 40 55
REMARK Flexibility Score: inf
ROOT
ATOM      1  C   UNL A   1      46.496  22.901  24.321  1.00  0.00     0.220 C 
ATOM      2  O   UNL A   1      46.849  23.691  23.443  1.00  0.00    -0.275 OA
ATOM      3  N   UNL A   1      46.664  21.571  24.094  1.00  0.00    -0.356 N 
ATOM      4  H   UNL A   1      47.165  21.356  23.275  1.00  0.00     0.163 HD
ENDROOT
BRANCH   1   5
ATOM      5  C   UNL A   1      45.884  23.401  25.612  1.00  0.00     0.102 C 
BRANCH   5   6
ATOM      6  C   UNL A   1      45.330  24.823  25.485  1.00  0.00     0.031 C 
BRANCH   6   7
ATOM      7  C   UNL A   1      46.183  25.892  26.164  1.00  0.00     0.118 C 
BRANCH   7   8
ATOM      8  N   UNL A   1      46.501  26.997  25.277  1.00  0.00    -0.338 N 
ATOM      9  C   UNL A   1      46.416  28.337  25.370  1.00  0.00     0.317 C 
ATOM     10  O   UNL A   1      46.578  28.949  24.313  1.00  0.00    -0.249 OA
ATOM     11  H   UNL A   1      46.858  26.698  24.410  1.00  0.00     0.165 HD
BRANCH   9  12
ATOM     12  N   UNL A   1      46.146  28.979  26.542  1.00  0.00    -0.319 N 
ATOM     13  C   UNL A   1      46.770  30.864  28.058  1.00  0.00     0.240 C 
ATOM     14  C   UNL A   1      47.085  29.441  27.568  1.00  0.00     0.169 C 
ATOM     15  O   UNL A   1      45.388  30.982  28.457  1.00  0.00    -0.360 OA
ATOM     16  C   UNL A   1      44.492  30.643  27.384  1.00  0.00     0.183 C 
ATOM     17  C   UNL A   1      44.734  29.219  26.881  1.00  0.00     0.150 C 
BRANCH  13  18
ATOM     18  C   UNL A   1      47.136  31.893  27.001  1.00  0.00     0.096 C 
ATOM     19  N   UNL A   1      47.439  32.746  26.124  1.00  0.00    -0.195 NA
ENDBRANCH  13  18
ENDBRANCH   9  12
ENDBRANCH   7   8
ENDBRANCH   6   7
ENDBRANCH   5   6
ENDBRANCH   1   5
BRANCH   3  20
ATOM     20  C   UNL A   1      46.227  20.412  24.860  1.00  0.00     0.117 C 
BRANCH  20  21
ATOM     21  C   UNL A   1      44.755  20.099  24.599  1.00  0.00     0.042 C 
BRANCH  21  22
ATOM     22  C   UNL A   1      44.133  19.143  25.616  1.00  0.00     0.118 C 
BRANCH  22  23
ATOM     23  N   UNL A   1      42.715  18.938  25.379  1.00  0.00    -0.352 N 
ATOM     24  C   UNL A   1      41.620  19.620  25.851  1.00  0.00     0.251 C 
ATOM     25  H   UNL A   1      42.503  18.186  24.780  1.00  0.00     0.163 HD
ATOM     26  O   UNL A   1      40.506  19.127  25.672  1.00  0.00    -0.269 OA
BRANCH  24  27
ATOM     27  C   UNL A   1      41.725  20.931  26.547  1.00  0.00     0.039 A 
ATOM     28  C   UNL A   1      41.987  22.069  25.770  1.00  0.00     0.014 A 
ATOM     29  C   UNL A   1      41.683  21.056  27.937  1.00  0.00     0.014 A 
ATOM     30  C   UNL A   1      42.185  23.314  26.376  1.00  0.00     0.010 A 
ATOM     31  C   UNL A   1      41.813  22.312  28.540  1.00  0.00     0.010 A 
ATOM     32  C   UNL A   1      42.093  23.451  27.768  1.00  0.00    -0.014 A 
BRANCH  32  33
ATOM     33  C   UNL A   1      42.347  24.763  28.425  1.00  0.00     0.031 A 
ATOM     34  C   UNL A   1      43.706  25.078  28.994  1.00  0.00     0.074 A 
ATOM     35  C   UNL A   1      41.360  25.675  28.526  1.00  0.00     0.049 A 
ATOM     36  N   UNL A   1      44.117  26.161  29.609  1.00  0.00    -0.248 NA
ATOM     37  C   UNL A   1      44.734  24.033  28.876  1.00  0.00     0.031 C 
ATOM     38  C   UNL A   1      39.992  25.502  28.038  1.00  0.00     0.029 A 
ATOM     39  N   UNL A   1      41.366  26.938  29.067  1.00  0.00    -0.354 N 
ATOM     40  C   UNL A   1      45.438  25.918  29.965  1.00  0.00     0.074 A 
ATOM     41  C   UNL A   1      45.748  24.572  29.536  1.00  0.00     0.031 C 
ATOM     42  C   UNL A   1      39.299  26.631  28.271  1.00  0.00     0.029 A 
ATOM     43  C   UNL A   1      40.165  27.593  28.948  1.00  0.00     0.049 A 
ATOM     44  H   UNL A   1      42.155  27.335  29.500  1.00  0.00     0.167 HD
ATOM     45  C   UNL A   1      46.323  26.742  30.576  1.00  0.00     0.031 A 
ATOM     46  C   UNL A   1      39.800  28.831  29.334  1.00  0.00     0.031 A 
ATOM     47  C   UNL A   1      46.037  28.091  30.983  1.00  0.00     0.049 A 
ATOM     48  C   UNL A   1      40.800  29.729  30.006  1.00  0.00     0.074 A 
ATOM     49  C   UNL A   1      46.887  29.014  31.568  1.00  0.00     0.029 A 
ATOM     50  N   UNL A   1      44.807  28.711  30.844  1.00  0.00    -0.354 N 
ATOM     51  N   UNL A   1      42.056  29.497  30.296  1.00  0.00    -0.248 NA
ATOM     52  C   UNL A   1      40.330  31.068  30.394  1.00  0.00     0.031 C 
ATOM     53  C   UNL A   1      46.161  30.186  31.812  1.00  0.00     0.029 A 
ATOM     54  C   UNL A   1      44.872  30.002  31.342  1.00  0.00     0.049 A 
ATOM     55  H   UNL A   1      44.006  28.298  30.449  1.00  0.00     0.167 HD
ATOM     56  C   UNL A   1      42.534  30.666  30.874  1.00  0.00     0.074 A 
ATOM     57  C   UNL A   1      41.436  31.609  30.886  1.00  0.00     0.031 C 
ATOM     58  C   UNL A   1      43.774  30.934  31.348  1.00  0.00     0.031 A 
BRANCH  45  59
ATOM     59  C   UNL A   1      47.697  26.195  30.843  1.00  0.00    -0.014 A 
ATOM     60  C   UNL A   1      48.024  25.628  32.084  1.00  0.00     0.009 A 
ATOM     61  C   UNL A   1      48.670  26.229  29.832  1.00  0.00     0.009 A 
ATOM     62  C   UNL A   1      49.310  25.140  32.321  1.00  0.00     0.001 A 
ATOM     63  C   UNL A   1      49.947  25.715  30.063  1.00  0.00     0.001 A 
ATOM     64  C   UNL A   1      50.269  25.181  31.310  1.00  0.00     0.000 A 
ENDBRANCH  45  59
BRANCH  46  65
ATOM     65  C   UNL A   1      38.423  29.315  29.059  1.00  0.00    -0.014 A 
ATOM     66  C   UNL A   1      37.438  29.246  30.056  1.00  0.00     0.009 A 
ATOM     67  C   UNL A   1      38.086  29.841  27.803  1.00  0.00     0.009 A 
ATOM     68  C   UNL A   1      36.137  29.678  29.795  1.00  0.00     0.001 A 
ATOM     69  C   UNL A   1      36.789  30.293  27.552  1.00  0.00     0.001 A 
ATOM     70  C   UNL A   1      35.814  30.205  28.544  1.00  0.00     0.000 A 
ENDBRANCH  46  65
BRANCH  58  71
ATOM     71  C   UNL A   1      44.022  32.312  31.887  1.00  0.00    -0.014 A 
ATOM     72  C   UNL A   1      43.830  32.606  33.245  1.00  0.00     0.009 A 
ATOM     73  C   UNL A   1      44.491  33.320  31.029  1.00  0.00     0.009 A 
ATOM     74  C   UNL A   1      44.077  33.893  33.729  1.00  0.00     0.001 A 
ATOM     75  C   UNL A   1      44.757  34.599  31.520  1.00  0.00     0.001 A 
ATOM     76  C   UNL A   1      44.542  34.886  32.868  1.00  0.00     0.000 A 
ENDBRANCH  58  71
ENDBRANCH  32  33
ENDBRANCH  24  27
ENDBRANCH  22  23
ENDBRANCH  21  22
ENDBRANCH  20  21
ENDBRANCH   3  20
TORSDOF 15
ENDMDL
MODEL 2
REMARK VINA RESULT:      -8.4      4.170      6.932
REMARK SMILES N#C[C@@H]1CN(C(=O)NCCCC(=O)NCCCNC(=O)c2ccc(-c3c4nc(c(-c5ccccc5)c5ccc([nH]5)c(-c5ccccc5)c5nc(c(-c6ccccc6)c6ccc3[nH]6)C=C5)C=C4)cc2)CCO1
REMARK SMILES IDX 12 1 13 2 14 3 11 5 10 6 9 7 8 8 6 9 7 10 5 12 3 13 4 14
REMARK SMILES IDX 71 15 70 16 69 17 2 18 1 19 15 20 16 21 17 22 18 23 19 24
REMARK SMILES IDX 20 26 21 27 22 28 68 29 23 30 67 31 24 32 25 33 26 34 61 35
REMARK SMILES IDX 27 36 66 37 60 38 62 39 28 40 65 41 59 42 58 43 29 45 51 46
REMARK SMILES IDX 36 47 50 48 37 49 40 50 49 51 63 52 38 53 39 54 48 56 64 57
REMARK SMILES IDX 41 58 30 59 31 60 35 61 32 62 34 63 33 64 52 65 53 66 57 67
REMARK SMILES IDX 54 68 56 69 55 70 42 71 43 72 47 73 44 74 46 75 45 76
REMARK H PARENT 14 4 8 11 18 25 62 44 40 55
REMARK Flexibility Score: inf
ROOT
ATOM      1  C   UNL A   1      35.978  22.682  25.534  1.00  0.00     0.220 C 
ATOM      2  O   UNL A   1      36.371  23.622  26.228  1.00  0.00    -0.275 OA
ATOM      3  N   UNL A   1      36.630  21.493  25.634  1.00  0.00    -0.356 N 
ATOM      4  H   UNL A   1      37.306  21.455  26.348  1.00  0.00     0.163 HD
ENDROOT
BRANCH   1   5
ATOM      5  C   UNL A   1      34.806  22.853  24.591  1.00  0.00     0.102 C 
BRANCH   5   6
ATOM      6  C   UNL A   1      33.799  23.891  25.090  1.00  0.00     0.031 C 
BRANCH   6   7
ATOM      7  C   UNL A   1      34.079  25.316  24.618  1.00  0.00     0.118 C 
BRANCH   7   8
ATOM      8  N   UNL A   1      34.010  25.447  23.173  1.00  0.00    -0.338 N 
ATOM      9  C   UNL A   1      33.314  26.230  22.328  1.00  0.00     0.317 C 
ATOM     10  O   UNL A   1      33.361  25.896  21.142  1.00  0.00    -0.249 OA
ATOM     11  H   UNL A   1      34.608  24.820  22.706  1.00  0.00     0.165 HD
BRANCH   9  12
ATOM     12  N   UNL A   1      32.585  27.302  22.748  1.00  0.00    -0.319 N 
ATOM     13  C   UNL A   1      30.719  28.086  24.213  1.00  0.00     0.240 C 
ATOM     14  C   UNL A   1      31.132  27.419  22.890  1.00  0.00     0.169 C 
ATOM     15  O   UNL A   1      31.411  29.339  24.400  1.00  0.00    -0.360 OA
ATOM     16  C   UNL A   1      32.839  29.168  24.383  1.00  0.00     0.183 C 
ATOM     17  C   UNL A   1      33.312  28.541  23.070  1.00  0.00     0.150 C 
BRANCH  13  18
ATOM     18  C   UNL A   1      30.941  27.145  25.385  1.00  0.00     0.096 C 
ATOM     19  N   UNL A   1      31.125  26.364  26.358  1.00  0.00    -0.195 NA
ENDBRANCH  13  18
ENDBRANCH   9  12
ENDBRANCH   7   8
ENDBRANCH   6   7
ENDBRANCH   5   6
ENDBRANCH   1   5
BRANCH   3  20
ATOM     20  C   UNL A   1      36.497  20.266  24.861  1.00  0.00     0.117 C 
BRANCH  20  21
ATOM     21  C   UNL A   1      37.779  19.437  24.913  1.00  0.00     0.042 C 
BRANCH  21  22
ATOM     22  C   UNL A   1      38.916  20.101  25.688  1.00  0.00     0.118 C 
BRANCH  22  23
ATOM     23  N   UNL A   1      40.102  19.264  25.746  1.00  0.00    -0.352 N 
ATOM     24  C   UNL A   1      41.416  19.586  25.987  1.00  0.00     0.251 C 
ATOM     25  H   UNL A   1      39.937  18.306  25.586  1.00  0.00     0.163 HD
ATOM     26  O   UNL A   1      42.272  18.727  25.779  1.00  0.00    -0.269 OA
BRANCH  24  27
ATOM     27  C   UNL A   1      41.838  20.914  26.506  1.00  0.00     0.039 A 
ATOM     28  C   UNL A   1      41.732  21.146  27.885  1.00  0.00     0.014 A 
ATOM     29  C   UNL A   1      42.226  21.965  25.672  1.00  0.00     0.014 A 
ATOM     30  C   UNL A   1      42.028  22.404  28.421  1.00  0.00     0.010 A 
ATOM     31  C   UNL A   1      42.588  23.204  26.214  1.00  0.00     0.010 A 
ATOM     32  C   UNL A   1      42.467  23.445  27.592  1.00  0.00    -0.014 A 
BRANCH  32  33
ATOM     33  C   UNL A   1      42.742  24.799  28.146  1.00  0.00     0.031 A 
ATOM     34  C   UNL A   1      44.149  25.201  28.509  1.00  0.00     0.074 A 
ATOM     35  C   UNL A   1      41.735  25.673  28.337  1.00  0.00     0.049 A 
ATOM     36  N   UNL A   1      44.585  26.331  29.011  1.00  0.00    -0.248 NA
ATOM     37  C   UNL A   1      45.201  24.195  28.300  1.00  0.00     0.031 C 
ATOM     38  C   UNL A   1      40.323  25.418  28.049  1.00  0.00     0.029 A 
ATOM     39  N   UNL A   1      41.751  26.962  28.813  1.00  0.00    -0.354 N 
ATOM     40  C   UNL A   1      45.952  26.163  29.194  1.00  0.00     0.074 A 
ATOM     41  C   UNL A   1      46.268  24.810  28.791  1.00  0.00     0.031 C 
ATOM     42  C   UNL A   1      39.614  26.527  28.321  1.00  0.00     0.029 A 
ATOM     43  C   UNL A   1      40.515  27.559  28.829  1.00  0.00     0.049 A 
ATOM     44  H   UNL A   1      42.572  27.415  29.116  1.00  0.00     0.167 HD
ATOM     45  C   UNL A   1      46.869  27.055  29.639  1.00  0.00     0.031 A 
ATOM     46  C   UNL A   1      40.146  28.799  29.202  1.00  0.00     0.031 A 
ATOM     47  C   UNL A   1      46.576  28.410  30.019  1.00  0.00     0.049 A 
ATOM     48  C   UNL A   1      41.182  29.773  29.689  1.00  0.00     0.074 A 
ATOM     49  C   UNL A   1      47.450  29.398  30.438  1.00  0.00     0.029 A 
ATOM     50  N   UNL A   1      45.309  28.970  30.019  1.00  0.00    -0.354 N 
ATOM     51  N   UNL A   1      42.475  29.609  29.816  1.00  0.00    -0.248 NA
ATOM     52  C   UNL A   1      40.703  31.110  30.074  1.00  0.00     0.031 C 
ATOM     53  C   UNL A   1      46.708  30.549  30.723  1.00  0.00     0.029 A 
ATOM     54  C   UNL A   1      45.377  30.287  30.443  1.00  0.00     0.049 A 
ATOM     55  H   UNL A   1      44.484  28.503  29.757  1.00  0.00     0.167 HD
ATOM     56  C   UNL A   1      42.968  30.826  30.268  1.00  0.00     0.074 A 
ATOM     57  C   UNL A   1      41.837  31.722  30.385  1.00  0.00     0.031 C 
ATOM     58  C   UNL A   1      44.247  31.171  30.555  1.00  0.00     0.031 A 
BRANCH  45  59
ATOM     59  C   UNL A   1      48.293  26.581  29.742  1.00  0.00    -0.014 A 
ATOM     60  C   UNL A   1      48.760  25.930  30.894  1.00  0.00     0.009 A 
ATOM     61  C   UNL A   1      49.170  26.769  28.662  1.00  0.00     0.009 A 
ATOM     62  C   UNL A   1      50.088  25.511  30.979  1.00  0.00     0.001 A 
ATOM     63  C   UNL A   1      50.491  26.325  28.741  1.00  0.00     0.001 A 
ATOM     64  C   UNL A   1      50.952  25.706  29.902  1.00  0.00     0.000 A 
ENDBRANCH  45  59
BRANCH  46  65
ATOM     65  C   UNL A   1      38.722  29.210  29.095  1.00  0.00    -0.014 A 
ATOM     66  C   UNL A   1      37.871  29.104  30.206  1.00  0.00     0.009 A 
ATOM     67  C   UNL A   1      38.208  29.703  27.887  1.00  0.00     0.009 A 
ATOM     68  C   UNL A   1      36.527  29.467  30.104  1.00  0.00     0.001 A 
ATOM     69  C   UNL A   1      36.868  30.086  27.795  1.00  0.00     0.001 A 
ATOM     70  C   UNL A   1      36.028  29.961  28.899  1.00  0.00     0.000 A 
ENDBRANCH  46  65
BRANCH  58  71
ATOM     71  C   UNL A   1      44.497  32.585  30.990  1.00  0.00    -0.014 A 
ATOM     72  C   UNL A   1      44.710  33.606  30.052  1.00  0.00     0.009 A 
ATOM     73  C   UNL A   1      44.478  32.905  32.357  1.00  0.00     0.009 A 
ATOM     74  C   UNL A   1      44.930  34.918  30.478  1.00  0.00     0.001 A 
ATOM     75  C   UNL A   1      44.676  34.221  32.777  1.00  0.00     0.001 A 
ATOM     76  C   UNL A   1      44.910  35.225  31.838  1.00  0.00     0.000 A 
ENDBRANCH  58  71
ENDBRANCH  32  33
ENDBRANCH  24  27
ENDBRANCH  22  23
ENDBRANCH  21  22
ENDBRANCH  20  21
ENDBRANCH   3  20
TORSDOF 15
ENDMDL
MODEL 3
REMARK VINA RESULT:      -8.3      5.544     11.465
REMARK SMILES N#C[C@@H]1CN(C(=O)NCCCC(=O)NCCCNC(=O)c2ccc(-c3c4nc(c(-c5ccccc5)c5ccc([nH]5)c(-c5ccccc5)c5nc(c(-c6ccccc6)c6ccc3[nH]6)C=C5)C=C4)cc2)CCO1
REMARK SMILES IDX 12 1 13 2 14 3 11 5 10 6 9 7 8 8 6 9 7 10 5 12 3 13 4 14
REMARK SMILES IDX 71 15 70 16 69 17 2 18 1 19 15 20 16 21 17 22 18 23 19 24
REMARK SMILES IDX 20 26 21 27 22 28 68 29 23 30 67 31 24 32 25 33 26 34 61 35
REMARK SMILES IDX 27 36 66 37 60 38 62 39 28 40 65 41 59 42 58 43 29 45 51 46
REMARK SMILES IDX 36 47 50 48 37 49 40 50 49 51 63 52 38 53 39 54 48 56 64 57
REMARK SMILES IDX 41 58 30 59 31 60 35 61 32 62 34 63 33 64 52 65 53 66 57 67
REMARK SMILES IDX 54 68 56 69 55 70 42 71 43 72 47 73 44 74 46 75 45 76
REMARK H PARENT 14 4 8 11 18 25 62 44 40 55
REMARK Flexibility Score: inf
ROOT
ATOM      1  C   UNL A   1      30.368  28.727  23.260  1.00  0.00     0.220 C 
ATOM      2  O   UNL A   1      30.174  28.868  22.052  1.00  0.00    -0.275 OA
ATOM      3  N   UNL A   1      30.978  29.738  23.935  1.00  0.00    -0.356 N 
ATOM      4  H   UNL A   1      31.116  30.557  23.408  1.00  0.00     0.163 HD
ENDROOT
BRANCH   1   5
ATOM      5  C   UNL A   1      29.947  27.458  23.969  1.00  0.00     0.102 C 
BRANCH   5   6
ATOM      6  C   UNL A   1      31.050  26.397  23.976  1.00  0.00     0.031 C 
BRANCH   6   7
ATOM      7  C   UNL A   1      30.585  25.003  23.560  1.00  0.00     0.118 C 
BRANCH   7   8
ATOM      8  N   UNL A   1      30.297  24.149  24.698  1.00  0.00    -0.338 N 
ATOM      9  C   UNL A   1      31.018  23.283  25.435  1.00  0.00     0.317 C 
ATOM     10  O   UNL A   1      30.363  22.569  26.196  1.00  0.00    -0.249 OA
ATOM     11  H   UNL A   1      29.362  24.218  24.999  1.00  0.00     0.165 HD
BRANCH   9  12
ATOM     12  N   UNL A   1      32.373  23.179  25.334  1.00  0.00    -0.319 N 
ATOM     13  C   UNL A   1      34.304  22.752  23.807  1.00  0.00     0.240 C 
ATOM     14  C   UNL A   1      33.161  22.154  24.644  1.00  0.00     0.169 C 
ATOM     15  O   UNL A   1      35.109  23.653  24.596  1.00  0.00    -0.360 OA
ATOM     16  C   UNL A   1      34.324  24.721  25.154  1.00  0.00     0.183 C 
ATOM     17  C   UNL A   1      33.191  24.184  26.031  1.00  0.00     0.150 C 
BRANCH  13  18
ATOM     18  C   UNL A   1      33.763  23.433  22.561  1.00  0.00     0.096 C 
ATOM     19  N   UNL A   1      33.313  23.998  21.527  1.00  0.00    -0.195 NA
ENDBRANCH  13  18
ENDBRANCH   9  12
ENDBRANCH   7   8
ENDBRANCH   6   7
ENDBRANCH   5   6
ENDBRANCH   1   5
BRANCH   3  20
ATOM     20  C   UNL A   1      31.462  29.810  25.307  1.00  0.00     0.117 C 
BRANCH  20  21
ATOM     21  C   UNL A   1      31.258  31.207  25.892  1.00  0.00     0.042 C 
BRANCH  21  22
ATOM     22  C   UNL A   1      32.300  31.601  26.938  1.00  0.00     0.118 C 
BRANCH  22  23
ATOM     23  N   UNL A   1      32.203  33.002  27.307  1.00  0.00    -0.352 N 
ATOM     24  C   UNL A   1      32.982  33.765  28.143  1.00  0.00     0.251 C 
ATOM     25  H   UNL A   1      31.454  33.486  26.889  1.00  0.00     0.163 HD
ATOM     26  O   UNL A   1      32.575  34.883  28.458  1.00  0.00    -0.269 OA
BRANCH  24  27
ATOM     27  C   UNL A   1      34.298  33.304  28.661  1.00  0.00     0.039 A 
ATOM     28  C   UNL A   1      35.440  33.580  27.895  1.00  0.00     0.014 A 
ATOM     29  C   UNL A   1      34.428  32.523  29.812  1.00  0.00     0.014 A 
ATOM     30  C   UNL A   1      36.693  33.095  28.285  1.00  0.00     0.010 A 
ATOM     31  C   UNL A   1      35.690  32.094  30.239  1.00  0.00     0.010 A 
ATOM     32  C   UNL A   1      36.833  32.353  29.466  1.00  0.00    -0.014 A 
BRANCH  32  33
ATOM     33  C   UNL A   1      38.154  31.795  29.866  1.00  0.00     0.031 A 
ATOM     34  C   UNL A   1      39.028  32.536  30.844  1.00  0.00     0.074 A 
ATOM     35  C   UNL A   1      38.585  30.628  29.349  1.00  0.00     0.049 A 
ATOM     36  N   UNL A   1      40.212  32.216  31.308  1.00  0.00    -0.248 NA
ATOM     37  C   UNL A   1      38.514  33.817  31.355  1.00  0.00     0.031 C 
ATOM     38  C   UNL A   1      37.856  29.809  28.379  1.00  0.00     0.029 A 
ATOM     39  N   UNL A   1      39.742  29.924  29.578  1.00  0.00    -0.354 N 
ATOM     40  C   UNL A   1      40.588  33.259  32.144  1.00  0.00     0.074 A 
ATOM     41  C   UNL A   1      39.529  34.243  32.093  1.00  0.00     0.031 C 
ATOM     42  C   UNL A   1      38.567  28.697  28.123  1.00  0.00     0.029 A 
ATOM     43  C   UNL A   1      39.812  28.739  28.887  1.00  0.00     0.049 A 
ATOM     44  H   UNL A   1      40.454  30.239  30.180  1.00  0.00     0.167 HD
ATOM     45  C   UNL A   1      41.704  33.386  32.902  1.00  0.00     0.031 A 
ATOM     46  C   UNL A   1      40.766  27.788  28.873  1.00  0.00     0.031 A 
ATOM     47  C   UNL A   1      42.753  32.406  32.984  1.00  0.00     0.049 A 
ATOM     48  C   UNL A   1      41.993  27.947  29.727  1.00  0.00     0.074 A 
ATOM     49  C   UNL A   1      43.898  32.429  33.762  1.00  0.00     0.029 A 
ATOM     50  N   UNL A   1      42.781  31.222  32.265  1.00  0.00    -0.354 N 
ATOM     51  N   UNL A   1      42.312  28.922  30.542  1.00  0.00    -0.248 NA
ATOM     52  C   UNL A   1      42.987  26.866  29.662  1.00  0.00     0.031 C 
ATOM     53  C   UNL A   1      44.636  31.272  33.490  1.00  0.00     0.029 A 
ATOM     54  C   UNL A   1      43.930  30.512  32.573  1.00  0.00     0.049 A 
ATOM     55  H   UNL A   1      42.088  30.928  31.632  1.00  0.00     0.167 HD
ATOM     56  C   UNL A   1      43.527  28.559  31.108  1.00  0.00     0.074 A 
ATOM     57  C   UNL A   1      43.884  27.272  30.550  1.00  0.00     0.031 C 
ATOM     58  C   UNL A   1      44.276  29.232  32.014  1.00  0.00     0.031 A 
BRANCH  45  59
ATOM     59  C   UNL A   1      41.845  34.646  33.710  1.00  0.00    -0.014 A 
ATOM     60  C   UNL A   1      41.233  34.775  34.966  1.00  0.00     0.009 A 
ATOM     61  C   UNL A   1      42.617  35.709  33.216  1.00  0.00     0.009 A 
ATOM     62  C   UNL A   1      41.360  35.958  35.696  1.00  0.00     0.001 A 
ATOM     63  C   UNL A   1      42.764  36.881  33.960  1.00  0.00     0.001 A 
ATOM     64  C   UNL A   1      42.128  37.008  35.194  1.00  0.00     0.000 A 
ENDBRANCH  45  59
BRANCH  46  65
ATOM     65  C   UNL A   1      40.582  26.569  28.044  1.00  0.00    -0.014 A 
ATOM     66  C   UNL A   1      39.790  25.509  28.512  1.00  0.00     0.009 A 
ATOM     67  C   UNL A   1      41.199  26.457  26.790  1.00  0.00     0.009 A 
ATOM     68  C   UNL A   1      39.634  24.353  27.746  1.00  0.00     0.001 A 
ATOM     69  C   UNL A   1      41.024  25.308  26.017  1.00  0.00     0.001 A 
ATOM     70  C   UNL A   1      40.248  24.254  26.498  1.00  0.00     0.000 A 
ENDBRANCH  46  65
BRANCH  58  71
ATOM     71  C   UNL A   1      45.540  28.574  32.485  1.00  0.00    -0.014 A 
ATOM     72  C   UNL A   1      45.542  27.717  33.596  1.00  0.00     0.009 A 
ATOM     73  C   UNL A   1      46.737  28.785  31.783  1.00  0.00     0.009 A 
ATOM     74  C   UNL A   1      46.727  27.106  34.012  1.00  0.00     0.001 A 
ATOM     75  C   UNL A   1      47.915  28.156  32.187  1.00  0.00     0.001 A 
ATOM     76  C   UNL A   1      47.910  27.323  33.306  1.00  0.00     0.000 A 
ENDBRANCH  58  71
ENDBRANCH  32  33
ENDBRANCH  24  27
ENDBRANCH  22  23
ENDBRANCH  21  22
ENDBRANCH  20  21
ENDBRANCH   3  20
TORSDOF 15
ENDMDL
