MODEL 1
REMARK VINA RESULT:     -11.0      0.000      0.000
REMARK SMILES CC(C)CCOc1ccccc1-c1cc(C(=O)NCCCNC(=O)c2ccc(-c3c4nc(c(-c5ccccc5)c5ccc([nH]5)c(-c5ccccc5)c5nc(c(-c6ccccc6)c6ccc3[nH]6)C=C5)C=C4)cc2)no1
REMARK SMILES IDX 16 1 17 2 18 3 15 5 13 6 14 7 74 8 73 9 12 10 7 11 8 12 9 13
REMARK SMILES IDX 11 14 10 15 6 16 5 17 4 18 2 19 1 20 3 21 19 22 20 23 21 24
REMARK SMILES IDX 22 25 23 26 24 28 25 29 26 30 72 31 27 32 71 33 28 34 29 35
REMARK SMILES IDX 30 36 65 37 31 38 70 39 64 40 66 41 32 42 69 43 63 44 62 45
REMARK SMILES IDX 33 47 55 48 40 49 54 50 41 51 44 52 53 53 67 54 42 55 43 56
REMARK SMILES IDX 52 58 68 59 45 60 34 61 35 62 39 63 36 64 38 65 37 66 56 67
REMARK SMILES IDX 57 68 61 69 58 70 60 71 59 72 46 73 47 74 51 75 48 76 50 77
REMARK SMILES IDX 49 78
REMARK H PARENT 18 4 22 27 66 46 44 57
REMARK Flexibility Score: inf
ROOT
ATOM      1  C   UNL A   1      32.540  21.099  25.546  1.00  0.00     0.273 C 
ATOM      2  O   UNL A   1      31.866  20.208  25.027  1.00  0.00    -0.267 OA
ATOM      3  N   UNL A   1      33.802  20.740  25.979  1.00  0.00    -0.351 N 
ATOM      4  H   UNL A   1      33.954  19.768  25.989  1.00  0.00     0.163 HD
ENDROOT
BRANCH   1   5
ATOM      5  C   UNL A   1      32.017  22.461  25.743  1.00  0.00     0.171 A 
ATOM      6  C   UNL A   1      31.428  25.213  25.072  1.00  0.00     0.171 A 
ATOM      7  C   UNL A   1      31.938  23.796  24.466  1.00  0.00     0.088 A 
ATOM      8  O   UNL A   1      31.209  24.985  26.931  1.00  0.00    -0.355 OA
ATOM      9  N   UNL A   1      31.619  23.045  27.278  1.00  0.00    -0.074 NA
BRANCH   6  10
ATOM     10  C   UNL A   1      30.640  26.249  24.425  1.00  0.00     0.062 A 
ATOM     11  C   UNL A   1      31.342  27.258  23.718  1.00  0.00     0.130 A 
ATOM     12  C   UNL A   1      30.647  28.222  23.002  1.00  0.00     0.047 A 
ATOM     13  C   UNL A   1      29.253  28.189  22.992  1.00  0.00     0.004 A 
ATOM     14  C   UNL A   1      29.251  26.223  24.418  1.00  0.00     0.016 A 
ATOM     15  C   UNL A   1      28.558  27.206  23.710  1.00  0.00     0.001 A 
BRANCH  11  16
ATOM     16  O   UNL A   1      32.715  27.388  23.804  1.00  0.00    -0.493 OA
BRANCH  16  17
ATOM     17  C   UNL A   1      33.169  28.688  24.225  1.00  0.00     0.230 C 
BRANCH  17  18
ATOM     18  C   UNL A   1      34.161  28.611  25.413  1.00  0.00     0.044 C 
BRANCH  18  19
ATOM     19  C   UNL A   1      33.378  28.831  26.887  1.00  0.00    -0.014 C 
ATOM     20  C   UNL A   1      34.207  30.292  27.432  1.00  0.00     0.007 C 
ATOM     21  C   UNL A   1      31.322  28.290  27.679  1.00  0.00     0.007 C 
ENDBRANCH  18  19
ENDBRANCH  17  18
ENDBRANCH  16  17
ENDBRANCH  11  16
ENDBRANCH   6  10
ENDBRANCH   1   5
BRANCH   3  22
ATOM     22  C   UNL A   1      34.951  21.512  26.422  1.00  0.00     0.118 C 
BRANCH  22  23
ATOM     23  C   UNL A   1      35.476  22.484  25.370  1.00  0.00     0.042 C 
BRANCH  23  24
ATOM     24  C   UNL A   1      36.692  23.272  25.838  1.00  0.00     0.118 C 
BRANCH  24  25
ATOM     25  N   UNL A   1      37.867  22.422  25.992  1.00  0.00    -0.352 N 
ATOM     26  C   UNL A   1      39.159  22.736  26.319  1.00  0.00     0.251 C 
ATOM     27  H   UNL A   1      37.705  21.464  25.837  1.00  0.00     0.163 HD
ATOM     28  O   UNL A   1      40.044  21.902  26.157  1.00  0.00    -0.269 OA
BRANCH  26  29
ATOM     29  C   UNL A   1      39.491  24.069  26.859  1.00  0.00     0.039 A 
ATOM     30  C   UNL A   1      39.108  24.381  28.165  1.00  0.00     0.014 A 
ATOM     31  C   UNL A   1      40.142  25.020  26.071  1.00  0.00     0.014 A 
ATOM     32  C   UNL A   1      39.431  25.629  28.698  1.00  0.00     0.010 A 
ATOM     33  C   UNL A   1      40.546  26.225  26.632  1.00  0.00     0.010 A 
ATOM     34  C   UNL A   1      40.187  26.546  27.947  1.00  0.00    -0.014 A 
BRANCH  34  35
ATOM     35  C   UNL A   1      40.612  27.842  28.527  1.00  0.00     0.031 A 
ATOM     36  C   UNL A   1      42.035  28.048  28.967  1.00  0.00     0.074 A 
ATOM     37  C   UNL A   1      39.699  28.817  28.703  1.00  0.00     0.049 A 
ATOM     38  N   UNL A   1      42.579  29.096  29.530  1.00  0.00    -0.248 NA
ATOM     39  C   UNL A   1      42.966  26.924  28.767  1.00  0.00     0.031 C 
ATOM     40  C   UNL A   1      38.280  28.725  28.346  1.00  0.00     0.029 A 
ATOM     41  N   UNL A   1      39.827  30.079  29.226  1.00  0.00    -0.354 N 
ATOM     42  C   UNL A   1      43.906  28.755  29.759  1.00  0.00     0.074 A 
ATOM     43  C   UNL A   1      44.072  27.385  29.330  1.00  0.00     0.031 C 
ATOM     44  C   UNL A   1      37.681  29.893  28.623  1.00  0.00     0.029 A 
ATOM     45  C   UNL A   1      38.654  30.795  29.229  1.00  0.00     0.049 A 
ATOM     46  H   UNL A   1      40.678  30.437  29.566  1.00  0.00     0.167 HD
ATOM     47  C   UNL A   1      44.904  29.522  30.259  1.00  0.00     0.031 A 
ATOM     48  C   UNL A   1      38.389  32.034  29.683  1.00  0.00     0.031 A 
ATOM     49  C   UNL A   1      44.732  30.883  30.693  1.00  0.00     0.049 A 
ATOM     50  C   UNL A   1      39.505  32.842  30.288  1.00  0.00     0.074 A 
ATOM     51  C   UNL A   1      45.688  31.758  31.178  1.00  0.00     0.029 A 
ATOM     52  N   UNL A   1      43.524  31.564  30.701  1.00  0.00    -0.354 N 
ATOM     53  N   UNL A   1      40.770  32.530  30.430  1.00  0.00    -0.248 NA
ATOM     54  C   UNL A   1      39.154  34.179  30.784  1.00  0.00     0.031 C 
ATOM     55  C   UNL A   1      45.046  32.942  31.551  1.00  0.00     0.029 A 
ATOM     56  C   UNL A   1      43.705  32.836  31.219  1.00  0.00     0.049 A 
ATOM     57  H   UNL A   1      42.667  31.198  30.386  1.00  0.00     0.167 HD
ATOM     58  C   UNL A   1      41.372  33.644  31.001  1.00  0.00     0.074 A 
ATOM     59  C   UNL A   1      40.338  34.646  31.155  1.00  0.00     0.031 C 
ATOM     60  C   UNL A   1      42.665  33.823  31.365  1.00  0.00     0.031 A 
BRANCH  47  61
ATOM     61  C   UNL A   1      46.269  28.900  30.379  1.00  0.00    -0.014 A 
ATOM     62  C   UNL A   1      46.663  28.221  31.543  1.00  0.00     0.009 A 
ATOM     63  C   UNL A   1      47.157  28.952  29.292  1.00  0.00     0.009 A 
ATOM     64  C   UNL A   1      47.929  27.637  31.629  1.00  0.00     0.001 A 
ATOM     65  C   UNL A   1      48.407  28.337  29.368  1.00  0.00     0.001 A 
ATOM     66  C   UNL A   1      48.797  27.690  30.538  1.00  0.00     0.000 A 
ENDBRANCH  47  61
BRANCH  48  67
ATOM     67  C   UNL A   1      37.012  32.590  29.593  1.00  0.00    -0.014 A 
ATOM     68  C   UNL A   1      36.067  32.329  30.598  1.00  0.00     0.009 A 
ATOM     69  C   UNL A   1      36.623  33.359  28.484  1.00  0.00     0.009 A 
ATOM     70  C   UNL A   1      34.753  32.787  30.471  1.00  0.00     0.001 A 
ATOM     71  C   UNL A   1      35.320  33.850  28.380  1.00  0.00     0.001 A 
ATOM     72  C   UNL A   1      34.382  33.550  29.365  1.00  0.00     0.000 A 
ENDBRANCH  48  67
BRANCH  60  73
ATOM     73  C   UNL A   1      43.045  35.167  31.924  1.00  0.00    -0.014 A 
ATOM     74  C   UNL A   1      43.568  36.183  31.109  1.00  0.00     0.009 A 
ATOM     75  C   UNL A   1      42.839  35.431  33.288  1.00  0.00     0.009 A 
ATOM     76  C   UNL A   1      43.917  37.420  31.658  1.00  0.00     0.001 A 
ATOM     77  C   UNL A   1      43.149  36.681  33.825  1.00  0.00     0.001 A 
ATOM     78  C   UNL A   1      43.700  37.669  33.012  1.00  0.00     0.000 A 
ENDBRANCH  60  73
ENDBRANCH  34  35
ENDBRANCH  26  29
ENDBRANCH  24  25
ENDBRANCH  23  24
ENDBRANCH  22  23
ENDBRANCH   3  22
TORSDOF 15
ENDMDL
MODEL 2
REMARK VINA RESULT:     -11.0      2.730      7.720
REMARK SMILES CC(C)CCOc1ccccc1-c1cc(C(=O)NCCCNC(=O)c2ccc(-c3c4nc(c(-c5ccccc5)c5ccc([nH]5)c(-c5ccccc5)c5nc(c(-c6ccccc6)c6ccc3[nH]6)C=C5)C=C4)cc2)no1
REMARK SMILES IDX 16 1 17 2 18 3 15 5 13 6 14 7 74 8 73 9 12 10 7 11 8 12 9 13
REMARK SMILES IDX 11 14 10 15 6 16 5 17 4 18 2 19 1 20 3 21 19 22 20 23 21 24
REMARK SMILES IDX 22 25 23 26 24 28 25 29 26 30 72 31 27 32 71 33 28 34 29 35
REMARK SMILES IDX 30 36 65 37 31 38 70 39 64 40 66 41 32 42 69 43 63 44 62 45
REMARK SMILES IDX 33 47 55 48 40 49 54 50 41 51 44 52 53 53 67 54 42 55 43 56
REMARK SMILES IDX 52 58 68 59 45 60 34 61 35 62 39 63 36 64 38 65 37 66 56 67
REMARK SMILES IDX 57 68 61 69 58 70 60 71 59 72 46 73 47 74 51 75 48 76 50 77
REMARK SMILES IDX 49 78
REMARK H PARENT 18 4 22 27 66 46 44 57
REMARK Flexibility Score: inf
ROOT
ATOM      1  C   UNL A   1      33.675  28.781  27.015  1.00  0.00     0.273 C 
ATOM      2  O   UNL A   1      34.865  28.764  27.329  1.00  0.00    -0.267 OA
ATOM      3  N   UNL A   1      33.039  30.005  27.088  1.00  0.00    -0.351 N 
ATOM      4  H   UNL A   1      33.562  30.693  27.558  1.00  0.00     0.163 HD
ENDROOT
BRANCH   1   5
ATOM      5  C   UNL A   1      32.951  27.558  26.630  1.00  0.00     0.171 A 
ATOM      6  C   UNL A   1      32.257  25.275  24.992  1.00  0.00     0.171 A 
ATOM      7  C   UNL A   1      33.351  26.458  25.198  1.00  0.00     0.088 A 
ATOM      8  O   UNL A   1      30.889  25.546  26.262  1.00  0.00    -0.355 OA
ATOM      9  N   UNL A   1      31.484  27.131  27.351  1.00  0.00    -0.074 NA
BRANCH   6  10
ATOM     10  C   UNL A   1      32.461  23.922  24.503  1.00  0.00     0.062 A 
ATOM     11  C   UNL A   1      32.921  22.954  25.431  1.00  0.00     0.130 A 
ATOM     12  C   UNL A   1      33.049  21.625  25.051  1.00  0.00     0.047 A 
ATOM     13  C   UNL A   1      32.725  21.258  23.745  1.00  0.00     0.004 A 
ATOM     14  C   UNL A   1      32.147  23.553  23.200  1.00  0.00     0.016 A 
ATOM     15  C   UNL A   1      32.293  22.218  22.820  1.00  0.00     0.001 A 
BRANCH  11  16
ATOM     16  O   UNL A   1      33.360  23.304  26.693  1.00  0.00    -0.493 OA
BRANCH  16  17
ATOM     17  C   UNL A   1      34.740  22.986  26.959  1.00  0.00     0.230 C 
BRANCH  17  18
ATOM     18  C   UNL A   1      35.711  23.722  26.002  1.00  0.00     0.044 C 
BRANCH  18  19
ATOM     19  C   UNL A   1      36.768  22.651  25.249  1.00  0.00    -0.014 C 
ATOM     20  C   UNL A   1      36.360  22.988  23.564  1.00  0.00     0.007 C 
ATOM     21  C   UNL A   1      38.779  21.762  25.809  1.00  0.00     0.007 C 
ENDBRANCH  18  19
ENDBRANCH  17  18
ENDBRANCH  16  17
ENDBRANCH  11  16
ENDBRANCH   6  10
ENDBRANCH   1   5
BRANCH   3  22
ATOM     22  C   UNL A   1      31.750  30.479  26.609  1.00  0.00     0.118 C 
BRANCH  22  23
ATOM     23  C   UNL A   1      31.552  31.981  26.777  1.00  0.00     0.042 C 
BRANCH  23  24
ATOM     24  C   UNL A   1      32.844  32.723  27.092  1.00  0.00     0.118 C 
BRANCH  24  25
ATOM     25  N   UNL A   1      32.593  34.009  27.732  1.00  0.00    -0.352 N 
ATOM     26  C   UNL A   1      33.197  34.605  28.807  1.00  0.00     0.251 C 
ATOM     27  H   UNL A   1      31.869  34.538  27.324  1.00  0.00     0.163 HD
ATOM     28  O   UNL A   1      32.671  35.581  29.333  1.00  0.00    -0.269 OA
BRANCH  26  29
ATOM     29  C   UNL A   1      34.470  34.078  29.336  1.00  0.00     0.039 A 
ATOM     30  C   UNL A   1      34.442  33.252  30.461  1.00  0.00     0.014 A 
ATOM     31  C   UNL A   1      35.689  34.426  28.750  1.00  0.00     0.014 A 
ATOM     32  C   UNL A   1      35.634  32.729  30.963  1.00  0.00     0.010 A 
ATOM     33  C   UNL A   1      36.864  33.831  29.190  1.00  0.00     0.010 A 
ATOM     34  C   UNL A   1      36.850  32.984  30.306  1.00  0.00    -0.014 A 
BRANCH  34  35
ATOM     35  C   UNL A   1      38.115  32.368  30.774  1.00  0.00     0.031 A 
ATOM     36  C   UNL A   1      38.612  31.091  30.158  1.00  0.00     0.074 A 
ATOM     37  C   UNL A   1      38.788  32.939  31.793  1.00  0.00     0.049 A 
ATOM     38  N   UNL A   1      39.672  30.387  30.463  1.00  0.00    -0.248 NA
ATOM     39  C   UNL A   1      37.804  30.515  29.069  1.00  0.00     0.031 C 
ATOM     40  C   UNL A   1      38.389  34.162  32.495  1.00  0.00     0.029 A 
ATOM     41  N   UNL A   1      39.953  32.565  32.415  1.00  0.00    -0.354 N 
ATOM     42  C   UNL A   1      39.652  29.288  29.614  1.00  0.00     0.074 A 
ATOM     43  C   UNL A   1      38.446  29.383  28.824  1.00  0.00     0.031 C 
ATOM     44  C   UNL A   1      39.314  34.458  33.421  1.00  0.00     0.029 A 
ATOM     45  C   UNL A   1      40.337  33.419  33.421  1.00  0.00     0.049 A 
ATOM     46  H   UNL A   1      40.464  31.762  32.164  1.00  0.00     0.167 HD
ATOM     47  C   UNL A   1      40.568  28.298  29.488  1.00  0.00     0.031 A 
ATOM     48  C   UNL A   1      41.389  33.363  34.259  1.00  0.00     0.031 A 
ATOM     49  C   UNL A   1      41.764  28.202  30.283  1.00  0.00     0.049 A 
ATOM     50  C   UNL A   1      42.360  32.220  34.133  1.00  0.00     0.074 A 
ATOM     51  C   UNL A   1      42.775  27.261  30.205  1.00  0.00     0.029 A 
ATOM     52  N   UNL A   1      42.105  29.074  31.306  1.00  0.00    -0.354 N 
ATOM     53  N   UNL A   1      42.364  31.228  33.277  1.00  0.00    -0.248 NA
ATOM     54  C   UNL A   1      43.477  32.199  35.086  1.00  0.00     0.031 C 
ATOM     55  C   UNL A   1      43.689  27.518  31.230  1.00  0.00     0.029 A 
ATOM     56  C   UNL A   1      43.293  28.669  31.892  1.00  0.00     0.049 A 
ATOM     57  H   UNL A   1      41.582  29.862  31.575  1.00  0.00     0.167 HD
ATOM     58  C   UNL A   1      43.502  30.484  33.567  1.00  0.00     0.074 A 
ATOM     59  C   UNL A   1      44.173  31.155  34.660  1.00  0.00     0.031 C 
ATOM     60  C   UNL A   1      43.950  29.348  32.980  1.00  0.00     0.031 A 
BRANCH  47  61
ATOM     61  C   UNL A   1      40.305  27.231  28.461  1.00  0.00    -0.014 A 
ATOM     62  C   UNL A   1      40.845  27.312  27.167  1.00  0.00     0.009 A 
ATOM     63  C   UNL A   1      39.547  26.101  28.807  1.00  0.00     0.009 A 
ATOM     64  C   UNL A   1      40.602  26.304  26.232  1.00  0.00     0.001 A 
ATOM     65  C   UNL A   1      39.336  25.077  27.883  1.00  0.00     0.001 A 
ATOM     66  C   UNL A   1      39.853  25.183  26.593  1.00  0.00     0.000 A 
ENDBRANCH  47  61
BRANCH  48  67
ATOM     67  C   UNL A   1      41.582  34.412  35.296  1.00  0.00    -0.014 A 
ATOM     68  C   UNL A   1      40.985  34.288  36.560  1.00  0.00     0.009 A 
ATOM     69  C   UNL A   1      42.338  35.562  35.016  1.00  0.00     0.009 A 
ATOM     70  C   UNL A   1      41.103  35.312  37.504  1.00  0.00     0.001 A 
ATOM     71  C   UNL A   1      42.489  36.565  35.976  1.00  0.00     0.001 A 
ATOM     72  C   UNL A   1      41.858  36.447  37.212  1.00  0.00     0.000 A 
ENDBRANCH  48  67
BRANCH  60  73
ATOM     73  C   UNL A   1      45.252  28.781  33.478  1.00  0.00    -0.014 A 
ATOM     74  C   UNL A   1      45.294  27.820  34.501  1.00  0.00     0.009 A 
ATOM     75  C   UNL A   1      46.456  29.193  32.885  1.00  0.00     0.009 A 
ATOM     76  C   UNL A   1      46.519  27.316  34.946  1.00  0.00     0.001 A 
ATOM     77  C   UNL A   1      47.675  28.658  33.304  1.00  0.00     0.001 A 
ATOM     78  C   UNL A   1      47.705  27.730  34.344  1.00  0.00     0.000 A 
ENDBRANCH  60  73
ENDBRANCH  34  35
ENDBRANCH  26  29
ENDBRANCH  24  25
ENDBRANCH  23  24
ENDBRANCH  22  23
ENDBRANCH   3  22
TORSDOF 15
ENDMDL
MODEL 3
REMARK VINA RESULT:     -11.0      2.565      7.042
REMARK SMILES CC(C)CCOc1ccccc1-c1cc(C(=O)NCCCNC(=O)c2ccc(-c3c4nc(c(-c5ccccc5)c5ccc([nH]5)c(-c5ccccc5)c5nc(c(-c6ccccc6)c6ccc3[nH]6)C=C5)C=C4)cc2)no1
REMARK SMILES IDX 16 1 17 2 18 3 15 5 13 6 14 7 74 8 73 9 12 10 7 11 8 12 9 13
REMARK SMILES IDX 11 14 10 15 6 16 5 17 4 18 2 19 1 20 3 21 19 22 20 23 21 24
REMARK SMILES IDX 22 25 23 26 24 28 25 29 26 30 72 31 27 32 71 33 28 34 29 35
REMARK SMILES IDX 30 36 65 37 31 38 70 39 64 40 66 41 32 42 69 43 63 44 62 45
REMARK SMILES IDX 33 47 55 48 40 49 54 50 41 51 44 52 53 53 67 54 42 55 43 56
REMARK SMILES IDX 52 58 68 59 45 60 34 61 35 62 39 63 36 64 38 65 37 66 56 67
REMARK SMILES IDX 57 68 61 69 58 70 60 71 59 72 46 73 47 74 51 75 48 76 50 77
REMARK SMILES IDX 49 78
REMARK H PARENT 18 4 22 27 66 46 44 57
REMARK Flexibility Score: inf
ROOT
ATOM      1  C   UNL A   1      36.913  23.426  25.357  1.00  0.00     0.273 C 
ATOM      2  O   UNL A   1      37.401  24.238  26.144  1.00  0.00    -0.267 OA
ATOM      3  N   UNL A   1      37.546  22.201  25.268  1.00  0.00    -0.351 N 
ATOM      4  H   UNL A   1      38.424  22.178  25.711  1.00  0.00     0.163 HD
ENDROOT
BRANCH   1   5
ATOM      5  C   UNL A   1      35.750  23.755  24.517  1.00  0.00     0.171 A 
ATOM      6  C   UNL A   1      33.015  24.491  23.921  1.00  0.00     0.171 A 
ATOM      7  C   UNL A   1      34.108  24.362  25.115  1.00  0.00     0.088 A 
ATOM      8  O   UNL A   1      33.824  23.844  22.344  1.00  0.00    -0.355 OA
ATOM      9  N   UNL A   1      35.714  23.389  22.868  1.00  0.00    -0.074 NA
BRANCH   6  10
ATOM     10  C   UNL A   1      31.934  25.451  23.776  1.00  0.00     0.062 A 
ATOM     11  C   UNL A   1      32.271  26.749  23.313  1.00  0.00     0.130 A 
ATOM     12  C   UNL A   1      31.275  27.683  23.067  1.00  0.00     0.047 A 
ATOM     13  C   UNL A   1      29.944  27.331  23.286  1.00  0.00     0.004 A 
ATOM     14  C   UNL A   1      30.606  25.107  24.000  1.00  0.00     0.016 A 
ATOM     15  C   UNL A   1      29.611  26.058  23.765  1.00  0.00     0.001 A 
BRANCH  11  16
ATOM     16  O   UNL A   1      33.583  27.165  23.200  1.00  0.00    -0.493 OA
BRANCH  16  17
ATOM     17  C   UNL A   1      33.913  28.331  23.979  1.00  0.00     0.230 C 
BRANCH  17  18
ATOM     18  C   UNL A   1      33.825  28.068  25.503  1.00  0.00     0.044 C 
BRANCH  18  19
ATOM     19  C   UNL A   1      32.499  28.845  26.189  1.00  0.00    -0.014 C 
ATOM     20  C   UNL A   1      31.768  27.471  27.025  1.00  0.00     0.007 C 
ATOM     21  C   UNL A   1      32.088  30.973  26.859  1.00  0.00     0.007 C 
ENDBRANCH  18  19
ENDBRANCH  17  18
ENDBRANCH  16  17
ENDBRANCH  11  16
ENDBRANCH   6  10
ENDBRANCH   1   5
BRANCH   3  22
ATOM     22  C   UNL A   1      37.172  20.939  24.652  1.00  0.00     0.118 C 
BRANCH  22  23
ATOM     23  C   UNL A   1      38.121  19.793  24.984  1.00  0.00     0.042 C 
BRANCH  23  24
ATOM     24  C   UNL A   1      39.184  20.174  26.006  1.00  0.00     0.118 C 
BRANCH  24  25
ATOM     25  N   UNL A   1      40.338  19.283  25.950  1.00  0.00    -0.352 N 
ATOM     26  C   UNL A   1      41.678  19.551  26.045  1.00  0.00     0.251 C 
ATOM     27  H   UNL A   1      40.118  18.332  25.825  1.00  0.00     0.163 HD
ATOM     28  O   UNL A   1      42.491  18.688  25.730  1.00  0.00    -0.269 OA
BRANCH  26  29
ATOM     29  C   UNL A   1      42.146  20.868  26.519  1.00  0.00     0.039 A 
ATOM     30  C   UNL A   1      42.546  21.819  25.579  1.00  0.00     0.014 A 
ATOM     31  C   UNL A   1      42.226  21.152  27.884  1.00  0.00     0.014 A 
ATOM     32  C   UNL A   1      42.973  23.075  26.008  1.00  0.00     0.010 A 
ATOM     33  C   UNL A   1      42.559  22.433  28.307  1.00  0.00     0.010 A 
ATOM     34  C   UNL A   1      42.945  23.404  27.374  1.00  0.00    -0.014 A 
BRANCH  34  35
ATOM     35  C   UNL A   1      43.313  24.762  27.841  1.00  0.00     0.031 A 
ATOM     36  C   UNL A   1      42.247  25.785  28.119  1.00  0.00     0.074 A 
ATOM     37  C   UNL A   1      44.615  25.086  27.967  1.00  0.00     0.049 A 
ATOM     38  N   UNL A   1      42.381  27.032  28.495  1.00  0.00    -0.248 NA
ATOM     39  C   UNL A   1      40.849  25.362  27.931  1.00  0.00     0.031 C 
ATOM     40  C   UNL A   1      45.742  24.189  27.696  1.00  0.00     0.029 A 
ATOM     41  N   UNL A   1      45.212  26.259  28.356  1.00  0.00    -0.354 N 
ATOM     42  C   UNL A   1      41.091  27.540  28.579  1.00  0.00     0.074 A 
ATOM     43  C   UNL A   1      40.192  26.490  28.157  1.00  0.00     0.031 C 
ATOM     44  C   UNL A   1      46.889  24.831  27.966  1.00  0.00     0.029 A 
ATOM     45  C   UNL A   1      46.585  26.199  28.371  1.00  0.00     0.049 A 
ATOM     46  H   UNL A   1      44.704  27.065  28.601  1.00  0.00     0.167 HD
ATOM     47  C   UNL A   1      40.688  28.765  28.992  1.00  0.00     0.031 A 
ATOM     48  C   UNL A   1      47.497  27.145  28.664  1.00  0.00     0.031 A 
ATOM     49  C   UNL A   1      41.586  29.811  29.403  1.00  0.00     0.049 A 
ATOM     50  C   UNL A   1      47.021  28.515  29.064  1.00  0.00     0.074 A 
ATOM     51  C   UNL A   1      41.277  31.074  29.876  1.00  0.00     0.029 A 
ATOM     52  N   UNL A   1      42.970  29.719  29.382  1.00  0.00    -0.354 N 
ATOM     53  N   UNL A   1      45.795  28.957  29.207  1.00  0.00    -0.248 NA
ATOM     54  C   UNL A   1      48.059  29.513  29.353  1.00  0.00     0.031 C 
ATOM     55  C   UNL A   1      42.472  31.772  30.069  1.00  0.00     0.029 A 
ATOM     56  C   UNL A   1      43.528  30.916  29.797  1.00  0.00     0.049 A 
ATOM     57  H   UNL A   1      43.479  28.921  29.112  1.00  0.00     0.167 HD
ATOM     58  C   UNL A   1      45.916  30.273  29.636  1.00  0.00     0.074 A 
ATOM     59  C   UNL A   1      47.333  30.547  29.751  1.00  0.00     0.031 C 
ATOM     60  C   UNL A   1      44.941  31.174  29.909  1.00  0.00     0.031 A 
BRANCH  47  61
ATOM     61  C   UNL A   1      39.210  29.046  29.006  1.00  0.00    -0.014 A 
ATOM     62  C   UNL A   1      38.444  28.871  30.170  1.00  0.00     0.009 A 
ATOM     63  C   UNL A   1      38.583  29.542  27.852  1.00  0.00     0.009 A 
ATOM     64  C   UNL A   1      37.075  29.151  30.167  1.00  0.00     0.001 A 
ATOM     65  C   UNL A   1      37.223  29.856  27.862  1.00  0.00     0.001 A 
ATOM     66  C   UNL A   1      36.468  29.651  29.015  1.00  0.00     0.000 A 
ENDBRANCH  47  61
BRANCH  48  67
ATOM     67  C   UNL A   1      48.950  26.839  28.585  1.00  0.00    -0.014 A 
ATOM     68  C   UNL A   1      49.650  26.992  27.378  1.00  0.00     0.009 A 
ATOM     69  C   UNL A   1      49.641  26.360  29.710  1.00  0.00     0.009 A 
ATOM     70  C   UNL A   1      50.997  26.629  27.288  1.00  0.00     0.001 A 
ATOM     71  C   UNL A   1      50.997  26.036  29.628  1.00  0.00     0.001 A 
ATOM     72  C   UNL A   1      51.669  26.156  28.413  1.00  0.00     0.000 A 
ENDBRANCH  48  67
BRANCH  60  73
ATOM     73  C   UNL A   1      45.372  32.528  30.404  1.00  0.00    -0.014 A 
ATOM     74  C   UNL A   1      45.590  33.600  29.523  1.00  0.00     0.009 A 
ATOM     75  C   UNL A   1      45.526  32.742  31.783  1.00  0.00     0.009 A 
ATOM     76  C   UNL A   1      45.995  34.844  30.012  1.00  0.00     0.001 A 
ATOM     77  C   UNL A   1      45.891  33.997  32.272  1.00  0.00     0.001 A 
ATOM     78  C   UNL A   1      46.138  35.043  31.384  1.00  0.00     0.000 A 
ENDBRANCH  60  73
ENDBRANCH  34  35
ENDBRANCH  26  29
ENDBRANCH  24  25
ENDBRANCH  23  24
ENDBRANCH  22  23
ENDBRANCH   3  22
TORSDOF 15
ENDMDL
