MODEL 1
REMARK VINA RESULT:      -9.4      0.000      0.000
REMARK SMILES O=C(Cc1ccc(F)c(F)c1)NC1(C(=O)NCCCNC(=O)c2ccc(-c3c4nc(c(-c5ccccc5)c5ccc([nH]5)c(-c5ccccc5)c5nc(c(-c6ccccc6)c6ccc3[nH]6)C=C5)C=C4)cc2)CCCC1
REMARK SMILES IDX 17 1 16 2 14 3 15 4 13 6 71 7 74 8 72 9 73 10 12 11 1 12
REMARK SMILES IDX 2 13 3 15 4 16 5 17 11 18 6 19 9 20 7 21 10 22 8 23 18 24
REMARK SMILES IDX 19 25 20 26 21 27 22 29 23 30 24 31 70 32 25 33 69 34 26 35
REMARK SMILES IDX 27 36 28 37 63 38 29 39 68 40 62 41 64 42 30 43 67 44 61 45
REMARK SMILES IDX 60 46 31 48 53 49 38 50 52 51 39 52 42 53 51 54 65 55 40 56
REMARK SMILES IDX 41 57 50 59 66 60 43 61 32 62 33 63 37 64 34 65 36 66 35 67
REMARK SMILES IDX 54 68 55 69 59 70 56 71 58 72 57 73 44 74 45 75 49 76 46 77
REMARK SMILES IDX 48 78 47 79
REMARK H PARENT 16 5 12 14 20 28 64 47 42 58
REMARK Flexibility Score: inf
ROOT
ATOM      1  C   UNL A   1      34.633  32.813  30.566  1.00  0.00     0.117 C 
ENDROOT
BRANCH   1   2
ATOM      2  N   UNL A   1      34.976  33.677  31.670  1.00  0.00    -0.354 N 
ATOM      3  C   UNL A   1      36.170  34.212  32.046  1.00  0.00     0.245 C 
ATOM      4  O   UNL A   1      36.086  35.251  32.718  1.00  0.00    -0.272 OA
ATOM      5  H   UNL A   1      34.218  33.922  32.249  1.00  0.00     0.163 HD
BRANCH   3   6
ATOM      6  C   UNL A   1      37.563  33.645  31.591  1.00  0.00     0.119 C 
ATOM      7  C   UNL A   1      38.494  34.778  31.128  1.00  0.00     0.038 C 
ATOM      8  C   UNL A   1      37.539  32.623  30.443  1.00  0.00     0.038 C 
ATOM      9  C   UNL A   1      38.787  34.587  29.646  1.00  0.00     0.003 C 
ATOM     10  C   UNL A   1      38.227  33.239  29.231  1.00  0.00     0.003 C 
BRANCH   6  11
ATOM     11  N   UNL A   1      38.150  33.014  32.796  1.00  0.00    -0.341 N 
ATOM     12  O   UNL A   1      36.329  31.693  33.261  1.00  0.00    -0.275 OA
ATOM     13  C   UNL A   1      37.460  32.080  33.544  1.00  0.00     0.225 C 
ATOM     14  H   UNL A   1      39.061  33.268  33.071  1.00  0.00     0.164 HD
BRANCH  13  15
ATOM     15  C   UNL A   1      38.256  31.501  34.702  1.00  0.00     0.135 C 
BRANCH  15  16
ATOM     16  C   UNL A   1      39.280  30.517  34.187  1.00  0.00    -0.036 A 
ATOM     17  C   UNL A   1      40.625  30.618  34.578  1.00  0.00     0.007 A 
ATOM     18  C   UNL A   1      38.872  29.431  33.397  1.00  0.00     0.046 A 
ATOM     19  C   UNL A   1      41.543  29.636  34.199  1.00  0.00     0.043 A 
ATOM     20  C   UNL A   1      39.793  28.455  33.033  1.00  0.00     0.159 A 
ATOM     21  C   UNL A   1      41.118  28.554  33.435  1.00  0.00     0.158 A 
ATOM     22  F   UNL A   1      39.381  27.405  32.309  1.00  0.00    -0.204 F 
ATOM     23  F   UNL A   1      41.997  27.600  33.101  1.00  0.00    -0.204 F 
ENDBRANCH  15  16
ENDBRANCH  13  15
ENDBRANCH   6  11
ENDBRANCH   3   6
ENDBRANCH   1   2
BRANCH   1  24
ATOM     24  C   UNL A   1      34.381  33.551  29.261  1.00  0.00     0.042 C 
BRANCH  24  25
ATOM     25  C   UNL A   1      34.913  32.819  28.036  1.00  0.00     0.118 C 
BRANCH  25  26
ATOM     26  N   UNL A   1      34.191  31.577  27.768  1.00  0.00    -0.352 N 
ATOM     27  C   UNL A   1      34.644  30.283  27.700  1.00  0.00     0.251 C 
ATOM     28  H   UNL A   1      33.226  31.686  27.612  1.00  0.00     0.163 HD
ATOM     29  O   UNL A   1      33.922  29.399  27.248  1.00  0.00    -0.269 OA
BRANCH  27  30
ATOM     30  C   UNL A   1      36.009  29.956  28.157  1.00  0.00     0.039 A 
ATOM     31  C   UNL A   1      36.203  29.444  29.443  1.00  0.00     0.014 A 
ATOM     32  C   UNL A   1      37.098  30.154  27.307  1.00  0.00     0.014 A 
ATOM     33  C   UNL A   1      37.481  29.047  29.844  1.00  0.00     0.010 A 
ATOM     34  C   UNL A   1      38.348  29.673  27.671  1.00  0.00     0.010 A 
ATOM     35  C   UNL A   1      38.553  29.114  28.943  1.00  0.00    -0.014 A 
BRANCH  35  36
ATOM     36  C   UNL A   1      39.913  28.626  29.280  1.00  0.00     0.031 A 
ATOM     37  C   UNL A   1      40.885  29.557  29.951  1.00  0.00     0.074 A 
ATOM     38  C   UNL A   1      40.313  27.406  28.870  1.00  0.00     0.049 A 
ATOM     39  N   UNL A   1      42.171  29.418  30.136  1.00  0.00    -0.248 NA
ATOM     40  C   UNL A   1      40.340  30.837  30.438  1.00  0.00     0.031 C 
ATOM     41  C   UNL A   1      39.476  26.421  28.184  1.00  0.00     0.029 A 
ATOM     42  N   UNL A   1      41.542  26.800  28.950  1.00  0.00    -0.354 N 
ATOM     43  C   UNL A   1      42.596  30.606  30.717  1.00  0.00     0.074 A 
ATOM     44  C   UNL A   1      41.440  31.468  30.819  1.00  0.00     0.031 C 
ATOM     45  C   UNL A   1      40.211  25.329  27.917  1.00  0.00     0.029 A 
ATOM     46  C   UNL A   1      41.581  25.558  28.364  1.00  0.00     0.049 A 
ATOM     47  H   UNL A   1      42.320  27.216  29.386  1.00  0.00     0.167 HD
ATOM     48  C   UNL A   1      43.837  30.944  31.140  1.00  0.00     0.031 A 
ATOM     49  C   UNL A   1      42.611  24.709  28.186  1.00  0.00     0.031 A 
ATOM     50  C   UNL A   1      44.976  30.071  31.069  1.00  0.00     0.049 A 
ATOM     51  C   UNL A   1      43.978  25.103  28.670  1.00  0.00     0.074 A 
ATOM     52  C   UNL A   1      46.262  30.291  31.528  1.00  0.00     0.029 A 
ATOM     53  N   UNL A   1      44.960  28.803  30.508  1.00  0.00    -0.354 N 
ATOM     54  N   UNL A   1      44.357  26.213  29.258  1.00  0.00    -0.248 NA
ATOM     55  C   UNL A   1      45.059  24.127  28.472  1.00  0.00     0.031 C 
ATOM     56  C   UNL A   1      47.035  29.170  31.213  1.00  0.00     0.029 A 
ATOM     57  C   UNL A   1      46.217  28.233  30.600  1.00  0.00     0.049 A 
ATOM     58  H   UNL A   1      44.171  28.372  30.105  1.00  0.00     0.167 HD
ATOM     59  C   UNL A   1      45.710  26.053  29.531  1.00  0.00     0.074 A 
ATOM     60  C   UNL A   1      46.084  24.741  29.047  1.00  0.00     0.031 C 
ATOM     61  C   UNL A   1      46.563  26.917  30.132  1.00  0.00     0.031 A 
BRANCH  48  62
ATOM     62  C   UNL A   1      44.022  32.321  31.713  1.00  0.00    -0.014 A 
ATOM     63  C   UNL A   1      44.414  33.400  30.905  1.00  0.00     0.009 A 
ATOM     64  C   UNL A   1      43.778  32.547  33.077  1.00  0.00     0.009 A 
ATOM     65  C   UNL A   1      44.597  34.668  31.460  1.00  0.00     0.001 A 
ATOM     66  C   UNL A   1      43.932  33.822  33.623  1.00  0.00     0.001 A 
ATOM     67  C   UNL A   1      44.352  34.879  32.817  1.00  0.00     0.000 A 
ENDBRANCH  48  62
BRANCH  49  68
ATOM     68  C   UNL A   1      42.388  23.396  27.528  1.00  0.00    -0.014 A 
ATOM     69  C   UNL A   1      41.991  22.284  28.287  1.00  0.00     0.009 A 
ATOM     70  C   UNL A   1      42.565  23.245  26.144  1.00  0.00     0.009 A 
ATOM     71  C   UNL A   1      41.800  21.041  27.677  1.00  0.00     0.001 A 
ATOM     72  C   UNL A   1      42.347  22.008  25.533  1.00  0.00     0.001 A 
ATOM     73  C   UNL A   1      41.974  20.906  26.301  1.00  0.00     0.000 A 
ENDBRANCH  49  68
BRANCH  61  74
ATOM     74  C   UNL A   1      47.972  26.454  30.357  1.00  0.00    -0.014 A 
ATOM     75  C   UNL A   1      48.978  26.688  29.408  1.00  0.00     0.009 A 
ATOM     76  C   UNL A   1      48.310  25.846  31.577  1.00  0.00     0.009 A 
ATOM     77  C   UNL A   1      50.295  26.305  29.671  1.00  0.00     0.001 A 
ATOM     78  C   UNL A   1      49.630  25.486  31.846  1.00  0.00     0.001 A 
ATOM     79  C   UNL A   1      50.620  25.712  30.891  1.00  0.00     0.000 A 
ENDBRANCH  61  74
ENDBRANCH  35  36
ENDBRANCH  27  30
ENDBRANCH  25  26
ENDBRANCH  24  25
ENDBRANCH   1  24
TORSDOF 13
ENDMDL
MODEL 2
REMARK VINA RESULT:      -9.3      4.856     10.148
REMARK SMILES O=C(Cc1ccc(F)c(F)c1)NC1(C(=O)NCCCNC(=O)c2ccc(-c3c4nc(c(-c5ccccc5)c5ccc([nH]5)c(-c5ccccc5)c5nc(c(-c6ccccc6)c6ccc3[nH]6)C=C5)C=C4)cc2)CCCC1
REMARK SMILES IDX 17 1 16 2 14 3 15 4 13 6 71 7 74 8 72 9 73 10 12 11 1 12
REMARK SMILES IDX 2 13 3 15 4 16 5 17 11 18 6 19 9 20 7 21 10 22 8 23 18 24
REMARK SMILES IDX 19 25 20 26 21 27 22 29 23 30 24 31 70 32 25 33 69 34 26 35
REMARK SMILES IDX 27 36 28 37 63 38 29 39 68 40 62 41 64 42 30 43 67 44 61 45
REMARK SMILES IDX 60 46 31 48 53 49 38 50 52 51 39 52 42 53 51 54 65 55 40 56
REMARK SMILES IDX 41 57 50 59 66 60 43 61 32 62 33 63 37 64 34 65 36 66 35 67
REMARK SMILES IDX 54 68 55 69 59 70 56 71 58 72 57 73 44 74 45 75 49 76 46 77
REMARK SMILES IDX 48 78 47 79
REMARK H PARENT 16 5 12 14 20 28 64 47 42 58
REMARK Flexibility Score: inf
ROOT
ATOM      1  C   UNL A   1      31.953  30.046  26.226  1.00  0.00     0.117 C 
ENDROOT
BRANCH   1   2
ATOM      2  N   UNL A   1      33.054  29.805  25.324  1.00  0.00    -0.354 N 
ATOM      3  C   UNL A   1      33.286  28.785  24.453  1.00  0.00     0.245 C 
ATOM      4  O   UNL A   1      34.037  29.068  23.508  1.00  0.00    -0.272 OA
ATOM      5  H   UNL A   1      33.756  30.495  25.342  1.00  0.00     0.163 HD
BRANCH   3   6
ATOM      6  C   UNL A   1      32.588  27.380  24.548  1.00  0.00     0.119 C 
ATOM      7  C   UNL A   1      32.804  26.751  25.935  1.00  0.00     0.038 C 
ATOM      8  C   UNL A   1      33.046  26.324  23.530  1.00  0.00     0.038 C 
ATOM      9  C   UNL A   1      33.628  25.482  25.767  1.00  0.00     0.003 C 
ATOM     10  C   UNL A   1      33.749  25.199  24.281  1.00  0.00     0.003 C 
BRANCH   6  11
ATOM     11  N   UNL A   1      31.140  27.639  24.367  1.00  0.00    -0.341 N 
ATOM     12  O   UNL A   1      31.285  28.127  22.127  1.00  0.00    -0.275 OA
ATOM     13  C   UNL A   1      30.610  28.006  23.146  1.00  0.00     0.225 C 
ATOM     14  H   UNL A   1      30.539  27.546  25.141  1.00  0.00     0.164 HD
BRANCH  13  15
ATOM     15  C   UNL A   1      29.098  28.163  23.148  1.00  0.00     0.135 C 
BRANCH  15  16
ATOM     16  C   UNL A   1      28.723  29.586  22.807  1.00  0.00    -0.036 A 
ATOM     17  C   UNL A   1      29.008  30.631  23.699  1.00  0.00     0.007 A 
ATOM     18  C   UNL A   1      28.182  29.885  21.547  1.00  0.00     0.046 A 
ATOM     19  C   UNL A   1      28.773  31.958  23.329  1.00  0.00     0.043 A 
ATOM     20  C   UNL A   1      27.959  31.209  21.185  1.00  0.00     0.159 A 
ATOM     21  C   UNL A   1      28.257  32.238  22.067  1.00  0.00     0.158 A 
ATOM     22  F   UNL A   1      27.476  31.481  19.965  1.00  0.00    -0.204 F 
ATOM     23  F   UNL A   1      28.063  33.514  21.706  1.00  0.00    -0.204 F 
ENDBRANCH  15  16
ENDBRANCH  13  15
ENDBRANCH   6  11
ENDBRANCH   3   6
ENDBRANCH   1   2
BRANCH   1  24
ATOM     24  C   UNL A   1      31.704  31.518  26.513  1.00  0.00     0.042 C 
BRANCH  24  25
ATOM     25  C   UNL A   1      32.857  32.199  27.239  1.00  0.00     0.118 C 
BRANCH  25  26
ATOM     26  N   UNL A   1      32.565  33.590  27.574  1.00  0.00    -0.352 N 
ATOM     27  C   UNL A   1      33.158  34.427  28.487  1.00  0.00     0.251 C 
ATOM     28  H   UNL A   1      31.826  33.992  27.065  1.00  0.00     0.163 HD
ATOM     29  O   UNL A   1      32.630  35.496  28.778  1.00  0.00    -0.269 OA
BRANCH  27  30
ATOM     30  C   UNL A   1      34.426  34.034  29.131  1.00  0.00     0.039 A 
ATOM     31  C   UNL A   1      34.399  33.313  30.329  1.00  0.00     0.014 A 
ATOM     32  C   UNL A   1      35.645  34.379  28.546  1.00  0.00     0.014 A 
ATOM     33  C   UNL A   1      35.595  32.859  30.890  1.00  0.00     0.010 A 
ATOM     34  C   UNL A   1      36.824  33.849  29.053  1.00  0.00     0.010 A 
ATOM     35  C   UNL A   1      36.812  33.084  30.230  1.00  0.00    -0.014 A 
BRANCH  35  36
ATOM     36  C   UNL A   1      38.103  32.553  30.731  1.00  0.00     0.031 A 
ATOM     37  C   UNL A   1      38.676  31.306  30.117  1.00  0.00     0.074 A 
ATOM     38  C   UNL A   1      38.686  33.108  31.812  1.00  0.00     0.049 A 
ATOM     39  N   UNL A   1      39.661  30.555  30.535  1.00  0.00    -0.248 NA
ATOM     40  C   UNL A   1      38.022  30.817  28.890  1.00  0.00     0.031 C 
ATOM     41  C   UNL A   1      38.214  34.300  32.517  1.00  0.00     0.029 A 
ATOM     42  N   UNL A   1      39.794  32.719  32.523  1.00  0.00    -0.354 N 
ATOM     43  C   UNL A   1      39.714  29.483  29.652  1.00  0.00     0.074 A 
ATOM     44  C   UNL A   1      38.641  29.661  28.700  1.00  0.00     0.031 C 
ATOM     45  C   UNL A   1      39.033  34.553  33.551  1.00  0.00     0.029 A 
ATOM     46  C   UNL A   1      40.054  33.513  33.614  1.00  0.00     0.049 A 
ATOM     47  H   UNL A   1      40.349  31.945  32.274  1.00  0.00     0.167 HD
ATOM     48  C   UNL A   1      40.587  28.448  29.629  1.00  0.00     0.031 A 
ATOM     49  C   UNL A   1      40.995  33.401  34.570  1.00  0.00     0.031 A 
ATOM     50  C   UNL A   1      41.674  28.295  30.556  1.00  0.00     0.049 A 
ATOM     51  C   UNL A   1      41.958  32.248  34.520  1.00  0.00     0.074 A 
ATOM     52  C   UNL A   1      42.655  27.319  30.581  1.00  0.00     0.029 A 
ATOM     53  N   UNL A   1      41.927  29.148  31.619  1.00  0.00    -0.354 N 
ATOM     54  N   UNL A   1      42.024  31.266  33.653  1.00  0.00    -0.248 NA
ATOM     55  C   UNL A   1      42.980  32.191  35.575  1.00  0.00     0.031 C 
ATOM     56  C   UNL A   1      43.482  27.561  31.682  1.00  0.00     0.029 A 
ATOM     57  C   UNL A   1      43.043  28.715  32.313  1.00  0.00     0.049 A 
ATOM     58  H   UNL A   1      41.393  29.944  31.846  1.00  0.00     0.167 HD
ATOM     59  C   UNL A   1      43.114  30.495  34.039  1.00  0.00     0.074 A 
ATOM     60  C   UNL A   1      43.680  31.125  35.214  1.00  0.00     0.031 C 
ATOM     61  C   UNL A   1      43.603  29.368  33.467  1.00  0.00     0.031 A 
BRANCH  48  62
ATOM     62  C   UNL A   1      40.395  27.403  28.567  1.00  0.00    -0.014 A 
ATOM     63  C   UNL A   1      40.990  27.530  27.302  1.00  0.00     0.009 A 
ATOM     64  C   UNL A   1      39.625  26.262  28.844  1.00  0.00     0.009 A 
ATOM     65  C   UNL A   1      40.784  26.557  26.324  1.00  0.00     0.001 A 
ATOM     66  C   UNL A   1      39.447  25.275  27.874  1.00  0.00     0.001 A 
ATOM     67  C   UNL A   1      40.017  25.428  26.611  1.00  0.00     0.000 A 
ENDBRANCH  48  62
BRANCH  49  68
ATOM     68  C   UNL A   1      41.081  34.416  35.653  1.00  0.00    -0.014 A 
ATOM     69  C   UNL A   1      40.340  34.253  36.833  1.00  0.00     0.009 A 
ATOM     70  C   UNL A   1      41.903  35.546  35.517  1.00  0.00     0.009 A 
ATOM     71  C   UNL A   1      40.401  35.214  37.846  1.00  0.00     0.001 A 
ATOM     72  C   UNL A   1      41.982  36.491  36.542  1.00  0.00     0.001 A 
ATOM     73  C   UNL A   1      41.224  36.329  37.701  1.00  0.00     0.000 A 
ENDBRANCH  49  68
BRANCH  61  74
ATOM     74  C   UNL A   1      44.844  28.772  34.062  1.00  0.00    -0.014 A 
ATOM     75  C   UNL A   1      46.120  29.164  33.632  1.00  0.00     0.009 A 
ATOM     76  C   UNL A   1      44.729  27.864  35.126  1.00  0.00     0.009 A 
ATOM     77  C   UNL A   1      47.260  28.643  34.248  1.00  0.00     0.001 A 
ATOM     78  C   UNL A   1      45.869  27.362  35.755  1.00  0.00     0.001 A 
ATOM     79  C   UNL A   1      47.132  27.749  35.312  1.00  0.00     0.000 A 
ENDBRANCH  61  74
ENDBRANCH  35  36
ENDBRANCH  27  30
ENDBRANCH  25  26
ENDBRANCH  24  25
ENDBRANCH   1  24
TORSDOF 13
ENDMDL
MODEL 3
REMARK VINA RESULT:      -9.2      4.701      8.128
REMARK SMILES O=C(Cc1ccc(F)c(F)c1)NC1(C(=O)NCCCNC(=O)c2ccc(-c3c4nc(c(-c5ccccc5)c5ccc([nH]5)c(-c5ccccc5)c5nc(c(-c6ccccc6)c6ccc3[nH]6)C=C5)C=C4)cc2)CCCC1
REMARK SMILES IDX 17 1 16 2 14 3 15 4 13 6 71 7 74 8 72 9 73 10 12 11 1 12
REMARK SMILES IDX 2 13 3 15 4 16 5 17 11 18 6 19 9 20 7 21 10 22 8 23 18 24
REMARK SMILES IDX 19 25 20 26 21 27 22 29 23 30 24 31 70 32 25 33 69 34 26 35
REMARK SMILES IDX 27 36 28 37 63 38 29 39 68 40 62 41 64 42 30 43 67 44 61 45
REMARK SMILES IDX 60 46 31 48 53 49 38 50 52 51 39 52 42 53 51 54 65 55 40 56
REMARK SMILES IDX 41 57 50 59 66 60 43 61 32 62 33 63 37 64 34 65 36 66 35 67
REMARK SMILES IDX 54 68 55 69 59 70 56 71 58 72 57 73 44 74 45 75 49 76 46 77
REMARK SMILES IDX 48 78 47 79
REMARK H PARENT 16 5 12 14 20 28 64 47 42 58
REMARK Flexibility Score: inf
ROOT
ATOM      1  C   UNL A   1      31.596  30.340  26.156  1.00  0.00     0.117 C 
ENDROOT
BRANCH   1   2
ATOM      2  N   UNL A   1      32.687  30.021  25.265  1.00  0.00    -0.354 N 
ATOM      3  C   UNL A   1      32.880  28.957  24.438  1.00  0.00     0.245 C 
ATOM      4  O   UNL A   1      33.640  29.173  23.482  1.00  0.00    -0.272 OA
ATOM      5  H   UNL A   1      33.413  30.685  25.254  1.00  0.00     0.163 HD
BRANCH   3   6
ATOM      6  C   UNL A   1      32.131  27.584  24.592  1.00  0.00     0.119 C 
ATOM      7  C   UNL A   1      32.294  27.025  26.016  1.00  0.00     0.038 C 
ATOM      8  C   UNL A   1      32.575  26.459  23.644  1.00  0.00     0.038 C 
ATOM      9  C   UNL A   1      33.077  25.721  25.936  1.00  0.00     0.003 C 
ATOM     10  C   UNL A   1      33.220  25.354  24.471  1.00  0.00     0.003 C 
BRANCH   6  11
ATOM     11  N   UNL A   1      30.698  27.882  24.362  1.00  0.00    -0.341 N 
ATOM     12  O   UNL A   1      30.844  27.900  22.070  1.00  0.00    -0.275 OA
ATOM     13  C   UNL A   1      30.175  28.025  23.092  1.00  0.00     0.225 C 
ATOM     14  H   UNL A   1      30.101  27.980  25.139  1.00  0.00     0.164 HD
BRANCH  13  15
ATOM     15  C   UNL A   1      28.673  28.263  23.063  1.00  0.00     0.135 C 
BRANCH  15  16
ATOM     16  C   UNL A   1      28.383  29.697  22.690  1.00  0.00    -0.036 A 
ATOM     17  C   UNL A   1      28.560  30.728  23.626  1.00  0.00     0.007 A 
ATOM     18  C   UNL A   1      28.035  30.020  21.368  1.00  0.00     0.046 A 
ATOM     19  C   UNL A   1      28.410  32.062  23.242  1.00  0.00     0.043 A 
ATOM     20  C   UNL A   1      27.896  31.352  20.994  1.00  0.00     0.159 A 
ATOM     21  C   UNL A   1      28.087  32.366  21.923  1.00  0.00     0.158 A 
ATOM     22  F   UNL A   1      27.600  31.646  19.721  1.00  0.00    -0.204 F 
ATOM     23  F   UNL A   1      27.975  33.649  21.553  1.00  0.00    -0.204 F 
ENDBRANCH  15  16
ENDBRANCH  13  15
ENDBRANCH   6  11
ENDBRANCH   3   6
ENDBRANCH   1   2
BRANCH   1  24
ATOM     24  C   UNL A   1      31.489  31.819  26.491  1.00  0.00     0.042 C 
BRANCH  24  25
ATOM     25  C   UNL A   1      32.753  32.392  27.120  1.00  0.00     0.118 C 
BRANCH  25  26
ATOM     26  N   UNL A   1      32.562  33.750  27.624  1.00  0.00    -0.352 N 
ATOM     27  C   UNL A   1      33.234  34.435  28.606  1.00  0.00     0.251 C 
ATOM     28  H   UNL A   1      31.836  34.253  27.192  1.00  0.00     0.163 HD
ATOM     29  O   UNL A   1      32.785  35.493  29.037  1.00  0.00    -0.269 OA
BRANCH  27  30
ATOM     30  C   UNL A   1      34.492  33.892  29.154  1.00  0.00     0.039 A 
ATOM     31  C   UNL A   1      34.465  33.140  30.332  1.00  0.00     0.014 A 
ATOM     32  C   UNL A   1      35.701  34.127  28.497  1.00  0.00     0.014 A 
ATOM     33  C   UNL A   1      35.640  32.547  30.801  1.00  0.00     0.010 A 
ATOM     34  C   UNL A   1      36.847  33.462  28.911  1.00  0.00     0.010 A 
ATOM     35  C   UNL A   1      36.829  32.665  30.066  1.00  0.00    -0.014 A 
BRANCH  35  36
ATOM     36  C   UNL A   1      38.086  31.987  30.466  1.00  0.00     0.031 A 
ATOM     37  C   UNL A   1      39.056  32.702  31.366  1.00  0.00     0.074 A 
ATOM     38  C   UNL A   1      38.415  30.799  29.921  1.00  0.00     0.049 A 
ATOM     39  N   UNL A   1      40.292  32.396  31.662  1.00  0.00    -0.248 NA
ATOM     40  C   UNL A   1      38.581  33.954  31.982  1.00  0.00     0.031 C 
ATOM     41  C   UNL A   1      37.576  30.018  29.012  1.00  0.00     0.029 A 
ATOM     42  N   UNL A   1      39.562  30.055  30.037  1.00  0.00    -0.354 N 
ATOM     43  C   UNL A   1      40.756  33.437  32.456  1.00  0.00     0.074 A 
ATOM     44  C   UNL A   1      39.682  34.401  32.565  1.00  0.00     0.031 C 
ATOM     45  C   UNL A   1      38.231  28.899  28.662  1.00  0.00     0.029 A 
ATOM     46  C   UNL A   1      39.553  28.910  29.278  1.00  0.00     0.049 A 
ATOM     47  H   UNL A   1      40.320  30.317  30.609  1.00  0.00     0.167 HD
ATOM     48  C   UNL A   1      41.964  33.574  33.051  1.00  0.00     0.031 A 
ATOM     49  C   UNL A   1      40.512  27.984  29.082  1.00  0.00     0.031 A 
ATOM     50  C   UNL A   1      43.014  32.597  32.969  1.00  0.00     0.049 A 
ATOM     51  C   UNL A   1      41.843  28.153  29.760  1.00  0.00     0.074 A 
ATOM     52  C   UNL A   1      44.252  32.608  33.587  1.00  0.00     0.029 A 
ATOM     53  N   UNL A   1      42.945  31.430  32.225  1.00  0.00    -0.354 N 
ATOM     54  N   UNL A   1      42.252  29.121  30.544  1.00  0.00    -0.248 NA
ATOM     55  C   UNL A   1      42.842  27.099  29.531  1.00  0.00     0.031 C 
ATOM     56  C   UNL A   1      44.947  31.462  33.189  1.00  0.00     0.029 A 
ATOM     57  C   UNL A   1      44.122  30.716  32.361  1.00  0.00     0.049 A 
ATOM     58  H   UNL A   1      42.172  31.149  31.682  1.00  0.00     0.167 HD
ATOM     59  C   UNL A   1      43.542  28.776  30.929  1.00  0.00     0.074 A 
ATOM     60  C   UNL A   1      43.845  27.509  30.295  1.00  0.00     0.031 C 
ATOM     61  C   UNL A   1      44.396  29.448  31.739  1.00  0.00     0.031 A 
BRANCH  48  62
ATOM     62  C   UNL A   1      42.209  34.829  33.841  1.00  0.00    -0.014 A 
ATOM     63  C   UNL A   1      41.908  34.900  35.210  1.00  0.00     0.009 A 
ATOM     64  C   UNL A   1      42.771  35.950  33.210  1.00  0.00     0.009 A 
ATOM     65  C   UNL A   1      42.127  36.080  35.921  1.00  0.00     0.001 A 
ATOM     66  C   UNL A   1      43.018  37.119  33.930  1.00  0.00     0.001 A 
ATOM     67  C   UNL A   1      42.685  37.187  35.283  1.00  0.00     0.000 A 
ENDBRANCH  48  62
BRANCH  49  68
ATOM     68  C   UNL A   1      40.245  26.808  28.215  1.00  0.00    -0.014 A 
ATOM     69  C   UNL A   1      40.735  26.775  26.900  1.00  0.00     0.009 A 
ATOM     70  C   UNL A   1      39.507  25.713  28.692  1.00  0.00     0.009 A 
ATOM     71  C   UNL A   1      40.471  25.680  26.073  1.00  0.00     0.001 A 
ATOM     72  C   UNL A   1      39.266  24.609  27.871  1.00  0.00     0.001 A 
ATOM     73  C   UNL A   1      39.740  24.598  26.560  1.00  0.00     0.000 A 
ENDBRANCH  49  68
BRANCH  61  74
ATOM     74  C   UNL A   1      45.717  28.804  32.037  1.00  0.00    -0.014 A 
ATOM     75  C   UNL A   1      46.854  29.078  31.263  1.00  0.00     0.009 A 
ATOM     76  C   UNL A   1      45.839  27.973  33.162  1.00  0.00     0.009 A 
ATOM     77  C   UNL A   1      48.087  28.517  31.602  1.00  0.00     0.001 A 
ATOM     78  C   UNL A   1      47.077  27.433  33.512  1.00  0.00     0.001 A 
ATOM     79  C   UNL A   1      48.198  27.702  32.729  1.00  0.00     0.000 A 
ENDBRANCH  61  74
ENDBRANCH  35  36
ENDBRANCH  27  30
ENDBRANCH  25  26
ENDBRANCH  24  25
ENDBRANCH   1  24
TORSDOF 13
ENDMDL
