MODEL 1
REMARK VINA RESULT:     -10.2      0.000      0.000
REMARK SMILES [NH3+]CCOCC(=O)Nc1cc(C(=O)NCCCNC(=O)c2ccc(-c3c4nc(c(-c5ccccc5)c5ccc([nH]5)c(-c5ccccc5)c5nc(c(-c6ccccc6)c6ccc3[nH]6)C=C5)C=C4)cc2)ccc1Cl
REMARK SMILES IDX 12 1 13 2 14 3 11 5 9 6 10 7 71 8 70 9 72 10 69 11 8 12 6 13
REMARK SMILES IDX 7 14 5 16 4 17 3 18 2 19 1 20 15 24 16 25 17 26 18 27 19 28
REMARK SMILES IDX 20 30 21 31 22 32 68 33 23 34 67 35 24 36 25 37 26 38 61 39
REMARK SMILES IDX 27 40 66 41 60 42 62 43 28 44 65 45 59 46 58 47 29 49 51 50
REMARK SMILES IDX 36 51 50 52 37 53 40 54 49 55 63 56 38 57 39 58 48 60 64 61
REMARK SMILES IDX 41 62 30 63 31 64 35 65 32 66 34 67 33 68 52 69 53 70 57 71
REMARK SMILES IDX 54 72 56 73 55 74 42 75 43 76 47 77 44 78 46 79 45 80
REMARK H PARENT 14 4 8 15 1 21 1 22 1 23 18 29 62 48 40 59
REMARK Flexibility Score: inf
ROOT
ATOM      1  C   UNL A   1      37.041  23.197  25.436  1.00  0.00     0.251 C 
ATOM      2  O   UNL A   1      37.630  24.035  26.122  1.00  0.00    -0.269 OA
ATOM      3  N   UNL A   1      37.672  21.996  25.252  1.00  0.00    -0.352 N 
ATOM      4  H   UNL A   1      38.586  21.974  25.617  1.00  0.00     0.163 HD
ENDROOT
BRANCH   1   5
ATOM      5  C   UNL A   1      35.710  23.557  24.864  1.00  0.00     0.041 A 
ATOM      6  C   UNL A   1      33.411  24.207  25.359  1.00  0.00     0.060 A 
ATOM      7  C   UNL A   1      34.675  23.797  25.788  1.00  0.00     0.041 A 
ATOM      8  C   UNL A   1      33.212  24.512  24.008  1.00  0.00     0.064 A 
ATOM      9  C   UNL A   1      34.204  24.226  23.077  1.00  0.00     0.023 A 
ATOM     10  Cl  UNL A   1      31.892  25.488  23.470  1.00  0.00    -0.082 Cl
ATOM     11  C   UNL A   1      35.442  23.742  23.505  1.00  0.00     0.015 A 
BRANCH   6  12
ATOM     12  N   UNL A   1      32.397  24.319  26.323  1.00  0.00    -0.323 N 
ATOM     13  C   UNL A   1      31.335  23.459  26.480  1.00  0.00     0.250 C 
ATOM     14  O   UNL A   1      30.441  23.731  27.285  1.00  0.00    -0.272 OA
ATOM     15  H   UNL A   1      32.450  25.082  26.943  1.00  0.00     0.170 HD
BRANCH  13  16
ATOM     16  C   UNL A   1      31.353  22.098  25.745  1.00  0.00     0.260 C 
BRANCH  16  17
ATOM     17  O   UNL A   1      32.384  21.160  25.962  1.00  0.00    -0.366 OA
BRANCH  17  18
ATOM     18  C   UNL A   1      32.756  20.386  24.821  1.00  0.00     0.222 C 
BRANCH  18  19
ATOM     19  C   UNL A   1      32.696  18.871  25.038  1.00  0.00     0.287 C 
BRANCH  19  20
ATOM     20  N   UNL A   1      32.815  18.454  26.435  1.00  0.00    -0.356 N 
ATOM     21  H   UNL A   1      33.642  17.867  26.544  1.00  0.00     0.344 HD
ATOM     22  H   UNL A   1      31.985  17.926  26.704  1.00  0.00     0.344 HD
ATOM     23  H   UNL A   1      32.902  19.278  27.030  1.00  0.00     0.344 HD
ENDBRANCH  19  20
ENDBRANCH  18  19
ENDBRANCH  17  18
ENDBRANCH  16  17
ENDBRANCH  13  16
ENDBRANCH   6  12
ENDBRANCH   1   5
BRANCH   3  24
ATOM     24  C   UNL A   1      37.267  20.753  24.628  1.00  0.00     0.118 C 
BRANCH  24  25
ATOM     25  C   UNL A   1      38.255  19.622  24.918  1.00  0.00     0.042 C 
BRANCH  25  26
ATOM     26  C   UNL A   1      39.207  19.924  26.072  1.00  0.00     0.118 C 
BRANCH  26  27
ATOM     27  N   UNL A   1      40.447  19.167  25.963  1.00  0.00    -0.352 N 
ATOM     28  C   UNL A   1      41.750  19.590  26.005  1.00  0.00     0.251 C 
ATOM     29  H   UNL A   1      40.331  18.197  25.841  1.00  0.00     0.163 HD
ATOM     30  O   UNL A   1      42.644  18.836  25.620  1.00  0.00    -0.269 OA
BRANCH  28  31
ATOM     31  C   UNL A   1      42.094  20.936  26.505  1.00  0.00     0.039 A 
ATOM     32  C   UNL A   1      42.443  21.934  25.589  1.00  0.00     0.014 A 
ATOM     33  C   UNL A   1      42.128  21.204  27.876  1.00  0.00     0.014 A 
ATOM     34  C   UNL A   1      42.769  23.213  26.044  1.00  0.00     0.010 A 
ATOM     35  C   UNL A   1      42.382  22.496  28.325  1.00  0.00     0.010 A 
ATOM     36  C   UNL A   1      42.708  23.512  27.414  1.00  0.00    -0.014 A 
BRANCH  36  37
ATOM     37  C   UNL A   1      42.972  24.880  27.922  1.00  0.00     0.031 A 
ATOM     38  C   UNL A   1      44.364  25.284  28.323  1.00  0.00     0.074 A 
ATOM     39  C   UNL A   1      41.944  25.732  28.098  1.00  0.00     0.049 A 
ATOM     40  N   UNL A   1      44.775  26.395  28.878  1.00  0.00    -0.248 NA
ATOM     41  C   UNL A   1      45.431  24.295  28.095  1.00  0.00     0.031 C 
ATOM     42  C   UNL A   1      40.544  25.449  27.774  1.00  0.00     0.029 A 
ATOM     43  N   UNL A   1      41.916  27.006  28.604  1.00  0.00    -0.354 N 
ATOM     44  C   UNL A   1      46.138  26.233  29.084  1.00  0.00     0.074 A 
ATOM     45  C   UNL A   1      46.477  24.899  28.638  1.00  0.00     0.031 C 
ATOM     46  C   UNL A   1      39.799  26.528  28.065  1.00  0.00     0.029 A 
ATOM     47  C   UNL A   1      40.659  27.557  28.638  1.00  0.00     0.049 A 
ATOM     48  H   UNL A   1      42.721  27.480  28.914  1.00  0.00     0.167 HD
ATOM     49  C   UNL A   1      47.032  27.119  29.584  1.00  0.00     0.031 A 
ATOM     50  C   UNL A   1      40.243  28.754  29.091  1.00  0.00     0.031 A 
ATOM     51  C   UNL A   1      46.694  28.447  30.021  1.00  0.00     0.049 A 
ATOM     52  C   UNL A   1      41.248  29.709  29.670  1.00  0.00     0.074 A 
ATOM     53  C   UNL A   1      47.534  29.441  30.492  1.00  0.00     0.029 A 
ATOM     54  N   UNL A   1      45.408  28.966  30.041  1.00  0.00    -0.354 N 
ATOM     55  N   UNL A   1      42.544  29.563  29.804  1.00  0.00    -0.248 NA
ATOM     56  C   UNL A   1      40.733  30.996  30.156  1.00  0.00     0.031 C 
ATOM     57  C   UNL A   1      46.749  30.544  30.845  1.00  0.00     0.029 A 
ATOM     58  C   UNL A   1      45.427  30.257  30.541  1.00  0.00     0.049 A 
ATOM     59  H   UNL A   1      44.601  28.487  29.743  1.00  0.00     0.167 HD
ATOM     60  C   UNL A   1      43.004  30.748  30.361  1.00  0.00     0.074 A 
ATOM     61  C   UNL A   1      41.848  31.608  30.528  1.00  0.00     0.031 C 
ATOM     62  C   UNL A   1      44.268  31.096  30.701  1.00  0.00     0.031 A 
BRANCH  49  63
ATOM     63  C   UNL A   1      48.464  26.669  29.695  1.00  0.00    -0.014 A 
ATOM     64  C   UNL A   1      48.927  25.986  30.832  1.00  0.00     0.009 A 
ATOM     65  C   UNL A   1      49.357  26.913  28.640  1.00  0.00     0.009 A 
ATOM     66  C   UNL A   1      50.264  25.596  30.928  1.00  0.00     0.001 A 
ATOM     67  C   UNL A   1      50.686  26.494  28.726  1.00  0.00     0.001 A 
ATOM     68  C   UNL A   1      51.142  25.847  29.874  1.00  0.00     0.000 A 
ENDBRANCH  49  63
BRANCH  50  69
ATOM     69  C   UNL A   1      38.807  29.127  28.999  1.00  0.00    -0.014 A 
ATOM     70  C   UNL A   1      38.294  29.678  27.816  1.00  0.00     0.009 A 
ATOM     71  C   UNL A   1      37.943  28.934  30.089  1.00  0.00     0.009 A 
ATOM     72  C   UNL A   1      36.951  30.051  27.733  1.00  0.00     0.001 A 
ATOM     73  C   UNL A   1      36.594  29.283  29.993  1.00  0.00     0.001 A 
ATOM     74  C   UNL A   1      36.101  29.850  28.819  1.00  0.00     0.000 A 
ENDBRANCH  50  69
BRANCH  62  75
ATOM     75  C   UNL A   1      44.473  32.476  31.258  1.00  0.00    -0.014 A 
ATOM     76  C   UNL A   1      44.435  32.719  32.639  1.00  0.00     0.009 A 
ATOM     77  C   UNL A   1      44.748  33.541  30.385  1.00  0.00     0.009 A 
ATOM     78  C   UNL A   1      44.643  34.009  33.133  1.00  0.00     0.001 A 
ATOM     79  C   UNL A   1      44.982  34.823  30.884  1.00  0.00     0.001 A 
ATOM     80  C   UNL A   1      44.921  35.057  32.256  1.00  0.00     0.000 A 
ENDBRANCH  62  75
ENDBRANCH  36  37
ENDBRANCH  28  31
ENDBRANCH  26  27
ENDBRANCH  25  26
ENDBRANCH  24  25
ENDBRANCH   3  24
TORSDOF 16
ENDMDL
MODEL 2
REMARK VINA RESULT:     -10.1      1.588      6.397
REMARK SMILES [NH3+]CCOCC(=O)Nc1cc(C(=O)NCCCNC(=O)c2ccc(-c3c4nc(c(-c5ccccc5)c5ccc([nH]5)c(-c5ccccc5)c5nc(c(-c6ccccc6)c6ccc3[nH]6)C=C5)C=C4)cc2)ccc1Cl
REMARK SMILES IDX 12 1 13 2 14 3 11 5 9 6 10 7 71 8 70 9 72 10 69 11 8 12 6 13
REMARK SMILES IDX 7 14 5 16 4 17 3 18 2 19 1 20 15 24 16 25 17 26 18 27 19 28
REMARK SMILES IDX 20 30 21 31 22 32 68 33 23 34 67 35 24 36 25 37 26 38 61 39
REMARK SMILES IDX 27 40 66 41 60 42 62 43 28 44 65 45 59 46 58 47 29 49 51 50
REMARK SMILES IDX 36 51 50 52 37 53 40 54 49 55 63 56 38 57 39 58 48 60 64 61
REMARK SMILES IDX 41 62 30 63 31 64 35 65 32 66 34 67 33 68 52 69 53 70 57 71
REMARK SMILES IDX 54 72 56 73 55 74 42 75 43 76 47 77 44 78 46 79 45 80
REMARK H PARENT 14 4 8 15 1 21 1 22 1 23 18 29 62 48 40 59
REMARK Flexibility Score: inf
ROOT
ATOM      1  C   UNL A   1      35.919  22.734  25.293  1.00  0.00     0.251 C 
ATOM      2  O   UNL A   1      36.317  23.795  25.779  1.00  0.00    -0.269 OA
ATOM      3  N   UNL A   1      36.772  21.666  25.358  1.00  0.00    -0.352 N 
ATOM      4  H   UNL A   1      37.662  21.896  25.708  1.00  0.00     0.163 HD
ENDROOT
BRANCH   1   5
ATOM      5  C   UNL A   1      34.560  22.704  24.674  1.00  0.00     0.041 A 
ATOM      6  C   UNL A   1      32.157  22.619  25.087  1.00  0.00     0.060 A 
ATOM      7  C   UNL A   1      33.471  22.587  25.558  1.00  0.00     0.041 A 
ATOM      8  C   UNL A   1      31.921  22.906  23.738  1.00  0.00     0.064 A 
ATOM      9  C   UNL A   1      32.983  22.967  22.843  1.00  0.00     0.023 A 
ATOM     10  Cl  UNL A   1      30.388  23.465  23.172  1.00  0.00    -0.082 Cl
ATOM     11  C   UNL A   1      34.294  22.857  23.310  1.00  0.00     0.015 A 
BRANCH   6  12
ATOM     12  N   UNL A   1      31.125  22.384  26.009  1.00  0.00    -0.323 N 
ATOM     13  C   UNL A   1      30.440  23.346  26.714  1.00  0.00     0.250 C 
ATOM     14  O   UNL A   1      29.636  23.009  27.587  1.00  0.00    -0.272 OA
ATOM     15  H   UNL A   1      30.868  21.447  26.164  1.00  0.00     0.170 HD
BRANCH  13  16
ATOM     16  C   UNL A   1      30.586  24.830  26.303  1.00  0.00     0.260 C 
BRANCH  16  17
ATOM     17  O   UNL A   1      31.593  25.650  26.856  1.00  0.00    -0.366 OA
BRANCH  17  18
ATOM     18  C   UNL A   1      31.906  26.823  26.106  1.00  0.00     0.222 C 
BRANCH  18  19
ATOM     19  C   UNL A   1      31.751  28.132  26.887  1.00  0.00     0.287 C 
BRANCH  19  20
ATOM     20  N   UNL A   1      31.239  27.969  28.247  1.00  0.00    -0.356 N 
ATOM     21  H   UNL A   1      30.552  27.216  28.263  1.00  0.00     0.344 HD
ATOM     22  H   UNL A   1      30.800  28.837  28.552  1.00  0.00     0.344 HD
ATOM     23  H   UNL A   1      32.010  27.739  28.876  1.00  0.00     0.344 HD
ENDBRANCH  19  20
ENDBRANCH  18  19
ENDBRANCH  17  18
ENDBRANCH  16  17
ENDBRANCH  13  16
ENDBRANCH   6  12
ENDBRANCH   1   5
BRANCH   3  24
ATOM     24  C   UNL A   1      36.628  20.265  25.014  1.00  0.00     0.118 C 
BRANCH  24  25
ATOM     25  C   UNL A   1      37.985  19.586  24.815  1.00  0.00     0.042 C 
BRANCH  25  26
ATOM     26  C   UNL A   1      39.064  20.086  25.772  1.00  0.00     0.118 C 
BRANCH  26  27
ATOM     27  N   UNL A   1      40.146  19.122  25.918  1.00  0.00    -0.352 N 
ATOM     28  C   UNL A   1      41.489  19.319  26.105  1.00  0.00     0.251 C 
ATOM     29  H   UNL A   1      39.868  18.178  25.878  1.00  0.00     0.163 HD
ATOM     30  O   UNL A   1      42.269  18.382  25.930  1.00  0.00    -0.269 OA
BRANCH  28  31
ATOM     31  C   UNL A   1      42.012  20.638  26.514  1.00  0.00     0.039 A 
ATOM     32  C   UNL A   1      42.392  21.554  25.529  1.00  0.00     0.014 A 
ATOM     33  C   UNL A   1      42.181  20.954  27.865  1.00  0.00     0.014 A 
ATOM     34  C   UNL A   1      42.886  22.807  25.897  1.00  0.00     0.010 A 
ATOM     35  C   UNL A   1      42.605  22.227  28.231  1.00  0.00     0.010 A 
ATOM     36  C   UNL A   1      42.964  23.165  27.252  1.00  0.00    -0.014 A 
BRANCH  36  37
ATOM     37  C   UNL A   1      43.411  24.515  27.673  1.00  0.00     0.031 A 
ATOM     38  C   UNL A   1      42.403  25.555  28.077  1.00  0.00     0.074 A 
ATOM     39  C   UNL A   1      44.719  24.829  27.612  1.00  0.00     0.049 A 
ATOM     40  N   UNL A   1      42.590  26.814  28.380  1.00  0.00    -0.248 NA
ATOM     41  C   UNL A   1      40.994  25.128  28.121  1.00  0.00     0.031 C 
ATOM     42  C   UNL A   1      45.792  23.918  27.207  1.00  0.00     0.029 A 
ATOM     43  N   UNL A   1      45.368  26.008  27.879  1.00  0.00    -0.354 N 
ATOM     44  C   UNL A   1      41.327  27.334  28.629  1.00  0.00     0.074 A 
ATOM     45  C   UNL A   1      40.377  26.268  28.396  1.00  0.00     0.031 C 
ATOM     46  C   UNL A   1      46.967  24.564  27.279  1.00  0.00     0.029 A 
ATOM     47  C   UNL A   1      46.726  25.943  27.687  1.00  0.00     0.049 A 
ATOM     48  H   UNL A   1      44.904  26.822  28.179  1.00  0.00     0.167 HD
ATOM     49  C   UNL A   1      40.988  28.583  29.031  1.00  0.00     0.031 A 
ATOM     50  C   UNL A   1      47.672  26.893  27.814  1.00  0.00     0.031 A 
ATOM     51  C   UNL A   1      41.934  29.640  29.267  1.00  0.00     0.049 A 
ATOM     52  C   UNL A   1      47.267  28.278  28.231  1.00  0.00     0.074 A 
ATOM     53  C   UNL A   1      41.698  30.923  29.728  1.00  0.00     0.029 A 
ATOM     54  N   UNL A   1      43.301  29.534  29.059  1.00  0.00    -0.354 N 
ATOM     55  N   UNL A   1      46.074  28.739  28.520  1.00  0.00    -0.248 NA
ATOM     56  C   UNL A   1      48.342  29.274  28.344  1.00  0.00     0.031 C 
ATOM     57  C   UNL A   1      42.916  31.609  29.750  1.00  0.00     0.029 A 
ATOM     58  C   UNL A   1      43.919  30.737  29.357  1.00  0.00     0.049 A 
ATOM     59  H   UNL A   1      43.764  28.723  28.746  1.00  0.00     0.167 HD
ATOM     60  C   UNL A   1      46.258  30.067  28.877  1.00  0.00     0.074 A 
ATOM     61  C   UNL A   1      47.679  30.335  28.781  1.00  0.00     0.031 C 
ATOM     62  C   UNL A   1      45.333  30.984  29.254  1.00  0.00     0.031 A 
BRANCH  49  63
ATOM     63  C   UNL A   1      39.524  28.872  29.226  1.00  0.00    -0.014 A 
ATOM     64  C   UNL A   1      38.906  28.687  30.473  1.00  0.00     0.009 A 
ATOM     65  C   UNL A   1      38.757  29.354  28.154  1.00  0.00     0.009 A 
ATOM     66  C   UNL A   1      37.541  28.938  30.632  1.00  0.00     0.001 A 
ATOM     67  C   UNL A   1      37.400  29.635  28.323  1.00  0.00     0.001 A 
ATOM     68  C   UNL A   1      36.790  29.415  29.558  1.00  0.00     0.000 A 
ENDBRANCH  49  63
BRANCH  50  69
ATOM     69  C   UNL A   1      49.098  26.561  27.561  1.00  0.00    -0.014 A 
ATOM     70  C   UNL A   1      49.629  26.662  26.266  1.00  0.00     0.009 A 
ATOM     71  C   UNL A   1      49.936  26.145  28.608  1.00  0.00     0.009 A 
ATOM     72  C   UNL A   1      50.962  26.329  26.020  1.00  0.00     0.001 A 
ATOM     73  C   UNL A   1      51.276  25.840  28.363  1.00  0.00     0.001 A 
ATOM     74  C   UNL A   1      51.787  25.923  27.068  1.00  0.00     0.000 A 
ENDBRANCH  50  69
BRANCH  62  75
ATOM     75  C   UNL A   1      45.835  32.352  29.622  1.00  0.00    -0.014 A 
ATOM     76  C   UNL A   1      46.249  32.649  30.929  1.00  0.00     0.009 A 
ATOM     77  C   UNL A   1      45.932  33.344  28.633  1.00  0.00     0.009 A 
ATOM     78  C   UNL A   1      46.726  33.924  31.244  1.00  0.00     0.001 A 
ATOM     79  C   UNL A   1      46.433  34.607  28.945  1.00  0.00     0.001 A 
ATOM     80  C   UNL A   1      46.822  34.899  30.251  1.00  0.00     0.000 A 
ENDBRANCH  62  75
ENDBRANCH  36  37
ENDBRANCH  28  31
ENDBRANCH  26  27
ENDBRANCH  25  26
ENDBRANCH  24  25
ENDBRANCH   3  24
TORSDOF 16
ENDMDL
MODEL 3
REMARK VINA RESULT:     -10.1      0.417      6.090
REMARK SMILES [NH3+]CCOCC(=O)Nc1cc(C(=O)NCCCNC(=O)c2ccc(-c3c4nc(c(-c5ccccc5)c5ccc([nH]5)c(-c5ccccc5)c5nc(c(-c6ccccc6)c6ccc3[nH]6)C=C5)C=C4)cc2)ccc1Cl
REMARK SMILES IDX 12 1 13 2 14 3 11 5 9 6 10 7 71 8 70 9 72 10 69 11 8 12 6 13
REMARK SMILES IDX 7 14 5 16 4 17 3 18 2 19 1 20 15 24 16 25 17 26 18 27 19 28
REMARK SMILES IDX 20 30 21 31 22 32 68 33 23 34 67 35 24 36 25 37 26 38 61 39
REMARK SMILES IDX 27 40 66 41 60 42 62 43 28 44 65 45 59 46 58 47 29 49 51 50
REMARK SMILES IDX 36 51 50 52 37 53 40 54 49 55 63 56 38 57 39 58 48 60 64 61
REMARK SMILES IDX 41 62 30 63 31 64 35 65 32 66 34 67 33 68 52 69 53 70 57 71
REMARK SMILES IDX 54 72 56 73 55 74 42 75 43 76 47 77 44 78 46 79 45 80
REMARK H PARENT 14 4 8 15 1 21 1 22 1 23 18 29 62 48 40 59
REMARK Flexibility Score: inf
ROOT
ATOM      1  C   UNL A   1      37.131  23.158  25.482  1.00  0.00     0.251 C 
ATOM      2  O   UNL A   1      37.748  23.997  26.142  1.00  0.00    -0.269 OA
ATOM      3  N   UNL A   1      37.731  21.939  25.317  1.00  0.00    -0.352 N 
ATOM      4  H   UNL A   1      38.648  21.902  25.673  1.00  0.00     0.163 HD
ENDROOT
BRANCH   1   5
ATOM      5  C   UNL A   1      35.802  23.538  24.916  1.00  0.00     0.041 A 
ATOM      6  C   UNL A   1      33.513  24.212  25.424  1.00  0.00     0.060 A 
ATOM      7  C   UNL A   1      34.774  23.784  25.845  1.00  0.00     0.041 A 
ATOM      8  C   UNL A   1      33.313  24.528  24.075  1.00  0.00     0.064 A 
ATOM      9  C   UNL A   1      34.299  24.236  23.139  1.00  0.00     0.023 A 
ATOM     10  Cl  UNL A   1      32.003  25.523  23.548  1.00  0.00    -0.082 Cl
ATOM     11  C   UNL A   1      35.532  23.735  23.559  1.00  0.00     0.015 A 
BRANCH   6  12
ATOM     12  N   UNL A   1      32.503  24.330  26.392  1.00  0.00    -0.323 N 
ATOM     13  C   UNL A   1      31.378  23.544  26.483  1.00  0.00     0.250 C 
ATOM     14  O   UNL A   1      30.502  23.822  27.304  1.00  0.00    -0.272 OA
ATOM     15  H   UNL A   1      32.610  25.039  27.066  1.00  0.00     0.170 HD
BRANCH  13  16
ATOM     16  C   UNL A   1      31.298  22.242  25.650  1.00  0.00     0.260 C 
BRANCH  16  17
ATOM     17  O   UNL A   1      32.171  21.161  25.892  1.00  0.00    -0.366 OA
BRANCH  17  18
ATOM     18  C   UNL A   1      32.511  20.382  24.745  1.00  0.00     0.222 C 
BRANCH  18  19
ATOM     19  C   UNL A   1      33.005  18.967  25.065  1.00  0.00     0.287 C 
BRANCH  19  20
ATOM     20  N   UNL A   1      32.828  18.566  26.460  1.00  0.00    -0.356 N 
ATOM     21  H   UNL A   1      33.034  19.357  27.070  1.00  0.00     0.344 HD
ATOM     22  H   UNL A   1      33.462  17.796  26.675  1.00  0.00     0.344 HD
ATOM     23  H   UNL A   1      31.865  18.264  26.608  1.00  0.00     0.344 HD
ENDBRANCH  19  20
ENDBRANCH  18  19
ENDBRANCH  17  18
ENDBRANCH  16  17
ENDBRANCH  13  16
ENDBRANCH   6  12
ENDBRANCH   1   5
BRANCH   3  24
ATOM     24  C   UNL A   1      37.289  20.692  24.726  1.00  0.00     0.118 C 
BRANCH  24  25
ATOM     25  C   UNL A   1      38.304  19.568  24.941  1.00  0.00     0.042 C 
BRANCH  25  26
ATOM     26  C   UNL A   1      39.267  19.828  26.096  1.00  0.00     0.118 C 
BRANCH  26  27
ATOM     27  N   UNL A   1      40.544  19.156  25.899  1.00  0.00    -0.352 N 
ATOM     28  C   UNL A   1      41.820  19.655  25.917  1.00  0.00     0.251 C 
ATOM     29  H   UNL A   1      40.480  18.189  25.725  1.00  0.00     0.163 HD
ATOM     30  O   UNL A   1      42.741  18.979  25.457  1.00  0.00    -0.269 OA
BRANCH  28  31
ATOM     31  C   UNL A   1      42.104  20.989  26.482  1.00  0.00     0.039 A 
ATOM     32  C   UNL A   1      42.194  21.135  27.870  1.00  0.00     0.014 A 
ATOM     33  C   UNL A   1      42.227  22.107  25.653  1.00  0.00     0.014 A 
ATOM     34  C   UNL A   1      42.465  22.389  28.422  1.00  0.00     0.010 A 
ATOM     35  C   UNL A   1      42.568  23.341  26.198  1.00  0.00     0.010 A 
ATOM     36  C   UNL A   1      42.687  23.495  27.587  1.00  0.00    -0.014 A 
BRANCH  36  37
ATOM     37  C   UNL A   1      43.053  24.822  28.139  1.00  0.00     0.031 A 
ATOM     38  C   UNL A   1      41.994  25.863  28.374  1.00  0.00     0.074 A 
ATOM     39  C   UNL A   1      44.351  25.116  28.350  1.00  0.00     0.049 A 
ATOM     40  N   UNL A   1      42.129  27.108  28.755  1.00  0.00    -0.248 NA
ATOM     41  C   UNL A   1      40.602  25.458  28.121  1.00  0.00     0.031 C 
ATOM     42  C   UNL A   1      45.474  24.202  28.133  1.00  0.00     0.029 A 
ATOM     43  N   UNL A   1      44.944  26.274  28.785  1.00  0.00    -0.354 N 
ATOM     44  C   UNL A   1      40.847  27.639  28.767  1.00  0.00     0.074 A 
ATOM     45  C   UNL A   1      39.953  26.597  28.311  1.00  0.00     0.031 C 
ATOM     46  C   UNL A   1      46.617  24.826  28.460  1.00  0.00     0.029 A 
ATOM     47  C   UNL A   1      46.313  26.194  28.864  1.00  0.00     0.049 A 
ATOM     48  H   UNL A   1      44.437  27.085  29.017  1.00  0.00     0.167 HD
ATOM     49  C   UNL A   1      40.446  28.878  29.140  1.00  0.00     0.031 A 
ATOM     50  C   UNL A   1      47.223  27.123  29.212  1.00  0.00     0.031 A 
ATOM     51  C   UNL A   1      41.336  29.910  29.600  1.00  0.00     0.049 A 
ATOM     52  C   UNL A   1      46.756  28.499  29.592  1.00  0.00     0.074 A 
ATOM     53  C   UNL A   1      41.024  31.180  30.052  1.00  0.00     0.029 A 
ATOM     54  N   UNL A   1      42.716  29.790  29.663  1.00  0.00    -0.354 N 
ATOM     55  N   UNL A   1      45.533  28.969  29.655  1.00  0.00    -0.248 NA
ATOM     56  C   UNL A   1      47.796  29.472  29.954  1.00  0.00     0.031 C 
ATOM     57  C   UNL A   1      42.220  31.846  30.341  1.00  0.00     0.029 A 
ATOM     58  C   UNL A   1      43.273  30.971  30.122  1.00  0.00     0.049 A 
ATOM     59  H   UNL A   1      43.224  28.983  29.418  1.00  0.00     0.167 HD
ATOM     60  C   UNL A   1      45.654  30.281  30.092  1.00  0.00     0.074 A 
ATOM     61  C   UNL A   1      47.069  30.528  30.290  1.00  0.00     0.031 C 
ATOM     62  C   UNL A   1      44.681  31.199  30.311  1.00  0.00     0.031 A 
BRANCH  49  63
ATOM     63  C   UNL A   1      38.975  29.184  29.053  1.00  0.00    -0.014 A 
ATOM     64  C   UNL A   1      38.393  29.626  27.853  1.00  0.00     0.009 A 
ATOM     65  C   UNL A   1      38.156  29.009  30.179  1.00  0.00     0.009 A 
ATOM     66  C   UNL A   1      37.031  29.928  27.796  1.00  0.00     0.001 A 
ATOM     67  C   UNL A   1      36.788  29.281  30.110  1.00  0.00     0.001 A 
ATOM     68  C   UNL A   1      36.229  29.751  28.922  1.00  0.00     0.000 A 
ENDBRANCH  49  63
BRANCH  50  69
ATOM     69  C   UNL A   1      48.668  26.777  29.235  1.00  0.00    -0.014 A 
ATOM     70  C   UNL A   1      49.239  26.204  30.381  1.00  0.00     0.009 A 
ATOM     71  C   UNL A   1      49.482  27.016  28.116  1.00  0.00     0.009 A 
ATOM     72  C   UNL A   1      50.602  25.900  30.415  1.00  0.00     0.001 A 
ATOM     73  C   UNL A   1      50.838  26.684  28.144  1.00  0.00     0.001 A 
ATOM     74  C   UNL A   1      51.399  26.135  29.297  1.00  0.00     0.000 A 
ENDBRANCH  50  69
BRANCH  62  75
ATOM     75  C   UNL A   1      45.112  32.544  30.823  1.00  0.00    -0.014 A 
ATOM     76  C   UNL A   1      45.244  32.794  32.197  1.00  0.00     0.009 A 
ATOM     77  C   UNL A   1      45.430  33.563  29.911  1.00  0.00     0.009 A 
ATOM     78  C   UNL A   1      45.660  34.048  32.648  1.00  0.00     0.001 A 
ATOM     79  C   UNL A   1      45.872  34.806  30.364  1.00  0.00     0.001 A 
ATOM     80  C   UNL A   1      45.979  35.051  31.732  1.00  0.00     0.000 A 
ENDBRANCH  62  75
ENDBRANCH  36  37
ENDBRANCH  28  31
ENDBRANCH  26  27
ENDBRANCH  25  26
ENDBRANCH  24  25
ENDBRANCH   3  24
TORSDOF 16
ENDMDL
