MODEL 1
REMARK VINA RESULT:     -11.7      0.000      0.000
REMARK SMILES O=C(NCCCNC(=O)c1ccc(-c2c3nc(c(-c4ccccc4)c4ccc([nH]4)c(-c4ccccc4)c4nc(c(-c5ccccc5)c5ccc2[nH]5)C=C4)C=C3)cc1)C1=Cc2c(ccc(Cl)c2Cl)O[C@H]1C(F)(F)F
REMARK SMILES IDX 5 1 4 2 3 3 1 4 2 5 58 7 59 8 69 9 60 10 68 11 61 12 66 13
REMARK SMILES IDX 62 14 64 15 67 16 63 17 65 18 70 19 71 20 72 21 73 22 6 23
REMARK SMILES IDX 7 24 8 25 9 27 10 28 11 29 57 30 12 31 56 32 13 33 14 34
REMARK SMILES IDX 15 35 50 36 16 37 55 38 49 39 51 40 17 41 54 42 48 43 47 44
REMARK SMILES IDX 18 46 40 47 25 48 39 49 26 50 29 51 38 52 52 53 27 54 28 55
REMARK SMILES IDX 37 57 53 58 30 59 19 60 20 61 24 62 21 63 23 64 22 65 41 66
REMARK SMILES IDX 42 67 46 68 43 69 45 70 44 71 31 72 32 73 36 74 33 75 35 76
REMARK SMILES IDX 34 77
REMARK H PARENT 3 6 7 26 51 45 29 56
REMARK Flexibility Score: inf
ROOT
ATOM      1  C   UNL A   1      33.804  28.317  25.754  1.00  0.00     0.042 C 
ENDROOT
BRANCH   1   2
ATOM      2  C   UNL A   1      32.774  27.595  24.905  1.00  0.00     0.118 C 
BRANCH   2   3
ATOM      3  N   UNL A   1      33.262  27.015  23.654  1.00  0.00    -0.352 N 
ATOM      4  O   UNL A   1      34.011  25.295  22.353  1.00  0.00    -0.270 OA
ATOM      5  C   UNL A   1      33.614  25.694  23.432  1.00  0.00     0.251 C 
ATOM      6  H   UNL A   1      33.350  27.627  22.889  1.00  0.00     0.163 HD
BRANCH   5   7
ATOM      7  C   UNL A   1      33.497  24.796  24.609  1.00  0.00     0.067 C 
ATOM      8  C   UNL A   1      34.662  24.542  25.218  1.00  0.00     0.027 C 
ATOM      9  C   UNL A   1      32.294  23.908  24.643  1.00  0.00     0.314 C 
ATOM     10  C   UNL A   1      34.946  23.110  25.418  1.00  0.00     0.037 A 
ATOM     11  O   UNL A   1      32.598  22.527  24.975  1.00  0.00    -0.475 OA
ATOM     12  C   UNL A   1      33.911  22.187  25.175  1.00  0.00     0.129 A 
ATOM     13  C   UNL A   1      36.278  22.640  25.503  1.00  0.00     0.070 A 
ATOM     14  C   UNL A   1      34.195  20.834  24.986  1.00  0.00     0.049 A 
ATOM     15  C   UNL A   1      36.554  21.284  25.262  1.00  0.00     0.060 A 
ATOM     16  Cl  UNL A   1      37.592  23.750  25.774  1.00  0.00    -0.082 Cl
ATOM     17  C   UNL A   1      35.514  20.390  24.996  1.00  0.00     0.026 A 
ATOM     18  Cl  UNL A   1      38.166  20.662  25.189  1.00  0.00    -0.083 Cl
BRANCH   9  19
ATOM     19  C   UNL A   1      31.187  24.450  25.569  1.00  0.00     0.429 C 
ATOM     20  F   UNL A   1      30.367  25.333  24.956  1.00  0.00    -0.167 F 
ATOM     21  F   UNL A   1      30.408  23.434  26.020  1.00  0.00    -0.167 F 
ATOM     22  F   UNL A   1      31.695  25.073  26.658  1.00  0.00    -0.167 F 
ENDBRANCH   9  19
ENDBRANCH   5   7
ENDBRANCH   2   3
ENDBRANCH   1   2
BRANCH   1  23
ATOM     23  C   UNL A   1      33.388  28.520  27.203  1.00  0.00     0.118 C 
BRANCH  23  24
ATOM     24  N   UNL A   1      33.481  29.906  27.649  1.00  0.00    -0.352 N 
ATOM     25  C   UNL A   1      34.480  30.669  28.205  1.00  0.00     0.251 C 
ATOM     26  H   UNL A   1      32.642  30.407  27.525  1.00  0.00     0.163 HD
ATOM     27  O   UNL A   1      34.189  31.806  28.579  1.00  0.00    -0.269 OA
BRANCH  25  28
ATOM     28  C   UNL A   1      35.874  30.191  28.400  1.00  0.00     0.039 A 
ATOM     29  C   UNL A   1      36.232  29.679  29.658  1.00  0.00     0.014 A 
ATOM     30  C   UNL A   1      36.861  30.301  27.425  1.00  0.00     0.014 A 
ATOM     31  C   UNL A   1      37.537  29.235  29.907  1.00  0.00     0.010 A 
ATOM     32  C   UNL A   1      38.128  29.754  27.631  1.00  0.00     0.010 A 
ATOM     33  C   UNL A   1      38.492  29.233  28.881  1.00  0.00    -0.014 A 
BRANCH  33  34
ATOM     34  C   UNL A   1      39.885  28.747  29.089  1.00  0.00     0.031 A 
ATOM     35  C   UNL A   1      40.929  29.670  29.665  1.00  0.00     0.074 A 
ATOM     36  C   UNL A   1      40.244  27.514  28.678  1.00  0.00     0.049 A 
ATOM     37  N   UNL A   1      42.225  29.500  29.760  1.00  0.00    -0.248 NA
ATOM     38  C   UNL A   1      40.462  30.978  30.152  1.00  0.00     0.031 C 
ATOM     39  C   UNL A   1      39.358  26.530  28.055  1.00  0.00     0.029 A 
ATOM     40  N   UNL A   1      41.465  26.886  28.713  1.00  0.00    -0.354 N 
ATOM     41  C   UNL A   1      42.728  30.702  30.245  1.00  0.00     0.074 A 
ATOM     42  C   UNL A   1      41.604  31.598  30.403  1.00  0.00     0.031 C 
ATOM     43  C   UNL A   1      40.056  25.411  27.796  1.00  0.00     0.029 A 
ATOM     44  C   UNL A   1      41.443  25.613  28.199  1.00  0.00     0.049 A 
ATOM     45  H   UNL A   1      42.278  27.308  29.073  1.00  0.00     0.167 HD
ATOM     46  C   UNL A   1      44.009  31.031  30.546  1.00  0.00     0.031 A 
ATOM     47  C   UNL A   1      42.430  24.707  28.065  1.00  0.00     0.031 A 
ATOM     48  C   UNL A   1      45.117  30.120  30.475  1.00  0.00     0.049 A 
ATOM     49  C   UNL A   1      43.818  25.051  28.519  1.00  0.00     0.074 A 
ATOM     50  C   UNL A   1      46.437  30.333  30.836  1.00  0.00     0.029 A 
ATOM     51  N   UNL A   1      45.029  28.808  30.037  1.00  0.00    -0.354 N 
ATOM     52  N   UNL A   1      44.272  26.183  29.000  1.00  0.00    -0.248 NA
ATOM     53  C   UNL A   1      44.827  23.986  28.424  1.00  0.00     0.031 C 
ATOM     54  C   UNL A   1      47.149  29.150  30.608  1.00  0.00     0.029 A 
ATOM     55  C   UNL A   1      46.265  28.196  30.130  1.00  0.00     0.049 A 
ATOM     56  H   UNL A   1      44.207  28.376  29.710  1.00  0.00     0.167 HD
ATOM     57  C   UNL A   1      45.612  25.961  29.285  1.00  0.00     0.074 A 
ATOM     58  C   UNL A   1      45.895  24.585  28.935  1.00  0.00     0.031 C 
ATOM     59  C   UNL A   1      46.527  26.823  29.789  1.00  0.00     0.031 A 
BRANCH  46  60
ATOM     60  C   UNL A   1      44.270  32.445  30.984  1.00  0.00    -0.014 A 
ATOM     61  C   UNL A   1      44.213  32.814  32.336  1.00  0.00     0.009 A 
ATOM     62  C   UNL A   1      44.583  33.421  30.024  1.00  0.00     0.009 A 
ATOM     63  C   UNL A   1      44.418  34.142  32.715  1.00  0.00     0.001 A 
ATOM     64  C   UNL A   1      44.815  34.743  30.409  1.00  0.00     0.001 A 
ATOM     65  C   UNL A   1      44.720  35.104  31.753  1.00  0.00     0.000 A 
ENDBRANCH  46  60
BRANCH  47  66
ATOM     66  C   UNL A   1      42.127  23.363  27.513  1.00  0.00    -0.014 A 
ATOM     67  C   UNL A   1      41.547  22.382  28.332  1.00  0.00     0.009 A 
ATOM     68  C   UNL A   1      42.403  23.057  26.172  1.00  0.00     0.009 A 
ATOM     69  C   UNL A   1      41.267  21.112  27.823  1.00  0.00     0.001 A 
ATOM     70  C   UNL A   1      42.104  21.792  25.662  1.00  0.00     0.001 A 
ATOM     71  C   UNL A   1      41.543  20.819  26.489  1.00  0.00     0.000 A 
ENDBRANCH  47  66
BRANCH  59  72
ATOM     72  C   UNL A   1      47.907  26.289  30.027  1.00  0.00    -0.014 A 
ATOM     73  C   UNL A   1      48.864  26.275  29.001  1.00  0.00     0.009 A 
ATOM     74  C   UNL A   1      48.262  25.825  31.302  1.00  0.00     0.009 A 
ATOM     75  C   UNL A   1      50.146  25.776  29.244  1.00  0.00     0.001 A 
ATOM     76  C   UNL A   1      49.549  25.344  31.545  1.00  0.00     0.001 A 
ATOM     77  C   UNL A   1      50.487  25.314  30.515  1.00  0.00     0.000 A 
ENDBRANCH  59  72
ENDBRANCH  33  34
ENDBRANCH  25  28
ENDBRANCH  23  24
ENDBRANCH   1  23
TORSDOF 11
ENDMDL
MODEL 2
REMARK VINA RESULT:     -11.4      3.009      7.949
REMARK SMILES O=C(NCCCNC(=O)c1ccc(-c2c3nc(c(-c4ccccc4)c4ccc([nH]4)c(-c4ccccc4)c4nc(c(-c5ccccc5)c5ccc2[nH]5)C=C4)C=C3)cc1)C1=Cc2c(ccc(Cl)c2Cl)O[C@H]1C(F)(F)F
REMARK SMILES IDX 5 1 4 2 3 3 1 4 2 5 58 7 59 8 69 9 60 10 68 11 61 12 66 13
REMARK SMILES IDX 62 14 64 15 67 16 63 17 65 18 70 19 71 20 72 21 73 22 6 23
REMARK SMILES IDX 7 24 8 25 9 27 10 28 11 29 57 30 12 31 56 32 13 33 14 34
REMARK SMILES IDX 15 35 50 36 16 37 55 38 49 39 51 40 17 41 54 42 48 43 47 44
REMARK SMILES IDX 18 46 40 47 25 48 39 49 26 50 29 51 38 52 52 53 27 54 28 55
REMARK SMILES IDX 37 57 53 58 30 59 19 60 20 61 24 62 21 63 23 64 22 65 41 66
REMARK SMILES IDX 42 67 46 68 43 69 45 70 44 71 31 72 32 73 36 74 33 75 35 76
REMARK SMILES IDX 34 77
REMARK H PARENT 3 6 7 26 51 45 29 56
REMARK Flexibility Score: inf
ROOT
ATOM      1  C   UNL A   1      35.886  23.485  26.106  1.00  0.00     0.042 C 
ENDROOT
BRANCH   1   2
ATOM      2  C   UNL A   1      34.579  22.948  25.553  1.00  0.00     0.118 C 
BRANCH   2   3
ATOM      3  N   UNL A   1      33.381  23.230  26.343  1.00  0.00    -0.352 N 
ATOM      4  O   UNL A   1      31.555  24.475  26.917  1.00  0.00    -0.270 OA
ATOM      5  C   UNL A   1      32.536  24.320  26.214  1.00  0.00     0.251 C 
ATOM      6  H   UNL A   1      33.150  22.576  27.042  1.00  0.00     0.163 HD
BRANCH   5   7
ATOM      7  C   UNL A   1      32.921  25.304  25.170  1.00  0.00     0.067 C 
ATOM      8  C   UNL A   1      33.555  26.383  25.647  1.00  0.00     0.027 C 
ATOM      9  C   UNL A   1      32.134  25.258  23.899  1.00  0.00     0.314 C 
ATOM     10  C   UNL A   1      32.976  27.669  25.222  1.00  0.00     0.037 A 
ATOM     11  O   UNL A   1      31.693  26.563  23.439  1.00  0.00    -0.475 OA
ATOM     12  C   UNL A   1      31.997  27.655  24.211  1.00  0.00     0.129 A 
ATOM     13  C   UNL A   1      33.122  28.828  26.019  1.00  0.00     0.070 A 
ATOM     14  C   UNL A   1      31.157  28.752  24.018  1.00  0.00     0.049 A 
ATOM     15  C   UNL A   1      32.238  29.907  25.847  1.00  0.00     0.060 A 
ATOM     16  Cl  UNL A   1      34.301  28.879  27.299  1.00  0.00    -0.082 Cl
ATOM     17  C   UNL A   1      31.256  29.860  24.855  1.00  0.00     0.026 A 
ATOM     18  Cl  UNL A   1      32.246  31.291  26.883  1.00  0.00    -0.083 Cl
BRANCH   9  19
ATOM     19  C   UNL A   1      32.879  24.516  22.772  1.00  0.00     0.429 C 
ATOM     20  F   UNL A   1      32.515  24.925  21.536  1.00  0.00    -0.167 F 
ATOM     21  F   UNL A   1      34.217  24.716  22.876  1.00  0.00    -0.167 F 
ATOM     22  F   UNL A   1      32.673  23.178  22.822  1.00  0.00    -0.167 F 
ENDBRANCH   9  19
ENDBRANCH   5   7
ENDBRANCH   2   3
ENDBRANCH   1   2
BRANCH   1  23
ATOM     23  C   UNL A   1      37.007  23.576  25.082  1.00  0.00     0.118 C 
BRANCH  23  24
ATOM     24  N   UNL A   1      38.174  22.767  25.418  1.00  0.00    -0.352 N 
ATOM     25  C   UNL A   1      39.329  22.999  26.127  1.00  0.00     0.251 C 
ATOM     26  H   UNL A   1      38.124  21.852  25.058  1.00  0.00     0.163 HD
ATOM     27  O   UNL A   1      40.185  22.114  26.128  1.00  0.00    -0.269 OA
BRANCH  25  28
ATOM     28  C   UNL A   1      39.606  24.258  26.866  1.00  0.00     0.039 A 
ATOM     29  C   UNL A   1      40.312  25.277  26.204  1.00  0.00     0.014 A 
ATOM     30  C   UNL A   1      39.275  24.447  28.205  1.00  0.00     0.014 A 
ATOM     31  C   UNL A   1      40.623  26.477  26.857  1.00  0.00     0.010 A 
ATOM     32  C   UNL A   1      39.479  25.682  28.821  1.00  0.00     0.010 A 
ATOM     33  C   UNL A   1      40.175  26.707  28.165  1.00  0.00    -0.014 A 
BRANCH  33  34
ATOM     34  C   UNL A   1      40.457  27.976  28.892  1.00  0.00     0.031 A 
ATOM     35  C   UNL A   1      41.761  28.151  29.629  1.00  0.00     0.074 A 
ATOM     36  C   UNL A   1      39.515  28.936  28.976  1.00  0.00     0.049 A 
ATOM     37  N   UNL A   1      42.125  29.096  30.460  1.00  0.00    -0.248 NA
ATOM     38  C   UNL A   1      42.772  27.096  29.446  1.00  0.00     0.031 C 
ATOM     39  C   UNL A   1      38.188  28.886  28.361  1.00  0.00     0.029 A 
ATOM     40  N   UNL A   1      39.531  30.143  29.632  1.00  0.00    -0.354 N 
ATOM     41  C   UNL A   1      43.367  28.710  30.952  1.00  0.00     0.074 A 
ATOM     42  C   UNL A   1      43.684  27.437  30.344  1.00  0.00     0.031 C 
ATOM     43  C   UNL A   1      37.530  30.024  28.641  1.00  0.00     0.029 A 
ATOM     44  C   UNL A   1      38.372  30.864  29.485  1.00  0.00     0.049 A 
ATOM     45  H   UNL A   1      40.301  30.461  30.157  1.00  0.00     0.167 HD
ATOM     46  C   UNL A   1      44.180  29.360  31.820  1.00  0.00     0.031 A 
ATOM     47  C   UNL A   1      38.024  32.070  29.974  1.00  0.00     0.031 A 
ATOM     48  C   UNL A   1      43.912  30.664  32.360  1.00  0.00     0.049 A 
ATOM     49  C   UNL A   1      38.992  32.826  30.837  1.00  0.00     0.074 A 
ATOM     50  C   UNL A   1      44.710  31.441  33.183  1.00  0.00     0.029 A 
ATOM     51  N   UNL A   1      42.765  31.398  32.106  1.00  0.00    -0.354 N 
ATOM     52  N   UNL A   1      40.172  32.458  31.270  1.00  0.00    -0.248 NA
ATOM     53  C   UNL A   1      38.582  34.172  31.265  1.00  0.00     0.031 C 
ATOM     54  C   UNL A   1      44.039  32.644  33.433  1.00  0.00     0.029 A 
ATOM     55  C   UNL A   1      42.837  32.622  32.745  1.00  0.00     0.049 A 
ATOM     56  H   UNL A   1      42.010  31.093  31.552  1.00  0.00     0.167 HD
ATOM     57  C   UNL A   1      40.657  33.532  32.004  1.00  0.00     0.074 A 
ATOM     58  C   UNL A   1      39.648  34.570  31.946  1.00  0.00     0.031 C 
ATOM     59  C   UNL A   1      41.831  33.647  32.668  1.00  0.00     0.031 A 
BRANCH  46  60
ATOM     60  C   UNL A   1      45.442  28.658  32.235  1.00  0.00    -0.014 A 
ATOM     61  C   UNL A   1      46.642  28.833  31.530  1.00  0.00     0.009 A 
ATOM     62  C   UNL A   1      45.428  27.811  33.355  1.00  0.00     0.009 A 
ATOM     63  C   UNL A   1      47.793  28.139  31.909  1.00  0.00     0.001 A 
ATOM     64  C   UNL A   1      46.588  27.139  33.748  1.00  0.00     0.001 A 
ATOM     65  C   UNL A   1      47.765  27.294  33.017  1.00  0.00     0.000 A 
ENDBRANCH  46  60
BRANCH  47  66
ATOM     66  C   UNL A   1      36.709  32.657  29.621  1.00  0.00    -0.014 A 
ATOM     67  C   UNL A   1      35.648  32.608  30.538  1.00  0.00     0.009 A 
ATOM     68  C   UNL A   1      36.508  33.276  28.378  1.00  0.00     0.009 A 
ATOM     69  C   UNL A   1      34.404  33.150  30.210  1.00  0.00     0.001 A 
ATOM     70  C   UNL A   1      35.267  33.835  28.061  1.00  0.00     0.001 A 
ATOM     71  C   UNL A   1      34.215  33.765  28.973  1.00  0.00     0.000 A 
ENDBRANCH  47  66
BRANCH  59  72
ATOM     72  C   UNL A   1      42.102  34.953  33.352  1.00  0.00    -0.014 A 
ATOM     73  C   UNL A   1      41.575  35.227  34.623  1.00  0.00     0.009 A 
ATOM     74  C   UNL A   1      42.920  35.907  32.728  1.00  0.00     0.009 A 
ATOM     75  C   UNL A   1      41.843  36.449  35.245  1.00  0.00     0.001 A 
ATOM     76  C   UNL A   1      43.199  37.118  33.361  1.00  0.00     0.001 A 
ATOM     77  C   UNL A   1      42.655  37.391  34.615  1.00  0.00     0.000 A 
ENDBRANCH  59  72
ENDBRANCH  33  34
ENDBRANCH  25  28
ENDBRANCH  23  24
ENDBRANCH   1  23
TORSDOF 11
ENDMDL
MODEL 3
REMARK VINA RESULT:     -11.0      2.793      7.770
REMARK SMILES O=C(NCCCNC(=O)c1ccc(-c2c3nc(c(-c4ccccc4)c4ccc([nH]4)c(-c4ccccc4)c4nc(c(-c5ccccc5)c5ccc2[nH]5)C=C4)C=C3)cc1)C1=Cc2c(ccc(Cl)c2Cl)O[C@H]1C(F)(F)F
REMARK SMILES IDX 5 1 4 2 3 3 1 4 2 5 58 7 59 8 69 9 60 10 68 11 61 12 66 13
REMARK SMILES IDX 62 14 64 15 67 16 63 17 65 18 70 19 71 20 72 21 73 22 6 23
REMARK SMILES IDX 7 24 8 25 9 27 10 28 11 29 57 30 12 31 56 32 13 33 14 34
REMARK SMILES IDX 15 35 50 36 16 37 55 38 49 39 51 40 17 41 54 42 48 43 47 44
REMARK SMILES IDX 18 46 40 47 25 48 39 49 26 50 29 51 38 52 52 53 27 54 28 55
REMARK SMILES IDX 37 57 53 58 30 59 19 60 20 61 24 62 21 63 23 64 22 65 41 66
REMARK SMILES IDX 42 67 46 68 43 69 45 70 44 71 31 72 32 73 36 74 33 75 35 76
REMARK SMILES IDX 34 77
REMARK H PARENT 3 6 7 26 51 45 29 56
REMARK Flexibility Score: inf
ROOT
ATOM      1  C   UNL A   1      36.203  23.608  24.661  1.00  0.00     0.042 C 
ENDROOT
BRANCH   1   2
ATOM      2  C   UNL A   1      34.771  23.407  24.202  1.00  0.00     0.118 C 
BRANCH   2   3
ATOM      3  N   UNL A   1      33.742  23.507  25.237  1.00  0.00    -0.352 N 
ATOM      4  O   UNL A   1      32.038  24.560  26.333  1.00  0.00    -0.270 OA
ATOM      5  C   UNL A   1      32.869  24.562  25.443  1.00  0.00     0.251 C 
ATOM      6  H   UNL A   1      33.662  22.744  25.854  1.00  0.00     0.163 HD
BRANCH   5   7
ATOM      7  C   UNL A   1      33.028  25.711  24.516  1.00  0.00     0.067 C 
ATOM      8  C   UNL A   1      33.737  26.726  25.024  1.00  0.00     0.027 C 
ATOM      9  C   UNL A   1      32.001  25.833  23.435  1.00  0.00     0.314 C 
ATOM     10  C   UNL A   1      33.075  28.039  24.935  1.00  0.00     0.037 A 
ATOM     11  O   UNL A   1      31.466  27.175  23.287  1.00  0.00    -0.475 OA
ATOM     12  C   UNL A   1      31.912  28.144  24.149  1.00  0.00     0.129 A 
ATOM     13  C   UNL A   1      33.369  29.065  25.863  1.00  0.00     0.070 A 
ATOM     14  C   UNL A   1      31.042  29.224  24.305  1.00  0.00     0.049 A 
ATOM     15  C   UNL A   1      32.461  30.122  26.045  1.00  0.00     0.060 A 
ATOM     16  Cl  UNL A   1      34.782  28.963  26.876  1.00  0.00    -0.082 Cl
ATOM     17  C   UNL A   1      31.299  30.191  25.273  1.00  0.00     0.026 A 
ATOM     18  Cl  UNL A   1      32.667  31.326  27.268  1.00  0.00    -0.083 Cl
BRANCH   9  19
ATOM     19  C   UNL A   1      32.509  25.306  22.078  1.00  0.00     0.429 C 
ATOM     20  F   UNL A   1      33.811  25.588  21.851  1.00  0.00    -0.167 F 
ATOM     21  F   UNL A   1      32.380  23.956  22.016  1.00  0.00    -0.167 F 
ATOM     22  F   UNL A   1      31.807  25.819  21.039  1.00  0.00    -0.167 F 
ENDBRANCH   9  19
ENDBRANCH   5   7
ENDBRANCH   2   3
ENDBRANCH   1   2
BRANCH   1  23
ATOM     23  C   UNL A   1      36.505  23.037  26.038  1.00  0.00     0.118 C 
BRANCH  23  24
ATOM     24  N   UNL A   1      37.762  22.299  26.103  1.00  0.00    -0.352 N 
ATOM     25  C   UNL A   1      39.059  22.640  26.405  1.00  0.00     0.251 C 
ATOM     26  H   UNL A   1      37.659  21.345  25.881  1.00  0.00     0.163 HD
ATOM     27  O   UNL A   1      39.926  21.778  26.253  1.00  0.00    -0.269 OA
BRANCH  25  28
ATOM     28  C   UNL A   1      39.470  23.987  26.879  1.00  0.00     0.039 A 
ATOM     29  C   UNL A   1      39.278  24.303  28.234  1.00  0.00     0.014 A 
ATOM     30  C   UNL A   1      39.958  24.978  26.032  1.00  0.00     0.014 A 
ATOM     31  C   UNL A   1      39.625  25.566  28.733  1.00  0.00     0.010 A 
ATOM     32  C   UNL A   1      40.412  26.193  26.546  1.00  0.00     0.010 A 
ATOM     33  C   UNL A   1      40.232  26.514  27.898  1.00  0.00    -0.014 A 
BRANCH  33  34
ATOM     34  C   UNL A   1      40.643  27.859  28.388  1.00  0.00     0.031 A 
ATOM     35  C   UNL A   1      42.089  28.134  28.718  1.00  0.00     0.074 A 
ATOM     36  C   UNL A   1      39.716  28.808  28.629  1.00  0.00     0.049 A 
ATOM     37  N   UNL A   1      42.621  29.171  29.318  1.00  0.00    -0.248 NA
ATOM     38  C   UNL A   1      43.059  27.082  28.374  1.00  0.00     0.031 C 
ATOM     39  C   UNL A   1      38.276  28.671  28.409  1.00  0.00     0.029 A 
ATOM     40  N   UNL A   1      39.856  30.080  29.130  1.00  0.00    -0.354 N 
ATOM     41  C   UNL A   1      43.965  28.860  29.487  1.00  0.00     0.074 A 
ATOM     42  C   UNL A   1      44.163  27.533  28.948  1.00  0.00     0.031 C 
ATOM     43  C   UNL A   1      37.668  29.822  28.742  1.00  0.00     0.029 A 
ATOM     44  C   UNL A   1      38.669  30.763  29.233  1.00  0.00     0.049 A 
ATOM     45  H   UNL A   1      40.724  30.465  29.389  1.00  0.00     0.167 HD
ATOM     46  C   UNL A   1      44.953  29.614  30.030  1.00  0.00     0.031 A 
ATOM     47  C   UNL A   1      38.412  32.009  29.675  1.00  0.00     0.031 A 
ATOM     48  C   UNL A   1      44.783  30.965  30.488  1.00  0.00     0.049 A 
ATOM     49  C   UNL A   1      39.542  32.870  30.158  1.00  0.00     0.074 A 
ATOM     50  C   UNL A   1      45.738  31.840  30.977  1.00  0.00     0.029 A 
ATOM     51  N   UNL A   1      43.578  31.649  30.484  1.00  0.00    -0.354 N 
ATOM     52  N   UNL A   1      40.811  32.571  30.287  1.00  0.00    -0.248 NA
ATOM     53  C   UNL A   1      39.203  34.248  30.544  1.00  0.00     0.031 C 
ATOM     54  C   UNL A   1      45.106  33.052  31.278  1.00  0.00     0.029 A 
ATOM     55  C   UNL A   1      43.766  32.937  30.951  1.00  0.00     0.049 A 
ATOM     56  H   UNL A   1      42.716  31.274  30.192  1.00  0.00     0.167 HD
ATOM     57  C   UNL A   1      41.427  33.726  30.747  1.00  0.00     0.074 A 
ATOM     58  C   UNL A   1      40.394  34.736  30.863  1.00  0.00     0.031 C 
ATOM     59  C   UNL A   1      42.731  33.932  31.050  1.00  0.00     0.031 A 
BRANCH  46  60
ATOM     60  C   UNL A   1      46.311  28.982  30.152  1.00  0.00    -0.014 A 
ATOM     61  C   UNL A   1      47.260  29.082  29.123  1.00  0.00     0.009 A 
ATOM     62  C   UNL A   1      46.645  28.278  31.320  1.00  0.00     0.009 A 
ATOM     63  C   UNL A   1      48.500  28.452  29.242  1.00  0.00     0.001 A 
ATOM     64  C   UNL A   1      47.896  27.671  31.447  1.00  0.00     0.001 A 
ATOM     65  C   UNL A   1      48.817  27.748  30.403  1.00  0.00     0.000 A 
ENDBRANCH  46  60
BRANCH  47  66
ATOM     66  C   UNL A   1      37.025  32.533  29.637  1.00  0.00    -0.014 A 
ATOM     67  C   UNL A   1      36.186  32.381  30.752  1.00  0.00     0.009 A 
ATOM     68  C   UNL A   1      36.537  33.194  28.500  1.00  0.00     0.009 A 
ATOM     69  C   UNL A   1      34.876  32.864  30.721  1.00  0.00     0.001 A 
ATOM     70  C   UNL A   1      35.231  33.693  28.481  1.00  0.00     0.001 A 
ATOM     71  C   UNL A   1      34.401  33.521  29.588  1.00  0.00     0.000 A 
ENDBRANCH  47  66
BRANCH  59  72
ATOM     72  C   UNL A   1      43.118  35.309  31.497  1.00  0.00    -0.014 A 
ATOM     73  C   UNL A   1      43.033  35.681  32.847  1.00  0.00     0.009 A 
ATOM     74  C   UNL A   1      43.602  36.233  30.560  1.00  0.00     0.009 A 
ATOM     75  C   UNL A   1      43.402  36.968  33.245  1.00  0.00     0.001 A 
ATOM     76  C   UNL A   1      43.986  37.512  30.964  1.00  0.00     0.001 A 
ATOM     77  C   UNL A   1      43.880  37.880  32.304  1.00  0.00     0.000 A 
ENDBRANCH  59  72
ENDBRANCH  33  34
ENDBRANCH  25  28
ENDBRANCH  23  24
ENDBRANCH   1  23
TORSDOF 11
ENDMDL
