MODEL 1
REMARK VINA RESULT:     -10.3      0.000      0.000
REMARK SMILES O=C(NCCCNC(=O)c1ccc(C[NH2+]CCOc2ccccc2)nc1)c1ccc(-c2c3nc(c(-c4ccccc4)c4ccc([nH]4)c(-c4ccccc4)c4nc(c(-c5ccccc5)c5ccc2[nH]5)C=C4)C=C3)cc1
REMARK SMILES IDX 7 1 8 2 9 3 6 5 5 6 4 7 3 8 1 9 2 10 27 12 28 13 74 14 29 15
REMARK SMILES IDX 73 16 30 17 31 18 32 19 67 20 33 21 72 22 66 23 68 24 34 25
REMARK SMILES IDX 71 26 65 27 64 28 35 30 57 31 42 32 56 33 43 34 46 35 55 36
REMARK SMILES IDX 69 37 44 38 45 39 54 41 70 42 47 43 36 44 37 45 41 46 38 47
REMARK SMILES IDX 40 48 39 49 58 50 59 51 63 52 60 53 62 54 61 55 48 56 49 57
REMARK SMILES IDX 53 58 50 59 52 60 51 61 10 62 11 63 26 64 12 65 25 66 13 67
REMARK SMILES IDX 14 68 15 69 16 72 17 73 18 74 19 75 20 76 24 77 21 78 23 79
REMARK SMILES IDX 22 80
REMARK H PARENT 7 4 3 11 68 29 46 40 15 70 15 71
REMARK Flexibility Score: inf
ROOT
ATOM      1  N   UNL A   1      37.800  21.791  25.771  1.00  0.00    -0.352 N 
ATOM      2  C   UNL A   1      37.409  23.106  25.758  1.00  0.00     0.252 C 
ATOM      3  O   UNL A   1      38.021  23.927  26.434  1.00  0.00    -0.269 OA
ATOM      4  H   UNL A   1      38.444  21.558  26.478  1.00  0.00     0.163 HD
ENDROOT
BRANCH   1   5
ATOM      5  C   UNL A   1      37.413  20.686  24.905  1.00  0.00     0.118 C 
BRANCH   5   6
ATOM      6  C   UNL A   1      38.362  19.503  25.021  1.00  0.00     0.042 C 
BRANCH   6   7
ATOM      7  C   UNL A   1      39.374  19.634  26.148  1.00  0.00     0.118 C 
BRANCH   7   8
ATOM      8  N   UNL A   1      40.690  19.117  25.792  1.00  0.00    -0.352 N 
ATOM      9  O   UNL A   1      42.880  19.153  25.283  1.00  0.00    -0.269 OA
ATOM     10  C   UNL A   1      41.925  19.720  25.799  1.00  0.00     0.251 C 
ATOM     11  H   UNL A   1      40.694  18.177  25.498  1.00  0.00     0.163 HD
BRANCH  10  12
ATOM     12  C   UNL A   1      42.102  21.062  26.398  1.00  0.00     0.039 A 
ATOM     13  C   UNL A   1      42.289  22.188  25.598  1.00  0.00     0.014 A 
ATOM     14  C   UNL A   1      42.056  21.198  27.789  1.00  0.00     0.014 A 
ATOM     15  C   UNL A   1      42.621  23.404  26.180  1.00  0.00     0.010 A 
ATOM     16  C   UNL A   1      42.277  22.448  28.373  1.00  0.00     0.010 A 
ATOM     17  C   UNL A   1      42.606  23.554  27.576  1.00  0.00    -0.014 A 
BRANCH  17  18
ATOM     18  C   UNL A   1      42.897  24.885  28.166  1.00  0.00     0.031 A 
ATOM     19  C   UNL A   1      44.302  25.296  28.508  1.00  0.00     0.074 A 
ATOM     20  C   UNL A   1      41.878  25.745  28.360  1.00  0.00     0.049 A 
ATOM     21  N   UNL A   1      44.732  26.435  28.992  1.00  0.00    -0.248 NA
ATOM     22  C   UNL A   1      45.363  24.300  28.291  1.00  0.00     0.031 C 
ATOM     23  C   UNL A   1      40.470  25.467  28.064  1.00  0.00     0.029 A 
ATOM     24  N   UNL A   1      41.871  27.035  28.824  1.00  0.00    -0.354 N 
ATOM     25  C   UNL A   1      46.104  26.285  29.160  1.00  0.00     0.074 A 
ATOM     26  C   UNL A   1      46.430  24.935  28.754  1.00  0.00     0.031 C 
ATOM     27  C   UNL A   1      39.747  26.571  28.293  1.00  0.00     0.029 A 
ATOM     28  C   UNL A   1      40.623  27.610  28.818  1.00  0.00     0.049 A 
ATOM     29  H   UNL A   1      42.680  27.504  29.131  1.00  0.00     0.167 HD
ATOM     30  C   UNL A   1      47.008  27.189  29.609  1.00  0.00     0.031 A 
ATOM     31  C   UNL A   1      40.222  28.835  29.204  1.00  0.00     0.031 A 
ATOM     32  C   UNL A   1      46.679  28.531  30.016  1.00  0.00     0.049 A 
ATOM     33  C   UNL A   1      41.237  29.802  29.736  1.00  0.00     0.074 A 
ATOM     34  C   UNL A   1      47.529  29.534  30.451  1.00  0.00     0.029 A 
ATOM     35  N   UNL A   1      45.396  29.057  30.046  1.00  0.00    -0.354 N 
ATOM     36  N   UNL A   1      42.534  29.655  29.856  1.00  0.00    -0.248 NA
ATOM     37  C   UNL A   1      40.729  31.104  30.185  1.00  0.00     0.031 C 
ATOM     38  C   UNL A   1      46.754  30.645  30.802  1.00  0.00     0.029 A 
ATOM     39  C   UNL A   1      45.427  30.358  30.521  1.00  0.00     0.049 A 
ATOM     40  H   UNL A   1      44.582  28.577  29.770  1.00  0.00     0.167 HD
ATOM     41  C   UNL A   1      43.003  30.856  30.368  1.00  0.00     0.074 A 
ATOM     42  C   UNL A   1      41.852  31.724  30.522  1.00  0.00     0.031 C 
ATOM     43  C   UNL A   1      44.275  31.209  30.677  1.00  0.00     0.031 A 
BRANCH  30  44
ATOM     44  C   UNL A   1      48.439  26.736  29.726  1.00  0.00    -0.014 A 
ATOM     45  C   UNL A   1      48.913  26.083  30.875  1.00  0.00     0.009 A 
ATOM     46  C   UNL A   1      49.323  26.948  28.656  1.00  0.00     0.009 A 
ATOM     47  C   UNL A   1      50.254  25.696  30.967  1.00  0.00     0.001 A 
ATOM     48  C   UNL A   1      50.653  26.533  28.738  1.00  0.00     0.001 A 
ATOM     49  C   UNL A   1      51.121  25.918  29.899  1.00  0.00     0.000 A 
ENDBRANCH  30  44
BRANCH  31  50
ATOM     50  C   UNL A   1      38.789  29.207  29.092  1.00  0.00    -0.014 A 
ATOM     51  C   UNL A   1      37.925  29.051  30.187  1.00  0.00     0.009 A 
ATOM     52  C   UNL A   1      38.282  29.744  27.898  1.00  0.00     0.009 A 
ATOM     53  C   UNL A   1      36.580  29.409  30.082  1.00  0.00     0.001 A 
ATOM     54  C   UNL A   1      36.945  30.131  27.806  1.00  0.00     0.001 A 
ATOM     55  C   UNL A   1      36.092  29.956  28.895  1.00  0.00     0.000 A 
ENDBRANCH  31  50
BRANCH  43  56
ATOM     56  C   UNL A   1      44.491  32.612  31.174  1.00  0.00    -0.014 A 
ATOM     57  C   UNL A   1      44.683  33.684  30.290  1.00  0.00     0.009 A 
ATOM     58  C   UNL A   1      44.479  32.864  32.556  1.00  0.00     0.009 A 
ATOM     59  C   UNL A   1      44.898  34.974  30.780  1.00  0.00     0.001 A 
ATOM     60  C   UNL A   1      44.663  34.159  33.042  1.00  0.00     0.001 A 
ATOM     61  C   UNL A   1      44.884  35.211  32.154  1.00  0.00     0.000 A 
ENDBRANCH  43  56
ENDBRANCH  17  18
ENDBRANCH  10  12
ENDBRANCH   7   8
ENDBRANCH   6   7
ENDBRANCH   5   6
ENDBRANCH   1   5
BRANCH   2  62
ATOM     62  C   UNL A   1      36.270  23.543  24.936  1.00  0.00     0.058 A 
ATOM     63  C   UNL A   1      35.355  24.498  25.370  1.00  0.00     0.017 A 
ATOM     64  C   UNL A   1      36.131  23.043  23.652  1.00  0.00     0.125 A 
ATOM     65  C   UNL A   1      34.292  24.851  24.544  1.00  0.00     0.030 A 
ATOM     66  N   UNL A   1      35.110  23.375  22.824  1.00  0.00    -0.255 NA
ATOM     67  C   UNL A   1      34.196  24.272  23.280  1.00  0.00     0.094 A 
BRANCH  67  68
ATOM     68  C   UNL A   1      33.080  24.698  22.336  1.00  0.00     0.318 C 
BRANCH  68  69
ATOM     69  N   UNL A   1      31.850  23.935  22.562  1.00  0.00    -0.338 N 
ATOM     70  H   UNL A   1      32.098  23.064  23.030  1.00  0.00     0.346 HD
ATOM     71  H   UNL A   1      31.426  23.791  21.645  1.00  0.00     0.346 HD
BRANCH  69  72
ATOM     72  C   UNL A   1      30.847  24.622  23.377  1.00  0.00     0.302 C 
BRANCH  72  73
ATOM     73  C   UNL A   1      30.764  24.225  24.866  1.00  0.00     0.290 C 
BRANCH  73  74
ATOM     74  O   UNL A   1      30.825  22.800  25.035  1.00  0.00    -0.488 OA
BRANCH  74  75
ATOM     75  C   UNL A   1      31.874  22.405  25.817  1.00  0.00     0.119 A 
ATOM     76  C   UNL A   1      32.124  22.986  27.060  1.00  0.00     0.046 A 
ATOM     77  C   UNL A   1      32.744  21.450  25.296  1.00  0.00     0.046 A 
ATOM     78  C   UNL A   1      33.224  22.561  27.808  1.00  0.00     0.004 A 
ATOM     79  C   UNL A   1      33.825  21.008  26.055  1.00  0.00     0.004 A 
ATOM     80  C   UNL A   1      34.065  21.563  27.311  1.00  0.00     0.000 A 
ENDBRANCH  74  75
ENDBRANCH  73  74
ENDBRANCH  72  73
ENDBRANCH  69  72
ENDBRANCH  68  69
ENDBRANCH  67  68
ENDBRANCH   2  62
TORSDOF 16
ENDMDL
MODEL 2
REMARK VINA RESULT:     -10.2      1.650      2.374
REMARK SMILES O=C(NCCCNC(=O)c1ccc(C[NH2+]CCOc2ccccc2)nc1)c1ccc(-c2c3nc(c(-c4ccccc4)c4ccc([nH]4)c(-c4ccccc4)c4nc(c(-c5ccccc5)c5ccc2[nH]5)C=C4)C=C3)cc1
REMARK SMILES IDX 7 1 8 2 9 3 6 5 5 6 4 7 3 8 1 9 2 10 27 12 28 13 74 14 29 15
REMARK SMILES IDX 73 16 30 17 31 18 32 19 67 20 33 21 72 22 66 23 68 24 34 25
REMARK SMILES IDX 71 26 65 27 64 28 35 30 57 31 42 32 56 33 43 34 46 35 55 36
REMARK SMILES IDX 69 37 44 38 45 39 54 41 70 42 47 43 36 44 37 45 41 46 38 47
REMARK SMILES IDX 40 48 39 49 58 50 59 51 63 52 60 53 62 54 61 55 48 56 49 57
REMARK SMILES IDX 53 58 50 59 52 60 51 61 10 62 11 63 26 64 12 65 25 66 13 67
REMARK SMILES IDX 14 68 15 69 16 72 17 73 18 74 19 75 20 76 24 77 21 78 23 79
REMARK SMILES IDX 22 80
REMARK H PARENT 7 4 3 11 68 29 46 40 15 70 15 71
REMARK Flexibility Score: inf
ROOT
ATOM      1  N   UNL A   1      38.150  22.127  25.270  1.00  0.00    -0.352 N 
ATOM      2  C   UNL A   1      37.626  23.304  25.740  1.00  0.00     0.252 C 
ATOM      3  O   UNL A   1      38.377  24.230  26.027  1.00  0.00    -0.269 OA
ATOM      4  H   UNL A   1      39.126  22.039  25.368  1.00  0.00     0.163 HD
ENDROOT
BRANCH   1   5
ATOM      5  C   UNL A   1      37.493  20.986  24.648  1.00  0.00     0.118 C 
BRANCH   5   6
ATOM      6  C   UNL A   1      38.231  19.681  24.908  1.00  0.00     0.042 C 
BRANCH   6   7
ATOM      7  C   UNL A   1      39.146  19.724  26.122  1.00  0.00     0.118 C 
BRANCH   7   8
ATOM      8  N   UNL A   1      40.434  19.083  25.885  1.00  0.00    -0.352 N 
ATOM      9  O   UNL A   1      42.643  18.913  25.505  1.00  0.00    -0.269 OA
ATOM     10  C   UNL A   1      41.710  19.591  25.917  1.00  0.00     0.251 C 
ATOM     11  H   UNL A   1      40.379  18.124  25.666  1.00  0.00     0.163 HD
BRANCH  10  12
ATOM     12  C   UNL A   1      41.961  20.960  26.419  1.00  0.00     0.039 A 
ATOM     13  C   UNL A   1      42.066  22.040  25.543  1.00  0.00     0.014 A 
ATOM     14  C   UNL A   1      42.071  21.172  27.798  1.00  0.00     0.014 A 
ATOM     15  C   UNL A   1      42.467  23.281  26.018  1.00  0.00     0.010 A 
ATOM     16  C   UNL A   1      42.363  22.448  28.285  1.00  0.00     0.010 A 
ATOM     17  C   UNL A   1      42.609  23.505  27.397  1.00  0.00    -0.014 A 
BRANCH  17  18
ATOM     18  C   UNL A   1      42.972  24.863  27.878  1.00  0.00     0.031 A 
ATOM     19  C   UNL A   1      44.408  25.293  27.984  1.00  0.00     0.074 A 
ATOM     20  C   UNL A   1      41.985  25.726  28.187  1.00  0.00     0.049 A 
ATOM     21  N   UNL A   1      44.894  26.455  28.348  1.00  0.00    -0.248 NA
ATOM     22  C   UNL A   1      45.434  24.293  27.652  1.00  0.00     0.031 C 
ATOM     23  C   UNL A   1      40.551  25.430  28.121  1.00  0.00     0.029 A 
ATOM     24  N   UNL A   1      42.035  27.035  28.591  1.00  0.00    -0.354 N 
ATOM     25  C   UNL A   1      46.277  26.318  28.312  1.00  0.00     0.074 A 
ATOM     26  C   UNL A   1      46.552  24.952  27.919  1.00  0.00     0.031 C 
ATOM     27  C   UNL A   1      39.859  26.540  28.410  1.00  0.00     0.029 A 
ATOM     28  C   UNL A   1      40.794  27.604  28.750  1.00  0.00     0.049 A 
ATOM     29  H   UNL A   1      42.876  27.520  28.751  1.00  0.00     0.167 HD
ATOM     30  C   UNL A   1      47.229  27.244  28.578  1.00  0.00     0.031 A 
ATOM     31  C   UNL A   1      40.444  28.844  29.139  1.00  0.00     0.031 A 
ATOM     32  C   UNL A   1      46.952  28.602  28.972  1.00  0.00     0.049 A 
ATOM     33  C   UNL A   1      41.517  29.837  29.469  1.00  0.00     0.074 A 
ATOM     34  C   UNL A   1      47.847  29.626  29.229  1.00  0.00     0.029 A 
ATOM     35  N   UNL A   1      45.682  29.123  29.174  1.00  0.00    -0.354 N 
ATOM     36  N   UNL A   1      42.819  29.701  29.396  1.00  0.00    -0.248 NA
ATOM     37  C   UNL A   1      41.070  31.156  29.933  1.00  0.00     0.031 C 
ATOM     38  C   UNL A   1      47.123  30.748  29.646  1.00  0.00     0.029 A 
ATOM     39  C   UNL A   1      45.772  30.444  29.583  1.00  0.00     0.049 A 
ATOM     40  H   UNL A   1      44.842  28.628  29.046  1.00  0.00     0.167 HD
ATOM     41  C   UNL A   1      43.347  30.925  29.778  1.00  0.00     0.074 A 
ATOM     42  C   UNL A   1      42.224  31.794  30.068  1.00  0.00     0.031 C 
ATOM     43  C   UNL A   1      44.647  31.297  29.875  1.00  0.00     0.031 A 
BRANCH  30  44
ATOM     44  C   UNL A   1      48.666  26.802  28.496  1.00  0.00    -0.014 A 
ATOM     45  C   UNL A   1      49.401  26.902  27.303  1.00  0.00     0.009 A 
ATOM     46  C   UNL A   1      49.302  26.296  29.641  1.00  0.00     0.009 A 
ATOM     47  C   UNL A   1      50.726  26.459  27.248  1.00  0.00     0.001 A 
ATOM     48  C   UNL A   1      50.635  25.884  29.591  1.00  0.00     0.001 A 
ATOM     49  C   UNL A   1      51.342  25.954  28.391  1.00  0.00     0.000 A 
ENDBRANCH  30  44
BRANCH  31  50
ATOM     50  C   UNL A   1      39.006  29.205  29.230  1.00  0.00    -0.014 A 
ATOM     51  C   UNL A   1      38.325  29.704  28.109  1.00  0.00     0.009 A 
ATOM     52  C   UNL A   1      38.301  29.029  30.431  1.00  0.00     0.009 A 
ATOM     53  C   UNL A   1      36.971  30.035  28.195  1.00  0.00     0.001 A 
ATOM     54  C   UNL A   1      36.940  29.331  30.505  1.00  0.00     0.001 A 
ATOM     55  C   UNL A   1      36.278  29.842  29.389  1.00  0.00     0.000 A 
ENDBRANCH  31  50
BRANCH  43  56
ATOM     56  C   UNL A   1      44.921  32.721  30.273  1.00  0.00    -0.014 A 
ATOM     57  C   UNL A   1      45.107  33.087  31.614  1.00  0.00     0.009 A 
ATOM     58  C   UNL A   1      45.017  33.709  29.279  1.00  0.00     0.009 A 
ATOM     59  C   UNL A   1      45.343  34.420  31.957  1.00  0.00     0.001 A 
ATOM     60  C   UNL A   1      45.286  35.035  29.621  1.00  0.00     0.001 A 
ATOM     61  C   UNL A   1      45.436  35.391  30.960  1.00  0.00     0.000 A 
ENDBRANCH  43  56
ENDBRANCH  17  18
ENDBRANCH  10  12
ENDBRANCH   7   8
ENDBRANCH   6   7
ENDBRANCH   5   6
ENDBRANCH   1   5
BRANCH   2  62
ATOM     62  C   UNL A   1      36.172  23.469  25.898  1.00  0.00     0.058 A 
ATOM     63  C   UNL A   1      35.406  24.237  25.027  1.00  0.00     0.017 A 
ATOM     64  C   UNL A   1      35.520  22.784  26.910  1.00  0.00     0.125 A 
ATOM     65  C   UNL A   1      34.038  24.361  25.249  1.00  0.00     0.030 A 
ATOM     66  N   UNL A   1      34.188  22.881  27.143  1.00  0.00    -0.255 NA
ATOM     67  C   UNL A   1      33.460  23.673  26.314  1.00  0.00     0.094 A 
BRANCH  67  68
ATOM     68  C   UNL A   1      31.954  23.741  26.530  1.00  0.00     0.318 C 
BRANCH  68  69
ATOM     69  N   UNL A   1      31.333  22.415  26.484  1.00  0.00    -0.338 N 
ATOM     70  H   UNL A   1      30.340  22.522  26.689  1.00  0.00     0.346 HD
ATOM     71  H   UNL A   1      31.824  21.841  27.170  1.00  0.00     0.346 HD
BRANCH  69  72
ATOM     72  C   UNL A   1      31.462  21.725  25.199  1.00  0.00     0.302 C 
BRANCH  72  73
ATOM     73  C   UNL A   1      32.490  20.576  25.122  1.00  0.00     0.290 C 
BRANCH  73  74
ATOM     74  O   UNL A   1      32.141  19.625  24.103  1.00  0.00    -0.488 OA
BRANCH  74  75
ATOM     75  C   UNL A   1      32.736  18.410  24.289  1.00  0.00     0.119 A 
ATOM     76  C   UNL A   1      33.457  17.783  23.273  1.00  0.00     0.046 A 
ATOM     77  C   UNL A   1      32.532  17.769  25.508  1.00  0.00     0.046 A 
ATOM     78  C   UNL A   1      34.027  16.529  23.508  1.00  0.00     0.004 A 
ATOM     79  C   UNL A   1      33.123  16.531  25.750  1.00  0.00     0.004 A 
ATOM     80  C   UNL A   1      33.870  15.911  24.750  1.00  0.00     0.000 A 
ENDBRANCH  74  75
ENDBRANCH  73  74
ENDBRANCH  72  73
ENDBRANCH  69  72
ENDBRANCH  68  69
ENDBRANCH  67  68
ENDBRANCH   2  62
TORSDOF 16
ENDMDL
MODEL 3
REMARK VINA RESULT:     -10.1      3.468      8.516
REMARK SMILES O=C(NCCCNC(=O)c1ccc(C[NH2+]CCOc2ccccc2)nc1)c1ccc(-c2c3nc(c(-c4ccccc4)c4ccc([nH]4)c(-c4ccccc4)c4nc(c(-c5ccccc5)c5ccc2[nH]5)C=C4)C=C3)cc1
REMARK SMILES IDX 7 1 8 2 9 3 6 5 5 6 4 7 3 8 1 9 2 10 27 12 28 13 74 14 29 15
REMARK SMILES IDX 73 16 30 17 31 18 32 19 67 20 33 21 72 22 66 23 68 24 34 25
REMARK SMILES IDX 71 26 65 27 64 28 35 30 57 31 42 32 56 33 43 34 46 35 55 36
REMARK SMILES IDX 69 37 44 38 45 39 54 41 70 42 47 43 36 44 37 45 41 46 38 47
REMARK SMILES IDX 40 48 39 49 58 50 59 51 63 52 60 53 62 54 61 55 48 56 49 57
REMARK SMILES IDX 53 58 50 59 52 60 51 61 10 62 11 63 26 64 12 65 25 66 13 67
REMARK SMILES IDX 14 68 15 69 16 72 17 73 18 74 19 75 20 76 24 77 21 78 23 79
REMARK SMILES IDX 22 80
REMARK H PARENT 7 4 3 11 68 29 46 40 15 70 15 71
REMARK Flexibility Score: inf
ROOT
ATOM      1  N   UNL A   1      30.765  30.116  23.972  1.00  0.00    -0.352 N 
ATOM      2  C   UNL A   1      30.433  29.314  22.910  1.00  0.00     0.252 C 
ATOM      3  O   UNL A   1      30.003  29.820  21.879  1.00  0.00    -0.269 OA
ATOM      4  H   UNL A   1      30.458  31.049  23.897  1.00  0.00     0.163 HD
ENDROOT
BRANCH   1   5
ATOM      5  C   UNL A   1      31.499  29.809  25.191  1.00  0.00     0.118 C 
BRANCH   5   6
ATOM      6  C   UNL A   1      31.268  30.844  26.281  1.00  0.00     0.042 C 
BRANCH   6   7
ATOM      7  C   UNL A   1      32.535  31.546  26.742  1.00  0.00     0.118 C 
BRANCH   7   8
ATOM      8  N   UNL A   1      32.297  32.915  27.185  1.00  0.00    -0.352 N 
ATOM      9  O   UNL A   1      32.515  34.775  28.429  1.00  0.00    -0.269 OA
ATOM     10  C   UNL A   1      32.997  33.712  28.058  1.00  0.00     0.251 C 
ATOM     11  H   UNL A   1      31.500  33.338  26.791  1.00  0.00     0.163 HD
BRANCH  10  12
ATOM     12  C   UNL A   1      34.315  33.282  28.575  1.00  0.00     0.039 A 
ATOM     13  C   UNL A   1      35.493  33.608  27.903  1.00  0.00     0.014 A 
ATOM     14  C   UNL A   1      34.376  32.557  29.770  1.00  0.00     0.014 A 
ATOM     15  C   UNL A   1      36.699  33.054  28.310  1.00  0.00     0.010 A 
ATOM     16  C   UNL A   1      35.607  32.096  30.243  1.00  0.00     0.010 A 
ATOM     17  C   UNL A   1      36.775  32.301  29.493  1.00  0.00    -0.014 A 
BRANCH  17  18
ATOM     18  C   UNL A   1      38.092  31.780  29.939  1.00  0.00     0.031 A 
ATOM     19  C   UNL A   1      38.637  30.484  29.410  1.00  0.00     0.074 A 
ATOM     20  C   UNL A   1      38.817  32.512  30.807  1.00  0.00     0.049 A 
ATOM     21  N   UNL A   1      39.787  29.908  29.666  1.00  0.00    -0.248 NA
ATOM     22  C   UNL A   1      37.783  29.726  28.483  1.00  0.00     0.031 C 
ATOM     23  C   UNL A   1      38.400  33.790  31.391  1.00  0.00     0.029 A 
ATOM     24  N   UNL A   1      40.068  32.302  31.329  1.00  0.00    -0.354 N 
ATOM     25  C   UNL A   1      39.783  28.714  28.954  1.00  0.00     0.074 A 
ATOM     26  C   UNL A   1      38.506  28.634  28.279  1.00  0.00     0.031 C 
ATOM     27  C   UNL A   1      39.399  34.279  32.137  1.00  0.00     0.029 A 
ATOM     28  C   UNL A   1      40.497  33.321  32.145  1.00  0.00     0.049 A 
ATOM     29  H   UNL A   1      40.606  31.499  31.139  1.00  0.00     0.167 HD
ATOM     30  C   UNL A   1      40.755  27.774  28.869  1.00  0.00     0.031 A 
ATOM     31  C   UNL A   1      41.643  33.466  32.834  1.00  0.00     0.031 A 
ATOM     32  C   UNL A   1      42.024  27.855  29.545  1.00  0.00     0.049 A 
ATOM     33  C   UNL A   1      42.684  32.390  32.756  1.00  0.00     0.074 A 
ATOM     34  C   UNL A   1      43.088  26.971  29.493  1.00  0.00     0.029 A 
ATOM     35  N   UNL A   1      42.398  28.878  30.405  1.00  0.00    -0.354 N 
ATOM     36  N   UNL A   1      42.679  31.285  32.051  1.00  0.00    -0.248 NA
ATOM     37  C   UNL A   1      43.891  32.586  33.568  1.00  0.00     0.031 C 
ATOM     38  C   UNL A   1      44.081  27.427  30.368  1.00  0.00     0.029 A 
ATOM     39  C   UNL A   1      43.663  28.631  30.913  1.00  0.00     0.049 A 
ATOM     40  H   UNL A   1      41.847  29.664  30.621  1.00  0.00     0.167 HD
ATOM     41  C   UNL A   1      43.892  30.665  32.312  1.00  0.00     0.074 A 
ATOM     42  C   UNL A   1      44.612  31.525  33.229  1.00  0.00     0.031 C 
ATOM     43  C   UNL A   1      44.367  29.490  31.831  1.00  0.00     0.031 A 
BRANCH  30  44
ATOM     44  C   UNL A   1      40.460  26.549  28.045  1.00  0.00    -0.014 A 
ATOM     45  C   UNL A   1      39.706  25.480  28.557  1.00  0.00     0.009 A 
ATOM     46  C   UNL A   1      40.928  26.472  26.723  1.00  0.00     0.009 A 
ATOM     47  C   UNL A   1      39.470  24.343  27.778  1.00  0.00     0.001 A 
ATOM     48  C   UNL A   1      40.664  25.349  25.937  1.00  0.00     0.001 A 
ATOM     49  C   UNL A   1      39.946  24.280  26.470  1.00  0.00     0.000 A 
ENDBRANCH  30  44
BRANCH  31  50
ATOM     50  C   UNL A   1      41.857  34.686  33.654  1.00  0.00    -0.014 A 
ATOM     51  C   UNL A   1      41.357  34.760  34.963  1.00  0.00     0.009 A 
ATOM     52  C   UNL A   1      42.583  35.772  33.141  1.00  0.00     0.009 A 
ATOM     53  C   UNL A   1      41.567  35.905  35.735  1.00  0.00     0.001 A 
ATOM     54  C   UNL A   1      42.818  36.902  33.926  1.00  0.00     0.001 A 
ATOM     55  C   UNL A   1      42.303  36.971  35.220  1.00  0.00     0.000 A 
ENDBRANCH  31  50
BRANCH  43  56
ATOM     56  C   UNL A   1      45.752  29.090  32.257  1.00  0.00    -0.014 A 
ATOM     57  C   UNL A   1      45.971  28.295  33.392  1.00  0.00     0.009 A 
ATOM     58  C   UNL A   1      46.856  29.500  31.492  1.00  0.00     0.009 A 
ATOM     59  C   UNL A   1      47.269  27.952  33.775  1.00  0.00     0.001 A 
ATOM     60  C   UNL A   1      48.150  29.130  31.858  1.00  0.00     0.001 A 
ATOM     61  C   UNL A   1      48.357  28.366  33.006  1.00  0.00     0.000 A 
ENDBRANCH  43  56
ENDBRANCH  17  18
ENDBRANCH  10  12
ENDBRANCH   7   8
ENDBRANCH   6   7
ENDBRANCH   5   6
ENDBRANCH   1   5
BRANCH   2  62
ATOM     62  C   UNL A   1      30.593  27.854  22.993  1.00  0.00     0.058 A 
ATOM     63  C   UNL A   1      31.677  27.185  22.433  1.00  0.00     0.017 A 
ATOM     64  C   UNL A   1      29.671  27.112  23.714  1.00  0.00     0.125 A 
ATOM     65  C   UNL A   1      31.754  25.800  22.537  1.00  0.00     0.030 A 
ATOM     66  N   UNL A   1      29.726  25.762  23.837  1.00  0.00    -0.255 NA
ATOM     67  C   UNL A   1      30.764  25.118  23.243  1.00  0.00     0.094 A 
BRANCH  67  68
ATOM     68  C   UNL A   1      30.869  23.611  23.427  1.00  0.00     0.318 C 
BRANCH  68  69
ATOM     69  N   UNL A   1      31.943  23.032  22.617  1.00  0.00    -0.338 N 
ATOM     70  H   UNL A   1      32.283  23.751  21.979  1.00  0.00     0.346 HD
ATOM     71  H   UNL A   1      31.541  22.227  22.135  1.00  0.00     0.346 HD
BRANCH  69  72
ATOM     72  C   UNL A   1      33.082  22.527  23.385  1.00  0.00     0.302 C 
BRANCH  72  73
ATOM     73  C   UNL A   1      32.834  22.200  24.872  1.00  0.00     0.290 C 
BRANCH  73  74
ATOM     74  O   UNL A   1      33.748  22.906  25.726  1.00  0.00    -0.488 OA
BRANCH  74  75
ATOM     75  C   UNL A   1      33.452  24.235  25.833  1.00  0.00     0.119 A 
ATOM     76  C   UNL A   1      34.320  25.222  25.366  1.00  0.00     0.046 A 
ATOM     77  C   UNL A   1      32.282  24.585  26.504  1.00  0.00     0.046 A 
ATOM     78  C   UNL A   1      33.979  26.567  25.521  1.00  0.00     0.004 A 
ATOM     79  C   UNL A   1      31.931  25.926  26.635  1.00  0.00     0.004 A 
ATOM     80  C   UNL A   1      32.779  26.917  26.143  1.00  0.00     0.000 A 
ENDBRANCH  74  75
ENDBRANCH  73  74
ENDBRANCH  72  73
ENDBRANCH  69  72
ENDBRANCH  68  69
ENDBRANCH  67  68
ENDBRANCH   2  62
TORSDOF 16
ENDMDL
