MODEL 1
REMARK VINA RESULT:     -14.1      0.000      0.000
REMARK SMILES O=C(NCCCNC(=O)c1ccc2c(c1)NC1=[NH+]S(=O)(=O)[NH+]=C1N2)c1ccc(-c2c3nc(c(-c4ccccc4)c4ccc([nH]4)c(-c4ccccc4)c4nc(c(-c5ccccc5)c5ccc2[nH]5)C=C4)C=C3)cc1
REMARK SMILES IDX 4 1 3 2 1 3 2 4 25 6 26 7 72 8 27 9 71 10 28 11 29 12 30 13
REMARK SMILES IDX 65 14 31 15 70 16 64 17 66 18 32 19 69 20 63 21 62 22 33 24
REMARK SMILES IDX 55 25 40 26 54 27 41 28 44 29 53 30 67 31 42 32 43 33 52 35
REMARK SMILES IDX 68 36 45 37 34 38 35 39 39 40 36 41 38 42 37 43 56 44 57 45
REMARK SMILES IDX 61 46 58 47 60 48 59 49 46 50 47 51 51 52 48 53 50 54 49 55
REMARK SMILES IDX 5 56 6 57 7 58 8 59 9 61 10 62 11 63 15 64 12 65 14 66 13 67
REMARK SMILES IDX 16 68 24 69 17 70 23 72 18 74 22 75 19 76 20 79 21 80
REMARK H PARENT 3 5 66 23 44 34 7 60 16 71 24 73 18 77 22 78
REMARK Flexibility Score: inf
ROOT
ATOM      1  C   UNL A   1      37.052  22.774  24.052  1.00  0.00     0.118 C 
ENDROOT
BRANCH   1   2
ATOM      2  N   UNL A   1      37.128  21.331  24.331  1.00  0.00    -0.352 N 
ATOM      3  O   UNL A   1      38.212  19.430  24.969  1.00  0.00    -0.269 OA
ATOM      4  C   UNL A   1      38.097  20.646  25.057  1.00  0.00     0.251 C 
ATOM      5  H   UNL A   1      36.401  20.781  23.959  1.00  0.00     0.163 HD
BRANCH   4   6
ATOM      6  C   UNL A   1      38.984  21.423  25.941  1.00  0.00     0.039 A 
ATOM      7  C   UNL A   1      40.199  20.961  26.442  1.00  0.00     0.014 A 
ATOM      8  C   UNL A   1      38.576  22.718  26.214  1.00  0.00     0.014 A 
ATOM      9  C   UNL A   1      40.963  21.848  27.199  1.00  0.00     0.010 A 
ATOM     10  C   UNL A   1      39.508  23.651  26.519  1.00  0.00     0.010 A 
ATOM     11  C   UNL A   1      40.587  23.204  27.236  1.00  0.00    -0.014 A 
BRANCH  11  12
ATOM     12  C   UNL A   1      41.283  24.219  28.005  1.00  0.00     0.031 A 
ATOM     13  C   UNL A   1      40.562  25.497  28.060  1.00  0.00     0.074 A 
ATOM     14  C   UNL A   1      42.404  23.991  28.729  1.00  0.00     0.049 A 
ATOM     15  N   UNL A   1      40.849  26.559  27.396  1.00  0.00    -0.248 NA
ATOM     16  C   UNL A   1      39.279  25.543  28.772  1.00  0.00     0.031 C 
ATOM     17  C   UNL A   1      43.085  22.723  29.042  1.00  0.00     0.029 A 
ATOM     18  N   UNL A   1      43.147  24.892  29.422  1.00  0.00    -0.354 N 
ATOM     19  C   UNL A   1      39.891  27.493  27.751  1.00  0.00     0.074 A 
ATOM     20  C   UNL A   1      38.855  26.764  28.441  1.00  0.00     0.031 C 
ATOM     21  C   UNL A   1      43.992  22.917  30.028  1.00  0.00     0.029 A 
ATOM     22  C   UNL A   1      44.095  24.342  30.276  1.00  0.00     0.049 A 
ATOM     23  H   UNL A   1      43.023  25.864  29.327  1.00  0.00     0.167 HD
ATOM     24  C   UNL A   1      40.155  28.823  27.654  1.00  0.00     0.031 A 
ATOM     25  C   UNL A   1      44.912  25.021  31.120  1.00  0.00     0.031 A 
ATOM     26  C   UNL A   1      41.335  29.063  26.855  1.00  0.00     0.049 A 
ATOM     27  C   UNL A   1      44.994  26.409  30.606  1.00  0.00     0.074 A 
ATOM     28  C   UNL A   1      41.673  28.814  25.539  1.00  0.00     0.029 A 
ATOM     29  N   UNL A   1      42.523  29.225  27.531  1.00  0.00    -0.354 N 
ATOM     30  N   UNL A   1      45.553  26.722  29.472  1.00  0.00    -0.248 NA
ATOM     31  C   UNL A   1      44.051  27.382  31.131  1.00  0.00     0.031 C 
ATOM     32  C   UNL A   1      43.030  28.382  25.582  1.00  0.00     0.029 A 
ATOM     33  C   UNL A   1      43.482  28.471  26.902  1.00  0.00     0.049 A 
ATOM     34  H   UNL A   1      42.661  29.785  28.329  1.00  0.00     0.167 HD
ATOM     35  C   UNL A   1      44.720  27.689  28.925  1.00  0.00     0.074 A 
ATOM     36  C   UNL A   1      43.871  28.123  30.034  1.00  0.00     0.031 C 
ATOM     37  C   UNL A   1      44.606  27.841  27.573  1.00  0.00     0.031 A 
BRANCH  24  38
ATOM     38  C   UNL A   1      39.587  29.849  28.593  1.00  0.00    -0.014 A 
ATOM     39  C   UNL A   1      38.310  30.422  28.444  1.00  0.00     0.009 A 
ATOM     40  C   UNL A   1      40.242  30.077  29.814  1.00  0.00     0.009 A 
ATOM     41  C   UNL A   1      37.708  31.168  29.458  1.00  0.00     0.001 A 
ATOM     42  C   UNL A   1      39.626  30.790  30.849  1.00  0.00     0.001 A 
ATOM     43  C   UNL A   1      38.357  31.333  30.670  1.00  0.00     0.000 A 
ENDBRANCH  24  38
BRANCH  25  44
ATOM     44  C   UNL A   1      45.252  24.692  32.523  1.00  0.00    -0.014 A 
ATOM     45  C   UNL A   1      44.256  24.223  33.399  1.00  0.00     0.009 A 
ATOM     46  C   UNL A   1      46.455  25.151  33.087  1.00  0.00     0.009 A 
ATOM     47  C   UNL A   1      44.429  24.272  34.787  1.00  0.00     0.001 A 
ATOM     48  C   UNL A   1      46.628  25.199  34.479  1.00  0.00     0.001 A 
ATOM     49  C   UNL A   1      45.606  24.779  35.327  1.00  0.00     0.000 A 
ENDBRANCH  25  44
BRANCH  37  50
ATOM     50  C   UNL A   1      45.585  27.104  26.680  1.00  0.00    -0.014 A 
ATOM     51  C   UNL A   1      46.643  27.840  26.121  1.00  0.00     0.009 A 
ATOM     52  C   UNL A   1      45.393  25.784  26.235  1.00  0.00     0.009 A 
ATOM     53  C   UNL A   1      47.464  27.292  25.134  1.00  0.00     0.001 A 
ATOM     54  C   UNL A   1      46.234  25.223  25.263  1.00  0.00     0.001 A 
ATOM     55  C   UNL A   1      47.260  25.982  24.705  1.00  0.00     0.000 A 
ENDBRANCH  37  50
ENDBRANCH  11  12
ENDBRANCH   4   6
ENDBRANCH   1   2
BRANCH   1  56
ATOM     56  C   UNL A   1      35.858  23.194  23.228  1.00  0.00     0.042 C 
BRANCH  56  57
ATOM     57  C   UNL A   1      35.052  24.304  23.896  1.00  0.00     0.118 C 
BRANCH  57  58
ATOM     58  N   UNL A   1      33.784  24.610  23.230  1.00  0.00    -0.352 N 
ATOM     59  C   UNL A   1      32.608  23.899  23.197  1.00  0.00     0.251 C 
ATOM     60  H   UNL A   1      33.773  25.456  22.726  1.00  0.00     0.163 HD
ATOM     61  O   UNL A   1      31.687  24.246  22.465  1.00  0.00    -0.269 OA
BRANCH  59  62
ATOM     62  C   UNL A   1      32.472  22.678  24.015  1.00  0.00     0.044 A 
ATOM     63  C   UNL A   1      32.396  22.762  25.409  1.00  0.00     0.018 A 
ATOM     64  C   UNL A   1      32.471  21.436  23.373  1.00  0.00     0.070 A 
ATOM     65  C   UNL A   1      32.500  21.609  26.180  1.00  0.00     0.057 A 
ATOM     66  C   UNL A   1      32.526  20.270  24.138  1.00  0.00     0.173 A 
ATOM     67  C   UNL A   1      32.602  20.364  25.559  1.00  0.00     0.172 A 
ATOM     68  N   UNL A   1      32.592  19.011  23.513  1.00  0.00    -0.229 N 
ATOM     69  N   UNL A   1      32.792  19.207  26.333  1.00  0.00    -0.229 N 
ATOM     70  C   UNL A   1      32.798  17.871  24.240  1.00  0.00     0.383 C 
ATOM     71  H   UNL A   1      32.487  18.949  22.536  1.00  0.00     0.313 HD
ATOM     72  C   UNL A   1      32.925  17.979  25.749  1.00  0.00     0.383 C 
ATOM     73  H   UNL A   1      32.829  19.282  27.314  1.00  0.00     0.313 HD
ATOM     74  N   UNL A   1      32.916  16.662  23.821  1.00  0.00    -0.122 N 
ATOM     75  N   UNL A   1      33.149  16.848  26.314  1.00  0.00    -0.122 N 
ATOM     76  S   UNL A   1      33.201  15.720  25.130  1.00  0.00     0.469 S 
ATOM     77  H   UNL A   1      32.849  16.359  22.887  1.00  0.00     0.331 HD
ATOM     78  H   UNL A   1      33.269  16.690  27.278  1.00  0.00     0.331 HD
ATOM     79  O   UNL A   1      32.091  14.821  25.305  1.00  0.00    -0.143 OA
ATOM     80  O   UNL A   1      34.566  15.227  25.039  1.00  0.00    -0.143 OA
ENDBRANCH  59  62
ENDBRANCH  57  58
ENDBRANCH  56  57
ENDBRANCH   1  56
TORSDOF 10
ENDMDL
MODEL 2
REMARK VINA RESULT:     -13.8      2.371      4.297
REMARK SMILES O=C(NCCCNC(=O)c1ccc2c(c1)NC1=[NH+]S(=O)(=O)[NH+]=C1N2)c1ccc(-c2c3nc(c(-c4ccccc4)c4ccc([nH]4)c(-c4ccccc4)c4nc(c(-c5ccccc5)c5ccc2[nH]5)C=C4)C=C3)cc1
REMARK SMILES IDX 4 1 3 2 1 3 2 4 25 6 26 7 72 8 27 9 71 10 28 11 29 12 30 13
REMARK SMILES IDX 65 14 31 15 70 16 64 17 66 18 32 19 69 20 63 21 62 22 33 24
REMARK SMILES IDX 55 25 40 26 54 27 41 28 44 29 53 30 67 31 42 32 43 33 52 35
REMARK SMILES IDX 68 36 45 37 34 38 35 39 39 40 36 41 38 42 37 43 56 44 57 45
REMARK SMILES IDX 61 46 58 47 60 48 59 49 46 50 47 51 51 52 48 53 50 54 49 55
REMARK SMILES IDX 5 56 6 57 7 58 8 59 9 61 10 62 11 63 15 64 12 65 14 66 13 67
REMARK SMILES IDX 16 68 24 69 17 70 23 72 18 74 22 75 19 76 20 79 21 80
REMARK H PARENT 3 5 66 23 44 34 7 60 16 71 24 73 18 77 22 78
REMARK Flexibility Score: inf
ROOT
ATOM      1  C   UNL A   1      38.618  20.283  25.572  1.00  0.00     0.118 C 
ENDROOT
BRANCH   1   2
ATOM      2  N   UNL A   1      39.652  19.244  25.699  1.00  0.00    -0.352 N 
ATOM      3  O   UNL A   1      41.807  18.503  25.734  1.00  0.00    -0.269 OA
ATOM      4  C   UNL A   1      41.011  19.409  25.944  1.00  0.00     0.251 C 
ATOM      5  H   UNL A   1      39.343  18.314  25.599  1.00  0.00     0.163 HD
BRANCH   4   6
ATOM      6  C   UNL A   1      41.471  20.707  26.468  1.00  0.00     0.039 A 
ATOM      7  C   UNL A   1      42.076  21.699  25.697  1.00  0.00     0.014 A 
ATOM      8  C   UNL A   1      41.207  20.943  27.807  1.00  0.00     0.014 A 
ATOM      9  C   UNL A   1      42.379  22.906  26.325  1.00  0.00     0.010 A 
ATOM     10  C   UNL A   1      41.074  22.220  28.236  1.00  0.00     0.010 A 
ATOM     11  C   UNL A   1      41.874  23.144  27.616  1.00  0.00    -0.014 A 
BRANCH  11  12
ATOM     12  C   UNL A   1      42.139  24.347  28.383  1.00  0.00     0.031 A 
ATOM     13  C   UNL A   1      41.163  25.417  28.136  1.00  0.00     0.074 A 
ATOM     14  C   UNL A   1      43.089  24.445  29.343  1.00  0.00     0.049 A 
ATOM     15  N   UNL A   1      41.354  26.467  27.420  1.00  0.00    -0.248 NA
ATOM     16  C   UNL A   1      39.774  25.204  28.560  1.00  0.00     0.031 C 
ATOM     17  C   UNL A   1      43.940  23.402  29.939  1.00  0.00     0.029 A 
ATOM     18  N   UNL A   1      43.440  25.544  30.059  1.00  0.00    -0.354 N 
ATOM     19  C   UNL A   1      40.160  27.167  27.457  1.00  0.00     0.074 A 
ATOM     20  C   UNL A   1      39.180  26.262  28.004  1.00  0.00     0.031 C 
ATOM     21  C   UNL A   1      44.536  23.876  31.058  1.00  0.00     0.029 A 
ATOM     22  C   UNL A   1      44.267  25.298  31.148  1.00  0.00     0.049 A 
ATOM     23  H   UNL A   1      43.133  26.449  29.824  1.00  0.00     0.167 HD
ATOM     24  C   UNL A   1      40.144  28.512  27.256  1.00  0.00     0.031 A 
ATOM     25  C   UNL A   1      44.702  26.210  32.053  1.00  0.00     0.031 A 
ATOM     26  C   UNL A   1      41.392  28.971  26.692  1.00  0.00     0.049 A 
ATOM     27  C   UNL A   1      44.594  27.538  31.403  1.00  0.00     0.074 A 
ATOM     28  C   UNL A   1      42.065  28.719  25.513  1.00  0.00     0.029 A 
ATOM     29  N   UNL A   1      42.331  29.459  27.572  1.00  0.00    -0.354 N 
ATOM     30  N   UNL A   1      45.314  27.896  30.378  1.00  0.00    -0.248 NA
ATOM     31  C   UNL A   1      43.368  28.291  31.604  1.00  0.00     0.031 C 
ATOM     32  C   UNL A   1      43.439  28.627  25.884  1.00  0.00     0.029 A 
ATOM     33  C   UNL A   1      43.549  28.914  27.247  1.00  0.00     0.049 A 
ATOM     34  H   UNL A   1      42.159  30.090  28.308  1.00  0.00     0.167 HD
ATOM     35  C   UNL A   1      44.436  28.594  29.560  1.00  0.00     0.074 A 
ATOM     36  C   UNL A   1      43.284  28.890  30.412  1.00  0.00     0.031 C 
ATOM     37  C   UNL A   1      44.601  28.620  28.205  1.00  0.00     0.031 A 
BRANCH  24  38
ATOM     38  C   UNL A   1      39.168  29.435  27.929  1.00  0.00    -0.014 A 
ATOM     39  C   UNL A   1      37.881  29.712  27.428  1.00  0.00     0.009 A 
ATOM     40  C   UNL A   1      39.438  29.857  29.241  1.00  0.00     0.009 A 
ATOM     41  C   UNL A   1      36.910  30.359  28.193  1.00  0.00     0.001 A 
ATOM     42  C   UNL A   1      38.455  30.471  30.025  1.00  0.00     0.001 A 
ATOM     43  C   UNL A   1      37.189  30.717  29.501  1.00  0.00     0.000 A 
ENDBRANCH  24  38
BRANCH  25  44
ATOM     44  C   UNL A   1      44.779  26.072  33.526  1.00  0.00    -0.014 A 
ATOM     45  C   UNL A   1      43.708  25.501  34.237  1.00  0.00     0.009 A 
ATOM     46  C   UNL A   1      45.740  26.792  34.257  1.00  0.00     0.009 A 
ATOM     47  C   UNL A   1      43.565  25.700  35.615  1.00  0.00     0.001 A 
ATOM     48  C   UNL A   1      45.595  26.990  35.638  1.00  0.00     0.001 A 
ATOM     49  C   UNL A   1      44.497  26.461  36.312  1.00  0.00     0.000 A 
ENDBRANCH  25  44
BRANCH  37  50
ATOM     50  C   UNL A   1      45.893  28.078  27.626  1.00  0.00    -0.014 A 
ATOM     51  C   UNL A   1      46.875  29.004  27.237  1.00  0.00     0.009 A 
ATOM     52  C   UNL A   1      46.091  26.727  27.289  1.00  0.00     0.009 A 
ATOM     53  C   UNL A   1      48.000  28.604  26.512  1.00  0.00     0.001 A 
ATOM     54  C   UNL A   1      47.234  26.321  26.586  1.00  0.00     0.001 A 
ATOM     55  C   UNL A   1      48.180  27.262  26.187  1.00  0.00     0.000 A 
ENDBRANCH  37  50
ENDBRANCH  11  12
ENDBRANCH   4   6
ENDBRANCH   1   2
BRANCH   1  56
ATOM     56  C   UNL A   1      37.494  19.940  24.623  1.00  0.00     0.042 C 
BRANCH  56  57
ATOM     57  C   UNL A   1      36.203  20.684  24.958  1.00  0.00     0.118 C 
BRANCH  57  58
ATOM     58  N   UNL A   1      35.098  19.814  25.367  1.00  0.00    -0.352 N 
ATOM     59  C   UNL A   1      33.742  19.974  25.210  1.00  0.00     0.251 C 
ATOM     60  H   UNL A   1      35.369  18.986  25.825  1.00  0.00     0.163 HD
ATOM     61  O   UNL A   1      32.955  19.200  25.745  1.00  0.00    -0.269 OA
BRANCH  59  62
ATOM     62  C   UNL A   1      33.229  21.116  24.430  1.00  0.00     0.044 A 
ATOM     63  C   UNL A   1      32.515  20.905  23.246  1.00  0.00     0.018 A 
ATOM     64  C   UNL A   1      33.513  22.412  24.871  1.00  0.00     0.070 A 
ATOM     65  C   UNL A   1      32.237  21.976  22.403  1.00  0.00     0.057 A 
ATOM     66  C   UNL A   1      33.194  23.499  24.055  1.00  0.00     0.173 A 
ATOM     67  C   UNL A   1      32.603  23.270  22.778  1.00  0.00     0.172 A 
ATOM     68  N   UNL A   1      33.529  24.808  24.449  1.00  0.00    -0.229 N 
ATOM     69  N   UNL A   1      32.399  24.341  21.892  1.00  0.00    -0.229 N 
ATOM     70  C   UNL A   1      33.363  25.866  23.599  1.00  0.00     0.383 C 
ATOM     71  H   UNL A   1      33.890  24.964  25.351  1.00  0.00     0.313 HD
ATOM     72  C   UNL A   1      32.776  25.612  22.222  1.00  0.00     0.383 C 
ATOM     73  H   UNL A   1      31.978  24.173  21.018  1.00  0.00     0.313 HD
ATOM     74  N   UNL A   1      33.650  27.103  23.792  1.00  0.00    -0.122 N 
ATOM     75  N   UNL A   1      32.701  26.676  21.507  1.00  0.00    -0.122 N 
ATOM     76  S   UNL A   1      33.284  27.907  22.413  1.00  0.00     0.469 S 
ATOM     77  H   UNL A   1      34.020  27.495  24.615  1.00  0.00     0.331 HD
ATOM     78  H   UNL A   1      32.358  26.738  20.586  1.00  0.00     0.331 HD
ATOM     79  O   UNL A   1      32.211  28.827  22.682  1.00  0.00    -0.143 OA
ATOM     80  O   UNL A   1      34.530  28.356  21.812  1.00  0.00    -0.143 OA
ENDBRANCH  59  62
ENDBRANCH  57  58
ENDBRANCH  56  57
ENDBRANCH   1  56
TORSDOF 10
ENDMDL
MODEL 3
REMARK VINA RESULT:     -13.7      2.582      5.930
REMARK SMILES O=C(NCCCNC(=O)c1ccc2c(c1)NC1=[NH+]S(=O)(=O)[NH+]=C1N2)c1ccc(-c2c3nc(c(-c4ccccc4)c4ccc([nH]4)c(-c4ccccc4)c4nc(c(-c5ccccc5)c5ccc2[nH]5)C=C4)C=C3)cc1
REMARK SMILES IDX 4 1 3 2 1 3 2 4 25 6 26 7 72 8 27 9 71 10 28 11 29 12 30 13
REMARK SMILES IDX 65 14 31 15 70 16 64 17 66 18 32 19 69 20 63 21 62 22 33 24
REMARK SMILES IDX 55 25 40 26 54 27 41 28 44 29 53 30 67 31 42 32 43 33 52 35
REMARK SMILES IDX 68 36 45 37 34 38 35 39 39 40 36 41 38 42 37 43 56 44 57 45
REMARK SMILES IDX 61 46 58 47 60 48 59 49 46 50 47 51 51 52 48 53 50 54 49 55
REMARK SMILES IDX 5 56 6 57 7 58 8 59 9 61 10 62 11 63 15 64 12 65 14 66 13 67
REMARK SMILES IDX 16 68 24 69 17 70 23 72 18 74 22 75 19 76 20 79 21 80
REMARK H PARENT 3 5 66 23 44 34 7 60 16 71 24 73 18 77 22 78
REMARK Flexibility Score: inf
ROOT
ATOM      1  C   UNL A   1      37.975  23.720  25.376  1.00  0.00     0.118 C 
ENDROOT
BRANCH   1   2
ATOM      2  N   UNL A   1      38.648  22.531  25.923  1.00  0.00    -0.352 N 
ATOM      3  O   UNL A   1      40.396  21.445  26.903  1.00  0.00    -0.269 OA
ATOM      4  C   UNL A   1      39.758  22.480  26.760  1.00  0.00     0.251 C 
ATOM      5  H   UNL A   1      38.264  21.662  25.665  1.00  0.00     0.163 HD
BRANCH   4   6
ATOM      6  C   UNL A   1      40.146  23.708  27.476  1.00  0.00     0.039 A 
ATOM      7  C   UNL A   1      41.463  24.084  27.738  1.00  0.00     0.014 A 
ATOM      8  C   UNL A   1      39.106  24.547  27.838  1.00  0.00     0.014 A 
ATOM      9  C   UNL A   1      41.668  25.318  28.354  1.00  0.00     0.010 A 
ATOM     10  C   UNL A   1      39.348  25.871  27.979  1.00  0.00     0.010 A 
ATOM     11  C   UNL A   1      40.581  26.202  28.479  1.00  0.00    -0.014 A 
BRANCH  11  12
ATOM     12  C   UNL A   1      40.660  27.501  29.120  1.00  0.00     0.031 A 
ATOM     13  C   UNL A   1      41.547  28.440  28.419  1.00  0.00     0.074 A 
ATOM     14  C   UNL A   1      39.892  27.882  30.169  1.00  0.00     0.049 A 
ATOM     15  N   UNL A   1      42.733  28.778  28.781  1.00  0.00    -0.248 NA
ATOM     16  C   UNL A   1      41.158  28.896  27.079  1.00  0.00     0.031 C 
ATOM     17  C   UNL A   1      38.748  27.200  30.798  1.00  0.00     0.029 A 
ATOM     18  N   UNL A   1      39.946  29.048  30.863  1.00  0.00    -0.354 N 
ATOM     19  C   UNL A   1      43.183  29.656  27.811  1.00  0.00     0.074 A 
ATOM     20  C   UNL A   1      42.264  29.543  26.706  1.00  0.00     0.031 C 
ATOM     21  C   UNL A   1      38.095  28.057  31.617  1.00  0.00     0.029 A 
ATOM     22  C   UNL A   1      38.878  29.273  31.722  1.00  0.00     0.049 A 
ATOM     23  H   UNL A   1      40.687  29.688  30.764  1.00  0.00     0.167 HD
ATOM     24  C   UNL A   1      44.141  30.575  28.106  1.00  0.00     0.031 A 
ATOM     25  C   UNL A   1      38.665  30.383  32.471  1.00  0.00     0.031 A 
ATOM     26  C   UNL A   1      44.796  30.265  29.355  1.00  0.00     0.049 A 
ATOM     27  C   UNL A   1      39.979  31.052  32.622  1.00  0.00     0.074 A 
ATOM     28  C   UNL A   1      45.558  29.204  29.804  1.00  0.00     0.029 A 
ATOM     29  N   UNL A   1      44.324  30.900  30.481  1.00  0.00    -0.354 N 
ATOM     30  N   UNL A   1      40.974  30.537  33.285  1.00  0.00    -0.248 NA
ATOM     31  C   UNL A   1      40.331  32.075  31.653  1.00  0.00     0.031 C 
ATOM     32  C   UNL A   1      45.128  28.982  31.145  1.00  0.00     0.029 A 
ATOM     33  C   UNL A   1      44.195  29.967  31.480  1.00  0.00     0.049 A 
ATOM     34  H   UNL A   1      44.115  31.859  30.557  1.00  0.00     0.167 HD
ATOM     35  C   UNL A   1      42.095  30.831  32.520  1.00  0.00     0.074 A 
ATOM     36  C   UNL A   1      41.649  31.863  31.583  1.00  0.00     0.031 C 
ATOM     37  C   UNL A   1      43.191  30.018  32.528  1.00  0.00     0.031 A 
BRANCH  24  38
ATOM     38  C   UNL A   1      44.201  31.937  27.474  1.00  0.00    -0.014 A 
ATOM     39  C   UNL A   1      44.380  32.152  26.094  1.00  0.00     0.009 A 
ATOM     40  C   UNL A   1      43.817  33.050  28.240  1.00  0.00     0.009 A 
ATOM     41  C   UNL A   1      44.174  33.398  25.503  1.00  0.00     0.001 A 
ATOM     42  C   UNL A   1      43.571  34.293  27.646  1.00  0.00     0.001 A 
ATOM     43  C   UNL A   1      43.747  34.465  26.276  1.00  0.00     0.000 A 
ENDBRANCH  24  38
BRANCH  25  44
ATOM     44  C   UNL A   1      37.393  31.114  32.680  1.00  0.00    -0.014 A 
ATOM     45  C   UNL A   1      36.511  31.316  31.603  1.00  0.00     0.009 A 
ATOM     46  C   UNL A   1      37.204  31.893  33.835  1.00  0.00     0.009 A 
ATOM     47  C   UNL A   1      35.521  32.304  31.653  1.00  0.00     0.001 A 
ATOM     48  C   UNL A   1      36.212  32.882  33.884  1.00  0.00     0.001 A 
ATOM     49  C   UNL A   1      35.385  33.101  32.785  1.00  0.00     0.000 A 
ENDBRANCH  25  44
BRANCH  37  50
ATOM     50  C   UNL A   1      43.263  28.918  33.571  1.00  0.00    -0.014 A 
ATOM     51  C   UNL A   1      42.478  27.772  33.368  1.00  0.00     0.009 A 
ATOM     52  C   UNL A   1      43.921  29.056  34.806  1.00  0.00     0.009 A 
ATOM     53  C   UNL A   1      42.328  26.809  34.369  1.00  0.00     0.001 A 
ATOM     54  C   UNL A   1      43.793  28.077  35.802  1.00  0.00     0.001 A 
ATOM     55  C   UNL A   1      42.986  26.962  35.586  1.00  0.00     0.000 A 
ENDBRANCH  37  50
ENDBRANCH  11  12
ENDBRANCH   4   6
ENDBRANCH   1   2
BRANCH   1  56
ATOM     56  C   UNL A   1      36.485  23.567  25.183  1.00  0.00     0.042 C 
BRANCH  56  57
ATOM     57  C   UNL A   1      36.107  23.359  23.718  1.00  0.00     0.118 C 
BRANCH  57  58
ATOM     58  N   UNL A   1      34.897  24.073  23.304  1.00  0.00    -0.352 N 
ATOM     59  C   UNL A   1      33.574  23.727  23.444  1.00  0.00     0.251 C 
ATOM     60  H   UNL A   1      35.057  24.934  22.853  1.00  0.00     0.163 HD
ATOM     61  O   UNL A   1      32.694  24.390  22.906  1.00  0.00    -0.269 OA
BRANCH  59  62
ATOM     62  C   UNL A   1      33.215  22.519  24.211  1.00  0.00     0.044 A 
ATOM     63  C   UNL A   1      33.007  22.588  25.592  1.00  0.00     0.018 A 
ATOM     64  C   UNL A   1      33.135  21.296  23.538  1.00  0.00     0.070 A 
ATOM     65  C   UNL A   1      32.897  21.419  26.338  1.00  0.00     0.057 A 
ATOM     66  C   UNL A   1      32.976  20.119  24.272  1.00  0.00     0.173 A 
ATOM     67  C   UNL A   1      32.918  20.181  25.695  1.00  0.00     0.172 A 
ATOM     68  N   UNL A   1      32.958  18.871  23.622  1.00  0.00    -0.229 N 
ATOM     69  N   UNL A   1      32.891  18.997  26.453  1.00  0.00    -0.229 N 
ATOM     70  C   UNL A   1      32.956  17.703  24.334  1.00  0.00     0.383 C 
ATOM     71  H   UNL A   1      32.948  18.838  22.638  1.00  0.00     0.313 HD
ATOM     72  C   UNL A   1      32.940  17.772  25.851  1.00  0.00     0.383 C 
ATOM     73  H   UNL A   1      32.837  19.052  27.434  1.00  0.00     0.313 HD
ATOM     74  N   UNL A   1      32.975  16.496  23.896  1.00  0.00    -0.122 N 
ATOM     75  N   UNL A   1      32.973  16.614  26.403  1.00  0.00    -0.122 N 
ATOM     76  S   UNL A   1      33.014  15.506  25.200  1.00  0.00     0.469 S 
ATOM     77  H   UNL A   1      32.969  16.217  22.951  1.00  0.00     0.331 HD
ATOM     78  H   UNL A   1      32.975  16.427  27.371  1.00  0.00     0.331 HD
ATOM     79  O   UNL A   1      31.795  14.742  25.239  1.00  0.00    -0.143 OA
ATOM     80  O   UNL A   1      34.314  14.857  25.231  1.00  0.00    -0.143 OA
ENDBRANCH  59  62
ENDBRANCH  57  58
ENDBRANCH  56  57
ENDBRANCH   1  56
TORSDOF 10
ENDMDL
