MODEL 1
REMARK VINA RESULT:      -9.0      0.000      0.000
REMARK SMILES CC(C)Cc1ccc([C@@H](C)C(=O)NCCCNC(=O)c2ccc(-c3c4nc(c(-c5ccccc5)c5ccc([nH]5)c(-c5ccccc5)c5nc(c(-c6ccccc6)c6ccc3[nH]6)C=C5)C=C4)cc2)cc1
REMARK SMILES IDX 14 1 13 2 11 3 12 4 9 6 10 7 8 8 5 9 6 10 69 11 7 12 68 13
REMARK SMILES IDX 4 14 2 15 1 16 3 17 15 18 16 19 17 20 18 21 19 23 20 24
REMARK SMILES IDX 21 25 67 26 22 27 66 28 23 29 24 30 25 31 60 32 26 33 65 34
REMARK SMILES IDX 59 35 61 36 27 37 64 38 58 39 57 40 28 42 50 43 35 44 49 45
REMARK SMILES IDX 36 46 39 47 48 48 62 49 37 50 38 51 47 53 63 54 40 55 29 56
REMARK SMILES IDX 30 57 34 58 31 59 33 60 32 61 51 62 52 63 56 64 53 65 55 66
REMARK SMILES IDX 54 67 41 68 42 69 46 70 43 71 45 72 44 73
REMARK H PARENT 13 5 17 22 61 41 39 52
REMARK Flexibility Score: inf
ROOT
ATOM      1  C   UNL A   1      34.086  35.466  29.081  1.00  0.00     0.117 C 
ENDROOT
BRANCH   1   2
ATOM      2  N   UNL A   1      34.059  35.653  30.519  1.00  0.00    -0.356 N 
ATOM      3  C   UNL A   1      34.514  34.874  31.540  1.00  0.00     0.227 C 
ATOM      4  O   UNL A   1      34.307  35.293  32.685  1.00  0.00    -0.274 OA
ATOM      5  H   UNL A   1      33.636  36.493  30.809  1.00  0.00     0.163 HD
BRANCH   3   6
ATOM      6  C   UNL A   1      35.246  33.539  31.330  1.00  0.00     0.105 C 
ATOM      7  C   UNL A   1      34.937  32.494  32.403  1.00  0.00     0.023 C 
BRANCH   6   8
ATOM      8  C   UNL A   1      36.705  33.733  30.950  1.00  0.00    -0.036 A 
ATOM      9  C   UNL A   1      39.321  34.301  30.036  1.00  0.00    -0.048 A 
ATOM     10  C   UNL A   1      38.948  34.577  31.357  1.00  0.00     0.004 A 
ATOM     11  C   UNL A   1      38.398  33.679  29.192  1.00  0.00     0.004 A 
ATOM     12  C   UNL A   1      37.659  34.284  31.812  1.00  0.00     0.005 A 
ATOM     13  C   UNL A   1      37.105  33.405  29.642  1.00  0.00     0.005 A 
BRANCH   9  14
ATOM     14  C   UNL A   1      40.672  34.727  29.515  1.00  0.00     0.038 C 
BRANCH  14  15
ATOM     15  C   UNL A   1      41.844  34.247  30.399  1.00  0.00    -0.013 C 
ATOM     16  C   UNL A   1      42.493  32.962  29.873  1.00  0.00     0.008 C 
ATOM     17  C   UNL A   1      42.902  35.349  30.497  1.00  0.00     0.008 C 
ENDBRANCH  14  15
ENDBRANCH   9  14
ENDBRANCH   6   8
ENDBRANCH   3   6
ENDBRANCH   1   2
BRANCH   1  18
ATOM     18  C   UNL A   1      33.407  34.173  28.637  1.00  0.00     0.042 C 
BRANCH  18  19
ATOM     19  C   UNL A   1      34.352  33.143  28.025  1.00  0.00     0.118 C 
BRANCH  19  20
ATOM     20  N   UNL A   1      33.663  31.925  27.620  1.00  0.00    -0.352 N 
ATOM     21  C   UNL A   1      34.102  30.630  27.503  1.00  0.00     0.251 C 
ATOM     22  H   UNL A   1      32.715  32.054  27.391  1.00  0.00     0.163 HD
ATOM     23  O   UNL A   1      33.371  29.808  26.954  1.00  0.00    -0.269 OA
BRANCH  21  24
ATOM     24  C   UNL A   1      35.427  30.198  28.008  1.00  0.00     0.039 A 
ATOM     25  C   UNL A   1      35.510  29.718  29.320  1.00  0.00     0.014 A 
ATOM     26  C   UNL A   1      36.594  30.329  27.251  1.00  0.00     0.014 A 
ATOM     27  C   UNL A   1      36.743  29.327  29.852  1.00  0.00     0.010 A 
ATOM     28  C   UNL A   1      37.814  29.873  27.755  1.00  0.00     0.010 A 
ATOM     29  C   UNL A   1      37.903  29.375  29.063  1.00  0.00    -0.014 A 
BRANCH  29  30
ATOM     30  C   UNL A   1      39.207  28.907  29.600  1.00  0.00     0.031 A 
ATOM     31  C   UNL A   1      39.885  29.639  30.726  1.00  0.00     0.074 A 
ATOM     32  C   UNL A   1      39.805  27.835  29.044  1.00  0.00     0.049 A 
ATOM     33  N   UNL A   1      41.028  29.379  31.310  1.00  0.00    -0.248 NA
ATOM     34  C   UNL A   1      39.201  30.831  31.252  1.00  0.00     0.031 C 
ATOM     35  C   UNL A   1      39.278  27.059  27.919  1.00  0.00     0.029 A 
ATOM     36  N   UNL A   1      40.989  27.212  29.351  1.00  0.00    -0.354 N 
ATOM     37  C   UNL A   1      41.209  30.380  32.256  1.00  0.00     0.074 A 
ATOM     38  C   UNL A   1      40.077  31.275  32.142  1.00  0.00     0.031 C 
ATOM     39  C   UNL A   1      40.119  26.047  27.651  1.00  0.00     0.029 A 
ATOM     40  C   UNL A   1      41.258  26.121  28.561  1.00  0.00     0.049 A 
ATOM     41  H   UNL A   1      41.589  27.518  30.070  1.00  0.00     0.167 HD
ATOM     42  C   UNL A   1      42.215  30.533  33.151  1.00  0.00     0.031 A 
ATOM     43  C   UNL A   1      42.302  25.272  28.568  1.00  0.00     0.031 A 
ATOM     44  C   UNL A   1      43.334  29.638  33.280  1.00  0.00     0.049 A 
ATOM     45  C   UNL A   1      43.398  25.458  29.577  1.00  0.00     0.074 A 
ATOM     46  C   UNL A   1      44.371  29.679  34.197  1.00  0.00     0.029 A 
ATOM     47  N   UNL A   1      43.562  28.540  32.467  1.00  0.00    -0.354 N 
ATOM     48  N   UNL A   1      43.518  26.372  30.508  1.00  0.00    -0.248 NA
ATOM     49  C   UNL A   1      44.500  24.484  29.542  1.00  0.00     0.031 C 
ATOM     50  C   UNL A   1      45.250  28.628  33.911  1.00  0.00     0.029 A 
ATOM     51  C   UNL A   1      44.735  27.907  32.847  1.00  0.00     0.049 A 
ATOM     52  H   UNL A   1      42.978  28.252  31.729  1.00  0.00     0.167 HD
ATOM     53  C   UNL A   1      44.694  26.073  31.183  1.00  0.00     0.074 A 
ATOM     54  C   UNL A   1      45.240  24.881  30.567  1.00  0.00     0.031 C 
ATOM     55  C   UNL A   1      45.271  26.729  32.219  1.00  0.00     0.031 A 
BRANCH  42  56
ATOM     56  C   UNL A   1      42.151  31.726  34.065  1.00  0.00    -0.014 A 
ATOM     57  C   UNL A   1      41.559  31.637  35.335  1.00  0.00     0.009 A 
ATOM     58  C   UNL A   1      42.727  32.942  33.667  1.00  0.00     0.009 A 
ATOM     59  C   UNL A   1      41.514  32.752  36.175  1.00  0.00     0.001 A 
ATOM     60  C   UNL A   1      42.703  34.049  34.519  1.00  0.00     0.001 A 
ATOM     61  C   UNL A   1      42.090  33.955  35.768  1.00  0.00     0.000 A 
ENDBRANCH  42  56
BRANCH  43  62
ATOM     62  C   UNL A   1      42.351  24.150  27.597  1.00  0.00    -0.014 A 
ATOM     63  C   UNL A   1      42.925  24.332  26.329  1.00  0.00     0.009 A 
ATOM     64  C   UNL A   1      41.821  22.894  27.930  1.00  0.00     0.009 A 
ATOM     65  C   UNL A   1      42.944  23.285  25.405  1.00  0.00     0.001 A 
ATOM     66  C   UNL A   1      41.866  21.842  27.012  1.00  0.00     0.001 A 
ATOM     67  C   UNL A   1      42.419  22.040  25.748  1.00  0.00     0.000 A 
ENDBRANCH  43  62
BRANCH  55  68
ATOM     68  C   UNL A   1      46.548  26.154  32.760  1.00  0.00    -0.014 A 
ATOM     69  C   UNL A   1      47.797  26.577  32.276  1.00  0.00     0.009 A 
ATOM     70  C   UNL A   1      46.503  25.194  33.783  1.00  0.00     0.009 A 
ATOM     71  C   UNL A   1      48.973  26.018  32.780  1.00  0.00     0.001 A 
ATOM     72  C   UNL A   1      47.682  24.658  34.302  1.00  0.00     0.001 A 
ATOM     73  C   UNL A   1      48.916  25.063  33.794  1.00  0.00     0.000 A 
ENDBRANCH  55  68
ENDBRANCH  29  30
ENDBRANCH  21  24
ENDBRANCH  19  20
ENDBRANCH  18  19
ENDBRANCH   1  18
TORSDOF 13
ENDMDL
MODEL 2
REMARK VINA RESULT:      -9.0      3.624      6.713
REMARK SMILES CC(C)Cc1ccc([C@@H](C)C(=O)NCCCNC(=O)c2ccc(-c3c4nc(c(-c5ccccc5)c5ccc([nH]5)c(-c5ccccc5)c5nc(c(-c6ccccc6)c6ccc3[nH]6)C=C5)C=C4)cc2)cc1
REMARK SMILES IDX 14 1 13 2 11 3 12 4 9 6 10 7 8 8 5 9 6 10 69 11 7 12 68 13
REMARK SMILES IDX 4 14 2 15 1 16 3 17 15 18 16 19 17 20 18 21 19 23 20 24
REMARK SMILES IDX 21 25 67 26 22 27 66 28 23 29 24 30 25 31 60 32 26 33 65 34
REMARK SMILES IDX 59 35 61 36 27 37 64 38 58 39 57 40 28 42 50 43 35 44 49 45
REMARK SMILES IDX 36 46 39 47 48 48 62 49 37 50 38 51 47 53 63 54 40 55 29 56
REMARK SMILES IDX 30 57 34 58 31 59 33 60 32 61 51 62 52 63 56 64 53 65 55 66
REMARK SMILES IDX 54 67 41 68 42 69 46 70 43 71 45 72 44 73
REMARK H PARENT 13 5 17 22 61 41 39 52
REMARK Flexibility Score: inf
ROOT
ATOM      1  C   UNL A   1      31.569  27.211  26.336  1.00  0.00     0.117 C 
ENDROOT
BRANCH   1   2
ATOM      2  N   UNL A   1      30.852  26.016  26.736  1.00  0.00    -0.356 N 
ATOM      3  C   UNL A   1      30.738  24.792  26.149  1.00  0.00     0.227 C 
ATOM      4  O   UNL A   1      30.011  23.973  26.723  1.00  0.00    -0.274 OA
ATOM      5  H   UNL A   1      30.359  26.106  27.582  1.00  0.00     0.163 HD
BRANCH   3   6
ATOM      6  C   UNL A   1      31.452  24.404  24.844  1.00  0.00     0.105 C 
ATOM      7  C   UNL A   1      30.499  24.130  23.680  1.00  0.00     0.023 C 
BRANCH   6   8
ATOM      8  C   UNL A   1      32.574  23.404  25.074  1.00  0.00    -0.036 A 
ATOM      9  C   UNL A   1      34.763  21.620  25.220  1.00  0.00    -0.048 A 
ATOM     10  C   UNL A   1      34.659  22.699  26.106  1.00  0.00     0.004 A 
ATOM     11  C   UNL A   1      33.734  21.400  24.302  1.00  0.00     0.004 A 
ATOM     12  C   UNL A   1      33.569  23.573  26.043  1.00  0.00     0.005 A 
ATOM     13  C   UNL A   1      32.656  22.285  24.227  1.00  0.00     0.005 A 
BRANCH   9  14
ATOM     14  C   UNL A   1      35.997  20.751  25.214  1.00  0.00     0.038 C 
BRANCH  14  15
ATOM     15  C   UNL A   1      37.222  21.435  24.570  1.00  0.00    -0.013 C 
ATOM     16  C   UNL A   1      36.830  22.523  23.563  1.00  0.00     0.008 C 
ATOM     17  C   UNL A   1      38.107  22.044  25.659  1.00  0.00     0.008 C 
ENDBRANCH  14  15
ENDBRANCH   9  14
ENDBRANCH   6   8
ENDBRANCH   3   6
ENDBRANCH   1   2
BRANCH   1  18
ATOM     18  C   UNL A   1      31.981  28.082  27.520  1.00  0.00     0.042 C 
BRANCH  18  19
ATOM     19  C   UNL A   1      33.405  28.624  27.440  1.00  0.00     0.118 C 
BRANCH  19  20
ATOM     20  N   UNL A   1      33.464  30.066  27.637  1.00  0.00    -0.352 N 
ATOM     21  C   UNL A   1      34.447  30.872  28.157  1.00  0.00     0.251 C 
ATOM     22  H   UNL A   1      32.658  30.549  27.343  1.00  0.00     0.163 HD
ATOM     23  O   UNL A   1      34.179  32.048  28.396  1.00  0.00    -0.269 OA
BRANCH  21  24
ATOM     24  C   UNL A   1      35.809  30.366  28.448  1.00  0.00     0.039 A 
ATOM     25  C   UNL A   1      36.761  30.404  27.422  1.00  0.00     0.014 A 
ATOM     26  C   UNL A   1      36.145  29.785  29.674  1.00  0.00     0.014 A 
ATOM     27  C   UNL A   1      38.051  29.910  27.639  1.00  0.00     0.010 A 
ATOM     28  C   UNL A   1      37.452  29.357  29.914  1.00  0.00     0.010 A 
ATOM     29  C   UNL A   1      38.417  29.406  28.897  1.00  0.00    -0.014 A 
BRANCH  29  30
ATOM     30  C   UNL A   1      39.802  28.934  29.153  1.00  0.00     0.031 A 
ATOM     31  C   UNL A   1      40.809  29.828  29.826  1.00  0.00     0.074 A 
ATOM     32  C   UNL A   1      40.169  27.704  28.745  1.00  0.00     0.049 A 
ATOM     33  N   UNL A   1      42.062  29.586  30.118  1.00  0.00    -0.248 NA
ATOM     34  C   UNL A   1      40.356  31.177  30.200  1.00  0.00     0.031 C 
ATOM     35  C   UNL A   1      39.304  26.751  28.043  1.00  0.00     0.029 A 
ATOM     36  N   UNL A   1      41.366  27.042  28.861  1.00  0.00    -0.354 N 
ATOM     37  C   UNL A   1      42.551  30.752  30.692  1.00  0.00     0.074 A 
ATOM     38  C   UNL A   1      41.472  31.716  30.671  1.00  0.00     0.031 C 
ATOM     39  C   UNL A   1      39.990  25.619  27.820  1.00  0.00     0.029 A 
ATOM     40  C   UNL A   1      41.348  25.776  28.331  1.00  0.00     0.049 A 
ATOM     41  H   UNL A   1      42.162  27.439  29.285  1.00  0.00     0.167 HD
ATOM     42  C   UNL A   1      43.781  30.997  31.206  1.00  0.00     0.031 A 
ATOM     43  C   UNL A   1      42.315  24.842  28.264  1.00  0.00     0.031 A 
ATOM     44  C   UNL A   1      44.854  30.038  31.244  1.00  0.00     0.049 A 
ATOM     45  C   UNL A   1      43.666  25.135  28.851  1.00  0.00     0.074 A 
ATOM     46  C   UNL A   1      46.115  30.177  31.798  1.00  0.00     0.029 A 
ATOM     47  N   UNL A   1      44.791  28.764  30.705  1.00  0.00    -0.354 N 
ATOM     48  N   UNL A   1      44.089  26.220  29.450  1.00  0.00    -0.248 NA
ATOM     49  C   UNL A   1      44.670  24.064  28.761  1.00  0.00     0.031 C 
ATOM     50  C   UNL A   1      46.831  28.998  31.557  1.00  0.00     0.029 A 
ATOM     51  C   UNL A   1      45.998  28.111  30.895  1.00  0.00     0.049 A 
ATOM     52  H   UNL A   1      44.005  28.379  30.254  1.00  0.00     0.167 HD
ATOM     53  C   UNL A   1      45.399  25.958  29.827  1.00  0.00     0.074 A 
ATOM     54  C   UNL A   1      45.694  24.603  29.407  1.00  0.00     0.031 C 
ATOM     55  C   UNL A   1      46.280  26.768  30.463  1.00  0.00     0.031 A 
BRANCH  42  56
ATOM     56  C   UNL A   1      44.035  32.368  31.769  1.00  0.00    -0.014 A 
ATOM     57  C   UNL A   1      43.790  32.655  33.121  1.00  0.00     0.009 A 
ATOM     58  C   UNL A   1      44.565  33.374  30.946  1.00  0.00     0.009 A 
ATOM     59  C   UNL A   1      44.038  33.931  33.631  1.00  0.00     0.001 A 
ATOM     60  C   UNL A   1      44.835  34.643  31.464  1.00  0.00     0.001 A 
ATOM     61  C   UNL A   1      44.564  34.923  32.803  1.00  0.00     0.000 A 
ENDBRANCH  42  56
BRANCH  43  62
ATOM     62  C   UNL A   1      42.034  23.527  27.634  1.00  0.00    -0.014 A 
ATOM     63  C   UNL A   1      41.459  22.488  28.383  1.00  0.00     0.009 A 
ATOM     64  C   UNL A   1      42.342  23.301  26.284  1.00  0.00     0.009 A 
ATOM     65  C   UNL A   1      41.221  21.243  27.799  1.00  0.00     0.001 A 
ATOM     66  C   UNL A   1      42.078  22.062  25.696  1.00  0.00     0.001 A 
ATOM     67  C   UNL A   1      41.527  21.032  26.455  1.00  0.00     0.000 A 
ENDBRANCH  43  62
BRANCH  55  68
ATOM     68  C   UNL A   1      47.638  26.197  30.759  1.00  0.00    -0.014 A 
ATOM     69  C   UNL A   1      47.956  25.705  32.035  1.00  0.00     0.009 A 
ATOM     70  C   UNL A   1      48.603  26.131  29.742  1.00  0.00     0.009 A 
ATOM     71  C   UNL A   1      49.229  25.194  32.295  1.00  0.00     0.001 A 
ATOM     72  C   UNL A   1      49.866  25.596  30.000  1.00  0.00     0.001 A 
ATOM     73  C   UNL A   1      50.180  25.136  31.278  1.00  0.00     0.000 A 
ENDBRANCH  55  68
ENDBRANCH  29  30
ENDBRANCH  21  24
ENDBRANCH  19  20
ENDBRANCH  18  19
ENDBRANCH   1  18
TORSDOF 13
ENDMDL
MODEL 3
REMARK VINA RESULT:      -8.9      4.119      7.685
REMARK SMILES CC(C)Cc1ccc([C@@H](C)C(=O)NCCCNC(=O)c2ccc(-c3c4nc(c(-c5ccccc5)c5ccc([nH]5)c(-c5ccccc5)c5nc(c(-c6ccccc6)c6ccc3[nH]6)C=C5)C=C4)cc2)cc1
REMARK SMILES IDX 14 1 13 2 11 3 12 4 9 6 10 7 8 8 5 9 6 10 69 11 7 12 68 13
REMARK SMILES IDX 4 14 2 15 1 16 3 17 15 18 16 19 17 20 18 21 19 23 20 24
REMARK SMILES IDX 21 25 67 26 22 27 66 28 23 29 24 30 25 31 60 32 26 33 65 34
REMARK SMILES IDX 59 35 61 36 27 37 64 38 58 39 57 40 28 42 50 43 35 44 49 45
REMARK SMILES IDX 36 46 39 47 48 48 62 49 37 50 38 51 47 53 63 54 40 55 29 56
REMARK SMILES IDX 30 57 34 58 31 59 33 60 32 61 51 62 52 63 56 64 53 65 55 66
REMARK SMILES IDX 54 67 41 68 42 69 46 70 43 71 45 72 44 73
REMARK H PARENT 13 5 17 22 61 41 39 52
REMARK Flexibility Score: inf
ROOT
ATOM      1  C   UNL A   1      33.443  26.161  25.750  1.00  0.00     0.117 C 
ENDROOT
BRANCH   1   2
ATOM      2  N   UNL A   1      33.659  25.739  24.380  1.00  0.00    -0.356 N 
ATOM      3  C   UNL A   1      34.342  24.682  23.856  1.00  0.00     0.227 C 
ATOM      4  O   UNL A   1      34.378  24.608  22.623  1.00  0.00    -0.274 OA
ATOM      5  H   UNL A   1      33.236  26.319  23.707  1.00  0.00     0.163 HD
BRANCH   3   6
ATOM      6  C   UNL A   1      35.048  23.618  24.712  1.00  0.00     0.105 C 
ATOM      7  C   UNL A   1      36.574  23.691  24.648  1.00  0.00     0.023 C 
BRANCH   6   8
ATOM      8  C   UNL A   1      34.412  22.245  24.568  1.00  0.00    -0.036 A 
ATOM      9  C   UNL A   1      33.285  19.651  24.599  1.00  0.00    -0.048 A 
ATOM     10  C   UNL A   1      32.497  20.770  24.308  1.00  0.00     0.004 A 
ATOM     11  C   UNL A   1      34.655  19.829  24.811  1.00  0.00     0.004 A 
ATOM     12  C   UNL A   1      33.056  22.051  24.279  1.00  0.00     0.005 A 
ATOM     13  C   UNL A   1      35.208  21.110  24.801  1.00  0.00     0.005 A 
BRANCH   9  14
ATOM     14  C   UNL A   1      32.656  18.287  24.747  1.00  0.00     0.038 C 
BRANCH  14  15
ATOM     15  C   UNL A   1      32.665  17.467  23.438  1.00  0.00    -0.013 C 
ATOM     16  C   UNL A   1      32.458  18.338  22.194  1.00  0.00     0.008 C 
ATOM     17  C   UNL A   1      33.986  16.706  23.313  1.00  0.00     0.008 C 
ENDBRANCH  14  15
ENDBRANCH   9  14
ENDBRANCH   6   8
ENDBRANCH   3   6
ENDBRANCH   1   2
BRANCH   1  18
ATOM     18  C   UNL A   1      33.799  27.627  25.984  1.00  0.00     0.042 C 
BRANCH  18  19
ATOM     19  C   UNL A   1      33.264  28.205  27.290  1.00  0.00     0.118 C 
BRANCH  19  20
ATOM     20  N   UNL A   1      33.291  29.661  27.308  1.00  0.00    -0.352 N 
ATOM     21  C   UNL A   1      34.244  30.547  27.746  1.00  0.00     0.251 C 
ATOM     22  H   UNL A   1      32.483  30.086  26.940  1.00  0.00     0.163 HD
ATOM     23  O   UNL A   1      33.948  31.737  27.830  1.00  0.00    -0.269 OA
BRANCH  21  24
ATOM     24  C   UNL A   1      35.609  30.111  28.127  1.00  0.00     0.039 A 
ATOM     25  C   UNL A   1      35.825  29.694  29.446  1.00  0.00     0.014 A 
ATOM     26  C   UNL A   1      36.690  30.180  27.243  1.00  0.00     0.014 A 
ATOM     27  C   UNL A   1      37.102  29.303  29.861  1.00  0.00     0.010 A 
ATOM     28  C   UNL A   1      37.949  29.722  27.637  1.00  0.00     0.010 A 
ATOM     29  C   UNL A   1      38.171  29.288  28.952  1.00  0.00    -0.014 A 
BRANCH  29  30
ATOM     30  C   UNL A   1      39.517  28.818  29.369  1.00  0.00     0.031 A 
ATOM     31  C   UNL A   1      40.385  29.660  30.264  1.00  0.00     0.074 A 
ATOM     32  C   UNL A   1      39.979  27.639  28.909  1.00  0.00     0.049 A 
ATOM     33  N   UNL A   1      41.588  29.414  30.717  1.00  0.00    -0.248 NA
ATOM     34  C   UNL A   1      39.839  30.959  30.689  1.00  0.00     0.031 C 
ATOM     35  C   UNL A   1      39.259  26.742  28.000  1.00  0.00     0.029 A 
ATOM     36  N   UNL A   1      41.166  26.991  29.141  1.00  0.00    -0.354 N 
ATOM     37  C   UNL A   1      41.950  30.529  31.462  1.00  0.00     0.074 A 
ATOM     38  C   UNL A   1      40.855  31.470  31.369  1.00  0.00     0.031 C 
ATOM     39  C   UNL A   1      40.006  25.649  27.779  1.00  0.00     0.029 A 
ATOM     40  C   UNL A   1      41.268  25.781  28.500  1.00  0.00     0.049 A 
ATOM     41  H   UNL A   1      41.879  27.359  29.714  1.00  0.00     0.167 HD
ATOM     42  C   UNL A   1      43.082  30.745  32.176  1.00  0.00     0.031 A 
ATOM     43  C   UNL A   1      42.264  24.875  28.493  1.00  0.00     0.031 A 
ATOM     44  C   UNL A   1      44.167  29.807  32.285  1.00  0.00     0.049 A 
ATOM     45  C   UNL A   1      43.503  25.134  29.300  1.00  0.00     0.074 A 
ATOM     46  C   UNL A   1      45.328  29.914  33.033  1.00  0.00     0.029 A 
ATOM     47  N   UNL A   1      44.225  28.589  31.628  1.00  0.00    -0.354 N 
ATOM     48  N   UNL A   1      43.798  26.164  30.053  1.00  0.00    -0.248 NA
ATOM     49  C   UNL A   1      44.543  24.095  29.264  1.00  0.00     0.031 C 
ATOM     50  C   UNL A   1      46.109  28.776  32.794  1.00  0.00     0.029 A 
ATOM     51  C   UNL A   1      45.412  27.942  31.936  1.00  0.00     0.049 A 
ATOM     52  H   UNL A   1      43.527  28.234  31.031  1.00  0.00     0.167 HD
ATOM     53  C   UNL A   1      45.046  25.891  30.597  1.00  0.00     0.074 A 
ATOM     54  C   UNL A   1      45.443  24.588  30.103  1.00  0.00     0.031 C 
ATOM     55  C   UNL A   1      45.797  26.652  31.429  1.00  0.00     0.031 A 
BRANCH  42  56
ATOM     56  C   UNL A   1      43.206  32.061  32.894  1.00  0.00    -0.014 A 
ATOM     57  C   UNL A   1      43.778  33.179  32.268  1.00  0.00     0.009 A 
ATOM     58  C   UNL A   1      42.709  32.193  34.200  1.00  0.00     0.009 A 
ATOM     59  C   UNL A   1      43.880  34.396  32.946  1.00  0.00     0.001 A 
ATOM     60  C   UNL A   1      42.789  33.417  34.867  1.00  0.00     0.001 A 
ATOM     61  C   UNL A   1      43.381  34.514  34.244  1.00  0.00     0.000 A 
ENDBRANCH  42  56
BRANCH  43  62
ATOM     62  C   UNL A   1      42.120  23.621  27.710  1.00  0.00    -0.014 A 
ATOM     63  C   UNL A   1      41.541  22.483  28.290  1.00  0.00     0.009 A 
ATOM     64  C   UNL A   1      42.566  23.555  26.381  1.00  0.00     0.009 A 
ATOM     65  C   UNL A   1      41.432  21.296  27.564  1.00  0.00     0.001 A 
ATOM     66  C   UNL A   1      42.431  22.374  25.648  1.00  0.00     0.001 A 
ATOM     67  C   UNL A   1      41.874  21.243  26.242  1.00  0.00     0.000 A 
ENDBRANCH  43  62
BRANCH  55  68
ATOM     68  C   UNL A   1      47.113  26.080  31.871  1.00  0.00    -0.014 A 
ATOM     69  C   UNL A   1      48.273  26.247  31.098  1.00  0.00     0.009 A 
ATOM     70  C   UNL A   1      47.198  25.384  33.087  1.00  0.00     0.009 A 
ATOM     71  C   UNL A   1      49.485  25.693  31.517  1.00  0.00     0.001 A 
ATOM     72  C   UNL A   1      48.417  24.854  33.515  1.00  0.00     0.001 A 
ATOM     73  C   UNL A   1      49.557  25.001  32.725  1.00  0.00     0.000 A 
ENDBRANCH  55  68
ENDBRANCH  29  30
ENDBRANCH  21  24
ENDBRANCH  19  20
ENDBRANCH  18  19
ENDBRANCH   1  18
TORSDOF 13
ENDMDL
