MODEL 1
REMARK VINA RESULT:     -12.3      0.000      0.000
REMARK SMILES CC[C@H]1CCCCN1S(=O)(=O)c1ccc2oc(C(=O)NCCCNC(=O)c3ccc(-c4c5nc(c(-c6ccccc6)c6ccc([nH]6)c(-c6ccccc6)c6nc(c(-c7ccccc7)c7ccc4[nH]7)C=C6)C=C5)cc3)c(C)c2c1
REMARK SMILES IDX 21 1 20 2 18 3 19 4 17 6 12 7 13 8 78 9 14 10 77 11 15 12
REMARK SMILES IDX 75 13 16 14 76 15 9 16 10 17 11 18 8 19 3 20 4 21 5 22 7 23
REMARK SMILES IDX 6 24 2 25 1 26 22 27 23 28 24 29 25 30 26 32 27 33 28 34
REMARK SMILES IDX 74 35 29 36 73 37 30 38 31 39 32 40 67 41 33 42 72 43 66 44
REMARK SMILES IDX 68 45 34 46 71 47 65 48 64 49 35 51 57 52 42 53 56 54 43 55
REMARK SMILES IDX 46 56 55 57 69 58 44 59 45 60 54 62 70 63 47 64 36 65 37 66
REMARK SMILES IDX 41 67 38 68 40 69 39 70 58 71 59 72 63 73 60 74 62 75 61 76
REMARK SMILES IDX 48 77 49 78 53 79 50 80 52 81 51 82
REMARK H PARENT 20 5 24 31 68 50 46 61
REMARK Flexibility Score: inf
ROOT
ATOM      1  C   UNL A   1      36.446  20.058  24.975  1.00  0.00     0.118 C 
ENDROOT
BRANCH   1   2
ATOM      2  N   UNL A   1      35.481  18.994  24.897  1.00  0.00    -0.349 N 
ATOM      3  C   UNL A   1      34.101  19.061  24.812  1.00  0.00     0.287 C 
ATOM      4  O   UNL A   1      33.536  17.967  24.724  1.00  0.00    -0.266 OA
ATOM      5  H   UNL A   1      35.856  18.084  24.905  1.00  0.00     0.163 HD
BRANCH   3   6
ATOM      6  C   UNL A   1      33.365  20.323  24.878  1.00  0.00     0.195 A 
ATOM      7  C   UNL A   1      30.867  24.143  24.848  1.00  0.00     0.083 A 
ATOM      8  C   UNL A   1      30.924  23.915  23.468  1.00  0.00     0.025 A 
ATOM      9  C   UNL A   1      31.330  23.187  25.750  1.00  0.00     0.034 A 
ATOM     10  C   UNL A   1      31.504  22.731  22.962  1.00  0.00     0.049 A 
ATOM     11  C   UNL A   1      32.105  22.144  25.253  1.00  0.00     0.025 A 
ATOM     12  C   UNL A   1      32.114  21.893  23.899  1.00  0.00     0.135 A 
ATOM     13  C   UNL A   1      33.087  21.302  25.834  1.00  0.00     0.008 A 
ATOM     14  O   UNL A   1      32.810  20.746  23.673  1.00  0.00    -0.451 OA
ATOM     15  C   UNL A   1      33.656  21.616  27.177  1.00  0.00     0.049 C 
BRANCH   7  16
ATOM     16  S   UNL A   1      30.185  25.615  25.575  1.00  0.00     0.243 S 
ATOM     17  O   UNL A   1      29.465  25.167  26.748  1.00  0.00    -0.207 OA
ATOM     18  O   UNL A   1      29.515  26.354  24.525  1.00  0.00    -0.207 OA
BRANCH  16  19
ATOM     19  N   UNL A   1      31.540  26.565  26.094  1.00  0.00    -0.195 NA
ATOM     20  C   UNL A   1      32.718  26.547  25.147  1.00  0.00     0.073 C 
ATOM     21  C   UNL A   1      33.970  27.068  25.875  1.00  0.00     0.020 C 
ATOM     22  C   UNL A   1      33.787  28.404  26.589  1.00  0.00     0.003 C 
ATOM     23  C   UNL A   1      31.304  27.904  26.680  1.00  0.00     0.103 C 
ATOM     24  C   UNL A   1      32.530  28.405  27.434  1.00  0.00     0.017 C 
BRANCH  20  25
ATOM     25  C   UNL A   1      32.457  27.184  23.760  1.00  0.00     0.017 C 
ATOM     26  C   UNL A   1      33.417  26.893  22.615  1.00  0.00     0.005 C 
ENDBRANCH  20  25
ENDBRANCH  16  19
ENDBRANCH   7  16
ENDBRANCH   3   6
ENDBRANCH   1   2
BRANCH   1  27
ATOM     27  C   UNL A   1      37.881  19.702  24.662  1.00  0.00     0.042 C 
BRANCH  27  28
ATOM     28  C   UNL A   1      38.890  20.165  25.690  1.00  0.00     0.118 C 
BRANCH  28  29
ATOM     29  N   UNL A   1      40.068  19.307  25.778  1.00  0.00    -0.352 N 
ATOM     30  C   UNL A   1      41.379  19.565  26.109  1.00  0.00     0.251 C 
ATOM     31  H   UNL A   1      39.891  18.364  25.557  1.00  0.00     0.163 HD
ATOM     32  O   UNL A   1      42.216  18.679  25.958  1.00  0.00    -0.269 OA
BRANCH  30  33
ATOM     33  C   UNL A   1      41.806  20.892  26.609  1.00  0.00     0.039 A 
ATOM     34  C   UNL A   1      42.238  21.863  25.698  1.00  0.00     0.014 A 
ATOM     35  C   UNL A   1      41.810  21.190  27.969  1.00  0.00     0.014 A 
ATOM     36  C   UNL A   1      42.576  23.144  26.146  1.00  0.00     0.010 A 
ATOM     37  C   UNL A   1      42.002  22.496  28.397  1.00  0.00     0.010 A 
ATOM     38  C   UNL A   1      42.411  23.486  27.496  1.00  0.00    -0.014 A 
BRANCH  38  39
ATOM     39  C   UNL A   1      42.692  24.850  28.013  1.00  0.00     0.031 A 
ATOM     40  C   UNL A   1      44.095  25.223  28.421  1.00  0.00     0.074 A 
ATOM     41  C   UNL A   1      41.682  25.719  28.207  1.00  0.00     0.049 A 
ATOM     42  N   UNL A   1      44.525  26.311  29.009  1.00  0.00    -0.248 NA
ATOM     43  C   UNL A   1      45.145  24.219  28.178  1.00  0.00     0.031 C 
ATOM     44  C   UNL A   1      40.271  25.469  27.904  1.00  0.00     0.029 A 
ATOM     45  N   UNL A   1      41.688  26.993  28.718  1.00  0.00    -0.354 N 
ATOM     46  C   UNL A   1      45.879  26.101  29.239  1.00  0.00     0.074 A 
ATOM     47  C   UNL A   1      46.185  24.763  28.789  1.00  0.00     0.031 C 
ATOM     48  C   UNL A   1      39.556  26.569  28.194  1.00  0.00     0.029 A 
ATOM     49  C   UNL A   1      40.448  27.581  28.747  1.00  0.00     0.049 A 
ATOM     50  H   UNL A   1      42.506  27.443  29.033  1.00  0.00     0.167 HD
ATOM     51  C   UNL A   1      46.797  26.953  29.754  1.00  0.00     0.031 A 
ATOM     52  C   UNL A   1      40.071  28.802  29.171  1.00  0.00     0.031 A 
ATOM     53  C   UNL A   1      46.503  28.298  30.166  1.00  0.00     0.049 A 
ATOM     54  C   UNL A   1      41.107  29.740  29.722  1.00  0.00     0.074 A 
ATOM     55  C   UNL A   1      47.371  29.269  30.631  1.00  0.00     0.029 A 
ATOM     56  N   UNL A   1      45.236  28.863  30.153  1.00  0.00    -0.354 N 
ATOM     57  N   UNL A   1      42.394  29.550  29.877  1.00  0.00    -0.248 NA
ATOM     58  C   UNL A   1      40.637  31.065  30.148  1.00  0.00     0.031 C 
ATOM     59  C   UNL A   1      46.622  30.411  30.940  1.00  0.00     0.029 A 
ATOM     60  C   UNL A   1      45.296  30.165  30.619  1.00  0.00     0.049 A 
ATOM     61  H   UNL A   1      44.417  28.406  29.858  1.00  0.00     0.167 HD
ATOM     62  C   UNL A   1      42.894  30.739  30.390  1.00  0.00     0.074 A 
ATOM     63  C   UNL A   1      41.771  31.648  30.509  1.00  0.00     0.031 C 
ATOM     64  C   UNL A   1      44.169  31.052  30.729  1.00  0.00     0.031 A 
BRANCH  51  65
ATOM     65  C   UNL A   1      48.206  26.444  29.894  1.00  0.00    -0.014 A 
ATOM     66  C   UNL A   1      49.138  26.579  28.852  1.00  0.00     0.009 A 
ATOM     67  C   UNL A   1      48.607  25.816  31.083  1.00  0.00     0.009 A 
ATOM     68  C   UNL A   1      50.423  26.049  28.977  1.00  0.00     0.001 A 
ATOM     69  C   UNL A   1      49.904  25.317  31.218  1.00  0.00     0.001 A 
ATOM     70  C   UNL A   1      50.807  25.421  30.161  1.00  0.00     0.000 A 
ENDBRANCH  51  65
BRANCH  52  71
ATOM     71  C   UNL A   1      38.651  29.222  29.051  1.00  0.00    -0.014 A 
ATOM     72  C   UNL A   1      38.173  29.750  27.842  1.00  0.00     0.009 A 
ATOM     73  C   UNL A   1      37.764  29.084  30.129  1.00  0.00     0.009 A 
ATOM     74  C   UNL A   1      36.841  30.152  27.720  1.00  0.00     0.001 A 
ATOM     75  C   UNL A   1      36.425  29.462  29.997  1.00  0.00     0.001 A 
ATOM     76  C   UNL A   1      35.967  30.002  28.795  1.00  0.00     0.000 A 
ENDBRANCH  52  71
BRANCH  64  77
ATOM     77  C   UNL A   1      44.421  32.447  31.225  1.00  0.00    -0.014 A 
ATOM     78  C   UNL A   1      44.745  33.487  30.340  1.00  0.00     0.009 A 
ATOM     79  C   UNL A   1      44.287  32.731  32.593  1.00  0.00     0.009 A 
ATOM     80  C   UNL A   1      44.964  34.779  30.824  1.00  0.00     0.001 A 
ATOM     81  C   UNL A   1      44.478  34.028  33.069  1.00  0.00     0.001 A 
ATOM     82  C   UNL A   1      44.824  35.050  32.184  1.00  0.00     0.000 A 
ENDBRANCH  64  77
ENDBRANCH  38  39
ENDBRANCH  30  33
ENDBRANCH  28  29
ENDBRANCH  27  28
ENDBRANCH   1  27
TORSDOF 13
ENDMDL
MODEL 2
REMARK VINA RESULT:     -12.1      5.267     10.646
REMARK SMILES CC[C@H]1CCCCN1S(=O)(=O)c1ccc2oc(C(=O)NCCCNC(=O)c3ccc(-c4c5nc(c(-c6ccccc6)c6ccc([nH]6)c(-c6ccccc6)c6nc(c(-c7ccccc7)c7ccc4[nH]7)C=C6)C=C5)cc3)c(C)c2c1
REMARK SMILES IDX 21 1 20 2 18 3 19 4 17 6 12 7 13 8 78 9 14 10 77 11 15 12
REMARK SMILES IDX 75 13 16 14 76 15 9 16 10 17 11 18 8 19 3 20 4 21 5 22 7 23
REMARK SMILES IDX 6 24 2 25 1 26 22 27 23 28 24 29 25 30 26 32 27 33 28 34
REMARK SMILES IDX 74 35 29 36 73 37 30 38 31 39 32 40 67 41 33 42 72 43 66 44
REMARK SMILES IDX 68 45 34 46 71 47 65 48 64 49 35 51 57 52 42 53 56 54 43 55
REMARK SMILES IDX 46 56 55 57 69 58 44 59 45 60 54 62 70 63 47 64 36 65 37 66
REMARK SMILES IDX 41 67 38 68 40 69 39 70 58 71 59 72 63 73 60 74 62 75 61 76
REMARK SMILES IDX 48 77 49 78 53 79 50 80 52 81 51 82
REMARK H PARENT 20 5 24 31 68 50 46 61
REMARK Flexibility Score: inf
ROOT
ATOM      1  C   UNL A   1      34.150  34.507  27.837  1.00  0.00     0.118 C 
ENDROOT
BRANCH   1   2
ATOM      2  N   UNL A   1      35.478  34.123  28.238  1.00  0.00    -0.349 N 
ATOM      3  C   UNL A   1      36.079  32.876  28.214  1.00  0.00     0.287 C 
ATOM      4  O   UNL A   1      37.253  32.863  28.595  1.00  0.00    -0.266 OA
ATOM      5  H   UNL A   1      36.042  34.853  28.582  1.00  0.00     0.163 HD
BRANCH   3   6
ATOM      6  C   UNL A   1      35.366  31.662  27.822  1.00  0.00     0.195 A 
ATOM      7  C   UNL A   1      32.920  28.064  26.442  1.00  0.00     0.083 A 
ATOM      8  C   UNL A   1      31.866  28.915  26.793  1.00  0.00     0.025 A 
ATOM      9  C   UNL A   1      34.233  28.529  26.406  1.00  0.00     0.034 A 
ATOM     10  C   UNL A   1      32.122  30.252  27.172  1.00  0.00     0.049 A 
ATOM     11  C   UNL A   1      34.505  29.757  26.999  1.00  0.00     0.025 A 
ATOM     12  C   UNL A   1      33.466  30.612  27.293  1.00  0.00     0.135 A 
ATOM     13  C   UNL A   1      35.677  30.326  27.559  1.00  0.00     0.008 A 
ATOM     14  O   UNL A   1      33.984  31.797  27.717  1.00  0.00    -0.451 OA
ATOM     15  C   UNL A   1      36.878  29.481  27.824  1.00  0.00     0.049 C 
BRANCH   7  16
ATOM     16  S   UNL A   1      32.697  26.360  25.982  1.00  0.00     0.243 S 
ATOM     17  O   UNL A   1      31.485  25.937  26.651  1.00  0.00    -0.207 OA
ATOM     18  O   UNL A   1      33.953  25.675  26.208  1.00  0.00    -0.207 OA
BRANCH  16  19
ATOM     19  N   UNL A   1      32.407  26.361  24.272  1.00  0.00    -0.195 NA
ATOM     20  C   UNL A   1      33.031  25.201  23.530  1.00  0.00     0.073 C 
ATOM     21  C   UNL A   1      33.058  25.511  22.023  1.00  0.00     0.020 C 
ATOM     22  C   UNL A   1      31.723  25.959  21.436  1.00  0.00     0.003 C 
ATOM     23  C   UNL A   1      31.057  26.696  23.767  1.00  0.00     0.103 C 
ATOM     24  C   UNL A   1      31.089  27.042  22.283  1.00  0.00     0.017 C 
BRANCH  20  25
ATOM     25  C   UNL A   1      32.470  23.805  23.899  1.00  0.00     0.017 C 
ATOM     26  C   UNL A   1      32.480  22.699  22.853  1.00  0.00     0.005 C 
ENDBRANCH  20  25
ENDBRANCH  16  19
ENDBRANCH   7  16
ENDBRANCH   3   6
ENDBRANCH   1   2
BRANCH   1  27
ATOM     27  C   UNL A   1      33.169  34.824  28.941  1.00  0.00     0.042 C 
BRANCH  27  28
ATOM     28  C   UNL A   1      33.376  36.166  29.610  1.00  0.00     0.118 C 
BRANCH  28  29
ATOM     29  N   UNL A   1      32.514  36.378  30.769  1.00  0.00    -0.352 N 
ATOM     30  C   UNL A   1      32.577  35.921  32.066  1.00  0.00     0.251 C 
ATOM     31  H   UNL A   1      31.739  36.958  30.588  1.00  0.00     0.163 HD
ATOM     32  O   UNL A   1      31.627  36.129  32.817  1.00  0.00    -0.269 OA
BRANCH  30  33
ATOM     33  C   UNL A   1      33.744  35.156  32.563  1.00  0.00     0.039 A 
ATOM     34  C   UNL A   1      33.572  33.827  32.967  1.00  0.00     0.014 A 
ATOM     35  C   UNL A   1      35.006  35.737  32.659  1.00  0.00     0.014 A 
ATOM     36  C   UNL A   1      34.677  33.070  33.371  1.00  0.00     0.010 A 
ATOM     37  C   UNL A   1      36.119  34.949  32.916  1.00  0.00     0.010 A 
ATOM     38  C   UNL A   1      35.969  33.611  33.299  1.00  0.00    -0.014 A 
BRANCH  38  39
ATOM     39  C   UNL A   1      37.181  32.829  33.653  1.00  0.00     0.031 A 
ATOM     40  C   UNL A   1      37.941  33.152  34.914  1.00  0.00     0.074 A 
ATOM     41  C   UNL A   1      37.656  31.899  32.802  1.00  0.00     0.049 A 
ATOM     42  N   UNL A   1      39.085  32.676  35.337  1.00  0.00    -0.248 NA
ATOM     43  C   UNL A   1      37.359  34.181  35.794  1.00  0.00     0.031 C 
ATOM     44  C   UNL A   1      37.049  31.524  31.523  1.00  0.00     0.029 A 
ATOM     45  N   UNL A   1      38.771  31.103  32.883  1.00  0.00    -0.354 N 
ATOM     46  C   UNL A   1      39.373  33.376  36.503  1.00  0.00     0.074 A 
ATOM     47  C   UNL A   1      38.322  34.350  36.685  1.00  0.00     0.031 C 
ATOM     48  C   UNL A   1      37.774  30.542  30.962  1.00  0.00     0.029 A 
ATOM     49  C   UNL A   1      38.921  30.253  31.815  1.00  0.00     0.049 A 
ATOM     50  H   UNL A   1      39.404  31.138  33.637  1.00  0.00     0.167 HD
ATOM     51  C   UNL A   1      40.405  33.209  37.364  1.00  0.00     0.031 A 
ATOM     52  C   UNL A   1      39.876  29.341  31.553  1.00  0.00     0.031 A 
ATOM     53  C   UNL A   1      41.430  32.215  37.205  1.00  0.00     0.049 A 
ATOM     54  C   UNL A   1      41.003  29.157  32.529  1.00  0.00     0.074 A 
ATOM     55  C   UNL A   1      42.478  31.910  38.055  1.00  0.00     0.029 A 
ATOM     56  N   UNL A   1      41.529  31.355  36.120  1.00  0.00    -0.354 N 
ATOM     57  N   UNL A   1      41.228  29.784  33.658  1.00  0.00    -0.248 NA
ATOM     58  C   UNL A   1      42.001  28.132  32.197  1.00  0.00     0.031 C 
ATOM     59  C   UNL A   1      43.237  30.893  37.463  1.00  0.00     0.029 A 
ATOM     60  C   UNL A   1      42.631  30.531  36.270  1.00  0.00     0.049 A 
ATOM     61  H   UNL A   1      40.908  31.335  35.357  1.00  0.00     0.167 HD
ATOM     62  C   UNL A   1      42.377  29.211  34.186  1.00  0.00     0.074 A 
ATOM     63  C   UNL A   1      42.794  28.177  33.259  1.00  0.00     0.031 C 
ATOM     64  C   UNL A   1      43.027  29.510  35.337  1.00  0.00     0.031 A 
BRANCH  51  65
ATOM     65  C   UNL A   1      40.464  34.128  38.553  1.00  0.00    -0.014 A 
ATOM     66  C   UNL A   1      39.825  33.801  39.761  1.00  0.00     0.009 A 
ATOM     67  C   UNL A   1      41.166  35.339  38.466  1.00  0.00     0.009 A 
ATOM     68  C   UNL A   1      39.841  34.691  40.836  1.00  0.00     0.001 A 
ATOM     69  C   UNL A   1      41.209  36.213  39.555  1.00  0.00     0.001 A 
ATOM     70  C   UNL A   1      40.536  35.896  40.733  1.00  0.00     0.000 A 
ENDBRANCH  51  65
BRANCH  52  71
ATOM     71  C   UNL A   1      39.782  28.502  30.331  1.00  0.00    -0.014 A 
ATOM     72  C   UNL A   1      40.396  28.920  29.140  1.00  0.00     0.009 A 
ATOM     73  C   UNL A   1      39.096  27.278  30.347  1.00  0.00     0.009 A 
ATOM     74  C   UNL A   1      40.310  28.140  27.985  1.00  0.00     0.001 A 
ATOM     75  C   UNL A   1      39.033  26.487  29.197  1.00  0.00     0.001 A 
ATOM     76  C   UNL A   1      39.633  26.922  28.015  1.00  0.00     0.000 A 
ENDBRANCH  52  71
BRANCH  64  77
ATOM     77  C   UNL A   1      44.235  28.684  35.676  1.00  0.00    -0.014 A 
ATOM     78  C   UNL A   1      45.522  29.079  35.282  1.00  0.00     0.009 A 
ATOM     79  C   UNL A   1      44.082  27.517  36.440  1.00  0.00     0.009 A 
ATOM     80  C   UNL A   1      46.632  28.300  35.620  1.00  0.00     0.001 A 
ATOM     81  C   UNL A   1      45.195  26.756  36.800  1.00  0.00     0.001 A 
ATOM     82  C   UNL A   1      46.468  27.144  36.382  1.00  0.00     0.000 A 
ENDBRANCH  64  77
ENDBRANCH  38  39
ENDBRANCH  30  33
ENDBRANCH  28  29
ENDBRANCH  27  28
ENDBRANCH   1  27
TORSDOF 13
ENDMDL
MODEL 3
REMARK VINA RESULT:     -12.1      0.513      5.804
REMARK SMILES CC[C@H]1CCCCN1S(=O)(=O)c1ccc2oc(C(=O)NCCCNC(=O)c3ccc(-c4c5nc(c(-c6ccccc6)c6ccc([nH]6)c(-c6ccccc6)c6nc(c(-c7ccccc7)c7ccc4[nH]7)C=C6)C=C5)cc3)c(C)c2c1
REMARK SMILES IDX 21 1 20 2 18 3 19 4 17 6 12 7 13 8 78 9 14 10 77 11 15 12
REMARK SMILES IDX 75 13 16 14 76 15 9 16 10 17 11 18 8 19 3 20 4 21 5 22 7 23
REMARK SMILES IDX 6 24 2 25 1 26 22 27 23 28 24 29 25 30 26 32 27 33 28 34
REMARK SMILES IDX 74 35 29 36 73 37 30 38 31 39 32 40 67 41 33 42 72 43 66 44
REMARK SMILES IDX 68 45 34 46 71 47 65 48 64 49 35 51 57 52 42 53 56 54 43 55
REMARK SMILES IDX 46 56 55 57 69 58 44 59 45 60 54 62 70 63 47 64 36 65 37 66
REMARK SMILES IDX 41 67 38 68 40 69 39 70 58 71 59 72 63 73 60 74 62 75 61 76
REMARK SMILES IDX 48 77 49 78 53 79 50 80 52 81 51 82
REMARK H PARENT 20 5 24 31 68 50 46 61
REMARK Flexibility Score: inf
ROOT
ATOM      1  C   UNL A   1      36.423  20.265  25.093  1.00  0.00     0.118 C 
ENDROOT
BRANCH   1   2
ATOM      2  N   UNL A   1      35.477  19.189  24.956  1.00  0.00    -0.349 N 
ATOM      3  C   UNL A   1      34.101  19.239  24.816  1.00  0.00     0.287 C 
ATOM      4  O   UNL A   1      33.555  18.140  24.686  1.00  0.00    -0.266 OA
ATOM      5  H   UNL A   1      35.865  18.284  24.964  1.00  0.00     0.163 HD
BRANCH   3   6
ATOM      6  C   UNL A   1      33.345  20.489  24.874  1.00  0.00     0.195 A 
ATOM      7  C   UNL A   1      30.784  24.267  24.825  1.00  0.00     0.083 A 
ATOM      8  C   UNL A   1      30.822  24.018  23.447  1.00  0.00     0.025 A 
ATOM      9  C   UNL A   1      31.277  23.333  25.734  1.00  0.00     0.034 A 
ATOM     10  C   UNL A   1      31.414  22.835  22.951  1.00  0.00     0.049 A 
ATOM     11  C   UNL A   1      32.061  22.295  25.240  1.00  0.00     0.025 A 
ATOM     12  C   UNL A   1      32.052  22.022  23.891  1.00  0.00     0.135 A 
ATOM     13  C   UNL A   1      33.067  21.480  25.819  1.00  0.00     0.008 A 
ATOM     14  O   UNL A   1      32.764  20.884  23.672  1.00  0.00    -0.451 OA
ATOM     15  C   UNL A   1      33.652  21.825  27.147  1.00  0.00     0.049 C 
BRANCH   7  16
ATOM     16  S   UNL A   1      30.089  25.740  25.539  1.00  0.00     0.243 S 
ATOM     17  O   UNL A   1      29.306  25.286  26.669  1.00  0.00    -0.207 OA
ATOM     18  O   UNL A   1      29.482  26.504  24.468  1.00  0.00    -0.207 OA
BRANCH  16  19
ATOM     19  N   UNL A   1      31.431  26.660  26.137  1.00  0.00    -0.195 NA
ATOM     20  C   UNL A   1      32.649  26.647  25.242  1.00  0.00     0.073 C 
ATOM     21  C   UNL A   1      33.874  27.137  26.034  1.00  0.00     0.020 C 
ATOM     22  C   UNL A   1      33.675  28.460  26.768  1.00  0.00     0.003 C 
ATOM     23  C   UNL A   1      31.186  27.990  26.740  1.00  0.00     0.103 C 
ATOM     24  C   UNL A   1      32.383  28.459  27.557  1.00  0.00     0.017 C 
BRANCH  20  25
ATOM     25  C   UNL A   1      32.457  27.316  23.858  1.00  0.00     0.017 C 
ATOM     26  C   UNL A   1      33.164  26.730  22.644  1.00  0.00     0.005 C 
ENDBRANCH  20  25
ENDBRANCH  16  19
ENDBRANCH   7  16
ENDBRANCH   3   6
ENDBRANCH   1   2
BRANCH   1  27
ATOM     27  C   UNL A   1      37.837  19.990  24.637  1.00  0.00     0.042 C 
BRANCH  27  28
ATOM     28  C   UNL A   1      38.914  20.423  25.608  1.00  0.00     0.118 C 
BRANCH  28  29
ATOM     29  N   UNL A   1      40.001  19.457  25.741  1.00  0.00    -0.352 N 
ATOM     30  C   UNL A   1      41.318  19.592  26.116  1.00  0.00     0.251 C 
ATOM     31  H   UNL A   1      39.742  18.533  25.520  1.00  0.00     0.163 HD
ATOM     32  O   UNL A   1      42.072  18.629  25.999  1.00  0.00    -0.269 OA
BRANCH  30  33
ATOM     33  C   UNL A   1      41.854  20.877  26.623  1.00  0.00     0.039 A 
ATOM     34  C   UNL A   1      42.243  21.866  25.711  1.00  0.00     0.014 A 
ATOM     35  C   UNL A   1      42.001  21.116  27.986  1.00  0.00     0.014 A 
ATOM     36  C   UNL A   1      42.683  23.110  26.173  1.00  0.00     0.010 A 
ATOM     37  C   UNL A   1      42.294  22.393  28.443  1.00  0.00     0.010 A 
ATOM     38  C   UNL A   1      42.662  23.402  27.545  1.00  0.00    -0.014 A 
BRANCH  38  39
ATOM     39  C   UNL A   1      43.056  24.729  28.084  1.00  0.00     0.031 A 
ATOM     40  C   UNL A   1      42.003  25.775  28.347  1.00  0.00     0.074 A 
ATOM     41  C   UNL A   1      44.359  25.032  28.245  1.00  0.00     0.049 A 
ATOM     42  N   UNL A   1      42.149  27.029  28.694  1.00  0.00    -0.248 NA
ATOM     43  C   UNL A   1      40.601  25.368  28.147  1.00  0.00     0.031 C 
ATOM     44  C   UNL A   1      45.483  24.132  27.978  1.00  0.00     0.029 A 
ATOM     45  N   UNL A   1      44.958  26.192  28.666  1.00  0.00    -0.354 N 
ATOM     46  C   UNL A   1      40.866  27.563  28.713  1.00  0.00     0.074 A 
ATOM     47  C   UNL A   1      39.964  26.521  28.281  1.00  0.00     0.031 C 
ATOM     48  C   UNL A   1      46.631  24.759  28.283  1.00  0.00     0.029 A 
ATOM     49  C   UNL A   1      46.329  26.117  28.719  1.00  0.00     0.049 A 
ATOM     50  H   UNL A   1      44.453  27.003  28.907  1.00  0.00     0.167 HD
ATOM     51  C   UNL A   1      40.466  28.803  29.083  1.00  0.00     0.031 A 
ATOM     52  C   UNL A   1      47.240  27.040  29.079  1.00  0.00     0.031 A 
ATOM     53  C   UNL A   1      41.356  29.829  29.550  1.00  0.00     0.049 A 
ATOM     54  C   UNL A   1      46.775  28.404  29.504  1.00  0.00     0.074 A 
ATOM     55  C   UNL A   1      41.048  31.093  30.020  1.00  0.00     0.029 A 
ATOM     56  N   UNL A   1      42.736  29.701  29.613  1.00  0.00    -0.354 N 
ATOM     57  N   UNL A   1      45.554  28.875  29.575  1.00  0.00    -0.248 NA
ATOM     58  C   UNL A   1      47.816  29.359  29.907  1.00  0.00     0.031 C 
ATOM     59  C   UNL A   1      42.247  31.747  30.328  1.00  0.00     0.029 A 
ATOM     60  C   UNL A   1      43.296  30.870  30.098  1.00  0.00     0.049 A 
ATOM     61  H   UNL A   1      43.241  28.898  29.352  1.00  0.00     0.167 HD
ATOM     62  C   UNL A   1      45.676  30.171  30.058  1.00  0.00     0.074 A 
ATOM     63  C   UNL A   1      47.090  30.406  30.273  1.00  0.00     0.031 C 
ATOM     64  C   UNL A   1      44.704  31.084  30.304  1.00  0.00     0.031 A 
BRANCH  51  65
ATOM     65  C   UNL A   1      38.995  29.105  28.993  1.00  0.00    -0.014 A 
ATOM     66  C   UNL A   1      38.416  29.571  27.801  1.00  0.00     0.009 A 
ATOM     67  C   UNL A   1      38.175  28.925  30.117  1.00  0.00     0.009 A 
ATOM     68  C   UNL A   1      37.061  29.901  27.752  1.00  0.00     0.001 A 
ATOM     69  C   UNL A   1      36.812  29.224  30.056  1.00  0.00     0.001 A 
ATOM     70  C   UNL A   1      36.258  29.725  28.879  1.00  0.00     0.000 A 
ENDBRANCH  51  65
BRANCH  52  71
ATOM     71  C   UNL A   1      48.683  26.688  29.095  1.00  0.00    -0.014 A 
ATOM     72  C   UNL A   1      49.256  26.114  30.241  1.00  0.00     0.009 A 
ATOM     73  C   UNL A   1      49.492  26.907  27.969  1.00  0.00     0.009 A 
ATOM     74  C   UNL A   1      50.612  25.783  30.266  1.00  0.00     0.001 A 
ATOM     75  C   UNL A   1      50.843  26.552  27.989  1.00  0.00     0.001 A 
ATOM     76  C   UNL A   1      51.404  25.998  29.139  1.00  0.00     0.000 A 
ENDBRANCH  52  71
BRANCH  64  77
ATOM     77  C   UNL A   1      45.136  32.406  30.871  1.00  0.00    -0.014 A 
ATOM     78  C   UNL A   1      45.435  33.493  30.036  1.00  0.00     0.009 A 
ATOM     79  C   UNL A   1      45.198  32.575  32.262  1.00  0.00     0.009 A 
ATOM     80  C   UNL A   1      45.822  34.717  30.587  1.00  0.00     0.001 A 
ATOM     81  C   UNL A   1      45.557  33.807  32.810  1.00  0.00     0.001 A 
ATOM     82  C   UNL A   1      45.878  34.875  31.971  1.00  0.00     0.000 A 
ENDBRANCH  64  77
ENDBRANCH  38  39
ENDBRANCH  30  33
ENDBRANCH  28  29
ENDBRANCH  27  28
ENDBRANCH   1  27
TORSDOF 13
ENDMDL
