MODEL 1
REMARK VINA RESULT:     -10.5      0.000      0.000
REMARK SMILES CSCC[C@H](C(=O)NCCCNC(=O)c1ccc(-c2c3nc(c(-c4ccccc4)c4ccc([nH]4)c(-c4ccccc4)c4nc(c(-c5ccccc5)c5ccc2[nH]5)C=C4)C=C3)cc1)N1C(=O)/C(=C/c2cn(C)c3ccccc23)SC1=S
REMARK SMILES IDX 9 1 8 2 6 3 7 4 5 6 4 7 3 8 2 9 1 10 63 11 64 12 79 13 65 14
REMARK SMILES IDX 66 15 78 16 80 17 67 18 68 19 69 20 77 21 70 22 72 23 76 24
REMARK SMILES IDX 71 25 73 26 75 27 74 28 10 29 11 30 12 31 13 32 14 34 15 35
REMARK SMILES IDX 16 36 62 37 17 38 61 39 18 40 19 41 20 42 55 43 21 44 60 45
REMARK SMILES IDX 54 46 56 47 22 48 59 49 53 50 52 51 23 53 45 54 30 55 44 56
REMARK SMILES IDX 31 57 34 58 43 59 57 60 32 61 33 62 42 64 58 65 35 66 24 67
REMARK SMILES IDX 25 68 29 69 26 70 28 71 27 72 46 73 47 74 51 75 48 76 50 77
REMARK SMILES IDX 49 78 36 79 37 80 41 81 38 82 40 83 39 84
REMARK H PARENT 8 5 12 33 56 52 34 63
REMARK Flexibility Score: inf
ROOT
ATOM      1  C   UNL A   1      36.314  20.848  24.755  1.00  0.00     0.117 C 
ENDROOT
BRANCH   1   2
ATOM      2  N   UNL A   1      35.294  20.710  25.765  1.00  0.00    -0.354 N 
ATOM      3  C   UNL A   1      34.234  21.485  26.094  1.00  0.00     0.243 C 
ATOM      4  O   UNL A   1      33.789  21.286  27.233  1.00  0.00    -0.273 OA
ATOM      5  H   UNL A   1      35.384  19.901  26.318  1.00  0.00     0.163 HD
BRANCH   3   6
ATOM      6  C   UNL A   1      33.537  22.502  25.090  1.00  0.00     0.182 C 
BRANCH   6   7
ATOM      7  C   UNL A   1      32.981  21.407  24.013  1.00  0.00     0.046 C 
BRANCH   7   8
ATOM      8  C   UNL A   1      32.169  20.129  24.296  1.00  0.00     0.072 C 
BRANCH   8   9
ATOM      9  S   UNL A   1      32.924  18.492  23.967  1.00  0.00    -0.165 SA
ATOM     10  C   UNL A   1      32.642  17.580  25.496  1.00  0.00     0.085 C 
ENDBRANCH   8   9
ENDBRANCH   7   8
ENDBRANCH   6   7
BRANCH   6  11
ATOM     11  N   UNL A   1      32.429  23.744  25.770  1.00  0.00    -0.280 N 
ATOM     12  C   UNL A   1      33.282  24.699  26.020  1.00  0.00     0.266 C 
ATOM     13  C   UNL A   1      30.576  23.525  26.530  1.00  0.00     0.149 C 
ATOM     14  O   UNL A   1      34.436  24.997  26.076  1.00  0.00    -0.268 OA
ATOM     15  C   UNL A   1      32.062  25.315  26.025  1.00  0.00     0.081 C 
ATOM     16  S   UNL A   1      29.904  24.716  27.116  1.00  0.00    -0.054 SA
ATOM     17  S   UNL A   1      29.251  22.105  26.891  1.00  0.00    -0.052 S 
ATOM     18  C   UNL A   1      32.481  26.688  25.926  1.00  0.00     0.031 C 
BRANCH  18  19
ATOM     19  C   UNL A   1      31.511  27.504  26.512  1.00  0.00     0.001 A 
ATOM     20  C   UNL A   1      31.788  28.722  27.162  1.00  0.00     0.094 A 
ATOM     21  C   UNL A   1      31.204  27.881  25.191  1.00  0.00     0.007 A 
ATOM     22  N   UNL A   1      32.622  29.565  26.402  1.00  0.00    -0.350 N 
ATOM     23  C   UNL A   1      32.899  28.902  25.215  1.00  0.00     0.048 A 
ATOM     24  C   UNL A   1      31.075  26.957  23.417  1.00  0.00     0.011 A 
ATOM     25  C   UNL A   1      32.560  31.016  26.445  1.00  0.00     0.149 C 
ATOM     26  C   UNL A   1      34.134  28.866  23.721  1.00  0.00     0.027 A 
ATOM     27  C   UNL A   1      32.235  27.038  21.825  1.00  0.00     0.001 A 
ATOM     28  C   UNL A   1      33.967  28.068  21.929  1.00  0.00     0.002 A 
ENDBRANCH  18  19
ENDBRANCH   6  11
ENDBRANCH   3   6
ENDBRANCH   1   2
BRANCH   1  29
ATOM     29  C   UNL A   1      37.471  19.872  24.975  1.00  0.00     0.042 C 
BRANCH  29  30
ATOM     30  C   UNL A   1      38.673  20.437  25.734  1.00  0.00     0.118 C 
BRANCH  30  31
ATOM     31  N   UNL A   1      39.743  19.458  25.842  1.00  0.00    -0.352 N 
ATOM     32  C   UNL A   1      41.082  19.672  26.069  1.00  0.00     0.251 C 
ATOM     33  H   UNL A   1      39.473  18.517  25.740  1.00  0.00     0.163 HD
ATOM     34  O   UNL A   1      41.896  18.792  25.803  1.00  0.00    -0.269 OA
BRANCH  32  35
ATOM     35  C   UNL A   1      41.547  20.965  26.620  1.00  0.00     0.039 A 
ATOM     36  C   UNL A   1      42.063  21.926  25.748  1.00  0.00     0.014 A 
ATOM     37  C   UNL A   1      41.510  21.216  27.994  1.00  0.00     0.014 A 
ATOM     38  C   UNL A   1      42.490  23.159  26.249  1.00  0.00     0.010 A 
ATOM     39  C   UNL A   1      41.864  22.472  28.483  1.00  0.00     0.010 A 
ATOM     40  C   UNL A   1      42.364  23.456  27.617  1.00  0.00    -0.014 A 
BRANCH  40  41
ATOM     41  C   UNL A   1      42.743  24.791  28.151  1.00  0.00     0.031 A 
ATOM     42  C   UNL A   1      41.700  25.856  28.357  1.00  0.00     0.074 A 
ATOM     43  C   UNL A   1      44.037  25.061  28.409  1.00  0.00     0.049 A 
ATOM     44  N   UNL A   1      41.849  27.089  28.770  1.00  0.00    -0.248 NA
ATOM     45  C   UNL A   1      40.309  25.495  28.039  1.00  0.00     0.031 C 
ATOM     46  C   UNL A   1      45.150  24.126  28.229  1.00  0.00     0.029 A 
ATOM     47  N   UNL A   1      44.638  26.206  28.873  1.00  0.00    -0.354 N 
ATOM     48  C   UNL A   1      40.579  27.653  28.751  1.00  0.00     0.074 A 
ATOM     49  C   UNL A   1      39.678  26.644  28.238  1.00  0.00     0.031 C 
ATOM     50  C   UNL A   1      46.292  24.724  28.606  1.00  0.00     0.029 A 
ATOM     51  C   UNL A   1      46.002  26.099  29.002  1.00  0.00     0.049 A 
ATOM     52  H   UNL A   1      44.138  27.025  29.093  1.00  0.00     0.167 HD
ATOM     53  C   UNL A   1      40.193  28.892  29.140  1.00  0.00     0.031 A 
ATOM     54  C   UNL A   1      46.921  27.007  29.381  1.00  0.00     0.031 A 
ATOM     55  C   UNL A   1      41.090  29.900  29.643  1.00  0.00     0.049 A 
ATOM     56  C   UNL A   1      46.472  28.393  29.755  1.00  0.00     0.074 A 
ATOM     57  C   UNL A   1      40.788  31.169  30.105  1.00  0.00     0.029 A 
ATOM     58  N   UNL A   1      42.467  29.758  29.736  1.00  0.00    -0.354 N 
ATOM     59  N   UNL A   1      45.258  28.886  29.800  1.00  0.00    -0.248 NA
ATOM     60  C   UNL A   1      47.523  29.347  30.138  1.00  0.00     0.031 C 
ATOM     61  C   UNL A   1      41.987  31.820  30.409  1.00  0.00     0.029 A 
ATOM     62  C   UNL A   1      43.031  30.931  30.211  1.00  0.00     0.049 A 
ATOM     63  H   UNL A   1      42.967  28.944  29.501  1.00  0.00     0.167 HD
ATOM     64  C   UNL A   1      45.397  30.196  30.239  1.00  0.00     0.074 A 
ATOM     65  C   UNL A   1      46.809  30.412  30.471  1.00  0.00     0.031 C 
ATOM     66  C   UNL A   1      44.440  31.137  30.430  1.00  0.00     0.031 A 
BRANCH  53  67
ATOM     67  C   UNL A   1      38.732  29.237  29.016  1.00  0.00    -0.014 A 
ATOM     68  C   UNL A   1      37.849  29.080  30.098  1.00  0.00     0.009 A 
ATOM     69  C   UNL A   1      38.240  29.767  27.814  1.00  0.00     0.009 A 
ATOM     70  C   UNL A   1      36.498  29.408  29.963  1.00  0.00     0.001 A 
ATOM     71  C   UNL A   1      36.896  30.127  27.692  1.00  0.00     0.001 A 
ATOM     72  C   UNL A   1      36.024  29.937  28.763  1.00  0.00     0.000 A 
ENDBRANCH  53  67
BRANCH  54  73
ATOM     73  C   UNL A   1      48.362  26.642  29.417  1.00  0.00    -0.014 A 
ATOM     74  C   UNL A   1      48.932  26.086  30.574  1.00  0.00     0.009 A 
ATOM     75  C   UNL A   1      49.183  26.861  28.299  1.00  0.00     0.009 A 
ATOM     76  C   UNL A   1      50.296  25.789  30.620  1.00  0.00     0.001 A 
ATOM     77  C   UNL A   1      50.539  26.529  28.336  1.00  0.00     0.001 A 
ATOM     78  C   UNL A   1      51.097  26.006  29.500  1.00  0.00     0.000 A 
ENDBRANCH  54  73
BRANCH  66  79
ATOM     79  C   UNL A   1      44.885  32.480  30.944  1.00  0.00    -0.014 A 
ATOM     80  C   UNL A   1      45.215  33.526  30.067  1.00  0.00     0.009 A 
ATOM     81  C   UNL A   1      44.938  32.713  32.327  1.00  0.00     0.009 A 
ATOM     82  C   UNL A   1      45.625  34.764  30.567  1.00  0.00     0.001 A 
ATOM     83  C   UNL A   1      45.312  33.963  32.823  1.00  0.00     0.001 A 
ATOM     84  C   UNL A   1      45.667  34.983  31.943  1.00  0.00     0.000 A 
ENDBRANCH  66  79
ENDBRANCH  40  41
ENDBRANCH  32  35
ENDBRANCH  30  31
ENDBRANCH  29  30
ENDBRANCH   1  29
TORSDOF 15
ENDMDL
MODEL 2
REMARK VINA RESULT:     -10.5      0.380      5.772
REMARK SMILES CSCC[C@H](C(=O)NCCCNC(=O)c1ccc(-c2c3nc(c(-c4ccccc4)c4ccc([nH]4)c(-c4ccccc4)c4nc(c(-c5ccccc5)c5ccc2[nH]5)C=C4)C=C3)cc1)N1C(=O)/C(=C/c2cn(C)c3ccccc23)SC1=S
REMARK SMILES IDX 9 1 8 2 6 3 7 4 5 6 4 7 3 8 2 9 1 10 63 11 64 12 79 13 65 14
REMARK SMILES IDX 66 15 78 16 80 17 67 18 68 19 69 20 77 21 70 22 72 23 76 24
REMARK SMILES IDX 71 25 73 26 75 27 74 28 10 29 11 30 12 31 13 32 14 34 15 35
REMARK SMILES IDX 16 36 62 37 17 38 61 39 18 40 19 41 20 42 55 43 21 44 60 45
REMARK SMILES IDX 54 46 56 47 22 48 59 49 53 50 52 51 23 53 45 54 30 55 44 56
REMARK SMILES IDX 31 57 34 58 43 59 57 60 32 61 33 62 42 64 58 65 35 66 24 67
REMARK SMILES IDX 25 68 29 69 26 70 28 71 27 72 46 73 47 74 51 75 48 76 50 77
REMARK SMILES IDX 49 78 36 79 37 80 41 81 38 82 40 83 39 84
REMARK H PARENT 8 5 12 33 56 52 34 63
REMARK Flexibility Score: inf
ROOT
ATOM      1  C   UNL A   1      36.177  20.708  24.761  1.00  0.00     0.117 C 
ENDROOT
BRANCH   1   2
ATOM      2  N   UNL A   1      35.213  20.662  25.832  1.00  0.00    -0.354 N 
ATOM      3  C   UNL A   1      34.192  21.485  26.168  1.00  0.00     0.243 C 
ATOM      4  O   UNL A   1      33.808  21.371  27.340  1.00  0.00    -0.273 OA
ATOM      5  H   UNL A   1      35.316  19.887  26.431  1.00  0.00     0.163 HD
BRANCH   3   6
ATOM      6  C   UNL A   1      33.464  22.454  25.141  1.00  0.00     0.182 C 
BRANCH   6   7
ATOM      7  C   UNL A   1      32.889  21.313  24.124  1.00  0.00     0.046 C 
BRANCH   7   8
ATOM      8  C   UNL A   1      32.162  20.003  24.485  1.00  0.00     0.072 C 
BRANCH   8   9
ATOM      9  S   UNL A   1      32.916  18.398  24.022  1.00  0.00    -0.165 SA
ATOM     10  C   UNL A   1      32.606  17.354  25.458  1.00  0.00     0.085 C 
ENDBRANCH   8   9
ENDBRANCH   7   8
ENDBRANCH   6   7
BRANCH   6  11
ATOM     11  N   UNL A   1      32.363  23.717  25.795  1.00  0.00    -0.280 N 
ATOM     12  C   UNL A   1      33.224  24.669  26.032  1.00  0.00     0.266 C 
ATOM     13  C   UNL A   1      30.506  23.526  26.552  1.00  0.00     0.149 C 
ATOM     14  O   UNL A   1      34.380  24.958  26.087  1.00  0.00    -0.268 OA
ATOM     15  C   UNL A   1      32.009  25.296  26.023  1.00  0.00     0.081 C 
ATOM     16  S   UNL A   1      29.843  24.733  27.116  1.00  0.00    -0.054 SA
ATOM     17  S   UNL A   1      29.169  22.124  26.933  1.00  0.00    -0.052 S 
ATOM     18  C   UNL A   1      32.440  26.663  25.901  1.00  0.00     0.031 C 
BRANCH  18  19
ATOM     19  C   UNL A   1      31.475  27.496  26.471  1.00  0.00     0.001 A 
ATOM     20  C   UNL A   1      31.764  28.702  27.137  1.00  0.00     0.094 A 
ATOM     21  C   UNL A   1      31.210  27.891  25.145  1.00  0.00     0.007 A 
ATOM     22  N   UNL A   1      32.636  29.532  26.405  1.00  0.00    -0.350 N 
ATOM     23  C   UNL A   1      32.927  28.872  25.220  1.00  0.00     0.048 A 
ATOM     24  C   UNL A   1      31.104  26.984  23.361  1.00  0.00     0.011 A 
ATOM     25  C   UNL A   1      32.607  30.984  26.459  1.00  0.00     0.149 C 
ATOM     26  C   UNL A   1      34.198  28.818  23.756  1.00  0.00     0.027 A 
ATOM     27  C   UNL A   1      32.304  27.050  21.799  1.00  0.00     0.001 A 
ATOM     28  C   UNL A   1      34.056  28.038  21.955  1.00  0.00     0.002 A 
ENDBRANCH  18  19
ENDBRANCH   6  11
ENDBRANCH   3   6
ENDBRANCH   1   2
BRANCH   1  29
ATOM     29  C   UNL A   1      37.344  19.749  25.002  1.00  0.00     0.042 C 
BRANCH  29  30
ATOM     30  C   UNL A   1      38.677  20.410  25.360  1.00  0.00     0.118 C 
BRANCH  30  31
ATOM     31  N   UNL A   1      39.698  19.421  25.664  1.00  0.00    -0.352 N 
ATOM     32  C   UNL A   1      40.998  19.625  26.060  1.00  0.00     0.251 C 
ATOM     33  H   UNL A   1      39.422  18.480  25.574  1.00  0.00     0.163 HD
ATOM     34  O   UNL A   1      41.820  18.719  25.954  1.00  0.00    -0.269 OA
BRANCH  32  35
ATOM     35  C   UNL A   1      41.415  20.938  26.603  1.00  0.00     0.039 A 
ATOM     36  C   UNL A   1      41.982  21.879  25.741  1.00  0.00     0.014 A 
ATOM     37  C   UNL A   1      41.282  21.229  27.965  1.00  0.00     0.014 A 
ATOM     38  C   UNL A   1      42.363  23.130  26.233  1.00  0.00     0.010 A 
ATOM     39  C   UNL A   1      41.592  22.502  28.438  1.00  0.00     0.010 A 
ATOM     40  C   UNL A   1      42.142  23.465  27.580  1.00  0.00    -0.014 A 
BRANCH  40  41
ATOM     41  C   UNL A   1      42.473  24.818  28.099  1.00  0.00     0.031 A 
ATOM     42  C   UNL A   1      43.877  25.151  28.526  1.00  0.00     0.074 A 
ATOM     43  C   UNL A   1      41.496  25.737  28.232  1.00  0.00     0.049 A 
ATOM     44  N   UNL A   1      44.342  26.261  29.044  1.00  0.00    -0.248 NA
ATOM     45  C   UNL A   1      44.889  24.094  28.369  1.00  0.00     0.031 C 
ATOM     46  C   UNL A   1      40.089  25.534  27.880  1.00  0.00     0.029 A 
ATOM     47  N   UNL A   1      41.537  27.025  28.705  1.00  0.00    -0.354 N 
ATOM     48  C   UNL A   1      45.691  26.031  29.284  1.00  0.00     0.074 A 
ATOM     49  C   UNL A   1      45.960  24.662  28.902  1.00  0.00     0.031 C 
ATOM     50  C   UNL A   1      39.408  26.666  28.120  1.00  0.00     0.029 A 
ATOM     51  C   UNL A   1      40.315  27.655  28.694  1.00  0.00     0.049 A 
ATOM     52  H   UNL A   1      42.363  27.457  29.022  1.00  0.00     0.167 HD
ATOM     53  C   UNL A   1      46.627  26.887  29.763  1.00  0.00     0.031 A 
ATOM     54  C   UNL A   1      39.959  28.885  29.111  1.00  0.00     0.031 A 
ATOM     55  C   UNL A   1      46.358  28.247  30.150  1.00  0.00     0.049 A 
ATOM     56  C   UNL A   1      41.007  29.796  29.691  1.00  0.00     0.074 A 
ATOM     57  C   UNL A   1      47.247  29.205  30.604  1.00  0.00     0.029 A 
ATOM     58  N   UNL A   1      45.103  28.838  30.144  1.00  0.00    -0.354 N 
ATOM     59  N   UNL A   1      42.292  29.587  29.843  1.00  0.00    -0.248 NA
ATOM     60  C   UNL A   1      40.553  31.116  30.150  1.00  0.00     0.031 C 
ATOM     61  C   UNL A   1      46.521  30.351  30.941  1.00  0.00     0.029 A 
ATOM     62  C   UNL A   1      45.190  30.135  30.624  1.00  0.00     0.049 A 
ATOM     63  H   UNL A   1      44.275  28.400  29.843  1.00  0.00     0.167 HD
ATOM     64  C   UNL A   1      42.803  30.756  30.391  1.00  0.00     0.074 A 
ATOM     65  C   UNL A   1      41.694  31.678  30.520  1.00  0.00     0.031 C 
ATOM     66  C   UNL A   1      44.077  31.041  30.756  1.00  0.00     0.031 A 
BRANCH  53  67
ATOM     67  C   UNL A   1      48.032  26.368  29.915  1.00  0.00    -0.014 A 
ATOM     68  C   UNL A   1      48.973  26.487  28.878  1.00  0.00     0.009 A 
ATOM     69  C   UNL A   1      48.434  25.788  31.128  1.00  0.00     0.009 A 
ATOM     70  C   UNL A   1      50.273  26.001  29.041  1.00  0.00     0.001 A 
ATOM     71  C   UNL A   1      49.743  25.334  31.301  1.00  0.00     0.001 A 
ATOM     72  C   UNL A   1      50.658  25.431  30.254  1.00  0.00     0.000 A 
ENDBRANCH  53  67
BRANCH  54  73
ATOM     73  C   UNL A   1      38.542  29.328  29.009  1.00  0.00    -0.014 A 
ATOM     74  C   UNL A   1      38.043  29.861  27.810  1.00  0.00     0.009 A 
ATOM     75  C   UNL A   1      37.683  29.235  30.116  1.00  0.00     0.009 A 
ATOM     76  C   UNL A   1      36.727  30.320  27.732  1.00  0.00     0.001 A 
ATOM     77  C   UNL A   1      36.356  29.661  30.023  1.00  0.00     0.001 A 
ATOM     78  C   UNL A   1      35.883  30.215  28.836  1.00  0.00     0.000 A 
ENDBRANCH  54  73
BRANCH  66  79
ATOM     79  C   UNL A   1      44.348  32.416  31.305  1.00  0.00    -0.014 A 
ATOM     80  C   UNL A   1      44.290  32.678  32.683  1.00  0.00     0.009 A 
ATOM     81  C   UNL A   1      44.702  33.456  30.431  1.00  0.00     0.009 A 
ATOM     82  C   UNL A   1      44.546  33.962  33.169  1.00  0.00     0.001 A 
ATOM     83  C   UNL A   1      44.993  34.729  30.924  1.00  0.00     0.001 A 
ATOM     84  C   UNL A   1      44.903  34.984  32.290  1.00  0.00     0.000 A 
ENDBRANCH  66  79
ENDBRANCH  40  41
ENDBRANCH  32  35
ENDBRANCH  30  31
ENDBRANCH  29  30
ENDBRANCH   1  29
TORSDOF 15
ENDMDL
MODEL 3
REMARK VINA RESULT:     -10.0     10.117     16.624
REMARK SMILES CSCC[C@H](C(=O)NCCCNC(=O)c1ccc(-c2c3nc(c(-c4ccccc4)c4ccc([nH]4)c(-c4ccccc4)c4nc(c(-c5ccccc5)c5ccc2[nH]5)C=C4)C=C3)cc1)N1C(=O)/C(=C/c2cn(C)c3ccccc23)SC1=S
REMARK SMILES IDX 9 1 8 2 6 3 7 4 5 6 4 7 3 8 2 9 1 10 63 11 64 12 79 13 65 14
REMARK SMILES IDX 66 15 78 16 80 17 67 18 68 19 69 20 77 21 70 22 72 23 76 24
REMARK SMILES IDX 71 25 73 26 75 27 74 28 10 29 11 30 12 31 13 32 14 34 15 35
REMARK SMILES IDX 16 36 62 37 17 38 61 39 18 40 19 41 20 42 55 43 21 44 60 45
REMARK SMILES IDX 54 46 56 47 22 48 59 49 53 50 52 51 23 53 45 54 30 55 44 56
REMARK SMILES IDX 31 57 34 58 43 59 57 60 32 61 33 62 42 64 58 65 35 66 24 67
REMARK SMILES IDX 25 68 29 69 26 70 28 71 27 72 46 73 47 74 51 75 48 76 50 77
REMARK SMILES IDX 49 78 36 79 37 80 41 81 38 82 40 83 39 84
REMARK H PARENT 8 5 12 33 56 52 34 63
REMARK Flexibility Score: inf
ROOT
ATOM      1  C   UNL A   1      48.011  37.880  25.762  1.00  0.00     0.117 C 
ENDROOT
BRANCH   1   2
ATOM      2  N   UNL A   1      47.966  38.960  26.716  1.00  0.00    -0.354 N 
ATOM      3  C   UNL A   1      47.551  40.244  26.612  1.00  0.00     0.243 C 
ATOM      4  O   UNL A   1      47.994  40.997  27.490  1.00  0.00    -0.273 OA
ATOM      5  H   UNL A   1      48.298  38.718  27.611  1.00  0.00     0.163 HD
BRANCH   3   6
ATOM      6  C   UNL A   1      46.507  40.750  25.526  1.00  0.00     0.182 C 
BRANCH   6   7
ATOM      7  C   UNL A   1      45.159  40.642  26.442  1.00  0.00     0.046 C 
BRANCH   7   8
ATOM      8  C   UNL A   1      44.360  39.375  26.806  1.00  0.00     0.072 C 
BRANCH   8   9
ATOM      9  S   UNL A   1      42.530  39.417  26.743  1.00  0.00    -0.165 SA
ATOM     10  C   UNL A   1      42.168  41.001  25.963  1.00  0.00     0.085 C 
ENDBRANCH   8   9
ENDBRANCH   7   8
ENDBRANCH   6   7
BRANCH   6  11
ATOM     11  N   UNL A   1      46.873  42.269  24.636  1.00  0.00    -0.280 N 
ATOM     12  C   UNL A   1      46.743  41.850  23.406  1.00  0.00     0.266 C 
ATOM     13  C   UNL A   1      47.828  43.925  25.271  1.00  0.00     0.149 C 
ATOM     14  O   UNL A   1      46.601  40.897  22.702  1.00  0.00    -0.268 OA
ATOM     15  C   UNL A   1      46.670  43.212  23.317  1.00  0.00     0.081 C 
ATOM     16  S   UNL A   1      48.082  45.017  24.294  1.00  0.00    -0.054 SA
ATOM     17  S   UNL A   1      48.722  44.624  26.887  1.00  0.00    -0.052 S 
ATOM     18  C   UNL A   1      46.120  43.341  21.994  1.00  0.00     0.031 C 
BRANCH  18  19
ATOM     19  C   UNL A   1      46.515  44.567  21.454  1.00  0.00     0.001 A 
ATOM     20  C   UNL A   1      46.638  44.823  20.075  1.00  0.00     0.094 A 
ATOM     21  C   UNL A   1      45.209  44.989  21.767  1.00  0.00     0.007 A 
ATOM     22  N   UNL A   1      45.510  44.402  19.343  1.00  0.00    -0.350 N 
ATOM     23  C   UNL A   1      44.611  43.864  20.253  1.00  0.00     0.048 A 
ATOM     24  C   UNL A   1      43.923  44.707  23.279  1.00  0.00     0.011 A 
ATOM     25  C   UNL A   1      45.041  45.056  18.133  1.00  0.00     0.149 C 
ATOM     26  C   UNL A   1      43.061  42.708  20.389  1.00  0.00     0.027 A 
ATOM     27  C   UNL A   1      42.253  43.667  23.384  1.00  0.00     0.001 A 
ATOM     28  C   UNL A   1      41.720  42.513  21.817  1.00  0.00     0.002 A 
ENDBRANCH  18  19
ENDBRANCH   6  11
ENDBRANCH   3   6
ENDBRANCH   1   2
BRANCH   1  29
ATOM     29  C   UNL A   1      46.790  36.965  25.877  1.00  0.00     0.042 C 
BRANCH  29  30
ATOM     30  C   UNL A   1      47.056  35.478  25.635  1.00  0.00     0.118 C 
BRANCH  30  31
ATOM     31  N   UNL A   1      46.061  34.896  24.750  1.00  0.00    -0.352 N 
ATOM     32  C   UNL A   1      44.891  34.253  25.079  1.00  0.00     0.251 C 
ATOM     33  H   UNL A   1      46.249  34.972  23.786  1.00  0.00     0.163 HD
ATOM     34  O   UNL A   1      44.335  33.534  24.253  1.00  0.00    -0.269 OA
BRANCH  32  35
ATOM     35  C   UNL A   1      44.307  34.414  26.429  1.00  0.00     0.039 A 
ATOM     36  C   UNL A   1      44.542  33.429  27.391  1.00  0.00     0.014 A 
ATOM     37  C   UNL A   1      43.500  35.513  26.738  1.00  0.00     0.014 A 
ATOM     38  C   UNL A   1      44.013  33.574  28.677  1.00  0.00     0.010 A 
ATOM     39  C   UNL A   1      43.037  35.694  28.040  1.00  0.00     0.010 A 
ATOM     40  C   UNL A   1      43.283  34.724  29.022  1.00  0.00    -0.014 A 
BRANCH  40  41
ATOM     41  C   UNL A   1      42.780  34.927  30.407  1.00  0.00     0.031 A 
ATOM     42  C   UNL A   1      43.684  35.480  31.475  1.00  0.00     0.074 A 
ATOM     43  C   UNL A   1      41.518  34.569  30.715  1.00  0.00     0.049 A 
ATOM     44  N   UNL A   1      43.434  35.684  32.744  1.00  0.00    -0.248 NA
ATOM     45  C   UNL A   1      45.054  35.834  31.070  1.00  0.00     0.031 C 
ATOM     46  C   UNL A   1      40.547  33.997  29.780  1.00  0.00     0.029 A 
ATOM     47  N   UNL A   1      40.836  34.627  31.906  1.00  0.00    -0.354 N 
ATOM     48  C   UNL A   1      44.614  36.176  33.290  1.00  0.00     0.074 A 
ATOM     49  C   UNL A   1      45.594  36.194  32.225  1.00  0.00     0.031 C 
ATOM     50  C   UNL A   1      39.388  33.786  30.424  1.00  0.00     0.029 A 
ATOM     51  C   UNL A   1      39.548  34.155  31.827  1.00  0.00     0.049 A 
ATOM     52  H   UNL A   1      41.233  34.976  32.737  1.00  0.00     0.167 HD
ATOM     53  C   UNL A   1      44.857  36.591  34.556  1.00  0.00     0.031 A 
ATOM     54  C   UNL A   1      38.605  34.017  32.777  1.00  0.00     0.031 A 
ATOM     55  C   UNL A   1      43.884  36.566  35.617  1.00  0.00     0.049 A 
ATOM     56  C   UNL A   1      38.918  34.435  34.189  1.00  0.00     0.074 A 
ATOM     57  C   UNL A   1      44.021  37.007  36.922  1.00  0.00     0.029 A 
ATOM     58  N   UNL A   1      42.598  36.059  35.500  1.00  0.00    -0.354 N 
ATOM     59  N   UNL A   1      40.016  34.966  34.670  1.00  0.00    -0.248 NA
ATOM     60  C   UNL A   1      37.856  34.239  35.186  1.00  0.00     0.031 C 
ATOM     61  C   UNL A   1      42.845  36.701  37.613  1.00  0.00     0.029 A 
ATOM     62  C   UNL A   1      41.946  36.140  36.720  1.00  0.00     0.049 A 
ATOM     63  H   UNL A   1      42.208  35.696  34.673  1.00  0.00     0.167 HD
ATOM     64  C   UNL A   1      39.769  35.190  36.018  1.00  0.00     0.074 A 
ATOM     65  C   UNL A   1      38.409  34.762  36.271  1.00  0.00     0.031 C 
ATOM     66  C   UNL A   1      40.595  35.703  36.962  1.00  0.00     0.031 A 
BRANCH  53  67
ATOM     67  C   UNL A   1      46.242  37.092  34.872  1.00  0.00    -0.014 A 
ATOM     68  C   UNL A   1      46.563  38.457  34.788  1.00  0.00     0.009 A 
ATOM     69  C   UNL A   1      47.229  36.190  35.299  1.00  0.00     0.009 A 
ATOM     70  C   UNL A   1      47.854  38.901  35.088  1.00  0.00     0.001 A 
ATOM     71  C   UNL A   1      48.508  36.641  35.630  1.00  0.00     0.001 A 
ATOM     72  C   UNL A   1      48.822  37.994  35.514  1.00  0.00     0.000 A 
ENDBRANCH  53  67
BRANCH  54  73
ATOM     73  C   UNL A   1      37.274  33.448  32.433  1.00  0.00    -0.014 A 
ATOM     74  C   UNL A   1      37.064  32.060  32.446  1.00  0.00     0.009 A 
ATOM     75  C   UNL A   1      36.208  34.289  32.074  1.00  0.00     0.009 A 
ATOM     76  C   UNL A   1      35.827  31.527  32.076  1.00  0.00     0.001 A 
ATOM     77  C   UNL A   1      34.962  33.754  31.739  1.00  0.00     0.001 A 
ATOM     78  C   UNL A   1      34.777  32.374  31.728  1.00  0.00     0.000 A 
ENDBRANCH  54  73
BRANCH  66  79
ATOM     79  C   UNL A   1      40.042  35.858  38.353  1.00  0.00    -0.014 A 
ATOM     80  C   UNL A   1      39.438  37.054  38.772  1.00  0.00     0.009 A 
ATOM     81  C   UNL A   1      40.092  34.775  39.246  1.00  0.00     0.009 A 
ATOM     82  C   UNL A   1      38.931  37.173  40.068  1.00  0.00     0.001 A 
ATOM     83  C   UNL A   1      39.552  34.886  40.528  1.00  0.00     0.001 A 
ATOM     84  C   UNL A   1      38.983  36.088  40.942  1.00  0.00     0.000 A 
ENDBRANCH  66  79
ENDBRANCH  40  41
ENDBRANCH  32  35
ENDBRANCH  30  31
ENDBRANCH  29  30
ENDBRANCH   1  29
TORSDOF 15
ENDMDL
