MODEL 1
REMARK VINA RESULT:     -12.0      0.000      0.000
REMARK SMILES Cc1ccc(S(=O)(=O)Nc2cc3c(cc2C(=O)NCCCNC(=O)c2ccc(-c4c5nc(c(-c6ccccc6)c6ccc([nH]6)c(-c6ccccc6)c6nc(c(-c7ccccc7)c7ccc4[nH]7)C=C6)C=C5)cc2)OCCO3)s1
REMARK SMILES IDX 19 1 18 2 16 3 17 4 15 6 10 7 11 8 12 9 14 10 13 11 76 12
REMARK SMILES IDX 73 13 75 14 74 15 9 16 6 18 7 19 8 20 5 21 1 22 2 23 3 24
REMARK SMILES IDX 77 25 4 26 20 27 21 28 22 29 23 30 24 32 25 33 26 34 72 35
REMARK SMILES IDX 27 36 71 37 28 38 29 39 30 40 65 41 31 42 70 43 64 44 66 45
REMARK SMILES IDX 32 46 69 47 63 48 62 49 33 51 55 52 40 53 54 54 41 55 44 56
REMARK SMILES IDX 53 57 67 58 42 59 43 60 52 62 68 63 45 64 34 65 35 66 39 67
REMARK SMILES IDX 36 68 38 69 37 70 56 71 57 72 61 73 58 74 60 75 59 76 46 77
REMARK SMILES IDX 47 78 51 79 48 80 50 81 49 82
REMARK H PARENT 18 5 9 17 22 31 66 50 44 61
REMARK Flexibility Score: inf
ROOT
ATOM      1  C   UNL A   1      33.337  29.283  24.872  1.00  0.00     0.118 C 
ENDROOT
BRANCH   1   2
ATOM      2  N   UNL A   1      33.793  29.075  23.506  1.00  0.00    -0.352 N 
ATOM      3  C   UNL A   1      33.676  28.066  22.580  1.00  0.00     0.253 C 
ATOM      4  O   UNL A   1      34.151  28.297  21.468  1.00  0.00    -0.269 OA
ATOM      5  H   UNL A   1      34.310  29.839  23.163  1.00  0.00     0.163 HD
BRANCH   3   6
ATOM      6  C   UNL A   1      33.034  26.749  22.857  1.00  0.00     0.067 A 
ATOM      7  C   UNL A   1      31.631  26.587  22.743  1.00  0.00     0.066 A 
ATOM      8  C   UNL A   1      31.039  25.339  22.990  1.00  0.00     0.078 A 
ATOM      9  C   UNL A   1      31.832  24.247  23.332  1.00  0.00     0.163 A 
ATOM     10  C   UNL A   1      33.791  25.662  23.304  1.00  0.00     0.066 A 
ATOM     11  C   UNL A   1      33.210  24.408  23.466  1.00  0.00     0.162 A 
ATOM     12  O   UNL A   1      31.198  23.047  23.524  1.00  0.00    -0.486 OA
ATOM     13  O   UNL A   1      34.064  23.374  23.753  1.00  0.00    -0.486 OA
ATOM     14  C   UNL A   1      32.060  22.081  24.143  1.00  0.00     0.271 C 
ATOM     15  C   UNL A   1      33.439  22.109  23.503  1.00  0.00     0.271 C 
BRANCH   7  16
ATOM     16  N   UNL A   1      30.784  27.686  22.385  1.00  0.00    -0.278 N 
ATOM     17  H   UNL A   1      30.842  28.095  21.492  1.00  0.00     0.180 HD
BRANCH  16  18
ATOM     18  S   UNL A   1      29.683  28.263  23.527  1.00  0.00     0.271 S 
ATOM     19  O   UNL A   1      30.374  28.362  24.789  1.00  0.00    -0.200 OA
ATOM     20  O   UNL A   1      28.486  27.449  23.404  1.00  0.00    -0.200 OA
BRANCH  18  21
ATOM     21  C   UNL A   1      29.148  29.892  23.046  1.00  0.00     0.140 A 
ATOM     22  C   UNL A   1      27.862  32.648  20.570  1.00  0.00     0.056 C 
ATOM     23  C   UNL A   1      28.336  31.789  21.692  1.00  0.00     0.003 A 
ATOM     24  C   UNL A   1      28.714  32.182  22.958  1.00  0.00     0.016 A 
ATOM     25  S   UNL A   1      28.498  30.097  21.480  1.00  0.00    -0.127 S 
ATOM     26  C   UNL A   1      29.180  31.088  23.737  1.00  0.00     0.034 A 
ENDBRANCH  18  21
ENDBRANCH  16  18
ENDBRANCH   7  16
ENDBRANCH   3   6
ENDBRANCH   1   2
BRANCH   1  27
ATOM     27  C   UNL A   1      33.870  28.267  25.872  1.00  0.00     0.042 C 
BRANCH  27  28
ATOM     28  C   UNL A   1      33.542  28.563  27.329  1.00  0.00     0.118 C 
BRANCH  28  29
ATOM     29  N   UNL A   1      33.574  29.988  27.633  1.00  0.00    -0.352 N 
ATOM     30  C   UNL A   1      34.519  30.769  28.249  1.00  0.00     0.251 C 
ATOM     31  H   UNL A   1      32.772  30.479  27.343  1.00  0.00     0.163 HD
ATOM     32  O   UNL A   1      34.214  31.905  28.601  1.00  0.00    -0.269 OA
BRANCH  30  33
ATOM     33  C   UNL A   1      35.889  30.274  28.511  1.00  0.00     0.039 A 
ATOM     34  C   UNL A   1      36.826  30.305  27.471  1.00  0.00     0.014 A 
ATOM     35  C   UNL A   1      36.241  29.699  29.734  1.00  0.00     0.014 A 
ATOM     36  C   UNL A   1      38.121  29.817  27.675  1.00  0.00     0.010 A 
ATOM     37  C   UNL A   1      37.553  29.293  29.964  1.00  0.00     0.010 A 
ATOM     38  C   UNL A   1      38.503  29.333  28.934  1.00  0.00    -0.014 A 
BRANCH  38  39
ATOM     39  C   UNL A   1      39.880  28.842  29.196  1.00  0.00     0.031 A 
ATOM     40  C   UNL A   1      40.913  29.760  29.791  1.00  0.00     0.074 A 
ATOM     41  C   UNL A   1      40.230  27.599  28.813  1.00  0.00     0.049 A 
ATOM     42  N   UNL A   1      42.190  29.553  29.987  1.00  0.00    -0.248 NA
ATOM     43  C   UNL A   1      40.455  31.102  30.184  1.00  0.00     0.031 C 
ATOM     44  C   UNL A   1      39.343  26.625  28.177  1.00  0.00     0.029 A 
ATOM     45  N   UNL A   1      41.438  26.953  28.886  1.00  0.00    -0.354 N 
ATOM     46  C   UNL A   1      42.694  30.747  30.488  1.00  0.00     0.074 A 
ATOM     47  C   UNL A   1      41.593  31.685  30.529  1.00  0.00     0.031 C 
ATOM     48  C   UNL A   1      40.033  25.501  27.927  1.00  0.00     0.029 A 
ATOM     49  C   UNL A   1      41.416  25.687  28.353  1.00  0.00     0.049 A 
ATOM     50  H   UNL A   1      42.244  27.357  29.283  1.00  0.00     0.167 HD
ATOM     51  C   UNL A   1      43.955  31.036  30.890  1.00  0.00     0.031 A 
ATOM     52  C   UNL A   1      42.399  24.779  28.212  1.00  0.00     0.031 A 
ATOM     53  C   UNL A   1      45.044  30.097  30.879  1.00  0.00     0.049 A 
ATOM     54  C   UNL A   1      43.781  25.103  28.702  1.00  0.00     0.074 A 
ATOM     55  C   UNL A   1      46.336  30.268  31.345  1.00  0.00     0.029 A 
ATOM     56  N   UNL A   1      44.966  28.807  30.378  1.00  0.00    -0.354 N 
ATOM     57  N   UNL A   1      44.224  26.214  29.238  1.00  0.00    -0.248 NA
ATOM     58  C   UNL A   1      44.792  24.044  28.579  1.00  0.00     0.031 C 
ATOM     59  C   UNL A   1      47.052  29.092  31.088  1.00  0.00     0.029 A 
ATOM     60  C   UNL A   1      46.191  28.176  30.502  1.00  0.00     0.049 A 
ATOM     61  H   UNL A   1      44.158  28.400  29.990  1.00  0.00     0.167 HD
ATOM     62  C   UNL A   1      45.561  25.985  29.531  1.00  0.00     0.074 A 
ATOM     63  C   UNL A   1      45.852  24.623  29.127  1.00  0.00     0.031 C 
ATOM     64  C   UNL A   1      46.467  26.826  30.086  1.00  0.00     0.031 A 
BRANCH  51  65
ATOM     65  C   UNL A   1      44.217  32.438  31.365  1.00  0.00    -0.014 A 
ATOM     66  C   UNL A   1      44.060  32.795  32.714  1.00  0.00     0.009 A 
ATOM     67  C   UNL A   1      44.629  33.418  30.448  1.00  0.00     0.009 A 
ATOM     68  C   UNL A   1      44.260  34.115  33.125  1.00  0.00     0.001 A 
ATOM     69  C   UNL A   1      44.857  34.730  30.867  1.00  0.00     0.001 A 
ATOM     70  C   UNL A   1      44.660  35.080  32.202  1.00  0.00     0.000 A 
ENDBRANCH  51  65
BRANCH  52  71
ATOM     71  C   UNL A   1      42.096  23.466  27.591  1.00  0.00    -0.014 A 
ATOM     72  C   UNL A   1      42.370  23.242  26.234  1.00  0.00     0.009 A 
ATOM     73  C   UNL A   1      41.567  22.418  28.361  1.00  0.00     0.009 A 
ATOM     74  C   UNL A   1      42.110  21.998  25.656  1.00  0.00     0.001 A 
ATOM     75  C   UNL A   1      41.329  21.168  27.787  1.00  0.00     0.001 A 
ATOM     76  C   UNL A   1      41.596  20.961  26.435  1.00  0.00     0.000 A 
ENDBRANCH  52  71
BRANCH  64  77
ATOM     77  C   UNL A   1      47.854  26.293  30.302  1.00  0.00    -0.014 A 
ATOM     78  C   UNL A   1      48.249  25.791  31.552  1.00  0.00     0.009 A 
ATOM     79  C   UNL A   1      48.761  26.257  29.232  1.00  0.00     0.009 A 
ATOM     80  C   UNL A   1      49.539  25.286  31.732  1.00  0.00     0.001 A 
ATOM     81  C   UNL A   1      50.041  25.730  29.410  1.00  0.00     0.001 A 
ATOM     82  C   UNL A   1      50.431  25.252  30.661  1.00  0.00     0.000 A 
ENDBRANCH  64  77
ENDBRANCH  38  39
ENDBRANCH  30  33
ENDBRANCH  28  29
ENDBRANCH  27  28
ENDBRANCH   1  27
TORSDOF 13
ENDMDL
MODEL 2
REMARK VINA RESULT:     -12.0      1.541      3.871
REMARK SMILES Cc1ccc(S(=O)(=O)Nc2cc3c(cc2C(=O)NCCCNC(=O)c2ccc(-c4c5nc(c(-c6ccccc6)c6ccc([nH]6)c(-c6ccccc6)c6nc(c(-c7ccccc7)c7ccc4[nH]7)C=C6)C=C5)cc2)OCCO3)s1
REMARK SMILES IDX 19 1 18 2 16 3 17 4 15 6 10 7 11 8 12 9 14 10 13 11 76 12
REMARK SMILES IDX 73 13 75 14 74 15 9 16 6 18 7 19 8 20 5 21 1 22 2 23 3 24
REMARK SMILES IDX 77 25 4 26 20 27 21 28 22 29 23 30 24 32 25 33 26 34 72 35
REMARK SMILES IDX 27 36 71 37 28 38 29 39 30 40 65 41 31 42 70 43 64 44 66 45
REMARK SMILES IDX 32 46 69 47 63 48 62 49 33 51 55 52 40 53 54 54 41 55 44 56
REMARK SMILES IDX 53 57 67 58 42 59 43 60 52 62 68 63 45 64 34 65 35 66 39 67
REMARK SMILES IDX 36 68 38 69 37 70 56 71 57 72 61 73 58 74 60 75 59 76 46 77
REMARK SMILES IDX 47 78 51 79 48 80 50 81 49 82
REMARK H PARENT 18 5 9 17 22 31 66 50 44 61
REMARK Flexibility Score: inf
ROOT
ATOM      1  C   UNL A   1      33.981  28.853  24.916  1.00  0.00     0.118 C 
ENDROOT
BRANCH   1   2
ATOM      2  N   UNL A   1      34.081  28.093  23.679  1.00  0.00    -0.352 N 
ATOM      3  C   UNL A   1      33.184  27.571  22.778  1.00  0.00     0.253 C 
ATOM      4  O   UNL A   1      33.670  27.037  21.781  1.00  0.00    -0.269 OA
ATOM      5  H   UNL A   1      35.014  27.908  23.428  1.00  0.00     0.163 HD
BRANCH   3   6
ATOM      6  C   UNL A   1      31.703  27.610  22.956  1.00  0.00     0.067 A 
ATOM      7  C   UNL A   1      31.002  26.482  23.448  1.00  0.00     0.066 A 
ATOM      8  C   UNL A   1      29.611  26.535  23.628  1.00  0.00     0.078 A 
ATOM      9  C   UNL A   1      28.916  27.706  23.339  1.00  0.00     0.163 A 
ATOM     10  C   UNL A   1      30.966  28.735  22.576  1.00  0.00     0.066 A 
ATOM     11  C   UNL A   1      29.600  28.810  22.834  1.00  0.00     0.162 A 
ATOM     12  O   UNL A   1      27.565  27.706  23.570  1.00  0.00    -0.486 OA
ATOM     13  O   UNL A   1      28.996  30.013  22.569  1.00  0.00    -0.486 OA
ATOM     14  C   UNL A   1      26.921  28.843  22.975  1.00  0.00     0.271 C 
ATOM     15  C   UNL A   1      27.728  30.106  23.230  1.00  0.00     0.271 C 
BRANCH   7  16
ATOM     16  N   UNL A   1      31.685  25.262  23.765  1.00  0.00    -0.278 N 
ATOM     17  H   UNL A   1      32.183  24.771  23.073  1.00  0.00     0.180 HD
BRANCH  16  18
ATOM     18  S   UNL A   1      31.620  24.687  25.349  1.00  0.00     0.271 S 
ATOM     19  O   UNL A   1      30.681  23.593  25.380  1.00  0.00    -0.200 OA
ATOM     20  O   UNL A   1      31.431  25.844  26.208  1.00  0.00    -0.200 OA
BRANCH  18  21
ATOM     21  C   UNL A   1      33.224  24.068  25.809  1.00  0.00     0.140 A 
ATOM     22  C   UNL A   1      37.093  23.536  25.442  1.00  0.00     0.056 C 
ATOM     23  C   UNL A   1      35.648  23.598  25.801  1.00  0.00     0.003 A 
ATOM     24  C   UNL A   1      34.985  22.878  26.771  1.00  0.00     0.016 A 
ATOM     25  S   UNL A   1      34.585  24.633  24.946  1.00  0.00    -0.127 S 
ATOM     26  C   UNL A   1      33.590  23.150  26.776  1.00  0.00     0.034 A 
ENDBRANCH  18  21
ENDBRANCH  16  18
ENDBRANCH   7  16
ENDBRANCH   3   6
ENDBRANCH   1   2
BRANCH   1  27
ATOM     27  C   UNL A   1      34.147  28.019  26.178  1.00  0.00     0.042 C 
BRANCH  27  28
ATOM     28  C   UNL A   1      33.399  28.539  27.398  1.00  0.00     0.118 C 
BRANCH  28  29
ATOM     29  N   UNL A   1      33.480  29.988  27.530  1.00  0.00    -0.352 N 
ATOM     30  C   UNL A   1      34.459  30.804  28.040  1.00  0.00     0.251 C 
ATOM     31  H   UNL A   1      32.691  30.469  27.192  1.00  0.00     0.163 HD
ATOM     32  O   UNL A   1      34.196  31.984  28.258  1.00  0.00    -0.269 OA
BRANCH  30  33
ATOM     33  C   UNL A   1      35.816  30.298  28.345  1.00  0.00     0.039 A 
ATOM     34  C   UNL A   1      36.790  30.337  27.341  1.00  0.00     0.014 A 
ATOM     35  C   UNL A   1      36.119  29.706  29.573  1.00  0.00     0.014 A 
ATOM     36  C   UNL A   1      38.074  29.839  27.585  1.00  0.00     0.010 A 
ATOM     37  C   UNL A   1      37.420  29.289  29.846  1.00  0.00     0.010 A 
ATOM     38  C   UNL A   1      38.408  29.337  28.851  1.00  0.00    -0.014 A 
BRANCH  38  39
ATOM     39  C   UNL A   1      39.771  28.834  29.156  1.00  0.00     0.031 A 
ATOM     40  C   UNL A   1      40.791  29.744  29.788  1.00  0.00     0.074 A 
ATOM     41  C   UNL A   1      40.124  27.590  28.782  1.00  0.00     0.049 A 
ATOM     42  N   UNL A   1      42.060  29.525  30.025  1.00  0.00    -0.248 NA
ATOM     43  C   UNL A   1      40.331  31.087  30.169  1.00  0.00     0.031 C 
ATOM     44  C   UNL A   1      39.251  26.624  28.115  1.00  0.00     0.029 A 
ATOM     45  N   UNL A   1      41.324  26.934  28.892  1.00  0.00    -0.354 N 
ATOM     46  C   UNL A   1      42.556  30.714  30.545  1.00  0.00     0.074 A 
ATOM     47  C   UNL A   1      41.461  31.661  30.553  1.00  0.00     0.031 C 
ATOM     48  C   UNL A   1      39.940  25.496  27.884  1.00  0.00     0.029 A 
ATOM     49  C   UNL A   1      41.310  25.670  28.356  1.00  0.00     0.049 A 
ATOM     50  H   UNL A   1      42.120  27.331  29.317  1.00  0.00     0.167 HD
ATOM     51  C   UNL A   1      43.805  30.993  30.990  1.00  0.00     0.031 A 
ATOM     52  C   UNL A   1      42.290  24.754  28.244  1.00  0.00     0.031 A 
ATOM     53  C   UNL A   1      44.887  30.045  31.011  1.00  0.00     0.049 A 
ATOM     54  C   UNL A   1      43.657  25.067  28.781  1.00  0.00     0.074 A 
ATOM     55  C   UNL A   1      46.165  30.205  31.520  1.00  0.00     0.029 A 
ATOM     56  N   UNL A   1      44.815  28.758  30.505  1.00  0.00    -0.354 N 
ATOM     57  N   UNL A   1      44.091  26.172  29.333  1.00  0.00    -0.248 NA
ATOM     58  C   UNL A   1      44.664  24.000  28.687  1.00  0.00     0.031 C 
ATOM     59  C   UNL A   1      46.879  29.024  31.283  1.00  0.00     0.029 A 
ATOM     60  C   UNL A   1      46.031  28.117  30.667  1.00  0.00     0.049 A 
ATOM     61  H   UNL A   1      44.017  28.357  30.089  1.00  0.00     0.167 HD
ATOM     62  C   UNL A   1      45.417  25.933  29.670  1.00  0.00     0.074 A 
ATOM     63  C   UNL A   1      45.710  24.569  29.272  1.00  0.00     0.031 C 
ATOM     64  C   UNL A   1      46.310  26.765  30.256  1.00  0.00     0.031 A 
BRANCH  51  65
ATOM     65  C   UNL A   1      44.063  32.392  31.476  1.00  0.00    -0.014 A 
ATOM     66  C   UNL A   1      43.866  32.746  32.821  1.00  0.00     0.009 A 
ATOM     67  C   UNL A   1      44.510  33.371  30.576  1.00  0.00     0.009 A 
ATOM     68  C   UNL A   1      44.063  34.063  33.242  1.00  0.00     0.001 A 
ATOM     69  C   UNL A   1      44.734  34.681  31.006  1.00  0.00     0.001 A 
ATOM     70  C   UNL A   1      44.498  35.028  32.335  1.00  0.00     0.000 A 
ENDBRANCH  51  65
BRANCH  52  71
ATOM     71  C   UNL A   1      41.997  23.445  27.610  1.00  0.00    -0.014 A 
ATOM     72  C   UNL A   1      42.335  23.215  26.269  1.00  0.00     0.009 A 
ATOM     73  C   UNL A   1      41.414  22.408  28.354  1.00  0.00     0.009 A 
ATOM     74  C   UNL A   1      42.085  21.974  25.680  1.00  0.00     0.001 A 
ATOM     75  C   UNL A   1      41.184  21.161  27.770  1.00  0.00     0.001 A 
ATOM     76  C   UNL A   1      41.516  20.947  26.433  1.00  0.00     0.000 A 
ENDBRANCH  52  71
BRANCH  64  77
ATOM     77  C   UNL A   1      47.685  26.221  30.517  1.00  0.00    -0.014 A 
ATOM     78  C   UNL A   1      48.660  26.205  29.508  1.00  0.00     0.009 A 
ATOM     79  C   UNL A   1      48.017  25.754  31.798  1.00  0.00     0.009 A 
ATOM     80  C   UNL A   1      49.938  25.707  29.772  1.00  0.00     0.001 A 
ATOM     81  C   UNL A   1      49.302  25.278  32.064  1.00  0.00     0.001 A 
ATOM     82  C   UNL A   1      50.258  25.249  31.050  1.00  0.00     0.000 A 
ENDBRANCH  64  77
ENDBRANCH  38  39
ENDBRANCH  30  33
ENDBRANCH  28  29
ENDBRANCH  27  28
ENDBRANCH   1  27
TORSDOF 13
ENDMDL
MODEL 3
REMARK VINA RESULT:     -11.9      2.443      6.717
REMARK SMILES Cc1ccc(S(=O)(=O)Nc2cc3c(cc2C(=O)NCCCNC(=O)c2ccc(-c4c5nc(c(-c6ccccc6)c6ccc([nH]6)c(-c6ccccc6)c6nc(c(-c7ccccc7)c7ccc4[nH]7)C=C6)C=C5)cc2)OCCO3)s1
REMARK SMILES IDX 19 1 18 2 16 3 17 4 15 6 10 7 11 8 12 9 14 10 13 11 76 12
REMARK SMILES IDX 73 13 75 14 74 15 9 16 6 18 7 19 8 20 5 21 1 22 2 23 3 24
REMARK SMILES IDX 77 25 4 26 20 27 21 28 22 29 23 30 24 32 25 33 26 34 72 35
REMARK SMILES IDX 27 36 71 37 28 38 29 39 30 40 65 41 31 42 70 43 64 44 66 45
REMARK SMILES IDX 32 46 69 47 63 48 62 49 33 51 55 52 40 53 54 54 41 55 44 56
REMARK SMILES IDX 53 57 67 58 42 59 43 60 52 62 68 63 45 64 34 65 35 66 39 67
REMARK SMILES IDX 36 68 38 69 37 70 56 71 57 72 61 73 58 74 60 75 59 76 46 77
REMARK SMILES IDX 47 78 51 79 48 80 50 81 49 82
REMARK H PARENT 18 5 9 17 22 31 66 50 44 61
REMARK Flexibility Score: inf
ROOT
ATOM      1  C   UNL A   1      33.636  29.895  27.130  1.00  0.00     0.118 C 
ENDROOT
BRANCH   1   2
ATOM      2  N   UNL A   1      33.856  29.658  25.710  1.00  0.00    -0.352 N 
ATOM      3  C   UNL A   1      33.480  28.690  24.811  1.00  0.00     0.253 C 
ATOM      4  O   UNL A   1      33.810  28.882  23.642  1.00  0.00    -0.269 OA
ATOM      5  H   UNL A   1      34.407  30.360  25.296  1.00  0.00     0.163 HD
BRANCH   3   6
ATOM      6  C   UNL A   1      32.727  27.456  25.180  1.00  0.00     0.067 A 
ATOM      7  C   UNL A   1      31.314  27.415  25.094  1.00  0.00     0.066 A 
ATOM      8  C   UNL A   1      30.617  26.243  25.427  1.00  0.00     0.078 A 
ATOM      9  C   UNL A   1      31.315  25.107  25.827  1.00  0.00     0.163 A 
ATOM     10  C   UNL A   1      33.393  26.335  25.684  1.00  0.00     0.066 A 
ATOM     11  C   UNL A   1      32.704  25.150  25.933  1.00  0.00     0.162 A 
ATOM     12  O   UNL A   1      30.580  23.984  26.104  1.00  0.00    -0.486 OA
ATOM     13  O   UNL A   1      33.468  24.063  26.275  1.00  0.00    -0.486 OA
ATOM     14  C   UNL A   1      31.363  22.984  26.771  1.00  0.00     0.271 C 
ATOM     15  C   UNL A   1      32.727  22.847  26.113  1.00  0.00     0.271 C 
BRANCH   7  16
ATOM     16  N   UNL A   1      30.562  28.562  24.678  1.00  0.00    -0.278 N 
ATOM     17  H   UNL A   1      30.565  29.386  25.215  1.00  0.00     0.180 HD
BRANCH  16  18
ATOM     18  S   UNL A   1      29.673  28.470  23.247  1.00  0.00     0.271 S 
ATOM     19  O   UNL A   1      28.559  27.583  23.480  1.00  0.00    -0.200 OA
ATOM     20  O   UNL A   1      30.621  28.197  22.181  1.00  0.00    -0.200 OA
BRANCH  18  21
ATOM     21  C   UNL A   1      29.036  30.085  22.854  1.00  0.00     0.140 A 
ATOM     22  C   UNL A   1      27.666  32.917  20.511  1.00  0.00     0.056 C 
ATOM     23  C   UNL A   1      28.148  32.013  21.594  1.00  0.00     0.003 A 
ATOM     24  C   UNL A   1      28.427  32.336  22.904  1.00  0.00     0.016 A 
ATOM     25  S   UNL A   1      28.453  30.359  21.272  1.00  0.00    -0.127 S 
ATOM     26  C   UNL A   1      28.938  31.225  23.629  1.00  0.00     0.034 A 
ENDBRANCH  18  21
ENDBRANCH  16  18
ENDBRANCH   7  16
ENDBRANCH   3   6
ENDBRANCH   1   2
BRANCH   1  27
ATOM     27  C   UNL A   1      32.545  30.913  27.432  1.00  0.00     0.042 C 
BRANCH  27  28
ATOM     28  C   UNL A   1      32.518  32.121  26.506  1.00  0.00     0.118 C 
BRANCH  28  29
ATOM     29  N   UNL A   1      32.311  33.373  27.223  1.00  0.00    -0.352 N 
ATOM     30  C   UNL A   1      33.004  33.962  28.251  1.00  0.00     0.251 C 
ATOM     31  H   UNL A   1      31.533  33.891  26.914  1.00  0.00     0.163 HD
ATOM     32  O   UNL A   1      32.496  34.909  28.846  1.00  0.00    -0.269 OA
BRANCH  30  33
ATOM     33  C   UNL A   1      34.340  33.479  28.668  1.00  0.00     0.039 A 
ATOM     34  C   UNL A   1      34.448  32.739  29.852  1.00  0.00     0.014 A 
ATOM     35  C   UNL A   1      35.495  33.816  27.962  1.00  0.00     0.014 A 
ATOM     36  C   UNL A   1      35.698  32.293  30.292  1.00  0.00     0.010 A 
ATOM     37  C   UNL A   1      36.729  33.300  28.351  1.00  0.00     0.010 A 
ATOM     38  C   UNL A   1      36.847  32.546  29.528  1.00  0.00    -0.014 A 
BRANCH  38  39
ATOM     39  C   UNL A   1      38.185  32.055  29.946  1.00  0.00     0.031 A 
ATOM     40  C   UNL A   1      38.708  30.744  29.425  1.00  0.00     0.074 A 
ATOM     41  C   UNL A   1      38.891  32.741  30.865  1.00  0.00     0.049 A 
ATOM     42  N   UNL A   1      39.796  30.096  29.759  1.00  0.00    -0.248 NA
ATOM     43  C   UNL A   1      37.881  30.053  28.424  1.00  0.00     0.031 C 
ATOM     44  C   UNL A   1      38.476  33.997  31.490  1.00  0.00     0.029 A 
ATOM     45  N   UNL A   1      40.100  32.461  31.449  1.00  0.00    -0.354 N 
ATOM     46  C   UNL A   1      39.762  28.908  29.040  1.00  0.00     0.074 A 
ATOM     47  C   UNL A   1      38.530  28.908  28.282  1.00  0.00     0.031 C 
ATOM     48  C   UNL A   1      39.420  34.385  32.362  1.00  0.00     0.029 A 
ATOM     49  C   UNL A   1      40.487  33.390  32.383  1.00  0.00     0.049 A 
ATOM     50  H   UNL A   1      40.640  31.669  31.220  1.00  0.00     0.167 HD
ATOM     51  C   UNL A   1      40.679  27.911  29.001  1.00  0.00     0.031 A 
ATOM     52  C   UNL A   1      41.573  33.435  33.176  1.00  0.00     0.031 A 
ATOM     53  C   UNL A   1      41.919  27.922  29.729  1.00  0.00     0.049 A 
ATOM     54  C   UNL A   1      42.598  32.342  33.088  1.00  0.00     0.074 A 
ATOM     55  C   UNL A   1      42.952  27.000  29.691  1.00  0.00     0.029 A 
ATOM     56  N   UNL A   1      42.296  28.909  30.626  1.00  0.00    -0.354 N 
ATOM     57  N   UNL A   1      42.585  31.259  32.351  1.00  0.00    -0.248 NA
ATOM     58  C   UNL A   1      43.792  32.485  33.933  1.00  0.00     0.031 C 
ATOM     59  C   UNL A   1      43.937  27.411  30.598  1.00  0.00     0.029 A 
ATOM     60  C   UNL A   1      43.535  28.610  31.166  1.00  0.00     0.049 A 
ATOM     61  H   UNL A   1      41.761  29.705  30.848  1.00  0.00     0.167 HD
ATOM     62  C   UNL A   1      43.773  30.597  32.628  1.00  0.00     0.074 A 
ATOM     63  C   UNL A   1      44.491  31.410  33.591  1.00  0.00     0.031 C 
ATOM     64  C   UNL A   1      44.230  29.422  32.131  1.00  0.00     0.031 A 
BRANCH  51  65
ATOM     65  C   UNL A   1      40.357  26.718  28.146  1.00  0.00    -0.014 A 
ATOM     66  C   UNL A   1      40.835  26.612  26.829  1.00  0.00     0.009 A 
ATOM     67  C   UNL A   1      39.564  25.682  28.665  1.00  0.00     0.009 A 
ATOM     68  C   UNL A   1      40.482  25.519  26.034  1.00  0.00     0.001 A 
ATOM     69  C   UNL A   1      39.238  24.576  27.877  1.00  0.00     0.001 A 
ATOM     70  C   UNL A   1      39.686  24.502  26.559  1.00  0.00     0.000 A 
ENDBRANCH  51  65
BRANCH  52  71
ATOM     71  C   UNL A   1      41.748  34.574  34.111  1.00  0.00    -0.014 A 
ATOM     72  C   UNL A   1      42.391  35.747  33.689  1.00  0.00     0.009 A 
ATOM     73  C   UNL A   1      41.238  34.509  35.417  1.00  0.00     0.009 A 
ATOM     74  C   UNL A   1      42.531  36.829  34.560  1.00  0.00     0.001 A 
ATOM     75  C   UNL A   1      41.358  35.600  36.279  1.00  0.00     0.001 A 
ATOM     76  C   UNL A   1      42.008  36.757  35.851  1.00  0.00     0.000 A 
ENDBRANCH  52  71
BRANCH  64  77
ATOM     77  C   UNL A   1      45.574  28.954  32.606  1.00  0.00    -0.014 A 
ATOM     78  C   UNL A   1      45.694  28.108  33.719  1.00  0.00     0.009 A 
ATOM     79  C   UNL A   1      46.732  29.334  31.908  1.00  0.00     0.009 A 
ATOM     80  C   UNL A   1      46.952  27.670  34.140  1.00  0.00     0.001 A 
ATOM     81  C   UNL A   1      47.985  28.877  32.318  1.00  0.00     0.001 A 
ATOM     82  C   UNL A   1      48.094  28.052  33.437  1.00  0.00     0.000 A 
ENDBRANCH  64  77
ENDBRANCH  38  39
ENDBRANCH  30  33
ENDBRANCH  28  29
ENDBRANCH  27  28
ENDBRANCH   1  27
TORSDOF 13
ENDMDL
