MODEL 1
REMARK VINA RESULT:     -11.2      0.000      0.000
REMARK SMILES CC1(C)CSC[C@H]([NH2+][C@H](C(=O)NCCCNC(=O)c2ccc(-c3c4nc(c(-c5ccccc5)c5ccc([nH]5)c(-c5ccccc5)c5nc(c(-c6ccccc6)c6ccc3[nH]6)C=C5)C=C4)cc2)c2ccccc2)C1
REMARK SMILES IDX 14 1 13 2 12 3 10 4 11 5 9 7 8 8 7 11 1 12 2 13 3 14 4 15
REMARK SMILES IDX 73 16 5 17 6 18 67 19 68 20 72 21 69 22 71 23 70 24 15 25
REMARK SMILES IDX 16 26 17 27 18 29 19 30 20 31 66 32 21 33 65 34 22 35 23 36
REMARK SMILES IDX 24 37 59 38 25 39 64 40 58 41 60 42 26 43 63 44 57 45 56 46
REMARK SMILES IDX 27 48 49 49 34 50 48 51 35 52 38 53 47 54 61 55 36 56 37 57
REMARK SMILES IDX 46 59 62 60 39 61 28 62 29 63 33 64 30 65 32 66 31 67 50 68
REMARK SMILES IDX 51 69 55 70 52 71 54 72 53 73 40 74 41 75 45 76 42 77 44 78
REMARK SMILES IDX 43 79
REMARK H PARENT 12 6 8 9 8 10 16 28 60 47 38 58
REMARK Flexibility Score: inf
ROOT
ATOM      1  C   UNL A   1      32.505  28.408  26.636  1.00  0.00     0.042 C 
ENDROOT
BRANCH   1   2
ATOM      2  C   UNL A   1      31.972  29.515  25.727  1.00  0.00     0.118 C 
BRANCH   2   3
ATOM      3  N   UNL A   1      32.856  29.697  24.597  1.00  0.00    -0.351 N 
ATOM      4  C   UNL A   1      33.100  28.866  23.543  1.00  0.00     0.283 C 
ATOM      5  O   UNL A   1      34.131  29.087  22.902  1.00  0.00    -0.268 OA
ATOM      6  H   UNL A   1      33.354  30.546  24.587  1.00  0.00     0.163 HD
BRANCH   4   7
ATOM      7  C   UNL A   1      32.068  27.763  23.152  1.00  0.00     0.304 C 
BRANCH   7   8
ATOM      8  N   UNL A   1      31.280  28.148  21.946  1.00  0.00    -0.329 N 
ATOM      9  H   UNL A   1      31.805  28.875  21.459  1.00  0.00     0.347 HD
ATOM     10  H   UNL A   1      31.156  27.278  21.429  1.00  0.00     0.347 HD
BRANCH   8  11
ATOM     11  C   UNL A   1      29.915  28.657  22.157  1.00  0.00     0.193 C 
ATOM     12  C   UNL A   1      28.048  30.860  20.820  1.00  0.00     0.012 C 
ATOM     13  C   UNL A   1      28.598  30.902  22.264  1.00  0.00    -0.021 C 
ATOM     14  C   UNL A   1      28.791  32.388  22.636  1.00  0.00     0.012 C 
ATOM     15  C   UNL A   1      27.575  30.309  23.260  1.00  0.00     0.076 C 
ATOM     16  C   UNL A   1      29.981  30.193  22.328  1.00  0.00     0.073 C 
ATOM     17  S   UNL A   1      27.395  28.505  23.245  1.00  0.00    -0.155 SA
ATOM     18  C   UNL A   1      29.155  28.052  23.350  1.00  0.00     0.134 C 
ENDBRANCH   8  11
ENDBRANCH   7   8
BRANCH   7  19
ATOM     19  C   UNL A   1      32.692  26.365  23.148  1.00  0.00     0.019 A 
ATOM     20  C   UNL A   1      32.374  25.506  22.073  1.00  0.00     0.010 A 
ATOM     21  C   UNL A   1      33.603  25.897  24.106  1.00  0.00     0.010 A 
ATOM     22  C   UNL A   1      32.924  24.227  21.973  1.00  0.00     0.001 A 
ATOM     23  C   UNL A   1      34.164  24.619  23.998  1.00  0.00     0.001 A 
ATOM     24  C   UNL A   1      33.822  23.785  22.936  1.00  0.00     0.000 A 
ENDBRANCH   7  19
ENDBRANCH   4   7
ENDBRANCH   2   3
ENDBRANCH   1   2
BRANCH   1  25
ATOM     25  C   UNL A   1      33.749  28.802  27.435  1.00  0.00     0.118 C 
BRANCH  25  26
ATOM     26  N   UNL A   1      33.702  30.175  27.910  1.00  0.00    -0.352 N 
ATOM     27  C   UNL A   1      34.653  30.908  28.572  1.00  0.00     0.251 C 
ATOM     28  H   UNL A   1      32.859  30.651  27.729  1.00  0.00     0.163 HD
ATOM     29  O   UNL A   1      34.361  32.008  29.033  1.00  0.00    -0.269 OA
BRANCH  27  30
ATOM     30  C   UNL A   1      36.021  30.377  28.756  1.00  0.00     0.039 A 
ATOM     31  C   UNL A   1      36.921  30.478  27.691  1.00  0.00     0.014 A 
ATOM     32  C   UNL A   1      36.407  29.743  29.941  1.00  0.00     0.014 A 
ATOM     33  C   UNL A   1      38.220  29.986  27.828  1.00  0.00     0.010 A 
ATOM     34  C   UNL A   1      37.721  29.304  30.098  1.00  0.00     0.010 A 
ATOM     35  C   UNL A   1      38.638  29.414  29.041  1.00  0.00    -0.014 A 
BRANCH  35  36
ATOM     36  C   UNL A   1      40.030  28.926  29.207  1.00  0.00     0.031 A 
ATOM     37  C   UNL A   1      41.089  29.821  29.790  1.00  0.00     0.074 A 
ATOM     38  C   UNL A   1      40.354  27.687  28.790  1.00  0.00     0.049 A 
ATOM     39  N   UNL A   1      42.357  29.569  29.999  1.00  0.00    -0.248 NA
ATOM     40  C   UNL A   1      40.676  31.182  30.169  1.00  0.00     0.031 C 
ATOM     41  C   UNL A   1      39.435  26.736  28.160  1.00  0.00     0.029 A 
ATOM     42  N   UNL A   1      41.551  27.017  28.830  1.00  0.00    -0.354 N 
ATOM     43  C   UNL A   1      42.896  30.744  30.511  1.00  0.00     0.074 A 
ATOM     44  C   UNL A   1      41.827  31.719  30.546  1.00  0.00     0.031 C 
ATOM     45  C   UNL A   1      40.096  25.597  27.894  1.00  0.00     0.029 A 
ATOM     46  C   UNL A   1      41.487  25.747  28.309  1.00  0.00     0.049 A 
ATOM     47  H   UNL A   1      42.375  27.407  29.198  1.00  0.00     0.167 HD
ATOM     48  C   UNL A   1      44.161  30.986  30.927  1.00  0.00     0.031 A 
ATOM     49  C   UNL A   1      42.441  24.807  28.180  1.00  0.00     0.031 A 
ATOM     50  C   UNL A   1      45.222  30.014  30.915  1.00  0.00     0.049 A 
ATOM     51  C   UNL A   1      43.830  25.089  28.680  1.00  0.00     0.074 A 
ATOM     52  C   UNL A   1      46.518  30.147  31.381  1.00  0.00     0.029 A 
ATOM     53  N   UNL A   1      45.108  28.729  30.410  1.00  0.00    -0.354 N 
ATOM     54  N   UNL A   1      44.301  26.179  29.235  1.00  0.00    -0.248 NA
ATOM     55  C   UNL A   1      44.811  24.004  28.554  1.00  0.00     0.031 C 
ATOM     56  C   UNL A   1      47.202  28.953  31.123  1.00  0.00     0.029 A 
ATOM     57  C   UNL A   1      46.316  28.064  30.536  1.00  0.00     0.049 A 
ATOM     58  H   UNL A   1      44.290  28.346  30.018  1.00  0.00     0.167 HD
ATOM     59  C   UNL A   1      45.625  25.902  29.546  1.00  0.00     0.074 A 
ATOM     60  C   UNL A   1      45.877  24.535  29.135  1.00  0.00     0.031 C 
ATOM     61  C   UNL A   1      46.551  26.706  30.121  1.00  0.00     0.031 A 
BRANCH  48  62
ATOM     62  C   UNL A   1      44.471  32.367  31.431  1.00  0.00    -0.014 A 
ATOM     63  C   UNL A   1      44.906  33.379  30.560  1.00  0.00     0.009 A 
ATOM     64  C   UNL A   1      44.289  32.672  32.790  1.00  0.00     0.009 A 
ATOM     65  C   UNL A   1      45.182  34.659  31.045  1.00  0.00     0.001 A 
ATOM     66  C   UNL A   1      44.542  33.960  33.266  1.00  0.00     0.001 A 
ATOM     67  C   UNL A   1      44.996  34.949  32.396  1.00  0.00     0.000 A 
ENDBRANCH  48  62
BRANCH  49  68
ATOM     68  C   UNL A   1      42.113  23.493  27.569  1.00  0.00    -0.014 A 
ATOM     69  C   UNL A   1      41.531  22.476  28.340  1.00  0.00     0.009 A 
ATOM     70  C   UNL A   1      42.392  23.249  26.215  1.00  0.00     0.009 A 
ATOM     71  C   UNL A   1      41.260  21.228  27.773  1.00  0.00     0.001 A 
ATOM     72  C   UNL A   1      42.094  22.009  25.646  1.00  0.00     0.001 A 
ATOM     73  C   UNL A   1      41.539  20.997  26.427  1.00  0.00     0.000 A 
ENDBRANCH  49  68
BRANCH  61  74
ATOM     74  C   UNL A   1      47.911  26.116  30.367  1.00  0.00    -0.014 A 
ATOM     75  C   UNL A   1      48.838  25.964  29.326  1.00  0.00     0.009 A 
ATOM     76  C   UNL A   1      48.274  25.727  31.666  1.00  0.00     0.009 A 
ATOM     77  C   UNL A   1      50.090  25.400  29.573  1.00  0.00     0.001 A 
ATOM     78  C   UNL A   1      49.536  25.187  31.915  1.00  0.00     0.001 A 
ATOM     79  C   UNL A   1      50.439  25.014  30.868  1.00  0.00     0.000 A 
ENDBRANCH  61  74
ENDBRANCH  35  36
ENDBRANCH  27  30
ENDBRANCH  25  26
ENDBRANCH   1  25
TORSDOF 13
ENDMDL
MODEL 2
REMARK VINA RESULT:     -11.1      3.938      8.667
REMARK SMILES CC1(C)CSC[C@H]([NH2+][C@H](C(=O)NCCCNC(=O)c2ccc(-c3c4nc(c(-c5ccccc5)c5ccc([nH]5)c(-c5ccccc5)c5nc(c(-c6ccccc6)c6ccc3[nH]6)C=C5)C=C4)cc2)c2ccccc2)C1
REMARK SMILES IDX 14 1 13 2 12 3 10 4 11 5 9 7 8 8 7 11 1 12 2 13 3 14 4 15
REMARK SMILES IDX 73 16 5 17 6 18 67 19 68 20 72 21 69 22 71 23 70 24 15 25
REMARK SMILES IDX 16 26 17 27 18 29 19 30 20 31 66 32 21 33 65 34 22 35 23 36
REMARK SMILES IDX 24 37 59 38 25 39 64 40 58 41 60 42 26 43 63 44 57 45 56 46
REMARK SMILES IDX 27 48 49 49 34 50 48 51 35 52 38 53 47 54 61 55 36 56 37 57
REMARK SMILES IDX 46 59 62 60 39 61 28 62 29 63 33 64 30 65 32 66 31 67 50 68
REMARK SMILES IDX 51 69 55 70 52 71 54 72 53 73 40 74 41 75 45 76 42 77 44 78
REMARK SMILES IDX 43 79
REMARK H PARENT 12 6 8 9 8 10 16 28 60 47 38 58
REMARK Flexibility Score: inf
ROOT
ATOM      1  C   UNL A   1      37.340  19.748  24.987  1.00  0.00     0.042 C 
ENDROOT
BRANCH   1   2
ATOM      2  C   UNL A   1      36.173  20.727  24.863  1.00  0.00     0.118 C 
BRANCH   2   3
ATOM      3  N   UNL A   1      35.692  21.096  26.176  1.00  0.00    -0.351 N 
ATOM      4  C   UNL A   1      34.458  21.536  26.556  1.00  0.00     0.283 C 
ATOM      5  O   UNL A   1      34.395  22.104  27.650  1.00  0.00    -0.268 OA
ATOM      6  H   UNL A   1      36.352  21.017  26.902  1.00  0.00     0.163 HD
BRANCH   4   7
ATOM      7  C   UNL A   1      33.208  21.246  25.668  1.00  0.00     0.304 C 
BRANCH   7   8
ATOM      8  N   UNL A   1      32.559  19.956  26.037  1.00  0.00    -0.329 N 
ATOM      9  H   UNL A   1      32.971  19.647  26.918  1.00  0.00     0.347 HD
ATOM     10  H   UNL A   1      31.562  20.168  26.073  1.00  0.00     0.347 HD
BRANCH   8  11
ATOM     11  C   UNL A   1      32.669  18.839  25.085  1.00  0.00     0.193 C 
ATOM     12  C   UNL A   1      32.779  15.664  25.264  1.00  0.00     0.012 C 
ATOM     13  C   UNL A   1      33.924  16.577  24.772  1.00  0.00    -0.021 C 
ATOM     14  C   UNL A   1      35.252  15.883  25.142  1.00  0.00     0.012 C 
ATOM     15  C   UNL A   1      33.893  16.718  23.233  1.00  0.00     0.076 C 
ATOM     16  C   UNL A   1      33.863  17.948  25.504  1.00  0.00     0.073 C 
ATOM     17  S   UNL A   1      32.585  17.774  22.551  1.00  0.00    -0.155 SA
ATOM     18  C   UNL A   1      32.834  19.236  23.608  1.00  0.00     0.134 C 
ENDBRANCH   8  11
ENDBRANCH   7   8
BRANCH   7  19
ATOM     19  C   UNL A   1      32.292  22.466  25.545  1.00  0.00     0.019 A 
ATOM     20  C   UNL A   1      32.262  23.143  24.306  1.00  0.00     0.010 A 
ATOM     21  C   UNL A   1      31.438  22.926  26.557  1.00  0.00     0.010 A 
ATOM     22  C   UNL A   1      31.430  24.244  24.096  1.00  0.00     0.001 A 
ATOM     23  C   UNL A   1      30.595  24.023  26.341  1.00  0.00     0.001 A 
ATOM     24  C   UNL A   1      30.594  24.683  25.115  1.00  0.00     0.000 A 
ENDBRANCH   7  19
ENDBRANCH   4   7
ENDBRANCH   2   3
ENDBRANCH   1   2
BRANCH   1  25
ATOM     25  C   UNL A   1      38.601  20.357  25.604  1.00  0.00     0.118 C 
BRANCH  25  26
ATOM     26  N   UNL A   1      39.695  19.405  25.703  1.00  0.00    -0.352 N 
ATOM     27  C   UNL A   1      41.000  19.603  26.077  1.00  0.00     0.251 C 
ATOM     28  H   UNL A   1      39.465  18.478  25.466  1.00  0.00     0.163 HD
ATOM     29  O   UNL A   1      41.815  18.695  25.941  1.00  0.00    -0.269 OA
BRANCH  27  30
ATOM     30  C   UNL A   1      41.439  20.906  26.621  1.00  0.00     0.039 A 
ATOM     31  C   UNL A   1      41.952  21.857  25.735  1.00  0.00     0.014 A 
ATOM     32  C   UNL A   1      41.394  21.179  27.992  1.00  0.00     0.014 A 
ATOM     33  C   UNL A   1      42.377  23.097  26.214  1.00  0.00     0.010 A 
ATOM     34  C   UNL A   1      41.764  22.438  28.462  1.00  0.00     0.010 A 
ATOM     35  C   UNL A   1      42.266  23.407  27.579  1.00  0.00    -0.014 A 
BRANCH  35  36
ATOM     36  C   UNL A   1      42.678  24.738  28.089  1.00  0.00     0.031 A 
ATOM     37  C   UNL A   1      41.654  25.815  28.326  1.00  0.00     0.074 A 
ATOM     38  C   UNL A   1      43.983  24.996  28.297  1.00  0.00     0.049 A 
ATOM     39  N   UNL A   1      41.831  27.039  28.757  1.00  0.00    -0.248 NA
ATOM     40  C   UNL A   1      40.254  25.482  28.021  1.00  0.00     0.031 C 
ATOM     41  C   UNL A   1      45.082  24.057  28.057  1.00  0.00     0.029 A 
ATOM     42  N   UNL A   1      44.607  26.130  28.754  1.00  0.00    -0.354 N 
ATOM     43  C   UNL A   1      40.572  27.627  28.753  1.00  0.00     0.074 A 
ATOM     44  C   UNL A   1      39.646  26.638  28.242  1.00  0.00     0.031 C 
ATOM     45  C   UNL A   1      46.243  24.646  28.391  1.00  0.00     0.029 A 
ATOM     46  C   UNL A   1      45.974  26.007  28.842  1.00  0.00     0.049 A 
ATOM     47  H   UNL A   1      44.123  26.951  28.997  1.00  0.00     0.167 HD
ATOM     48  C   UNL A   1      40.215  28.871  29.151  1.00  0.00     0.031 A 
ATOM     49  C   UNL A   1      46.905  26.892  29.241  1.00  0.00     0.031 A 
ATOM     50  C   UNL A   1      41.127  29.850  29.679  1.00  0.00     0.049 A 
ATOM     51  C   UNL A   1      46.479  28.255  29.709  1.00  0.00     0.074 A 
ATOM     52  C   UNL A   1      40.846  31.112  30.173  1.00  0.00     0.029 A 
ATOM     53  N   UNL A   1      42.497  29.676  29.783  1.00  0.00    -0.354 N 
ATOM     54  N   UNL A   1      45.274  28.765  29.774  1.00  0.00    -0.248 NA
ATOM     55  C   UNL A   1      47.541  29.155  30.178  1.00  0.00     0.031 C 
ATOM     56  C   UNL A   1      42.053  31.718  30.540  1.00  0.00     0.029 A 
ATOM     57  C   UNL A   1      43.079  30.813  30.315  1.00  0.00     0.049 A 
ATOM     58  H   UNL A   1      42.986  28.863  29.516  1.00  0.00     0.167 HD
ATOM     59  C   UNL A   1      45.430  30.035  30.312  1.00  0.00     0.074 A 
ATOM     60  C   UNL A   1      46.844  30.210  30.574  1.00  0.00     0.031 C 
ATOM     61  C   UNL A   1      44.486  30.973  30.568  1.00  0.00     0.031 A 
BRANCH  48  62
ATOM     62  C   UNL A   1      38.766  29.248  29.024  1.00  0.00    -0.014 A 
ATOM     63  C   UNL A   1      38.247  29.750  27.819  1.00  0.00     0.009 A 
ATOM     64  C   UNL A   1      37.898  29.062  30.113  1.00  0.00     0.009 A 
ATOM     65  C   UNL A   1      36.896  30.088  27.718  1.00  0.00     0.001 A 
ATOM     66  C   UNL A   1      36.543  29.378  30.000  1.00  0.00     0.001 A 
ATOM     67  C   UNL A   1      36.045  29.898  28.807  1.00  0.00     0.000 A 
ENDBRANCH  48  62
BRANCH  49  68
ATOM     68  C   UNL A   1      48.341  26.511  29.240  1.00  0.00    -0.014 A 
ATOM     69  C   UNL A   1      48.913  25.892  30.362  1.00  0.00     0.009 A 
ATOM     70  C   UNL A   1      49.146  26.775  28.122  1.00  0.00     0.009 A 
ATOM     71  C   UNL A   1      50.272  25.570  30.374  1.00  0.00     0.001 A 
ATOM     72  C   UNL A   1      50.499  26.427  28.128  1.00  0.00     0.001 A 
ATOM     73  C   UNL A   1      51.063  25.836  29.257  1.00  0.00     0.000 A 
ENDBRANCH  49  68
BRANCH  61  74
ATOM     74  C   UNL A   1      44.953  32.259  31.191  1.00  0.00    -0.014 A 
ATOM     75  C   UNL A   1      45.032  32.406  32.583  1.00  0.00     0.009 A 
ATOM     76  C   UNL A   1      45.339  33.328  30.368  1.00  0.00     0.009 A 
ATOM     77  C   UNL A   1      45.454  33.614  33.141  1.00  0.00     0.001 A 
ATOM     78  C   UNL A   1      45.786  34.526  30.929  1.00  0.00     0.001 A 
ATOM     79  C   UNL A   1      45.833  34.671  32.314  1.00  0.00     0.000 A 
ENDBRANCH  61  74
ENDBRANCH  35  36
ENDBRANCH  27  30
ENDBRANCH  25  26
ENDBRANCH   1  25
TORSDOF 13
ENDMDL
MODEL 3
REMARK VINA RESULT:     -11.1      3.584      8.104
REMARK SMILES CC1(C)CSC[C@H]([NH2+][C@H](C(=O)NCCCNC(=O)c2ccc(-c3c4nc(c(-c5ccccc5)c5ccc([nH]5)c(-c5ccccc5)c5nc(c(-c6ccccc6)c6ccc3[nH]6)C=C5)C=C4)cc2)c2ccccc2)C1
REMARK SMILES IDX 14 1 13 2 12 3 10 4 11 5 9 7 8 8 7 11 1 12 2 13 3 14 4 15
REMARK SMILES IDX 73 16 5 17 6 18 67 19 68 20 72 21 69 22 71 23 70 24 15 25
REMARK SMILES IDX 16 26 17 27 18 29 19 30 20 31 66 32 21 33 65 34 22 35 23 36
REMARK SMILES IDX 24 37 59 38 25 39 64 40 58 41 60 42 26 43 63 44 57 45 56 46
REMARK SMILES IDX 27 48 49 49 34 50 48 51 35 52 38 53 47 54 61 55 36 56 37 57
REMARK SMILES IDX 46 59 62 60 39 61 28 62 29 63 33 64 30 65 32 66 31 67 50 68
REMARK SMILES IDX 51 69 55 70 52 71 54 72 53 73 40 74 41 75 45 76 42 77 44 78
REMARK SMILES IDX 43 79
REMARK H PARENT 12 6 8 9 8 10 16 28 60 47 38 58
REMARK Flexibility Score: inf
ROOT
ATOM      1  C   UNL A   1      37.303  19.549  24.990  1.00  0.00     0.042 C 
ENDROOT
BRANCH   1   2
ATOM      2  C   UNL A   1      36.141  20.502  24.711  1.00  0.00     0.118 C 
BRANCH   2   3
ATOM      3  N   UNL A   1      35.362  20.701  25.913  1.00  0.00    -0.351 N 
ATOM      4  C   UNL A   1      34.012  20.822  26.062  1.00  0.00     0.283 C 
ATOM      5  O   UNL A   1      33.623  21.321  27.122  1.00  0.00    -0.268 OA
ATOM      6  H   UNL A   1      35.884  20.756  26.746  1.00  0.00     0.163 HD
BRANCH   4   7
ATOM      7  C   UNL A   1      33.044  20.274  24.968  1.00  0.00     0.304 C 
BRANCH   7   8
ATOM      8  N   UNL A   1      33.095  21.098  23.726  1.00  0.00    -0.329 N 
ATOM      9  H   UNL A   1      33.939  20.831  23.217  1.00  0.00     0.347 HD
ATOM     10  H   UNL A   1      32.216  20.900  23.247  1.00  0.00     0.347 HD
BRANCH   8  11
ATOM     11  C   UNL A   1      33.118  22.562  23.878  1.00  0.00     0.193 C 
ATOM     12  C   UNL A   1      32.817  24.632  26.275  1.00  0.00     0.012 C 
ATOM     13  C   UNL A   1      31.837  24.479  25.091  1.00  0.00    -0.021 C 
ATOM     14  C   UNL A   1      30.429  24.835  25.614  1.00  0.00     0.012 C 
ATOM     15  C   UNL A   1      32.175  25.482  23.964  1.00  0.00     0.076 C 
ATOM     16  C   UNL A   1      31.822  23.003  24.599  1.00  0.00     0.073 C 
ATOM     17  S   UNL A   1      33.642  25.102  22.966  1.00  0.00    -0.155 SA
ATOM     18  C   UNL A   1      33.264  23.365  22.574  1.00  0.00     0.134 C 
ENDBRANCH   8  11
ENDBRANCH   7   8
BRANCH   7  19
ATOM     19  C   UNL A   1      33.169  18.759  24.793  1.00  0.00     0.019 A 
ATOM     20  C   UNL A   1      32.681  17.934  25.831  1.00  0.00     0.010 A 
ATOM     21  C   UNL A   1      33.682  18.129  23.650  1.00  0.00     0.010 A 
ATOM     22  C   UNL A   1      32.725  16.542  25.739  1.00  0.00     0.001 A 
ATOM     23  C   UNL A   1      33.714  16.732  23.554  1.00  0.00     0.001 A 
ATOM     24  C   UNL A   1      33.241  15.941  24.598  1.00  0.00     0.000 A 
ENDBRANCH   7  19
ENDBRANCH   4   7
ENDBRANCH   2   3
ENDBRANCH   1   2
BRANCH   1  25
ATOM     25  C   UNL A   1      38.558  20.238  25.531  1.00  0.00     0.118 C 
BRANCH  25  26
ATOM     26  N   UNL A   1      39.692  19.336  25.641  1.00  0.00    -0.352 N 
ATOM     27  C   UNL A   1      40.980  19.588  26.041  1.00  0.00     0.251 C 
ATOM     28  H   UNL A   1      39.509  18.402  25.389  1.00  0.00     0.163 HD
ATOM     29  O   UNL A   1      41.838  18.721  25.911  1.00  0.00    -0.269 OA
BRANCH  27  30
ATOM     30  C   UNL A   1      41.348  20.904  26.609  1.00  0.00     0.039 A 
ATOM     31  C   UNL A   1      41.875  21.873  25.751  1.00  0.00     0.014 A 
ATOM     32  C   UNL A   1      41.223  21.171  27.976  1.00  0.00     0.014 A 
ATOM     33  C   UNL A   1      42.235  23.124  26.253  1.00  0.00     0.010 A 
ATOM     34  C   UNL A   1      41.527  22.440  28.466  1.00  0.00     0.010 A 
ATOM     35  C   UNL A   1      42.044  23.427  27.611  1.00  0.00    -0.014 A 
BRANCH  35  36
ATOM     36  C   UNL A   1      42.386  24.770  28.142  1.00  0.00     0.031 A 
ATOM     37  C   UNL A   1      43.797  25.093  28.552  1.00  0.00     0.074 A 
ATOM     38  C   UNL A   1      41.415  25.690  28.299  1.00  0.00     0.049 A 
ATOM     39  N   UNL A   1      44.277  26.207  29.046  1.00  0.00    -0.248 NA
ATOM     40  C   UNL A   1      44.794  24.020  28.408  1.00  0.00     0.031 C 
ATOM     41  C   UNL A   1      39.997  25.489  27.989  1.00  0.00     0.029 A 
ATOM     42  N   UNL A   1      41.474  26.980  28.763  1.00  0.00    -0.354 N 
ATOM     43  C   UNL A   1      45.622  25.962  29.292  1.00  0.00     0.074 A 
ATOM     44  C   UNL A   1      45.874  24.584  28.928  1.00  0.00     0.031 C 
ATOM     45  C   UNL A   1      39.325  26.622  28.251  1.00  0.00     0.029 A 
ATOM     46  C   UNL A   1      40.257  27.618  28.770  1.00  0.00     0.049 A 
ATOM     47  H   UNL A   1      42.308  27.407  29.062  1.00  0.00     0.167 HD
ATOM     48  C   UNL A   1      46.567  26.810  29.764  1.00  0.00     0.031 A 
ATOM     49  C   UNL A   1      39.928  28.867  29.150  1.00  0.00     0.031 A 
ATOM     50  C   UNL A   1      46.327  28.186  30.107  1.00  0.00     0.049 A 
ATOM     51  C   UNL A   1      41.000  29.798  29.639  1.00  0.00     0.074 A 
ATOM     52  C   UNL A   1      47.236  29.141  30.527  1.00  0.00     0.029 A 
ATOM     53  N   UNL A   1      45.087  28.804  30.068  1.00  0.00    -0.354 N 
ATOM     54  N   UNL A   1      42.283  29.573  29.789  1.00  0.00    -0.248 NA
ATOM     55  C   UNL A   1      40.581  31.161  29.992  1.00  0.00     0.031 C 
ATOM     56  C   UNL A   1      46.540  30.328  30.781  1.00  0.00     0.029 A 
ATOM     57  C   UNL A   1      45.204  30.122  30.474  1.00  0.00     0.049 A 
ATOM     58  H   UNL A   1      44.247  28.369  29.793  1.00  0.00     0.167 HD
ATOM     59  C   UNL A   1      42.827  30.771  30.230  1.00  0.00     0.074 A 
ATOM     60  C   UNL A   1      41.739  31.726  30.304  1.00  0.00     0.031 C 
ATOM     61  C   UNL A   1      44.113  31.058  30.544  1.00  0.00     0.031 A 
BRANCH  48  62
ATOM     62  C   UNL A   1      47.956  26.267  29.944  1.00  0.00    -0.014 A 
ATOM     63  C   UNL A   1      48.387  25.768  31.184  1.00  0.00     0.009 A 
ATOM     64  C   UNL A   1      48.833  26.216  28.849  1.00  0.00     0.009 A 
ATOM     65  C   UNL A   1      49.680  25.260  31.330  1.00  0.00     0.001 A 
ATOM     66  C   UNL A   1      50.116  25.685  28.993  1.00  0.00     0.001 A 
ATOM     67  C   UNL A   1      50.541  25.215  30.234  1.00  0.00     0.000 A 
ENDBRANCH  48  62
BRANCH  49  68
ATOM     68  C   UNL A   1      38.516  29.322  29.061  1.00  0.00    -0.014 A 
ATOM     69  C   UNL A   1      38.009  29.837  27.858  1.00  0.00     0.009 A 
ATOM     70  C   UNL A   1      37.676  29.255  30.183  1.00  0.00     0.009 A 
ATOM     71  C   UNL A   1      36.694  30.302  27.788  1.00  0.00     0.001 A 
ATOM     72  C   UNL A   1      36.353  29.696  30.101  1.00  0.00     0.001 A 
ATOM     73  C   UNL A   1      35.867  30.229  28.908  1.00  0.00     0.000 A 
ENDBRANCH  49  68
BRANCH  61  74
ATOM     74  C   UNL A   1      44.415  32.468  30.966  1.00  0.00    -0.014 A 
ATOM     75  C   UNL A   1      44.742  33.455  30.025  1.00  0.00     0.009 A 
ATOM     76  C   UNL A   1      44.350  32.815  32.325  1.00  0.00     0.009 A 
ATOM     77  C   UNL A   1      45.033  34.755  30.440  1.00  0.00     0.001 A 
ATOM     78  C   UNL A   1      44.616  34.122  32.733  1.00  0.00     0.001 A 
ATOM     79  C   UNL A   1      44.969  35.088  31.793  1.00  0.00     0.000 A 
ENDBRANCH  61  74
ENDBRANCH  35  36
ENDBRANCH  27  30
ENDBRANCH  25  26
ENDBRANCH   1  25
TORSDOF 13
ENDMDL
