MODEL 1
REMARK VINA RESULT:     -10.7      0.000      0.000
REMARK SMILES Cc1csc(C[NH2+]C2(C(=O)NCCCNC(=O)c3ccc(-c4c5nc(c(-c6ccccc6)c6ccc([nH]6)c(-c6ccccc6)c6nc(c(-c7ccccc7)c7ccc4[nH]7)C=C6)C=C5)cc3)CC2)n1
REMARK SMILES IDX 12 1 11 2 9 3 10 4 8 6 66 7 67 8 7 9 6 12 5 13 1 14 2 15
REMARK SMILES IDX 3 16 68 17 4 18 13 19 14 20 15 21 16 22 17 24 18 25 19 26
REMARK SMILES IDX 65 27 20 28 64 29 21 30 22 31 23 32 58 33 24 34 63 35 57 36
REMARK SMILES IDX 59 37 25 38 62 39 56 40 55 41 26 43 48 44 33 45 47 46 34 47
REMARK SMILES IDX 37 48 46 49 60 50 35 51 36 52 45 54 61 55 38 56 27 57 28 58
REMARK SMILES IDX 32 59 29 60 31 61 30 62 49 63 50 64 54 65 51 66 53 67 52 68
REMARK SMILES IDX 39 69 40 70 44 71 41 72 43 73 42 74
REMARK H PARENT 11 5 7 10 7 11 15 23 59 42 37 53
REMARK Flexibility Score: inf
ROOT
ATOM      1  C   UNL A   1      46.446  24.050  26.958  1.00  0.00     0.118 C 
ENDROOT
BRANCH   1   2
ATOM      2  N   UNL A   1      46.011  24.660  25.715  1.00  0.00    -0.351 N 
ATOM      3  C   UNL A   1      45.092  24.051  24.894  1.00  0.00     0.281 C 
ATOM      4  O   UNL A   1      45.506  23.451  23.906  1.00  0.00    -0.268 OA
ATOM      5  H   UNL A   1      46.384  25.532  25.451  1.00  0.00     0.163 HD
BRANCH   3   6
ATOM      6  C   UNL A   1      43.600  24.197  25.174  1.00  0.00     0.176 C 
ATOM      7  C   UNL A   1      42.889  25.540  25.109  1.00  0.00     0.086 C 
ATOM      8  C   UNL A   1      43.214  24.937  26.441  1.00  0.00     0.086 C 
BRANCH   6   9
ATOM      9  N   UNL A   1      42.728  23.043  24.750  1.00  0.00    -0.328 N 
ATOM     10  H   UNL A   1      41.896  23.427  24.301  1.00  0.00     0.347 HD
ATOM     11  H   UNL A   1      43.303  22.472  24.131  1.00  0.00     0.347 HD
BRANCH   9  12
ATOM     12  C   UNL A   1      42.288  22.149  25.833  1.00  0.00     0.330 C 
BRANCH  12  13
ATOM     13  C   UNL A   1      42.984  20.813  25.833  1.00  0.00     0.147 A 
ATOM     14  C   UNL A   1      45.835  18.841  24.883  1.00  0.00     0.067 C 
ATOM     15  C   UNL A   1      44.503  19.263  25.380  1.00  0.00     0.049 A 
ATOM     16  C   UNL A   1      43.483  18.445  25.824  1.00  0.00     0.090 A 
ATOM     17  N   UNL A   1      44.213  20.615  25.402  1.00  0.00    -0.240 NA
ATOM     18  S   UNL A   1      42.131  19.389  26.291  1.00  0.00    -0.121 S 
ENDBRANCH  12  13
ENDBRANCH   9  12
ENDBRANCH   6   9
ENDBRANCH   3   6
ENDBRANCH   1   2
BRANCH   1  19
ATOM     19  C   UNL A   1      46.672  25.033  28.111  1.00  0.00     0.042 C 
BRANCH  19  20
ATOM     20  C   UNL A   1      46.280  26.491  27.868  1.00  0.00     0.118 C 
BRANCH  20  21
ATOM     21  N   UNL A   1      46.226  27.296  29.075  1.00  0.00    -0.352 N 
ATOM     22  C   UNL A   1      45.161  27.851  29.735  1.00  0.00     0.251 C 
ATOM     23  H   UNL A   1      47.102  27.471  29.489  1.00  0.00     0.163 HD
ATOM     24  O   UNL A   1      45.374  28.532  30.735  1.00  0.00    -0.269 OA
BRANCH  22  25
ATOM     25  C   UNL A   1      43.771  27.693  29.248  1.00  0.00     0.039 A 
ATOM     26  C   UNL A   1      42.908  26.898  30.013  1.00  0.00     0.014 A 
ATOM     27  C   UNL A   1      43.315  28.255  28.053  1.00  0.00     0.014 A 
ATOM     28  C   UNL A   1      41.584  26.713  29.613  1.00  0.00     0.010 A 
ATOM     29  C   UNL A   1      41.975  28.111  27.676  1.00  0.00     0.010 A 
ATOM     30  C   UNL A   1      41.099  27.339  28.454  1.00  0.00    -0.014 A 
BRANCH  30  31
ATOM     31  C   UNL A   1      39.671  27.189  28.078  1.00  0.00     0.031 A 
ATOM     32  C   UNL A   1      38.708  28.332  28.229  1.00  0.00     0.074 A 
ATOM     33  C   UNL A   1      39.236  26.010  27.593  1.00  0.00     0.049 A 
ATOM     34  N   UNL A   1      37.447  28.396  27.881  1.00  0.00    -0.248 NA
ATOM     35  C   UNL A   1      39.221  29.555  28.865  1.00  0.00     0.031 C 
ATOM     36  C   UNL A   1      40.054  24.806  27.437  1.00  0.00     0.029 A 
ATOM     37  N   UNL A   1      37.999  25.637  27.131  1.00  0.00    -0.354 N 
ATOM     38  C   UNL A   1      37.012  29.657  28.265  1.00  0.00     0.074 A 
ATOM     39  C   UNL A   1      38.135  30.315  28.898  1.00  0.00     0.031 C 
ATOM     40  C   UNL A   1      39.305  23.837  26.884  1.00  0.00     0.029 A 
ATOM     41  C   UNL A   1      37.957  24.349  26.658  1.00  0.00     0.049 A 
ATOM     42  H   UNL A   1      37.218  26.236  27.136  1.00  0.00     0.167 HD
ATOM     43  C   UNL A   1      35.793  30.223  28.095  1.00  0.00     0.031 A 
ATOM     44  C   UNL A   1      36.951  23.661  26.087  1.00  0.00     0.031 A 
ATOM     45  C   UNL A   1      34.675  29.586  27.454  1.00  0.00     0.049 A 
ATOM     46  C   UNL A   1      35.625  24.326  25.866  1.00  0.00     0.074 A 
ATOM     47  C   UNL A   1      33.416  30.102  27.197  1.00  0.00     0.029 A 
ATOM     48  N   UNL A   1      34.683  28.290  26.965  1.00  0.00    -0.354 N 
ATOM     49  N   UNL A   1      35.252  25.543  26.174  1.00  0.00    -0.248 NA
ATOM     50  C   UNL A   1      34.589  23.526  25.195  1.00  0.00     0.031 C 
ATOM     51  C   UNL A   1      32.654  29.110  26.569  1.00  0.00     0.029 A 
ATOM     52  C   UNL A   1      33.449  27.987  26.413  1.00  0.00     0.049 A 
ATOM     53  H   UNL A   1      35.451  27.676  27.004  1.00  0.00     0.167 HD
ATOM     54  C   UNL A   1      33.946  25.664  25.720  1.00  0.00     0.074 A 
ATOM     55  C   UNL A   1      33.595  24.400  25.104  1.00  0.00     0.031 C 
ATOM     56  C   UNL A   1      33.114  26.729  25.804  1.00  0.00     0.031 A 
BRANCH  43  57
ATOM     57  C   UNL A   1      35.609  31.616  28.620  1.00  0.00    -0.014 A 
ATOM     58  C   UNL A   1      35.708  32.726  27.767  1.00  0.00     0.009 A 
ATOM     59  C   UNL A   1      35.306  31.819  29.976  1.00  0.00     0.009 A 
ATOM     60  C   UNL A   1      35.535  34.018  28.270  1.00  0.00     0.001 A 
ATOM     61  C   UNL A   1      35.117  33.110  30.470  1.00  0.00     0.001 A 
ATOM     62  C   UNL A   1      35.239  34.208  29.619  1.00  0.00     0.000 A 
ENDBRANCH  43  57
BRANCH  44  63
ATOM     63  C   UNL A   1      37.177  22.266  25.638  1.00  0.00    -0.014 A 
ATOM     64  C   UNL A   1      38.482  21.772  25.500  1.00  0.00     0.009 A 
ATOM     65  C   UNL A   1      36.092  21.425  25.353  1.00  0.00     0.009 A 
ATOM     66  C   UNL A   1      38.698  20.463  25.066  1.00  0.00     0.001 A 
ATOM     67  C   UNL A   1      36.312  20.112  24.935  1.00  0.00     0.001 A 
ATOM     68  C   UNL A   1      37.613  19.633  24.786  1.00  0.00     0.000 A 
ENDBRANCH  44  63
BRANCH  56  69
ATOM     69  C   UNL A   1      31.752  26.576  25.195  1.00  0.00    -0.014 A 
ATOM     70  C   UNL A   1      31.488  27.033  23.895  1.00  0.00     0.009 A 
ATOM     71  C   UNL A   1      30.729  25.951  25.923  1.00  0.00     0.009 A 
ATOM     72  C   UNL A   1      30.213  26.890  23.345  1.00  0.00     0.001 A 
ATOM     73  C   UNL A   1      29.460  25.795  25.364  1.00  0.00     0.001 A 
ATOM     74  C   UNL A   1      29.201  26.271  24.079  1.00  0.00     0.000 A 
ENDBRANCH  56  69
ENDBRANCH  30  31
ENDBRANCH  22  25
ENDBRANCH  20  21
ENDBRANCH  19  20
ENDBRANCH   1  19
TORSDOF 13
ENDMDL
MODEL 2
REMARK VINA RESULT:     -10.5      5.686     12.514
REMARK SMILES Cc1csc(C[NH2+]C2(C(=O)NCCCNC(=O)c3ccc(-c4c5nc(c(-c6ccccc6)c6ccc([nH]6)c(-c6ccccc6)c6nc(c(-c7ccccc7)c7ccc4[nH]7)C=C6)C=C5)cc3)CC2)n1
REMARK SMILES IDX 12 1 11 2 9 3 10 4 8 6 66 7 67 8 7 9 6 12 5 13 1 14 2 15
REMARK SMILES IDX 3 16 68 17 4 18 13 19 14 20 15 21 16 22 17 24 18 25 19 26
REMARK SMILES IDX 65 27 20 28 64 29 21 30 22 31 23 32 58 33 24 34 63 35 57 36
REMARK SMILES IDX 59 37 25 38 62 39 56 40 55 41 26 43 48 44 33 45 47 46 34 47
REMARK SMILES IDX 37 48 46 49 60 50 35 51 36 52 45 54 61 55 38 56 27 57 28 58
REMARK SMILES IDX 32 59 29 60 31 61 30 62 49 63 50 64 54 65 51 66 53 67 52 68
REMARK SMILES IDX 39 69 40 70 44 71 41 72 43 73 42 74
REMARK H PARENT 11 5 7 10 7 11 15 23 59 42 37 53
REMARK Flexibility Score: inf
ROOT
ATOM      1  C   UNL A   1      31.406  30.470  26.308  1.00  0.00     0.118 C 
ENDROOT
BRANCH   1   2
ATOM      2  N   UNL A   1      31.690  30.077  24.940  1.00  0.00    -0.351 N 
ATOM      3  C   UNL A   1      32.104  28.805  24.626  1.00  0.00     0.281 C 
ATOM      4  O   UNL A   1      33.301  28.617  24.429  1.00  0.00    -0.268 OA
ATOM      5  H   UNL A   1      31.586  30.739  24.219  1.00  0.00     0.163 HD
BRANCH   3   6
ATOM      6  C   UNL A   1      31.079  27.689  24.448  1.00  0.00     0.176 C 
ATOM      7  C   UNL A   1      30.802  26.661  25.532  1.00  0.00     0.086 C 
ATOM      8  C   UNL A   1      31.621  26.277  24.339  1.00  0.00     0.086 C 
BRANCH   6   9
ATOM      9  N   UNL A   1      29.860  28.031  23.629  1.00  0.00    -0.328 N 
ATOM     10  H   UNL A   1      29.374  27.162  23.411  1.00  0.00     0.347 HD
ATOM     11  H   UNL A   1      29.314  28.677  24.198  1.00  0.00     0.347 HD
BRANCH   9  12
ATOM     12  C   UNL A   1      30.124  28.733  22.362  1.00  0.00     0.330 C 
BRANCH  12  13
ATOM     13  C   UNL A   1      29.249  29.940  22.147  1.00  0.00     0.147 A 
ATOM     14  C   UNL A   1      27.888  32.377  19.882  1.00  0.00     0.067 C 
ATOM     15  C   UNL A   1      28.272  31.638  21.110  1.00  0.00     0.049 A 
ATOM     16  C   UNL A   1      28.036  32.017  22.417  1.00  0.00     0.090 A 
ATOM     17  N   UNL A   1      28.954  30.444  20.967  1.00  0.00    -0.240 NA
ATOM     18  S   UNL A   1      28.672  30.846  23.494  1.00  0.00    -0.121 S 
ENDBRANCH  12  13
ENDBRANCH   9  12
ENDBRANCH   6   9
ENDBRANCH   3   6
ENDBRANCH   1   2
BRANCH   1  19
ATOM     19  C   UNL A   1      31.261  31.979  26.526  1.00  0.00     0.042 C 
BRANCH  19  20
ATOM     20  C   UNL A   1      32.525  32.752  26.903  1.00  0.00     0.118 C 
BRANCH  20  21
ATOM     21  N   UNL A   1      32.267  34.023  27.553  1.00  0.00    -0.352 N 
ATOM     22  C   UNL A   1      32.973  34.698  28.515  1.00  0.00     0.251 C 
ATOM     23  H   UNL A   1      31.447  34.478  27.252  1.00  0.00     0.163 HD
ATOM     24  O   UNL A   1      32.527  35.762  28.940  1.00  0.00    -0.269 OA
BRANCH  22  25
ATOM     25  C   UNL A   1      34.227  34.158  29.087  1.00  0.00     0.039 A 
ATOM     26  C   UNL A   1      34.112  33.229  30.129  1.00  0.00     0.014 A 
ATOM     27  C   UNL A   1      35.495  34.571  28.668  1.00  0.00     0.014 A 
ATOM     28  C   UNL A   1      35.256  32.677  30.707  1.00  0.00     0.010 A 
ATOM     29  C   UNL A   1      36.641  33.983  29.213  1.00  0.00     0.010 A 
ATOM     30  C   UNL A   1      36.531  33.030  30.237  1.00  0.00    -0.014 A 
BRANCH  30  31
ATOM     31  C   UNL A   1      37.735  32.383  30.816  1.00  0.00     0.031 A 
ATOM     32  C   UNL A   1      38.302  32.842  32.129  1.00  0.00     0.074 A 
ATOM     33  C   UNL A   1      38.323  31.370  30.152  1.00  0.00     0.049 A 
ATOM     34  N   UNL A   1      39.301  32.341  32.813  1.00  0.00    -0.248 NA
ATOM     35  C   UNL A   1      37.679  34.021  32.749  1.00  0.00     0.031 C 
ATOM     36  C   UNL A   1      37.903  30.856  28.847  1.00  0.00     0.029 A 
ATOM     37  N   UNL A   1      39.395  30.584  30.492  1.00  0.00    -0.354 N 
ATOM     38  C   UNL A   1      39.434  33.148  33.933  1.00  0.00     0.074 A 
ATOM     39  C   UNL A   1      38.434  34.188  33.826  1.00  0.00     0.031 C 
ATOM     40  C   UNL A   1      38.688  29.819  28.512  1.00  0.00     0.029 A 
ATOM     41  C   UNL A   1      39.669  29.603  29.571  1.00  0.00     0.049 A 
ATOM     42  H   UNL A   1      39.917  30.711  31.317  1.00  0.00     0.167 HD
ATOM     43  C   UNL A   1      40.302  33.029  34.967  1.00  0.00     0.031 A 
ATOM     44  C   UNL A   1      40.594  28.626  29.585  1.00  0.00     0.031 A 
ATOM     45  C   UNL A   1      41.289  31.991  35.094  1.00  0.00     0.049 A 
ATOM     46  C   UNL A   1      41.510  28.485  30.764  1.00  0.00     0.074 A 
ATOM     47  C   UNL A   1      42.179  31.766  36.131  1.00  0.00     0.029 A 
ATOM     48  N   UNL A   1      41.515  31.001  34.152  1.00  0.00    -0.354 N 
ATOM     49  N   UNL A   1      41.577  29.217  31.848  1.00  0.00    -0.248 NA
ATOM     50  C   UNL A   1      42.464  27.366  30.729  1.00  0.00     0.031 C 
ATOM     51  C   UNL A   1      42.959  30.650  35.806  1.00  0.00     0.029 A 
ATOM     52  C   UNL A   1      42.534  30.166  34.580  1.00  0.00     0.049 A 
ATOM     53  H   UNL A   1      41.024  30.905  33.304  1.00  0.00     0.167 HD
ATOM     54  C   UNL A   1      42.565  28.639  32.633  1.00  0.00     0.074 A 
ATOM     55  C   UNL A   1      43.062  27.487  31.906  1.00  0.00     0.031 C 
ATOM     56  C   UNL A   1      43.018  29.026  33.849  1.00  0.00     0.031 A 
BRANCH  43  57
ATOM     57  C   UNL A   1      40.217  34.061  36.052  1.00  0.00    -0.014 A 
ATOM     58  C   UNL A   1      40.982  35.236  35.990  1.00  0.00     0.009 A 
ATOM     59  C   UNL A   1      39.344  33.869  37.134  1.00  0.00     0.009 A 
ATOM     60  C   UNL A   1      40.894  36.189  37.008  1.00  0.00     0.001 A 
ATOM     61  C   UNL A   1      39.246  34.831  38.140  1.00  0.00     0.001 A 
ATOM     62  C   UNL A   1      40.026  35.986  38.080  1.00  0.00     0.000 A 
ENDBRANCH  43  57
BRANCH  44  63
ATOM     63  C   UNL A   1      40.666  27.667  28.457  1.00  0.00    -0.014 A 
ATOM     64  C   UNL A   1      39.937  26.470  28.499  1.00  0.00     0.009 A 
ATOM     65  C   UNL A   1      41.458  27.948  27.334  1.00  0.00     0.009 A 
ATOM     66  C   UNL A   1      40.012  25.561  27.443  1.00  0.00     0.001 A 
ATOM     67  C   UNL A   1      41.520  27.043  26.273  1.00  0.00     0.001 A 
ATOM     68  C   UNL A   1      40.802  25.849  26.330  1.00  0.00     0.000 A 
ENDBRANCH  44  63
BRANCH  56  69
ATOM     69  C   UNL A   1      44.087  28.184  34.477  1.00  0.00    -0.014 A 
ATOM     70  C   UNL A   1      43.759  27.088  35.288  1.00  0.00     0.009 A 
ATOM     71  C   UNL A   1      45.437  28.478  34.236  1.00  0.00     0.009 A 
ATOM     72  C   UNL A   1      44.767  26.317  35.871  1.00  0.00     0.001 A 
ATOM     73  C   UNL A   1      46.442  27.697  34.806  1.00  0.00     0.001 A 
ATOM     74  C   UNL A   1      46.107  26.621  35.629  1.00  0.00     0.000 A 
ENDBRANCH  56  69
ENDBRANCH  30  31
ENDBRANCH  22  25
ENDBRANCH  20  21
ENDBRANCH  19  20
ENDBRANCH   1  19
TORSDOF 13
ENDMDL
MODEL 3
REMARK VINA RESULT:     -10.5      3.591     11.242
REMARK SMILES Cc1csc(C[NH2+]C2(C(=O)NCCCNC(=O)c3ccc(-c4c5nc(c(-c6ccccc6)c6ccc([nH]6)c(-c6ccccc6)c6nc(c(-c7ccccc7)c7ccc4[nH]7)C=C6)C=C5)cc3)CC2)n1
REMARK SMILES IDX 12 1 11 2 9 3 10 4 8 6 66 7 67 8 7 9 6 12 5 13 1 14 2 15
REMARK SMILES IDX 3 16 68 17 4 18 13 19 14 20 15 21 16 22 17 24 18 25 19 26
REMARK SMILES IDX 65 27 20 28 64 29 21 30 22 31 23 32 58 33 24 34 63 35 57 36
REMARK SMILES IDX 59 37 25 38 62 39 56 40 55 41 26 43 48 44 33 45 47 46 34 47
REMARK SMILES IDX 37 48 46 49 60 50 35 51 36 52 45 54 61 55 38 56 27 57 28 58
REMARK SMILES IDX 32 59 29 60 31 61 30 62 49 63 50 64 54 65 51 66 53 67 52 68
REMARK SMILES IDX 39 69 40 70 44 71 41 72 43 73 42 74
REMARK H PARENT 11 5 7 10 7 11 15 23 59 42 37 53
REMARK Flexibility Score: inf
ROOT
ATOM      1  C   UNL A   1      37.223  21.121  24.703  1.00  0.00     0.118 C 
ENDROOT
BRANCH   1   2
ATOM      2  N   UNL A   1      37.064  21.764  25.996  1.00  0.00    -0.351 N 
ATOM      3  C   UNL A   1      36.442  22.982  26.124  1.00  0.00     0.281 C 
ATOM      4  O   UNL A   1      37.145  23.982  26.242  1.00  0.00    -0.268 OA
ATOM      5  H   UNL A   1      37.413  21.317  26.800  1.00  0.00     0.163 HD
BRANCH   3   6
ATOM      6  C   UNL A   1      34.920  23.059  26.201  1.00  0.00     0.176 C 
ATOM      7  C   UNL A   1      34.158  22.803  27.491  1.00  0.00     0.086 C 
ATOM      8  C   UNL A   1      34.182  21.753  26.424  1.00  0.00     0.086 C 
BRANCH   6   9
ATOM      9  N   UNL A   1      34.263  24.088  25.317  1.00  0.00    -0.328 N 
ATOM     10  H   UNL A   1      33.253  23.966  25.391  1.00  0.00     0.347 HD
ATOM     11  H   UNL A   1      34.593  24.994  25.649  1.00  0.00     0.347 HD
BRANCH   9  12
ATOM     12  C   UNL A   1      34.624  24.023  23.891  1.00  0.00     0.330 C 
BRANCH  12  13
ATOM     13  C   UNL A   1      33.713  24.828  23.002  1.00  0.00     0.147 A 
ATOM     14  C   UNL A   1      32.422  25.466  19.707  1.00  0.00     0.067 C 
ATOM     15  C   UNL A   1      32.742  25.572  21.152  1.00  0.00     0.049 A 
ATOM     16  C   UNL A   1      32.386  26.593  22.011  1.00  0.00     0.090 A 
ATOM     17  N   UNL A   1      33.488  24.562  21.731  1.00  0.00    -0.240 NA
ATOM     18  S   UNL A   1      32.989  26.279  23.583  1.00  0.00    -0.121 S 
ENDBRANCH  12  13
ENDBRANCH   9  12
ENDBRANCH   6   9
ENDBRANCH   3   6
ENDBRANCH   1   2
BRANCH   1  19
ATOM     19  C   UNL A   1      38.207  19.947  24.687  1.00  0.00     0.042 C 
BRANCH  19  20
ATOM     20  C   UNL A   1      38.982  19.671  25.976  1.00  0.00     0.118 C 
BRANCH  20  21
ATOM     21  N   UNL A   1      40.273  19.044  25.765  1.00  0.00    -0.352 N 
ATOM     22  C   UNL A   1      41.544  19.517  25.968  1.00  0.00     0.251 C 
ATOM     23  H   UNL A   1      40.229  18.123  25.418  1.00  0.00     0.163 HD
ATOM     24  O   UNL A   1      42.496  18.797  25.678  1.00  0.00    -0.269 OA
BRANCH  22  25
ATOM     25  C   UNL A   1      41.796  20.883  26.479  1.00  0.00     0.039 A 
ATOM     26  C   UNL A   1      41.653  21.092  27.856  1.00  0.00     0.014 A 
ATOM     27  C   UNL A   1      42.116  21.960  25.647  1.00  0.00     0.014 A 
ATOM     28  C   UNL A   1      41.882  22.355  28.403  1.00  0.00     0.010 A 
ATOM     29  C   UNL A   1      42.394  23.215  26.199  1.00  0.00     0.010 A 
ATOM     30  C   UNL A   1      42.280  23.422  27.582  1.00  0.00    -0.014 A 
BRANCH  30  31
ATOM     31  C   UNL A   1      42.587  24.743  28.187  1.00  0.00     0.031 A 
ATOM     32  C   UNL A   1      43.991  25.104  28.581  1.00  0.00     0.074 A 
ATOM     33  C   UNL A   1      41.590  25.627  28.383  1.00  0.00     0.049 A 
ATOM     34  N   UNL A   1      44.446  26.239  29.052  1.00  0.00    -0.248 NA
ATOM     35  C   UNL A   1      45.013  24.056  28.442  1.00  0.00     0.031 C 
ATOM     36  C   UNL A   1      40.176  25.387  28.088  1.00  0.00     0.029 A 
ATOM     37  N   UNL A   1      41.619  26.911  28.865  1.00  0.00    -0.354 N 
ATOM     38  C   UNL A   1      45.800  26.038  29.277  1.00  0.00     0.074 A 
ATOM     39  C   UNL A   1      46.089  24.666  28.919  1.00  0.00     0.031 C 
ATOM     40  C   UNL A   1      39.477  26.501  28.365  1.00  0.00     0.029 A 
ATOM     41  C   UNL A   1      40.390  27.524  28.865  1.00  0.00     0.049 A 
ATOM     42  H   UNL A   1      42.441  27.351  29.181  1.00  0.00     0.167 HD
ATOM     43  C   UNL A   1      46.726  26.919  29.729  1.00  0.00     0.031 A 
ATOM     44  C   UNL A   1      40.039  28.777  29.208  1.00  0.00     0.031 A 
ATOM     45  C   UNL A   1      46.455  28.288  30.073  1.00  0.00     0.049 A 
ATOM     46  C   UNL A   1      41.090  29.748  29.658  1.00  0.00     0.074 A 
ATOM     47  C   UNL A   1      47.341  29.265  30.494  1.00  0.00     0.029 A 
ATOM     48  N   UNL A   1      45.202  28.877  30.031  1.00  0.00    -0.354 N 
ATOM     49  N   UNL A   1      42.378  29.560  29.801  1.00  0.00    -0.248 NA
ATOM     50  C   UNL A   1      40.637  31.111  29.974  1.00  0.00     0.031 C 
ATOM     51  C   UNL A   1      46.620  30.442  30.729  1.00  0.00     0.029 A 
ATOM     52  C   UNL A   1      45.290  30.202  30.426  1.00  0.00     0.049 A 
ATOM     53  H   UNL A   1      44.372  28.421  29.761  1.00  0.00     0.167 HD
ATOM     54  C   UNL A   1      42.895  30.784  30.203  1.00  0.00     0.074 A 
ATOM     55  C   UNL A   1      41.782  31.710  30.271  1.00  0.00     0.031 C 
ATOM     56  C   UNL A   1      44.178  31.111  30.488  1.00  0.00     0.031 A 
BRANCH  43  57
ATOM     57  C   UNL A   1      48.131  26.416  29.878  1.00  0.00    -0.014 A 
ATOM     58  C   UNL A   1      49.045  26.509  28.817  1.00  0.00     0.009 A 
ATOM     59  C   UNL A   1      48.552  25.868  31.099  1.00  0.00     0.009 A 
ATOM     60  C   UNL A   1      50.351  26.035  28.970  1.00  0.00     0.001 A 
ATOM     61  C   UNL A   1      49.862  25.411  31.253  1.00  0.00     0.001 A 
ATOM     62  C   UNL A   1      50.758  25.489  30.186  1.00  0.00     0.000 A 
ENDBRANCH  43  57
BRANCH  44  63
ATOM     63  C   UNL A   1      38.623  29.200  29.092  1.00  0.00    -0.014 A 
ATOM     64  C   UNL A   1      38.128  29.684  27.873  1.00  0.00     0.009 A 
ATOM     65  C   UNL A   1      37.762  29.117  30.196  1.00  0.00     0.009 A 
ATOM     66  C   UNL A   1      36.798  30.094  27.764  1.00  0.00     0.001 A 
ATOM     67  C   UNL A   1      36.429  29.513  30.080  1.00  0.00     0.001 A 
ATOM     68  C   UNL A   1      35.949  30.006  28.868  1.00  0.00     0.000 A 
ENDBRANCH  44  63
BRANCH  56  69
ATOM     69  C   UNL A   1      44.446  32.534  30.876  1.00  0.00    -0.014 A 
ATOM     70  C   UNL A   1      44.508  32.914  32.225  1.00  0.00     0.009 A 
ATOM     71  C   UNL A   1      44.660  33.499  29.881  1.00  0.00     0.009 A 
ATOM     72  C   UNL A   1      44.751  34.245  32.570  1.00  0.00     0.001 A 
ATOM     73  C   UNL A   1      44.919  34.825  30.229  1.00  0.00     0.001 A 
ATOM     74  C   UNL A   1      44.958  35.199  31.573  1.00  0.00     0.000 A 
ENDBRANCH  56  69
ENDBRANCH  30  31
ENDBRANCH  22  25
ENDBRANCH  20  21
ENDBRANCH  19  20
ENDBRANCH   1  19
TORSDOF 13
ENDMDL
