MODEL 1
REMARK VINA RESULT:     -10.1      0.000      0.000
REMARK SMILES O=C(Cc1cccc(Oc2ncnc3c2CCCC3)c1)NCCCNC(=O)c1ccc(-c2c3nc(c(-c4ccccc4)c4ccc([nH]4)c(-c4ccccc4)c4nc(c(-c5ccccc5)c5ccc2[nH]5)C=C4)C=C3)cc1
REMARK SMILES IDX 22 1 21 2 1 3 2 4 3 6 4 7 5 8 20 9 6 10 8 11 7 12 9 13 10 14
REMARK SMILES IDX 11 15 15 16 12 17 14 18 16 19 13 20 19 21 17 22 18 23 23 24
REMARK SMILES IDX 24 25 25 26 26 27 27 29 28 30 29 31 75 32 30 33 74 34 31 35
REMARK SMILES IDX 32 36 33 37 68 38 34 39 73 40 67 41 69 42 35 43 72 44 66 45
REMARK SMILES IDX 65 46 36 48 58 49 43 50 57 51 44 52 47 53 56 54 70 55 45 56
REMARK SMILES IDX 46 57 55 59 71 60 48 61 37 62 38 63 42 64 39 65 41 66 40 67
REMARK SMILES IDX 59 68 60 69 64 70 61 71 63 72 62 73 49 74 50 75 54 76 51 77
REMARK SMILES IDX 53 78 52 79
REMARK H PARENT 21 5 25 28 69 47 47 58
REMARK Flexibility Score: inf
ROOT
ATOM      1  C   UNL A   1      45.791  19.585  25.114  1.00  0.00     0.117 C 
ENDROOT
BRANCH   1   2
ATOM      2  N   UNL A   1      45.779  20.838  24.392  1.00  0.00    -0.356 N 
ATOM      3  O   UNL A   1      46.018  22.211  26.221  1.00  0.00    -0.275 OA
ATOM      4  C   UNL A   1      45.967  22.060  25.006  1.00  0.00     0.224 C 
ATOM      5  H   UNL A   1      45.632  20.819  23.419  1.00  0.00     0.163 HD
BRANCH   4   6
ATOM      6  C   UNL A   1      46.119  23.207  24.020  1.00  0.00     0.135 C 
BRANCH   6   7
ATOM      7  C   UNL A   1      46.325  24.540  24.705  1.00  0.00    -0.035 A 
ATOM      8  C   UNL A   1      45.243  25.352  25.074  1.00  0.00     0.004 A 
ATOM      9  C   UNL A   1      47.626  24.989  24.971  1.00  0.00     0.051 A 
ATOM     10  C   UNL A   1      45.457  26.600  25.659  1.00  0.00     0.004 A 
ATOM     11  C   UNL A   1      47.848  26.233  25.573  1.00  0.00     0.129 A 
ATOM     12  C   UNL A   1      46.756  27.040  25.902  1.00  0.00     0.047 A 
BRANCH  11  13
ATOM     13  O   UNL A   1      49.080  26.768  25.885  1.00  0.00    -0.439 OA
BRANCH  13  14
ATOM     14  C   UNL A   1      49.965  26.980  24.847  1.00  0.00     0.225 A 
ATOM     15  N   UNL A   1      49.574  27.835  23.883  1.00  0.00    -0.201 NA
ATOM     16  C   UNL A   1      51.206  26.367  24.896  1.00  0.00     0.036 A 
ATOM     17  C   UNL A   1      50.458  28.032  22.903  1.00  0.00     0.226 A 
ATOM     18  C   UNL A   1      52.047  26.671  23.837  1.00  0.00     0.051 A 
ATOM     19  C   UNL A   1      51.632  25.505  26.047  1.00  0.00     0.043 C 
ATOM     20  N   UNL A   1      51.678  27.483  22.821  1.00  0.00    -0.241 NA
ATOM     21  C   UNL A   1      53.419  26.060  23.731  1.00  0.00     0.057 C 
ATOM     22  C   UNL A   1      52.897  24.694  25.760  1.00  0.00     0.005 C 
ATOM     23  C   UNL A   1      53.949  25.557  25.072  1.00  0.00     0.007 C 
ENDBRANCH  13  14
ENDBRANCH  11  13
ENDBRANCH   6   7
ENDBRANCH   4   6
ENDBRANCH   1   2
BRANCH   1  24
ATOM     24  C   UNL A   1      44.507  18.792  24.909  1.00  0.00     0.042 C 
BRANCH  24  25
ATOM     25  C   UNL A   1      43.670  18.583  26.168  1.00  0.00     0.118 C 
BRANCH  25  26
ATOM     26  N   UNL A   1      42.235  18.668  25.941  1.00  0.00    -0.352 N 
ATOM     27  C   UNL A   1      41.374  19.709  26.204  1.00  0.00     0.251 C 
ATOM     28  H   UNL A   1      41.821  17.867  25.544  1.00  0.00     0.163 HD
ATOM     29  O   UNL A   1      40.167  19.569  26.041  1.00  0.00    -0.269 OA
BRANCH  27  30
ATOM     30  C   UNL A   1      41.905  20.985  26.727  1.00  0.00     0.039 A 
ATOM     31  C   UNL A   1      42.280  21.978  25.819  1.00  0.00     0.014 A 
ATOM     32  C   UNL A   1      41.995  21.219  28.102  1.00  0.00     0.014 A 
ATOM     33  C   UNL A   1      42.655  23.239  26.289  1.00  0.00     0.010 A 
ATOM     34  C   UNL A   1      42.303  22.495  28.566  1.00  0.00     0.010 A 
ATOM     35  C   UNL A   1      42.621  23.522  27.664  1.00  0.00    -0.014 A 
BRANCH  35  36
ATOM     36  C   UNL A   1      42.864  24.896  28.173  1.00  0.00     0.031 A 
ATOM     37  C   UNL A   1      44.228  25.300  28.659  1.00  0.00     0.074 A 
ATOM     38  C   UNL A   1      41.835  25.760  28.273  1.00  0.00     0.049 A 
ATOM     39  N   UNL A   1      44.607  26.425  29.212  1.00  0.00    -0.248 NA
ATOM     40  C   UNL A   1      45.301  24.302  28.526  1.00  0.00     0.031 C 
ATOM     41  C   UNL A   1      40.453  25.485  27.872  1.00  0.00     0.029 A 
ATOM     42  N   UNL A   1      41.788  27.044  28.758  1.00  0.00    -0.354 N 
ATOM     43  C   UNL A   1      45.955  26.266  29.505  1.00  0.00     0.074 A 
ATOM     44  C   UNL A   1      46.318  24.922  29.109  1.00  0.00     0.031 C 
ATOM     45  C   UNL A   1      39.702  26.572  28.105  1.00  0.00     0.029 A 
ATOM     46  C   UNL A   1      40.534  27.604  28.713  1.00  0.00     0.049 A 
ATOM     47  H   UNL A   1      42.578  27.518  29.103  1.00  0.00     0.167 HD
ATOM     48  C   UNL A   1      46.818  27.162  30.041  1.00  0.00     0.031 A 
ATOM     49  C   UNL A   1      40.097  28.808  29.129  1.00  0.00     0.031 A 
ATOM     50  C   UNL A   1      46.462  28.500  30.432  1.00  0.00     0.049 A 
ATOM     51  C   UNL A   1      41.068  29.771  29.752  1.00  0.00     0.074 A 
ATOM     52  C   UNL A   1      47.283  29.498  30.931  1.00  0.00     0.029 A 
ATOM     53  N   UNL A   1      45.181  29.026  30.376  1.00  0.00    -0.354 N 
ATOM     54  N   UNL A   1      42.354  29.628  29.960  1.00  0.00    -0.248 NA
ATOM     55  C   UNL A   1      40.525  31.065  30.192  1.00  0.00     0.031 C 
ATOM     56  C   UNL A   1      46.487  30.610  31.228  1.00  0.00     0.029 A 
ATOM     57  C   UNL A   1      45.183  30.323  30.861  1.00  0.00     0.049 A 
ATOM     58  H   UNL A   1      44.389  28.548  30.041  1.00  0.00     0.167 HD
ATOM     59  C   UNL A   1      42.778  30.819  30.535  1.00  0.00     0.074 A 
ATOM     60  C   UNL A   1      41.616  31.680  30.625  1.00  0.00     0.031 C 
ATOM     61  C   UNL A   1      44.019  31.167  30.952  1.00  0.00     0.031 A 
BRANCH  48  62
ATOM     62  C   UNL A   1      48.238  26.715  30.247  1.00  0.00    -0.014 A 
ATOM     63  C   UNL A   1      49.221  26.940  29.270  1.00  0.00     0.009 A 
ATOM     64  C   UNL A   1      48.607  26.095  31.451  1.00  0.00     0.009 A 
ATOM     65  C   UNL A   1      50.536  26.521  29.480  1.00  0.00     0.001 A 
ATOM     66  C   UNL A   1      49.929  25.703  31.669  1.00  0.00     0.001 A 
ATOM     67  C   UNL A   1      50.890  25.907  30.680  1.00  0.00     0.000 A 
ENDBRANCH  48  62
BRANCH  49  68
ATOM     68  C   UNL A   1      38.665  29.176  28.971  1.00  0.00    -0.014 A 
ATOM     69  C   UNL A   1      38.173  29.599  27.727  1.00  0.00     0.009 A 
ATOM     70  C   UNL A   1      37.787  29.117  30.064  1.00  0.00     0.009 A 
ATOM     71  C   UNL A   1      36.837  29.978  27.586  1.00  0.00     0.001 A 
ATOM     72  C   UNL A   1      36.445  29.470  29.914  1.00  0.00     0.001 A 
ATOM     73  C   UNL A   1      35.972  29.909  28.678  1.00  0.00     0.000 A 
ENDBRANCH  49  68
BRANCH  61  74
ATOM     74  C   UNL A   1      44.190  32.547  31.521  1.00  0.00    -0.014 A 
ATOM     75  C   UNL A   1      44.480  33.644  30.695  1.00  0.00     0.009 A 
ATOM     76  C   UNL A   1      44.020  32.759  32.899  1.00  0.00     0.009 A 
ATOM     77  C   UNL A   1      44.630  34.920  31.243  1.00  0.00     0.001 A 
ATOM     78  C   UNL A   1      44.142  34.040  33.439  1.00  0.00     0.001 A 
ATOM     79  C   UNL A   1      44.456  35.117  32.612  1.00  0.00     0.000 A 
ENDBRANCH  61  74
ENDBRANCH  35  36
ENDBRANCH  27  30
ENDBRANCH  25  26
ENDBRANCH  24  25
ENDBRANCH   1  24
TORSDOF 13
ENDMDL
MODEL 2
REMARK VINA RESULT:     -10.1      0.457      5.962
REMARK SMILES O=C(Cc1cccc(Oc2ncnc3c2CCCC3)c1)NCCCNC(=O)c1ccc(-c2c3nc(c(-c4ccccc4)c4ccc([nH]4)c(-c4ccccc4)c4nc(c(-c5ccccc5)c5ccc2[nH]5)C=C4)C=C3)cc1
REMARK SMILES IDX 22 1 21 2 1 3 2 4 3 6 4 7 5 8 20 9 6 10 8 11 7 12 9 13 10 14
REMARK SMILES IDX 11 15 15 16 12 17 14 18 16 19 13 20 19 21 17 22 18 23 23 24
REMARK SMILES IDX 24 25 25 26 26 27 27 29 28 30 29 31 75 32 30 33 74 34 31 35
REMARK SMILES IDX 32 36 33 37 68 38 34 39 73 40 67 41 69 42 35 43 72 44 66 45
REMARK SMILES IDX 65 46 36 48 58 49 43 50 57 51 44 52 47 53 56 54 70 55 45 56
REMARK SMILES IDX 46 57 55 59 71 60 48 61 37 62 38 63 42 64 39 65 41 66 40 67
REMARK SMILES IDX 59 68 60 69 64 70 61 71 63 72 62 73 49 74 50 75 54 76 51 77
REMARK SMILES IDX 53 78 52 79
REMARK H PARENT 21 5 25 28 69 47 47 58
REMARK Flexibility Score: inf
ROOT
ATOM      1  C   UNL A   1      45.085  19.546  25.428  1.00  0.00     0.117 C 
ENDROOT
BRANCH   1   2
ATOM      2  N   UNL A   1      45.207  20.759  24.650  1.00  0.00    -0.356 N 
ATOM      3  O   UNL A   1      46.090  22.069  26.321  1.00  0.00    -0.275 OA
ATOM      4  C   UNL A   1      45.772  21.916  25.147  1.00  0.00     0.224 C 
ATOM      5  H   UNL A   1      44.872  20.760  23.724  1.00  0.00     0.163 HD
BRANCH   4   6
ATOM      6  C   UNL A   1      45.976  22.985  24.085  1.00  0.00     0.135 C 
BRANCH   6   7
ATOM      7  C   UNL A   1      46.107  24.372  24.674  1.00  0.00    -0.035 A 
ATOM      8  C   UNL A   1      44.983  25.129  25.034  1.00  0.00     0.004 A 
ATOM      9  C   UNL A   1      47.381  24.930  24.858  1.00  0.00     0.051 A 
ATOM     10  C   UNL A   1      45.125  26.425  25.529  1.00  0.00     0.004 A 
ATOM     11  C   UNL A   1      47.532  26.224  25.370  1.00  0.00     0.129 A 
ATOM     12  C   UNL A   1      46.396  26.972  25.690  1.00  0.00     0.047 A 
BRANCH  11  13
ATOM     13  O   UNL A   1      48.732  26.864  25.596  1.00  0.00    -0.439 OA
BRANCH  13  14
ATOM     14  C   UNL A   1      49.594  27.002  24.526  1.00  0.00     0.225 A 
ATOM     15  N   UNL A   1      49.158  27.744  23.490  1.00  0.00    -0.201 NA
ATOM     16  C   UNL A   1      50.856  26.440  24.613  1.00  0.00     0.036 A 
ATOM     17  C   UNL A   1      50.021  27.873  22.479  1.00  0.00     0.226 A 
ATOM     18  C   UNL A   1      51.671  26.666  23.514  1.00  0.00     0.051 A 
ATOM     19  C   UNL A   1      51.330  25.711  25.836  1.00  0.00     0.043 C 
ATOM     20  N   UNL A   1      51.258  27.360  22.430  1.00  0.00    -0.241 NA
ATOM     21  C   UNL A   1      53.062  26.093  23.444  1.00  0.00     0.057 C 
ATOM     22  C   UNL A   1      52.618  24.918  25.607  1.00  0.00     0.005 C 
ATOM     23  C   UNL A   1      53.628  25.744  24.818  1.00  0.00     0.007 C 
ENDBRANCH  13  14
ENDBRANCH  11  13
ENDBRANCH   6   7
ENDBRANCH   4   6
ENDBRANCH   1   2
BRANCH   1  24
ATOM     24  C   UNL A   1      43.840  18.750  25.059  1.00  0.00     0.042 C 
BRANCH  24  25
ATOM     25  C   UNL A   1      42.865  18.510  26.208  1.00  0.00     0.118 C 
BRANCH  25  26
ATOM     26  N   UNL A   1      41.474  18.759  25.861  1.00  0.00    -0.352 N 
ATOM     27  C   UNL A   1      40.711  19.883  26.085  1.00  0.00     0.251 C 
ATOM     28  H   UNL A   1      41.013  18.020  25.402  1.00  0.00     0.163 HD
ATOM     29  O   UNL A   1      39.516  19.883  25.813  1.00  0.00    -0.269 OA
BRANCH  27  30
ATOM     30  C   UNL A   1      41.329  21.079  26.696  1.00  0.00     0.039 A 
ATOM     31  C   UNL A   1      41.837  22.074  25.858  1.00  0.00     0.014 A 
ATOM     32  C   UNL A   1      41.370  21.239  28.084  1.00  0.00     0.014 A 
ATOM     33  C   UNL A   1      42.302  23.270  26.409  1.00  0.00     0.010 A 
ATOM     34  C   UNL A   1      41.770  22.457  28.627  1.00  0.00     0.010 A 
ATOM     35  C   UNL A   1      42.224  23.492  27.793  1.00  0.00    -0.014 A 
BRANCH  35  36
ATOM     36  C   UNL A   1      42.565  24.812  28.383  1.00  0.00     0.031 A 
ATOM     37  C   UNL A   1      41.516  25.879  28.525  1.00  0.00     0.074 A 
ATOM     38  C   UNL A   1      43.843  25.079  28.719  1.00  0.00     0.049 A 
ATOM     39  N   UNL A   1      41.647  27.114  28.939  1.00  0.00    -0.248 NA
ATOM     40  C   UNL A   1      40.146  25.517  28.130  1.00  0.00     0.031 C 
ATOM     41  C   UNL A   1      44.966  24.146  28.599  1.00  0.00     0.029 A 
ATOM     42  N   UNL A   1      44.416  26.222  29.218  1.00  0.00    -0.354 N 
ATOM     43  C   UNL A   1      40.384  27.681  28.841  1.00  0.00     0.074 A 
ATOM     44  C   UNL A   1      39.509  26.669  28.289  1.00  0.00     0.031 C 
ATOM     45  C   UNL A   1      46.085  24.745  29.033  1.00  0.00     0.029 A 
ATOM     46  C   UNL A   1      45.771  26.116  29.419  1.00  0.00     0.049 A 
ATOM     47  H   UNL A   1      43.904  27.039  29.415  1.00  0.00     0.167 HD
ATOM     48  C   UNL A   1      39.983  28.926  29.194  1.00  0.00     0.031 A 
ATOM     49  C   UNL A   1      46.666  27.025  29.851  1.00  0.00     0.031 A 
ATOM     50  C   UNL A   1      40.849  29.933  29.746  1.00  0.00     0.049 A 
ATOM     51  C   UNL A   1      46.202  28.410  30.203  1.00  0.00     0.074 A 
ATOM     52  C   UNL A   1      40.520  31.204  30.187  1.00  0.00     0.029 A 
ATOM     53  N   UNL A   1      42.215  29.788  29.928  1.00  0.00    -0.354 N 
ATOM     54  N   UNL A   1      44.990  28.908  30.167  1.00  0.00    -0.248 NA
ATOM     55  C   UNL A   1      47.230  29.356  30.660  1.00  0.00     0.031 C 
ATOM     56  C   UNL A   1      41.697  31.847  30.584  1.00  0.00     0.029 A 
ATOM     57  C   UNL A   1      42.749  30.957  30.444  1.00  0.00     0.049 A 
ATOM     58  H   UNL A   1      42.729  28.975  29.721  1.00  0.00     0.167 HD
ATOM     59  C   UNL A   1      45.106  30.217  30.616  1.00  0.00     0.074 A 
ATOM     60  C   UNL A   1      46.503  30.429  30.937  1.00  0.00     0.031 C 
ATOM     61  C   UNL A   1      44.141  31.159  30.751  1.00  0.00     0.031 A 
BRANCH  48  62
ATOM     62  C   UNL A   1      38.536  29.272  28.978  1.00  0.00    -0.014 A 
ATOM     63  C   UNL A   1      37.606  29.199  30.028  1.00  0.00     0.009 A 
ATOM     64  C   UNL A   1      38.104  29.715  27.719  1.00  0.00     0.009 A 
ATOM     65  C   UNL A   1      36.267  29.528  29.811  1.00  0.00     0.001 A 
ATOM     66  C   UNL A   1      36.770  30.070  27.512  1.00  0.00     0.001 A 
ATOM     67  C   UNL A   1      35.850  29.967  28.555  1.00  0.00     0.000 A 
ENDBRANCH  48  62
BRANCH  49  68
ATOM     68  C   UNL A   1      48.101  26.656  29.977  1.00  0.00    -0.014 A 
ATOM     69  C   UNL A   1      48.577  26.041  31.144  1.00  0.00     0.009 A 
ATOM     70  C   UNL A   1      49.002  26.926  28.935  1.00  0.00     0.009 A 
ATOM     71  C   UNL A   1      49.931  25.726  31.276  1.00  0.00     0.001 A 
ATOM     72  C   UNL A   1      50.350  26.584  29.058  1.00  0.00     0.001 A 
ATOM     73  C   UNL A   1      50.816  25.993  30.232  1.00  0.00     0.000 A 
ENDBRANCH  49  68
BRANCH  61  74
ATOM     74  C   UNL A   1      44.560  32.498  31.289  1.00  0.00    -0.014 A 
ATOM     75  C   UNL A   1      44.583  32.752  32.669  1.00  0.00     0.009 A 
ATOM     76  C   UNL A   1      44.972  33.506  30.404  1.00  0.00     0.009 A 
ATOM     77  C   UNL A   1      44.980  34.001  33.150  1.00  0.00     0.001 A 
ATOM     78  C   UNL A   1      45.396  34.745  30.889  1.00  0.00     0.001 A 
ATOM     79  C   UNL A   1      45.391  34.994  32.261  1.00  0.00     0.000 A 
ENDBRANCH  61  74
ENDBRANCH  35  36
ENDBRANCH  27  30
ENDBRANCH  25  26
ENDBRANCH  24  25
ENDBRANCH   1  24
TORSDOF 13
ENDMDL
MODEL 3
REMARK VINA RESULT:      -9.9      4.270     11.052
REMARK SMILES O=C(Cc1cccc(Oc2ncnc3c2CCCC3)c1)NCCCNC(=O)c1ccc(-c2c3nc(c(-c4ccccc4)c4ccc([nH]4)c(-c4ccccc4)c4nc(c(-c5ccccc5)c5ccc2[nH]5)C=C4)C=C3)cc1
REMARK SMILES IDX 22 1 21 2 1 3 2 4 3 6 4 7 5 8 20 9 6 10 8 11 7 12 9 13 10 14
REMARK SMILES IDX 11 15 15 16 12 17 14 18 16 19 13 20 19 21 17 22 18 23 23 24
REMARK SMILES IDX 24 25 25 26 26 27 27 29 28 30 29 31 75 32 30 33 74 34 31 35
REMARK SMILES IDX 32 36 33 37 68 38 34 39 73 40 67 41 69 42 35 43 72 44 66 45
REMARK SMILES IDX 65 46 36 48 58 49 43 50 57 51 44 52 47 53 56 54 70 55 45 56
REMARK SMILES IDX 46 57 55 59 71 60 48 61 37 62 38 63 42 64 39 65 41 66 40 67
REMARK SMILES IDX 59 68 60 69 64 70 61 71 63 72 62 73 49 74 50 75 54 76 51 77
REMARK SMILES IDX 53 78 52 79
REMARK H PARENT 21 5 25 28 69 47 47 58
REMARK Flexibility Score: inf
ROOT
ATOM      1  C   UNL A   1      36.672  19.758  24.724  1.00  0.00     0.117 C 
ENDROOT
BRANCH   1   2
ATOM      2  N   UNL A   1      36.214  20.817  25.596  1.00  0.00    -0.356 N 
ATOM      3  O   UNL A   1      35.629  22.302  23.941  1.00  0.00    -0.275 OA
ATOM      4  C   UNL A   1      35.658  21.990  25.126  1.00  0.00     0.224 C 
ATOM      5  H   UNL A   1      36.303  20.697  26.569  1.00  0.00     0.163 HD
BRANCH   4   6
ATOM      6  C   UNL A   1      35.068  22.855  26.228  1.00  0.00     0.135 C 
BRANCH   6   7
ATOM      7  C   UNL A   1      33.557  22.906  26.181  1.00  0.00    -0.035 A 
ATOM      8  C   UNL A   1      32.793  21.782  25.838  1.00  0.00     0.004 A 
ATOM      9  C   UNL A   1      32.895  24.107  26.474  1.00  0.00     0.051 A 
ATOM     10  C   UNL A   1      31.403  21.865  25.753  1.00  0.00     0.004 A 
ATOM     11  C   UNL A   1      31.499  24.193  26.407  1.00  0.00     0.129 A 
ATOM     12  C   UNL A   1      30.760  23.069  26.031  1.00  0.00     0.047 A 
BRANCH  11  13
ATOM     13  O   UNL A   1      30.748  25.317  26.680  1.00  0.00    -0.439 OA
BRANCH  13  14
ATOM     14  C   UNL A   1      30.728  26.318  25.728  1.00  0.00     0.225 A 
ATOM     15  N   UNL A   1      29.994  26.086  24.623  1.00  0.00    -0.201 NA
ATOM     16  C   UNL A   1      31.390  27.503  25.996  1.00  0.00     0.036 A 
ATOM     17  C   UNL A   1      29.980  27.079  23.731  1.00  0.00     0.226 A 
ATOM     18  C   UNL A   1      31.279  28.469  25.008  1.00  0.00     0.051 A 
ATOM     19  C   UNL A   1      32.106  27.750  27.292  1.00  0.00     0.043 C 
ATOM     20  N   UNL A   1      30.597  28.262  23.860  1.00  0.00    -0.241 NA
ATOM     21  C   UNL A   1      31.969  29.801  25.137  1.00  0.00     0.057 C 
ATOM     22  C   UNL A   1      33.013  28.981  27.257  1.00  0.00     0.005 C 
ATOM     23  C   UNL A   1      32.309  30.153  26.584  1.00  0.00     0.007 C 
ENDBRANCH  13  14
ENDBRANCH  11  13
ENDBRANCH   6   7
ENDBRANCH   4   6
ENDBRANCH   1   2
BRANCH   1  24
ATOM     24  C   UNL A   1      38.191  19.702  24.636  1.00  0.00     0.042 C 
BRANCH  24  25
ATOM     25  C   UNL A   1      38.907  19.496  25.967  1.00  0.00     0.118 C 
BRANCH  25  26
ATOM     26  N   UNL A   1      40.202  18.845  25.844  1.00  0.00    -0.352 N 
ATOM     27  C   UNL A   1      41.459  19.367  26.050  1.00  0.00     0.251 C 
ATOM     28  H   UNL A   1      40.177  17.898  25.576  1.00  0.00     0.163 HD
ATOM     29  O   UNL A   1      42.456  18.697  25.800  1.00  0.00    -0.269 OA
BRANCH  27  30
ATOM     30  C   UNL A   1      41.607  20.756  26.532  1.00  0.00     0.039 A 
ATOM     31  C   UNL A   1      41.654  20.988  27.908  1.00  0.00     0.014 A 
ATOM     32  C   UNL A   1      41.739  21.820  25.634  1.00  0.00     0.014 A 
ATOM     33  C   UNL A   1      41.928  22.272  28.385  1.00  0.00     0.010 A 
ATOM     34  C   UNL A   1      42.079  23.084  26.108  1.00  0.00     0.010 A 
ATOM     35  C   UNL A   1      42.193  23.320  27.488  1.00  0.00    -0.014 A 
BRANCH  35  36
ATOM     36  C   UNL A   1      42.639  24.652  27.970  1.00  0.00     0.031 A 
ATOM     37  C   UNL A   1      41.635  25.732  28.266  1.00  0.00     0.074 A 
ATOM     38  C   UNL A   1      43.956  24.918  28.065  1.00  0.00     0.049 A 
ATOM     39  N   UNL A   1      41.843  26.976  28.614  1.00  0.00    -0.248 NA
ATOM     40  C   UNL A   1      40.216  25.372  28.130  1.00  0.00     0.031 C 
ATOM     41  C   UNL A   1      45.037  23.971  27.774  1.00  0.00     0.029 A 
ATOM     42  N   UNL A   1      44.614  26.069  28.423  1.00  0.00    -0.354 N 
ATOM     43  C   UNL A   1      40.584  27.551  28.727  1.00  0.00     0.074 A 
ATOM     44  C   UNL A   1      39.621  26.532  28.367  1.00  0.00     0.031 C 
ATOM     45  C   UNL A   1      46.217  24.573  27.986  1.00  0.00     0.029 A 
ATOM     46  C   UNL A   1      45.982  25.957  28.383  1.00  0.00     0.049 A 
ATOM     47  H   UNL A   1      44.147  26.895  28.684  1.00  0.00     0.167 HD
ATOM     48  C   UNL A   1      40.256  28.809  29.110  1.00  0.00     0.031 A 
ATOM     49  C   UNL A   1      46.943  26.869  28.623  1.00  0.00     0.031 A 
ATOM     50  C   UNL A   1      41.211  29.823  29.471  1.00  0.00     0.049 A 
ATOM     51  C   UNL A   1      46.554  28.267  29.012  1.00  0.00     0.074 A 
ATOM     52  C   UNL A   1      40.970  31.109  29.927  1.00  0.00     0.029 A 
ATOM     53  N   UNL A   1      42.587  29.671  29.411  1.00  0.00    -0.354 N 
ATOM     54  N   UNL A   1      45.356  28.774  29.179  1.00  0.00    -0.248 NA
ATOM     55  C   UNL A   1      47.650  29.216  29.253  1.00  0.00     0.031 C 
ATOM     56  C   UNL A   1      42.201  31.752  30.091  1.00  0.00     0.029 A 
ATOM     57  C   UNL A   1      43.208  30.849  29.792  1.00  0.00     0.049 A 
ATOM     58  H   UNL A   1      43.053  28.848  29.140  1.00  0.00     0.167 HD
ATOM     59  C   UNL A   1      45.556  30.094  29.563  1.00  0.00     0.074 A 
ATOM     60  C   UNL A   1      46.988  30.303  29.624  1.00  0.00     0.031 C 
ATOM     61  C   UNL A   1      44.634  31.047  29.840  1.00  0.00     0.031 A 
BRANCH  48  62
ATOM     62  C   UNL A   1      38.796  29.161  29.145  1.00  0.00    -0.014 A 
ATOM     63  C   UNL A   1      38.042  29.025  30.322  1.00  0.00     0.009 A 
ATOM     64  C   UNL A   1      38.173  29.675  27.997  1.00  0.00     0.009 A 
ATOM     65  C   UNL A   1      36.688  29.361  30.338  1.00  0.00     0.001 A 
ATOM     66  C   UNL A   1      36.825  30.037  28.024  1.00  0.00     0.001 A 
ATOM     67  C   UNL A   1      36.081  29.870  29.191  1.00  0.00     0.000 A 
ENDBRANCH  48  62
BRANCH  49  68
ATOM     68  C   UNL A   1      48.376  26.491  28.502  1.00  0.00    -0.014 A 
ATOM     69  C   UNL A   1      49.075  25.988  29.610  1.00  0.00     0.009 A 
ATOM     70  C   UNL A   1      49.054  26.641  27.282  1.00  0.00     0.009 A 
ATOM     71  C   UNL A   1      50.429  25.666  29.506  1.00  0.00     0.001 A 
ATOM     72  C   UNL A   1      50.401  26.292  27.174  1.00  0.00     0.001 A 
ATOM     73  C   UNL A   1      51.091  25.813  28.287  1.00  0.00     0.000 A 
ENDBRANCH  49  68
BRANCH  61  74
ATOM     74  C   UNL A   1      45.146  32.397  30.257  1.00  0.00    -0.014 A 
ATOM     75  C   UNL A   1      45.374  33.412  29.315  1.00  0.00     0.009 A 
ATOM     76  C   UNL A   1      45.369  32.668  31.616  1.00  0.00     0.009 A 
ATOM     77  C   UNL A   1      45.846  34.661  29.723  1.00  0.00     0.001 A 
ATOM     78  C   UNL A   1      45.813  33.926  32.025  1.00  0.00     0.001 A 
ATOM     79  C   UNL A   1      46.059  34.919  31.077  1.00  0.00     0.000 A 
ENDBRANCH  61  74
ENDBRANCH  35  36
ENDBRANCH  27  30
ENDBRANCH  25  26
ENDBRANCH  24  25
ENDBRANCH   1  24
TORSDOF 13
ENDMDL
