MODEL 1
REMARK VINA RESULT:     -11.3      0.000      0.000
REMARK SMILES O=C(CCCNC(=O)COc1ccc2c3c(c(=O)oc2c1)CCC3)NCCCNC(=O)c1ccc(-c2c3nc(c(-c4ccccc4)c4ccc([nH]4)c(-c4ccccc4)c4nc(c(-c5ccccc5)c5ccc2[nH]5)C=C4)C=C3)cc1
REMARK SMILES IDX 1 1 2 2 25 3 3 5 4 6 5 7 6 8 7 9 8 11 9 12 10 13 11 14 12 15
REMARK SMILES IDX 21 16 13 17 20 18 14 19 19 20 15 21 17 22 16 23 24 24 18 25
REMARK SMILES IDX 22 26 23 27 26 28 27 29 28 30 29 31 30 32 31 34 32 35 33 36
REMARK SMILES IDX 79 37 34 38 78 39 35 40 36 41 37 42 72 43 38 44 77 45 71 46
REMARK SMILES IDX 73 47 39 48 76 49 70 50 69 51 40 53 62 54 47 55 61 56 48 57
REMARK SMILES IDX 51 58 60 59 74 60 49 61 50 62 59 64 75 65 52 66 41 67 42 68
REMARK SMILES IDX 46 69 43 70 45 71 44 72 63 73 64 74 68 75 65 76 67 77 66 78
REMARK SMILES IDX 53 79 54 80 58 81 55 82 57 83 56 84
REMARK H PARENT 25 4 6 10 29 33 73 52 51 63
REMARK Flexibility Score: inf
ROOT
ATOM      1  O   UNL A   1      33.812  28.519  24.868  1.00  0.00    -0.275 OA
ATOM      2  C   UNL A   1      32.840  28.985  24.287  1.00  0.00     0.220 C 
ATOM      3  N   UNL A   1      31.888  29.773  24.891  1.00  0.00    -0.356 N 
ATOM      4  H   UNL A   1      31.175  30.159  24.332  1.00  0.00     0.163 HD
ENDROOT
BRANCH   2   5
ATOM      5  C   UNL A   1      32.554  28.705  22.825  1.00  0.00     0.102 C 
BRANCH   5   6
ATOM      6  C   UNL A   1      32.974  27.293  22.408  1.00  0.00     0.031 C 
BRANCH   6   7
ATOM      7  C   UNL A   1      32.245  26.149  23.118  1.00  0.00     0.116 C 
BRANCH   7   8
ATOM      8  N   UNL A   1      30.802  26.305  23.101  1.00  0.00    -0.353 N 
ATOM      9  C   UNL A   1      29.939  26.462  24.143  1.00  0.00     0.257 C 
ATOM     10  H   UNL A   1      30.387  26.296  22.208  1.00  0.00     0.163 HD
ATOM     11  O   UNL A   1      28.762  26.716  23.874  1.00  0.00    -0.271 OA
BRANCH   9  12
ATOM     12  C   UNL A   1      30.419  26.335  25.592  1.00  0.00     0.329 C 
BRANCH  12  13
ATOM     13  O   UNL A   1      30.438  25.060  26.212  1.00  0.00    -0.484 OA
BRANCH  13  14
ATOM     14  C   UNL A   1      31.575  24.312  26.098  1.00  0.00     0.123 A 
ATOM     15  C   UNL A   1      32.769  25.026  26.257  1.00  0.00     0.047 A 
ATOM     16  C   UNL A   1      31.629  22.962  25.766  1.00  0.00     0.094 A 
ATOM     17  C   UNL A   1      34.011  24.400  26.098  1.00  0.00     0.016 A 
ATOM     18  C   UNL A   1      32.871  22.356  25.586  1.00  0.00     0.142 A 
ATOM     19  C   UNL A   1      34.070  23.052  25.749  1.00  0.00     0.021 A 
ATOM     20  O   UNL A   1      32.858  20.991  25.203  1.00  0.00    -0.422 OA
ATOM     21  C   UNL A   1      35.299  22.320  25.532  1.00  0.00    -0.027 A 
ATOM     22  C   UNL A   1      34.031  20.281  24.971  1.00  0.00     0.339 A 
ATOM     23  C   UNL A   1      35.269  21.035  25.174  1.00  0.00     0.042 A 
ATOM     24  C   UNL A   1      36.692  22.828  25.659  1.00  0.00     0.037 C 
ATOM     25  O   UNL A   1      34.032  19.107  24.621  1.00  0.00    -0.246 OA
ATOM     26  C   UNL A   1      36.627  20.459  25.003  1.00  0.00     0.044 C 
ATOM     27  C   UNL A   1      37.503  21.717  24.978  1.00  0.00     0.010 C 
ENDBRANCH  13  14
ENDBRANCH  12  13
ENDBRANCH   9  12
ENDBRANCH   7   8
ENDBRANCH   6   7
ENDBRANCH   5   6
ENDBRANCH   2   5
BRANCH   3  28
ATOM     28  C   UNL A   1      31.883  30.063  26.310  1.00  0.00     0.117 C 
BRANCH  28  29
ATOM     29  C   UNL A   1      31.650  31.542  26.589  1.00  0.00     0.042 C 
BRANCH  29  30
ATOM     30  C   UNL A   1      32.821  32.266  27.250  1.00  0.00     0.118 C 
BRANCH  30  31
ATOM     31  N   UNL A   1      32.527  33.643  27.621  1.00  0.00    -0.352 N 
ATOM     32  C   UNL A   1      33.215  34.465  28.484  1.00  0.00     0.251 C 
ATOM     33  H   UNL A   1      31.732  34.038  27.196  1.00  0.00     0.163 HD
ATOM     34  O   UNL A   1      32.773  35.574  28.771  1.00  0.00    -0.269 OA
BRANCH  32  35
ATOM     35  C   UNL A   1      34.469  33.986  29.104  1.00  0.00     0.039 A 
ATOM     36  C   UNL A   1      34.403  33.269  30.302  1.00  0.00     0.014 A 
ATOM     37  C   UNL A   1      35.700  34.200  28.477  1.00  0.00     0.014 A 
ATOM     38  C   UNL A   1      35.560  32.686  30.825  1.00  0.00     0.010 A 
ATOM     39  C   UNL A   1      36.837  33.561  28.962  1.00  0.00     0.010 A 
ATOM     40  C   UNL A   1      36.777  32.785  30.132  1.00  0.00    -0.014 A 
BRANCH  40  41
ATOM     41  C   UNL A   1      38.002  32.077  30.590  1.00  0.00     0.031 A 
ATOM     42  C   UNL A   1      38.914  32.727  31.594  1.00  0.00     0.074 A 
ATOM     43  C   UNL A   1      38.349  30.901  30.030  1.00  0.00     0.049 A 
ATOM     44  N   UNL A   1      40.098  32.346  32.002  1.00  0.00    -0.248 NA
ATOM     45  C   UNL A   1      38.442  33.983  32.197  1.00  0.00     0.031 C 
ATOM     46  C   UNL A   1      37.567  30.171  29.029  1.00  0.00     0.029 A 
ATOM     47  N   UNL A   1      39.465  30.122  30.210  1.00  0.00    -0.354 N 
ATOM     48  C   UNL A   1      40.524  33.329  32.887  1.00  0.00     0.074 A 
ATOM     49  C   UNL A   1      39.489  34.340  32.927  1.00  0.00     0.031 C 
ATOM     50  C   UNL A   1      38.222  29.048  28.694  1.00  0.00     0.029 A 
ATOM     51  C   UNL A   1      39.490  29.002  29.414  1.00  0.00     0.049 A 
ATOM     52  H   UNL A   1      40.180  30.345  30.848  1.00  0.00     0.167 HD
ATOM     53  C   UNL A   1      41.668  33.381  33.609  1.00  0.00     0.031 A 
ATOM     54  C   UNL A   1      40.435  28.055  29.262  1.00  0.00     0.031 A 
ATOM     55  C   UNL A   1      42.693  32.372  33.580  1.00  0.00     0.049 A 
ATOM     56  C   UNL A   1      41.710  28.149  30.055  1.00  0.00     0.074 A 
ATOM     57  C   UNL A   1      43.865  32.314  34.312  1.00  0.00     0.029 A 
ATOM     58  N   UNL A   1      42.667  31.245  32.772  1.00  0.00    -0.354 N 
ATOM     59  N   UNL A   1      42.077  29.060  30.922  1.00  0.00    -0.248 NA
ATOM     60  C   UNL A   1      42.699  27.079  29.852  1.00  0.00     0.031 C 
ATOM     61  C   UNL A   1      44.573  31.176  33.915  1.00  0.00     0.029 A 
ATOM     62  C   UNL A   1      43.814  30.496  32.976  1.00  0.00     0.049 A 
ATOM     63  H   UNL A   1      41.943  31.014  32.147  1.00  0.00     0.167 HD
ATOM     64  C   UNL A   1      43.318  28.654  31.397  1.00  0.00     0.074 A 
ATOM     65  C   UNL A   1      43.641  27.414  30.723  1.00  0.00     0.031 C 
ATOM     66  C   UNL A   1      44.115  29.254  32.313  1.00  0.00     0.031 A 
BRANCH  53  67
ATOM     67  C   UNL A   1      41.877  34.583  34.488  1.00  0.00    -0.014 A 
ATOM     68  C   UNL A   1      42.468  35.754  33.991  1.00  0.00     0.009 A 
ATOM     69  C   UNL A   1      41.442  34.554  35.823  1.00  0.00     0.009 A 
ATOM     70  C   UNL A   1      42.654  36.860  34.823  1.00  0.00     0.001 A 
ATOM     71  C   UNL A   1      41.602  35.671  36.644  1.00  0.00     0.001 A 
ATOM     72  C   UNL A   1      42.217  36.819  36.146  1.00  0.00     0.000 A 
ENDBRANCH  53  67
BRANCH  54  73
ATOM     73  C   UNL A   1      40.215  26.926  28.320  1.00  0.00    -0.014 A 
ATOM     74  C   UNL A   1      40.755  26.968  27.024  1.00  0.00     0.009 A 
ATOM     75  C   UNL A   1      39.459  25.808  28.703  1.00  0.00     0.009 A 
ATOM     76  C   UNL A   1      40.519  25.925  26.125  1.00  0.00     0.001 A 
ATOM     77  C   UNL A   1      39.250  24.753  27.812  1.00  0.00     0.001 A 
ATOM     78  C   UNL A   1      39.771  24.817  26.522  1.00  0.00     0.000 A 
ENDBRANCH  54  73
BRANCH  66  79
ATOM     79  C   UNL A   1      45.388  28.553  32.694  1.00  0.00    -0.014 A 
ATOM     80  C   UNL A   1      45.412  27.566  33.691  1.00  0.00     0.009 A 
ATOM     81  C   UNL A   1      46.570  28.843  31.993  1.00  0.00     0.009 A 
ATOM     82  C   UNL A   1      46.602  26.899  33.992  1.00  0.00     0.001 A 
ATOM     83  C   UNL A   1      47.750  28.157  32.278  1.00  0.00     0.001 A 
ATOM     84  C   UNL A   1      47.767  27.190  33.282  1.00  0.00     0.000 A 
ENDBRANCH  66  79
ENDBRANCH  40  41
ENDBRANCH  32  35
ENDBRANCH  30  31
ENDBRANCH  29  30
ENDBRANCH  28  29
ENDBRANCH   3  28
TORSDOF 16
ENDMDL
MODEL 2
REMARK VINA RESULT:     -11.2      1.466      5.903
REMARK SMILES O=C(CCCNC(=O)COc1ccc2c3c(c(=O)oc2c1)CCC3)NCCCNC(=O)c1ccc(-c2c3nc(c(-c4ccccc4)c4ccc([nH]4)c(-c4ccccc4)c4nc(c(-c5ccccc5)c5ccc2[nH]5)C=C4)C=C3)cc1
REMARK SMILES IDX 1 1 2 2 25 3 3 5 4 6 5 7 6 8 7 9 8 11 9 12 10 13 11 14 12 15
REMARK SMILES IDX 21 16 13 17 20 18 14 19 19 20 15 21 17 22 16 23 24 24 18 25
REMARK SMILES IDX 22 26 23 27 26 28 27 29 28 30 29 31 30 32 31 34 32 35 33 36
REMARK SMILES IDX 79 37 34 38 78 39 35 40 36 41 37 42 72 43 38 44 77 45 71 46
REMARK SMILES IDX 73 47 39 48 76 49 70 50 69 51 40 53 62 54 47 55 61 56 48 57
REMARK SMILES IDX 51 58 60 59 74 60 49 61 50 62 59 64 75 65 52 66 41 67 42 68
REMARK SMILES IDX 46 69 43 70 45 71 44 72 63 73 64 74 68 75 65 76 67 77 66 78
REMARK SMILES IDX 53 79 54 80 58 81 55 82 57 83 56 84
REMARK H PARENT 25 4 6 10 29 33 73 52 51 63
REMARK Flexibility Score: inf
ROOT
ATOM      1  O   UNL A   1      34.132  28.518  24.956  1.00  0.00    -0.275 OA
ATOM      2  C   UNL A   1      33.200  29.047  24.364  1.00  0.00     0.220 C 
ATOM      3  N   UNL A   1      32.260  29.849  24.969  1.00  0.00    -0.356 N 
ATOM      4  H   UNL A   1      31.583  30.286  24.405  1.00  0.00     0.163 HD
ENDROOT
BRANCH   2   5
ATOM      5  C   UNL A   1      32.952  28.839  22.883  1.00  0.00     0.102 C 
BRANCH   5   6
ATOM      6  C   UNL A   1      33.255  27.406  22.436  1.00  0.00     0.031 C 
BRANCH   6   7
ATOM      7  C   UNL A   1      32.544  26.303  23.225  1.00  0.00     0.116 C 
BRANCH   7   8
ATOM      8  N   UNL A   1      31.098  26.394  23.140  1.00  0.00    -0.353 N 
ATOM      9  C   UNL A   1      30.185  26.580  24.134  1.00  0.00     0.257 C 
ATOM     10  H   UNL A   1      30.722  26.308  22.234  1.00  0.00     0.163 HD
ATOM     11  O   UNL A   1      29.012  26.762  23.802  1.00  0.00    -0.271 OA
BRANCH   9  12
ATOM     12  C   UNL A   1      30.607  26.568  25.606  1.00  0.00     0.329 C 
BRANCH  12  13
ATOM     13  O   UNL A   1      30.408  25.398  26.381  1.00  0.00    -0.484 OA
BRANCH  13  14
ATOM     14  C   UNL A   1      31.292  24.369  26.221  1.00  0.00     0.123 A 
ATOM     15  C   UNL A   1      32.638  24.715  26.393  1.00  0.00     0.047 A 
ATOM     16  C   UNL A   1      30.967  23.074  25.831  1.00  0.00     0.094 A 
ATOM     17  C   UNL A   1      33.656  23.775  26.191  1.00  0.00     0.016 A 
ATOM     18  C   UNL A   1      31.991  22.154  25.610  1.00  0.00     0.142 A 
ATOM     19  C   UNL A   1      33.336  22.481  25.786  1.00  0.00     0.021 A 
ATOM     20  O   UNL A   1      31.598  20.865  25.170  1.00  0.00    -0.422 OA
ATOM     21  C   UNL A   1      34.313  21.446  25.522  1.00  0.00    -0.027 A 
ATOM     22  C   UNL A   1      32.526  19.867  24.893  1.00  0.00     0.339 A 
ATOM     23  C   UNL A   1      33.925  20.237  25.110  1.00  0.00     0.042 A 
ATOM     24  C   UNL A   1      35.793  21.540  25.651  1.00  0.00     0.037 C 
ATOM     25  O   UNL A   1      32.199  18.756  24.494  1.00  0.00    -0.246 OA
ATOM     26  C   UNL A   1      35.069  19.314  24.897  1.00  0.00     0.044 C 
ATOM     27  C   UNL A   1      36.260  20.278  24.913  1.00  0.00     0.010 C 
ENDBRANCH  13  14
ENDBRANCH  12  13
ENDBRANCH   9  12
ENDBRANCH   7   8
ENDBRANCH   6   7
ENDBRANCH   5   6
ENDBRANCH   2   5
BRANCH   3  28
ATOM     28  C   UNL A   1      32.219  30.080  26.399  1.00  0.00     0.117 C 
BRANCH  28  29
ATOM     29  C   UNL A   1      31.780  31.499  26.734  1.00  0.00     0.042 C 
BRANCH  29  30
ATOM     30  C   UNL A   1      32.867  32.385  27.339  1.00  0.00     0.118 C 
BRANCH  30  31
ATOM     31  N   UNL A   1      32.447  33.761  27.562  1.00  0.00    -0.352 N 
ATOM     32  C   UNL A   1      32.988  34.696  28.416  1.00  0.00     0.251 C 
ATOM     33  H   UNL A   1      31.675  34.063  27.031  1.00  0.00     0.163 HD
ATOM     34  O   UNL A   1      32.448  35.788  28.564  1.00  0.00    -0.269 OA
BRANCH  32  35
ATOM     35  C   UNL A   1      34.201  34.360  29.191  1.00  0.00     0.039 A 
ATOM     36  C   UNL A   1      34.059  33.819  30.473  1.00  0.00     0.014 A 
ATOM     37  C   UNL A   1      35.472  34.530  28.635  1.00  0.00     0.014 A 
ATOM     38  C   UNL A   1      35.187  33.363  31.160  1.00  0.00     0.010 A 
ATOM     39  C   UNL A   1      36.584  34.012  29.291  1.00  0.00     0.010 A 
ATOM     40  C   UNL A   1      36.452  33.409  30.554  1.00  0.00    -0.014 A 
BRANCH  40  41
ATOM     41  C   UNL A   1      37.655  32.823  31.201  1.00  0.00     0.031 A 
ATOM     42  C   UNL A   1      38.331  31.628  30.587  1.00  0.00     0.074 A 
ATOM     43  C   UNL A   1      38.078  33.295  32.390  1.00  0.00     0.049 A 
ATOM     44  N   UNL A   1      39.290  30.880  31.072  1.00  0.00    -0.248 NA
ATOM     45  C   UNL A   1      37.846  31.203  29.264  1.00  0.00     0.031 C 
ATOM     46  C   UNL A   1      37.500  34.434  33.108  1.00  0.00     0.029 A 
ATOM     47  N   UNL A   1      39.084  32.858  33.218  1.00  0.00    -0.354 N 
ATOM     48  C   UNL A   1      39.502  29.883  30.129  1.00  0.00     0.074 A 
ATOM     49  C   UNL A   1      38.548  30.098  29.063  1.00  0.00     0.031 C 
ATOM     50  C   UNL A   1      38.168  34.611  34.260  1.00  0.00     0.029 A 
ATOM     51  C   UNL A   1      39.184  33.572  34.388  1.00  0.00     0.049 A 
ATOM     52  H   UNL A   1      39.676  32.105  32.994  1.00  0.00     0.167 HD
ATOM     53  C   UNL A   1      40.416  28.883  30.144  1.00  0.00     0.031 A 
ATOM     54  C   UNL A   1      39.987  33.399  35.455  1.00  0.00     0.031 A 
ATOM     55  C   UNL A   1      41.373  28.674  31.197  1.00  0.00     0.049 A 
ATOM     56  C   UNL A   1      40.976  32.265  35.460  1.00  0.00     0.074 A 
ATOM     57  C   UNL A   1      42.369  27.717  31.277  1.00  0.00     0.029 A 
ATOM     58  N   UNL A   1      41.451  29.433  32.354  1.00  0.00    -0.354 N 
ATOM     59  N   UNL A   1      41.196  31.358  34.539  1.00  0.00    -0.248 NA
ATOM     60  C   UNL A   1      41.830  32.135  36.649  1.00  0.00     0.031 C 
ATOM     61  C   UNL A   1      43.021  27.866  32.505  1.00  0.00     0.029 A 
ATOM     62  C   UNL A   1      42.467  28.953  33.163  1.00  0.00     0.049 A 
ATOM     63  H   UNL A   1      40.869  30.198  32.569  1.00  0.00     0.167 HD
ATOM     64  C   UNL A   1      42.238  30.576  35.019  1.00  0.00     0.074 A 
ATOM     65  C   UNL A   1      42.608  31.115  36.312  1.00  0.00     0.031 C 
ATOM     66  C   UNL A   1      42.837  29.509  34.438  1.00  0.00     0.031 A 
BRANCH  53  67
ATOM     67  C   UNL A   1      40.414  27.927  28.983  1.00  0.00    -0.014 A 
ATOM     68  C   UNL A   1      39.681  26.731  29.027  1.00  0.00     0.009 A 
ATOM     69  C   UNL A   1      41.125  28.247  27.816  1.00  0.00     0.009 A 
ATOM     70  C   UNL A   1      39.692  25.856  27.939  1.00  0.00     0.001 A 
ATOM     71  C   UNL A   1      41.110  27.385  26.718  1.00  0.00     0.001 A 
ATOM     72  C   UNL A   1      40.402  26.185  26.785  1.00  0.00     0.000 A 
ENDBRANCH  53  67
BRANCH  54  73
ATOM     73  C   UNL A   1      39.897  34.325  36.614  1.00  0.00    -0.014 A 
ATOM     74  C   UNL A   1      40.524  35.580  36.570  1.00  0.00     0.009 A 
ATOM     75  C   UNL A   1      39.194  33.958  37.772  1.00  0.00     0.009 A 
ATOM     76  C   UNL A   1      40.471  36.437  37.672  1.00  0.00     0.001 A 
ATOM     77  C   UNL A   1      39.118  34.829  38.862  1.00  0.00     0.001 A 
ATOM     78  C   UNL A   1      39.764  36.063  38.815  1.00  0.00     0.000 A 
ENDBRANCH  54  73
BRANCH  66  79
ATOM     79  C   UNL A   1      43.999  28.885  35.158  1.00  0.00    -0.014 A 
ATOM     80  C   UNL A   1      43.823  27.813  36.045  1.00  0.00     0.009 A 
ATOM     81  C   UNL A   1      45.300  29.341  34.889  1.00  0.00     0.009 A 
ATOM     82  C   UNL A   1      44.927  27.225  36.665  1.00  0.00     0.001 A 
ATOM     83  C   UNL A   1      46.402  28.734  35.489  1.00  0.00     0.001 A 
ATOM     84  C   UNL A   1      46.215  27.681  36.383  1.00  0.00     0.000 A 
ENDBRANCH  66  79
ENDBRANCH  40  41
ENDBRANCH  32  35
ENDBRANCH  30  31
ENDBRANCH  29  30
ENDBRANCH  28  29
ENDBRANCH   3  28
TORSDOF 16
ENDMDL
MODEL 3
REMARK VINA RESULT:     -11.2      1.431      1.978
REMARK SMILES O=C(CCCNC(=O)COc1ccc2c3c(c(=O)oc2c1)CCC3)NCCCNC(=O)c1ccc(-c2c3nc(c(-c4ccccc4)c4ccc([nH]4)c(-c4ccccc4)c4nc(c(-c5ccccc5)c5ccc2[nH]5)C=C4)C=C3)cc1
REMARK SMILES IDX 1 1 2 2 25 3 3 5 4 6 5 7 6 8 7 9 8 11 9 12 10 13 11 14 12 15
REMARK SMILES IDX 21 16 13 17 20 18 14 19 19 20 15 21 17 22 16 23 24 24 18 25
REMARK SMILES IDX 22 26 23 27 26 28 27 29 28 30 29 31 30 32 31 34 32 35 33 36
REMARK SMILES IDX 79 37 34 38 78 39 35 40 36 41 37 42 72 43 38 44 77 45 71 46
REMARK SMILES IDX 73 47 39 48 76 49 70 50 69 51 40 53 62 54 47 55 61 56 48 57
REMARK SMILES IDX 51 58 60 59 74 60 49 61 50 62 59 64 75 65 52 66 41 67 42 68
REMARK SMILES IDX 46 69 43 70 45 71 44 72 63 73 64 74 68 75 65 76 67 77 66 78
REMARK SMILES IDX 53 79 54 80 58 81 55 82 57 83 56 84
REMARK H PARENT 25 4 6 10 29 33 73 52 51 63
REMARK Flexibility Score: inf
ROOT
ATOM      1  O   UNL A   1      33.787  28.526  25.846  1.00  0.00    -0.275 OA
ATOM      2  C   UNL A   1      33.264  29.178  24.952  1.00  0.00     0.220 C 
ATOM      3  N   UNL A   1      32.297  30.134  25.161  1.00  0.00    -0.356 N 
ATOM      4  H   UNL A   1      31.979  30.656  24.389  1.00  0.00     0.163 HD
ENDROOT
BRANCH   2   5
ATOM      5  C   UNL A   1      33.601  28.970  23.488  1.00  0.00     0.102 C 
BRANCH   5   6
ATOM      6  C   UNL A   1      33.678  27.488  23.112  1.00  0.00     0.031 C 
BRANCH   6   7
ATOM      7  C   UNL A   1      32.413  26.898  22.483  1.00  0.00     0.116 C 
BRANCH   7   8
ATOM      8  N   UNL A   1      31.554  27.909  21.892  1.00  0.00    -0.353 N 
ATOM      9  C   UNL A   1      30.403  28.453  22.375  1.00  0.00     0.257 C 
ATOM     10  H   UNL A   1      31.846  28.250  21.016  1.00  0.00     0.163 HD
ATOM     11  O   UNL A   1      29.918  29.402  21.755  1.00  0.00    -0.271 OA
BRANCH   9  12
ATOM     12  C   UNL A   1      29.743  27.906  23.645  1.00  0.00     0.329 C 
BRANCH  12  13
ATOM     13  O   UNL A   1      29.175  26.607  23.634  1.00  0.00    -0.484 OA
BRANCH  13  14
ATOM     14  C   UNL A   1      29.892  25.593  24.202  1.00  0.00     0.123 A 
ATOM     15  C   UNL A   1      30.314  25.832  25.515  1.00  0.00     0.047 A 
ATOM     16  C   UNL A   1      30.286  24.421  23.564  1.00  0.00     0.094 A 
ATOM     17  C   UNL A   1      31.114  24.907  26.197  1.00  0.00     0.016 A 
ATOM     18  C   UNL A   1      31.104  23.520  24.243  1.00  0.00     0.142 A 
ATOM     19  C   UNL A   1      31.525  23.740  25.556  1.00  0.00     0.021 A 
ATOM     20  O   UNL A   1      31.509  22.368  23.523  1.00  0.00    -0.422 OA
ATOM     21  C   UNL A   1      32.376  22.737  26.159  1.00  0.00    -0.027 A 
ATOM     22  C   UNL A   1      32.343  21.406  24.083  1.00  0.00     0.339 A 
ATOM     23  C   UNL A   1      32.747  21.657  25.467  1.00  0.00     0.042 A 
ATOM     24  C   UNL A   1      32.938  22.733  27.537  1.00  0.00     0.037 C 
ATOM     25  O   UNL A   1      32.716  20.417  23.463  1.00  0.00    -0.246 OA
ATOM     26  C   UNL A   1      33.613  20.745  26.256  1.00  0.00     0.044 C 
ATOM     27  C   UNL A   1      34.001  21.628  27.447  1.00  0.00     0.010 C 
ENDBRANCH  13  14
ENDBRANCH  12  13
ENDBRANCH   9  12
ENDBRANCH   7   8
ENDBRANCH   6   7
ENDBRANCH   5   6
ENDBRANCH   2   5
BRANCH   3  28
ATOM     28  C   UNL A   1      31.724  30.409  26.462  1.00  0.00     0.117 C 
BRANCH  28  29
ATOM     29  C   UNL A   1      31.495  31.899  26.681  1.00  0.00     0.042 C 
BRANCH  29  30
ATOM     30  C   UNL A   1      32.690  32.659  27.252  1.00  0.00     0.118 C 
BRANCH  30  31
ATOM     31  N   UNL A   1      32.398  34.044  27.593  1.00  0.00    -0.352 N 
ATOM     32  C   UNL A   1      33.024  34.851  28.516  1.00  0.00     0.251 C 
ATOM     33  H   UNL A   1      31.655  34.457  27.098  1.00  0.00     0.163 HD
ATOM     34  O   UNL A   1      32.586  35.971  28.760  1.00  0.00    -0.269 OA
BRANCH  32  35
ATOM     35  C   UNL A   1      34.204  34.343  29.247  1.00  0.00     0.039 A 
ATOM     36  C   UNL A   1      34.015  33.677  30.461  1.00  0.00     0.014 A 
ATOM     37  C   UNL A   1      35.487  34.480  28.711  1.00  0.00     0.014 A 
ATOM     38  C   UNL A   1      35.101  33.065  31.092  1.00  0.00     0.010 A 
ATOM     39  C   UNL A   1      36.555  33.812  29.304  1.00  0.00     0.010 A 
ATOM     40  C   UNL A   1      36.371  33.086  30.492  1.00  0.00    -0.014 A 
BRANCH  40  41
ATOM     41  C   UNL A   1      37.523  32.344  31.068  1.00  0.00     0.031 A 
ATOM     42  C   UNL A   1      38.218  32.870  32.294  1.00  0.00     0.074 A 
ATOM     43  C   UNL A   1      38.011  31.259  30.434  1.00  0.00     0.049 A 
ATOM     44  N   UNL A   1      39.327  32.460  32.856  1.00  0.00    -0.248 NA
ATOM     45  C   UNL A   1      37.598  34.028  32.958  1.00  0.00     0.031 C 
ATOM     46  C   UNL A   1      37.447  30.655  29.225  1.00  0.00     0.029 A 
ATOM     47  N   UNL A   1      39.109  30.482  30.711  1.00  0.00    -0.354 N 
ATOM     48  C   UNL A   1      39.551  33.323  33.920  1.00  0.00     0.074 A 
ATOM     49  C   UNL A   1      38.485  34.302  33.903  1.00  0.00     0.031 C 
ATOM     50  C   UNL A   1      38.196  29.597  28.873  1.00  0.00     0.029 A 
ATOM     51  C   UNL A   1      39.318  29.478  29.796  1.00  0.00     0.049 A 
ATOM     52  H   UNL A   1      39.691  30.631  31.491  1.00  0.00     0.167 HD
ATOM     53  C   UNL A   1      40.547  33.298  34.837  1.00  0.00     0.031 A 
ATOM     54  C   UNL A   1      40.313  28.575  29.697  1.00  0.00     0.031 A 
ATOM     55  C   UNL A   1      41.601  32.320  34.864  1.00  0.00     0.049 A 
ATOM     56  C   UNL A   1      41.424  28.585  30.711  1.00  0.00     0.074 A 
ATOM     57  C   UNL A   1      42.628  32.186  35.781  1.00  0.00     0.029 A 
ATOM     58  N   UNL A   1      41.764  31.310  33.928  1.00  0.00    -0.354 N 
ATOM     59  N   UNL A   1      41.596  29.380  31.740  1.00  0.00    -0.248 NA
ATOM     60  C   UNL A   1      42.475  27.569  30.554  1.00  0.00     0.031 C 
ATOM     61  C   UNL A   1      43.441  31.123  35.376  1.00  0.00     0.029 A 
ATOM     62  C   UNL A   1      42.886  30.560  34.237  1.00  0.00     0.049 A 
ATOM     63  H   UNL A   1      41.170  31.151  33.159  1.00  0.00     0.167 HD
ATOM     64  C   UNL A   1      42.750  28.935  32.373  1.00  0.00     0.074 A 
ATOM     65  C   UNL A   1      43.236  27.801  31.615  1.00  0.00     0.031 C 
ATOM     66  C   UNL A   1      43.348  29.423  33.486  1.00  0.00     0.031 A 
BRANCH  53  67
ATOM     67  C   UNL A   1      40.550  34.377  35.885  1.00  0.00    -0.014 A 
ATOM     68  C   UNL A   1      39.847  34.223  37.090  1.00  0.00     0.009 A 
ATOM     69  C   UNL A   1      41.298  35.547  35.678  1.00  0.00     0.009 A 
ATOM     70  C   UNL A   1      39.861  35.237  38.051  1.00  0.00     0.001 A 
ATOM     71  C   UNL A   1      41.334  36.546  36.653  1.00  0.00     0.001 A 
ATOM     72  C   UNL A   1      40.608  36.394  37.833  1.00  0.00     0.000 A 
ENDBRANCH  53  67
BRANCH  54  73
ATOM     73  C   UNL A   1      40.308  27.578  28.595  1.00  0.00    -0.014 A 
ATOM     74  C   UNL A   1      40.964  27.854  27.385  1.00  0.00     0.009 A 
ATOM     75  C   UNL A   1      39.641  26.351  28.740  1.00  0.00     0.009 A 
ATOM     76  C   UNL A   1      40.929  26.933  26.335  1.00  0.00     0.001 A 
ATOM     77  C   UNL A   1      39.634  25.420  27.699  1.00  0.00     0.001 A 
ATOM     78  C   UNL A   1      40.269  25.716  26.495  1.00  0.00     0.000 A 
ENDBRANCH  54  73
BRANCH  66  79
ATOM     79  C   UNL A   1      44.562  28.699  33.997  1.00  0.00    -0.014 A 
ATOM     80  C   UNL A   1      45.853  29.029  33.557  1.00  0.00     0.009 A 
ATOM     81  C   UNL A   1      44.410  27.713  34.986  1.00  0.00     0.009 A 
ATOM     82  C   UNL A   1      46.965  28.369  34.083  1.00  0.00     0.001 A 
ATOM     83  C   UNL A   1      45.525  27.076  35.528  1.00  0.00     0.001 A 
ATOM     84  C   UNL A   1      46.801  27.398  35.072  1.00  0.00     0.000 A 
ENDBRANCH  66  79
ENDBRANCH  40  41
ENDBRANCH  32  35
ENDBRANCH  30  31
ENDBRANCH  29  30
ENDBRANCH  28  29
ENDBRANCH   3  28
TORSDOF 16
ENDMDL
