MODEL 1
REMARK VINA RESULT:     -11.8      0.000      0.000
REMARK SMILES CC1=C(C(=O)OCC(C)C)[C@@H](c2ccc(C(=O)NCCCNC(=O)c3ccc(-c4c5nc(c(-c6ccccc6)c6ccc([nH]6)c(-c6ccccc6)c6nc(c(-c7ccccc7)c7ccc4[nH]7)C=C6)C=C5)cc3)cc2)c2c(n(C)c(=O)n(C)c2=O)N1
REMARK SMILES IDX 16 1 17 2 18 3 15 5 12 6 13 7 74 8 14 9 73 10 11 11 1 12
REMARK SMILES IDX 2 13 3 14 85 15 76 16 75 18 77 19 83 20 78 21 79 22 81 23
REMARK SMILES IDX 84 24 80 25 82 26 4 27 5 28 6 29 7 30 8 31 9 32 10 33 19 34
REMARK SMILES IDX 20 35 21 36 22 37 23 38 24 40 25 41 26 42 72 43 27 44 71 45
REMARK SMILES IDX 28 46 29 47 30 48 65 49 31 50 70 51 64 52 66 53 32 54 69 55
REMARK SMILES IDX 63 56 62 57 33 59 55 60 40 61 54 62 41 63 44 64 53 65 67 66
REMARK SMILES IDX 42 67 43 68 52 70 68 71 45 72 34 73 35 74 39 75 36 76 38 77
REMARK SMILES IDX 37 78 56 79 57 80 61 81 58 82 60 83 59 84 46 85 47 86 51 87
REMARK SMILES IDX 48 88 50 89 49 90
REMARK H PARENT 18 4 85 17 22 39 66 58 44 69
REMARK Flexibility Score: inf
ROOT
ATOM      1  C   UNL A   1      38.878  21.988  25.914  1.00  0.00     0.251 C 
ATOM      2  O   UNL A   1      39.390  20.878  25.753  1.00  0.00    -0.269 OA
ATOM      3  N   UNL A   1      39.705  23.002  26.315  1.00  0.00    -0.352 N 
ATOM      4  H   UNL A   1      40.643  22.725  26.433  1.00  0.00     0.163 HD
ENDROOT
BRANCH   1   5
ATOM      5  C   UNL A   1      37.430  22.169  25.613  1.00  0.00     0.039 A 
ATOM      6  C   UNL A   1      34.749  22.632  24.845  1.00  0.00    -0.035 A 
ATOM      7  C   UNL A   1      35.767  22.572  23.881  1.00  0.00     0.005 A 
ATOM      8  C   UNL A   1      35.079  22.402  26.185  1.00  0.00     0.005 A 
ATOM      9  C   UNL A   1      37.090  22.352  24.265  1.00  0.00     0.014 A 
ATOM     10  C   UNL A   1      36.402  22.146  26.558  1.00  0.00     0.014 A 
BRANCH   6  11
ATOM     11  C   UNL A   1      33.296  22.925  24.459  1.00  0.00     0.098 C 
ATOM     12  C   UNL A   1      31.869  20.856  21.426  1.00  0.00     0.065 C 
ATOM     13  C   UNL A   1      32.395  21.922  22.354  1.00  0.00     0.025 C 
ATOM     14  C   UNL A   1      32.734  21.756  23.652  1.00  0.00     0.068 C 
ATOM     15  N   UNL A   1      32.498  23.186  21.782  1.00  0.00    -0.344 N 
ATOM     16  C   UNL A   1      32.831  24.356  22.447  1.00  0.00     0.123 A 
ATOM     17  H   UNL A   1      32.318  23.257  20.816  1.00  0.00     0.168 HD
ATOM     18  C   UNL A   1      33.196  24.261  23.737  1.00  0.00     0.071 A 
ATOM     19  N   UNL A   1      32.802  25.600  21.836  1.00  0.00    -0.282 N 
ATOM     20  C   UNL A   1      33.514  25.475  24.513  1.00  0.00     0.262 A 
ATOM     21  C   UNL A   1      32.334  25.717  20.460  1.00  0.00     0.157 C 
ATOM     22  C   UNL A   1      33.222  26.770  22.470  1.00  0.00     0.332 A 
ATOM     23  N   UNL A   1      33.626  26.641  23.788  1.00  0.00    -0.263 N 
ATOM     24  O   UNL A   1      33.652  25.413  25.733  1.00  0.00    -0.269 OA
ATOM     25  O   UNL A   1      33.222  27.863  21.900  1.00  0.00    -0.247 OA
ATOM     26  C   UNL A   1      34.079  27.842  24.463  1.00  0.00     0.158 C 
BRANCH  14  27
ATOM     27  C   UNL A   1      32.546  20.524  24.464  1.00  0.00     0.336 C 
ATOM     28  O   UNL A   1      31.725  20.453  25.365  1.00  0.00    -0.246 OA
BRANCH  27  29
ATOM     29  O   UNL A   1      33.435  19.563  24.126  1.00  0.00    -0.462 OA
BRANCH  29  30
ATOM     30  C   UNL A   1      33.553  18.447  25.027  1.00  0.00     0.236 C 
BRANCH  30  31
ATOM     31  C   UNL A   1      34.426  17.354  24.397  1.00  0.00     0.021 C 
ATOM     32  C   UNL A   1      34.432  16.081  25.242  1.00  0.00     0.011 C 
ATOM     33  C   UNL A   1      33.951  17.044  22.979  1.00  0.00     0.011 C 
ENDBRANCH  30  31
ENDBRANCH  29  30
ENDBRANCH  27  29
ENDBRANCH  14  27
ENDBRANCH   6  11
ENDBRANCH   1   5
BRANCH   3  34
ATOM     34  C   UNL A   1      39.470  24.403  26.602  1.00  0.00     0.118 C 
BRANCH  34  35
ATOM     35  C   UNL A   1      40.791  25.135  26.832  1.00  0.00     0.042 C 
BRANCH  35  36
ATOM     36  C   UNL A   1      41.494  24.695  28.113  1.00  0.00     0.118 C 
BRANCH  36  37
ATOM     37  N   UNL A   1      42.370  23.556  27.881  1.00  0.00    -0.352 N 
ATOM     38  C   UNL A   1      43.609  23.503  27.299  1.00  0.00     0.251 C 
ATOM     39  H   UNL A   1      42.018  22.690  28.190  1.00  0.00     0.163 HD
ATOM     40  O   UNL A   1      44.067  22.423  26.937  1.00  0.00    -0.269 OA
BRANCH  38  41
ATOM     41  C   UNL A   1      44.399  24.737  27.112  1.00  0.00     0.039 A 
ATOM     42  C   UNL A   1      44.491  25.292  25.833  1.00  0.00     0.014 A 
ATOM     43  C   UNL A   1      45.099  25.306  28.180  1.00  0.00     0.014 A 
ATOM     44  C   UNL A   1      45.257  26.441  25.633  1.00  0.00     0.010 A 
ATOM     45  C   UNL A   1      45.799  26.493  27.995  1.00  0.00     0.010 A 
ATOM     46  C   UNL A   1      45.899  27.060  26.717  1.00  0.00    -0.014 A 
BRANCH  46  47
ATOM     47  C   UNL A   1      46.714  28.285  26.528  1.00  0.00     0.031 A 
ATOM     48  C   UNL A   1      48.191  28.171  26.275  1.00  0.00     0.074 A 
ATOM     49  C   UNL A   1      46.129  29.493  26.622  1.00  0.00     0.049 A 
ATOM     50  N   UNL A   1      49.079  29.121  26.134  1.00  0.00    -0.248 NA
ATOM     51  C   UNL A   1      48.749  26.810  26.187  1.00  0.00     0.031 C 
ATOM     52  C   UNL A   1      44.706  29.729  26.877  1.00  0.00     0.029 A 
ATOM     53  N   UNL A   1      46.660  30.753  26.510  1.00  0.00    -0.354 N 
ATOM     54  C   UNL A   1      50.294  28.475  25.946  1.00  0.00     0.074 A 
ATOM     55  C   UNL A   1      50.043  27.055  26.049  1.00  0.00     0.031 C 
ATOM     56  C   UNL A   1      44.471  31.051  26.864  1.00  0.00     0.029 A 
ATOM     57  C   UNL A   1      45.731  31.756  26.647  1.00  0.00     0.049 A 
ATOM     58  H   UNL A   1      47.616  30.922  26.345  1.00  0.00     0.167 HD
ATOM     59  C   UNL A   1      51.507  29.016  25.685  1.00  0.00     0.031 A 
ATOM     60  C   UNL A   1      45.879  33.093  26.606  1.00  0.00     0.031 A 
ATOM     61  C   UNL A   1      51.752  30.429  25.579  1.00  0.00     0.049 A 
ATOM     62  C   UNL A   1      47.247  33.669  26.367  1.00  0.00     0.074 A 
ATOM     63  C   UNL A   1      52.940  31.076  25.290  1.00  0.00     0.029 A 
ATOM     64  N   UNL A   1      50.791  31.412  25.757  1.00  0.00    -0.354 N 
ATOM     65  N   UNL A   1      48.380  33.045  26.152  1.00  0.00    -0.248 NA
ATOM     66  C   UNL A   1      47.355  35.135  26.359  1.00  0.00     0.031 C 
ATOM     67  C   UNL A   1      52.709  32.454  25.347  1.00  0.00     0.029 A 
ATOM     68  C   UNL A   1      51.364  32.662  25.608  1.00  0.00     0.049 A 
ATOM     69  H   UNL A   1      49.841  31.244  25.958  1.00  0.00     0.167 HD
ATOM     70  C   UNL A   1      49.330  34.039  25.959  1.00  0.00     0.074 A 
ATOM     71  C   UNL A   1      48.636  35.307  26.063  1.00  0.00     0.031 C 
ATOM     72  C   UNL A   1      50.658  33.913  25.720  1.00  0.00     0.031 A 
BRANCH  59  73
ATOM     73  C   UNL A   1      52.663  28.075  25.490  1.00  0.00    -0.014 A 
ATOM     74  C   UNL A   1      52.988  27.582  24.216  1.00  0.00     0.009 A 
ATOM     75  C   UNL A   1      53.474  27.723  26.580  1.00  0.00     0.009 A 
ATOM     76  C   UNL A   1      54.086  26.737  24.042  1.00  0.00     0.001 A 
ATOM     77  C   UNL A   1      54.589  26.902  26.398  1.00  0.00     0.001 A 
ATOM     78  C   UNL A   1      54.890  26.403  25.131  1.00  0.00     0.000 A 
ENDBRANCH  59  73
BRANCH  60  79
ATOM     79  C   UNL A   1      44.694  33.976  26.770  1.00  0.00    -0.014 A 
ATOM     80  C   UNL A   1      44.313  34.420  28.046  1.00  0.00     0.009 A 
ATOM     81  C   UNL A   1      43.949  34.395  25.657  1.00  0.00     0.009 A 
ATOM     82  C   UNL A   1      43.200  35.248  28.205  1.00  0.00     0.001 A 
ATOM     83  C   UNL A   1      42.855  35.248  25.816  1.00  0.00     0.001 A 
ATOM     84  C   UNL A   1      42.476  35.667  27.090  1.00  0.00     0.000 A 
ENDBRANCH  60  79
BRANCH  72  85
ATOM     85  C   UNL A   1      51.451  35.176  25.533  1.00  0.00    -0.014 A 
ATOM     86  C   UNL A   1      52.057  35.820  26.623  1.00  0.00     0.009 A 
ATOM     87  C   UNL A   1      51.652  35.688  24.241  1.00  0.00     0.009 A 
ATOM     88  C   UNL A   1      52.828  36.967  26.425  1.00  0.00     0.001 A 
ATOM     89  C   UNL A   1      52.450  36.816  24.043  1.00  0.00     0.001 A 
ATOM     90  C   UNL A   1      53.030  37.459  25.134  1.00  0.00     0.000 A 
ENDBRANCH  72  85
ENDBRANCH  46  47
ENDBRANCH  38  41
ENDBRANCH  36  37
ENDBRANCH  35  36
ENDBRANCH  34  35
ENDBRANCH   3  34
TORSDOF 15
ENDMDL
MODEL 2
REMARK VINA RESULT:     -11.8      6.979     11.169
REMARK SMILES CC1=C(C(=O)OCC(C)C)[C@@H](c2ccc(C(=O)NCCCNC(=O)c3ccc(-c4c5nc(c(-c6ccccc6)c6ccc([nH]6)c(-c6ccccc6)c6nc(c(-c7ccccc7)c7ccc4[nH]7)C=C6)C=C5)cc3)cc2)c2c(n(C)c(=O)n(C)c2=O)N1
REMARK SMILES IDX 16 1 17 2 18 3 15 5 12 6 13 7 74 8 14 9 73 10 11 11 1 12
REMARK SMILES IDX 2 13 3 14 85 15 76 16 75 18 77 19 83 20 78 21 79 22 81 23
REMARK SMILES IDX 84 24 80 25 82 26 4 27 5 28 6 29 7 30 8 31 9 32 10 33 19 34
REMARK SMILES IDX 20 35 21 36 22 37 23 38 24 40 25 41 26 42 72 43 27 44 71 45
REMARK SMILES IDX 28 46 29 47 30 48 65 49 31 50 70 51 64 52 66 53 32 54 69 55
REMARK SMILES IDX 63 56 62 57 33 59 55 60 40 61 54 62 41 63 44 64 53 65 67 66
REMARK SMILES IDX 42 67 43 68 52 70 68 71 45 72 34 73 35 74 39 75 36 76 38 77
REMARK SMILES IDX 37 78 56 79 57 80 61 81 58 82 60 83 59 84 46 85 47 86 51 87
REMARK SMILES IDX 48 88 50 89 49 90
REMARK H PARENT 18 4 85 17 22 39 66 58 44 69
REMARK Flexibility Score: inf
ROOT
ATOM      1  C   UNL A   1      34.589  30.628  27.601  1.00  0.00     0.251 C 
ATOM      2  O   UNL A   1      35.696  30.399  28.093  1.00  0.00    -0.269 OA
ATOM      3  N   UNL A   1      34.049  31.864  27.835  1.00  0.00    -0.352 N 
ATOM      4  H   UNL A   1      34.620  32.449  28.384  1.00  0.00     0.163 HD
ENDROOT
BRANCH   1   5
ATOM      5  C   UNL A   1      33.942  29.588  26.752  1.00  0.00     0.039 A 
ATOM      6  C   UNL A   1      32.640  27.510  25.344  1.00  0.00    -0.035 A 
ATOM      7  C   UNL A   1      32.192  27.902  26.615  1.00  0.00     0.005 A 
ATOM      8  C   UNL A   1      33.707  28.207  24.766  1.00  0.00     0.005 A 
ATOM      9  C   UNL A   1      32.843  28.921  27.311  1.00  0.00     0.014 A 
ATOM     10  C   UNL A   1      34.331  29.252  25.453  1.00  0.00     0.014 A 
BRANCH   6  11
ATOM     11  C   UNL A   1      31.979  26.359  24.580  1.00  0.00     0.098 C 
ATOM     12  C   UNL A   1      28.063  26.563  24.208  1.00  0.00     0.065 C 
ATOM     13  C   UNL A   1      29.484  26.211  24.571  1.00  0.00     0.025 C 
ATOM     14  C   UNL A   1      30.602  26.796  24.085  1.00  0.00     0.068 C 
ATOM     15  N   UNL A   1      29.606  25.159  25.473  1.00  0.00    -0.344 N 
ATOM     16  C   UNL A   1      30.792  24.560  25.870  1.00  0.00     0.123 A 
ATOM     17  H   UNL A   1      28.774  24.806  25.865  1.00  0.00     0.168 HD
ATOM     18  C   UNL A   1      31.943  25.103  25.438  1.00  0.00     0.071 A 
ATOM     19  N   UNL A   1      30.829  23.440  26.686  1.00  0.00    -0.282 N 
ATOM     20  C   UNL A   1      33.236  24.483  25.786  1.00  0.00     0.262 A 
ATOM     21  C   UNL A   1      29.583  22.802  27.093  1.00  0.00     0.157 C 
ATOM     22  C   UNL A   1      32.016  22.885  27.163  1.00  0.00     0.332 A 
ATOM     23  N   UNL A   1      33.189  23.483  26.732  1.00  0.00    -0.263 N 
ATOM     24  O   UNL A   1      34.270  24.854  25.235  1.00  0.00    -0.269 OA
ATOM     25  O   UNL A   1      32.031  21.909  27.916  1.00  0.00    -0.247 OA
ATOM     26  C   UNL A   1      34.436  22.931  27.228  1.00  0.00     0.158 C 
BRANCH  14  27
ATOM     27  C   UNL A   1      30.667  27.821  23.010  1.00  0.00     0.336 C 
ATOM     28  O   UNL A   1      30.990  27.548  21.864  1.00  0.00    -0.246 OA
BRANCH  27  29
ATOM     29  O   UNL A   1      30.405  29.060  23.484  1.00  0.00    -0.462 OA
BRANCH  29  30
ATOM     30  C   UNL A   1      29.758  29.974  22.580  1.00  0.00     0.236 C 
BRANCH  30  31
ATOM     31  C   UNL A   1      28.776  30.866  23.350  1.00  0.00     0.021 C 
ATOM     32  C   UNL A   1      28.729  32.281  22.773  1.00  0.00     0.011 C 
ATOM     33  C   UNL A   1      27.379  30.248  23.347  1.00  0.00     0.011 C 
ENDBRANCH  30  31
ENDBRANCH  29  30
ENDBRANCH  27  29
ENDBRANCH  14  27
ENDBRANCH   6  11
ENDBRANCH   1   5
BRANCH   3  34
ATOM     34  C   UNL A   1      32.800  32.480  27.433  1.00  0.00     0.118 C 
BRANCH  34  35
ATOM     35  C   UNL A   1      32.739  33.931  27.906  1.00  0.00     0.042 C 
BRANCH  35  36
ATOM     36  C   UNL A   1      33.934  34.322  28.771  1.00  0.00     0.118 C 
BRANCH  36  37
ATOM     37  N   UNL A   1      33.517  34.766  30.093  1.00  0.00    -0.352 N 
ATOM     38  C   UNL A   1      33.928  34.350  31.331  1.00  0.00     0.251 C 
ATOM     39  H   UNL A   1      32.834  35.476  30.097  1.00  0.00     0.163 HD
ATOM     40  O   UNL A   1      33.264  34.638  32.323  1.00  0.00    -0.269 OA
BRANCH  38  41
ATOM     41  C   UNL A   1      35.170  33.565  31.480  1.00  0.00     0.039 A 
ATOM     42  C   UNL A   1      35.111  32.321  32.115  1.00  0.00     0.014 A 
ATOM     43  C   UNL A   1      36.398  34.081  31.055  1.00  0.00     0.014 A 
ATOM     44  C   UNL A   1      36.279  31.579  32.289  1.00  0.00     0.010 A 
ATOM     45  C   UNL A   1      37.549  33.308  31.162  1.00  0.00     0.010 A 
ATOM     46  C   UNL A   1      37.503  32.059  31.796  1.00  0.00    -0.014 A 
BRANCH  46  47
ATOM     47  C   UNL A   1      38.755  31.284  31.966  1.00  0.00     0.031 A 
ATOM     48  C   UNL A   1      39.690  31.610  33.098  1.00  0.00     0.074 A 
ATOM     49  C   UNL A   1      39.065  30.318  31.082  1.00  0.00     0.049 A 
ATOM     50  N   UNL A   1      40.852  31.083  33.384  1.00  0.00    -0.248 NA
ATOM     51  C   UNL A   1      39.273  32.682  34.019  1.00  0.00     0.031 C 
ATOM     52  C   UNL A   1      38.242  29.921  29.938  1.00  0.00     0.029 A 
ATOM     53  N   UNL A   1      40.156  29.490  31.011  1.00  0.00    -0.354 N 
ATOM     54  C   UNL A   1      41.305  31.760  34.510  1.00  0.00     0.074 A 
ATOM     55  C   UNL A   1      40.322  32.775  34.821  1.00  0.00     0.031 C 
ATOM     56  C   UNL A   1      38.839  28.902  29.301  1.00  0.00     0.029 A 
ATOM     57  C   UNL A   1      40.106  28.604  29.963  1.00  0.00     0.049 A 
ATOM     58  H   UNL A   1      40.903  29.526  31.652  1.00  0.00     0.167 HD
ATOM     59  C   UNL A   1      42.426  31.538  35.235  1.00  0.00     0.031 A 
ATOM     60  C   UNL A   1      40.985  27.660  29.576  1.00  0.00     0.031 A 
ATOM     61  C   UNL A   1      43.398  30.526  34.925  1.00  0.00     0.049 A 
ATOM     62  C   UNL A   1      42.248  27.470  30.369  1.00  0.00     0.074 A 
ATOM     63  C   UNL A   1      44.553  30.203  35.614  1.00  0.00     0.029 A 
ATOM     64  N   UNL A   1      43.326  29.671  33.836  1.00  0.00    -0.354 N 
ATOM     65  N   UNL A   1      42.643  28.091  31.455  1.00  0.00    -0.248 NA
ATOM     66  C   UNL A   1      43.183  26.444  29.886  1.00  0.00     0.031 C 
ATOM     67  C   UNL A   1      45.209  29.188  34.910  1.00  0.00     0.029 A 
ATOM     68  C   UNL A   1      44.430  28.837  33.820  1.00  0.00     0.049 A 
ATOM     69  H   UNL A   1      42.597  29.659  33.174  1.00  0.00     0.167 HD
ATOM     70  C   UNL A   1      43.859  27.516  31.799  1.00  0.00     0.074 A 
ATOM     71  C   UNL A   1      44.127  26.483  30.818  1.00  0.00     0.031 C 
ATOM     72  C   UNL A   1      44.682  27.818  32.833  1.00  0.00     0.031 A 
BRANCH  59  73
ATOM     73  C   UNL A   1      42.659  32.405  36.441  1.00  0.00    -0.014 A 
ATOM     74  C   UNL A   1      42.200  32.019  37.710  1.00  0.00     0.009 A 
ATOM     75  C   UNL A   1      43.398  33.592  36.320  1.00  0.00     0.009 A 
ATOM     76  C   UNL A   1      42.453  32.815  38.829  1.00  0.00     0.001 A 
ATOM     77  C   UNL A   1      43.676  34.372  37.445  1.00  0.00     0.001 A 
ATOM     78  C   UNL A   1      43.198  33.987  38.697  1.00  0.00     0.000 A 
ENDBRANCH  59  73
BRANCH  60  79
ATOM     79  C   UNL A   1      40.686  26.807  28.396  1.00  0.00    -0.014 A 
ATOM     80  C   UNL A   1      41.208  27.133  27.135  1.00  0.00     0.009 A 
ATOM     81  C   UNL A   1      39.893  25.655  28.522  1.00  0.00     0.009 A 
ATOM     82  C   UNL A   1      40.929  26.335  26.023  1.00  0.00     0.001 A 
ATOM     83  C   UNL A   1      39.641  24.842  27.416  1.00  0.00     0.001 A 
ATOM     84  C   UNL A   1      40.152  25.187  26.166  1.00  0.00     0.000 A 
ENDBRANCH  60  79
BRANCH  72  85
ATOM     85  C   UNL A   1      45.942  27.011  32.973  1.00  0.00    -0.014 A 
ATOM     86  C   UNL A   1      47.148  27.443  32.399  1.00  0.00     0.009 A 
ATOM     87  C   UNL A   1      45.937  25.841  33.749  1.00  0.00     0.009 A 
ATOM     88  C   UNL A   1      48.319  26.704  32.579  1.00  0.00     0.001 A 
ATOM     89  C   UNL A   1      47.116  25.122  33.954  1.00  0.00     0.001 A 
ATOM     90  C   UNL A   1      48.303  25.550  33.363  1.00  0.00     0.000 A 
ENDBRANCH  72  85
ENDBRANCH  46  47
ENDBRANCH  38  41
ENDBRANCH  36  37
ENDBRANCH  35  36
ENDBRANCH  34  35
ENDBRANCH   3  34
TORSDOF 15
ENDMDL
MODEL 3
REMARK VINA RESULT:     -11.7      6.372      9.104
REMARK SMILES CC1=C(C(=O)OCC(C)C)[C@@H](c2ccc(C(=O)NCCCNC(=O)c3ccc(-c4c5nc(c(-c6ccccc6)c6ccc([nH]6)c(-c6ccccc6)c6nc(c(-c7ccccc7)c7ccc4[nH]7)C=C6)C=C5)cc3)cc2)c2c(n(C)c(=O)n(C)c2=O)N1
REMARK SMILES IDX 16 1 17 2 18 3 15 5 12 6 13 7 74 8 14 9 73 10 11 11 1 12
REMARK SMILES IDX 2 13 3 14 85 15 76 16 75 18 77 19 83 20 78 21 79 22 81 23
REMARK SMILES IDX 84 24 80 25 82 26 4 27 5 28 6 29 7 30 8 31 9 32 10 33 19 34
REMARK SMILES IDX 20 35 21 36 22 37 23 38 24 40 25 41 26 42 72 43 27 44 71 45
REMARK SMILES IDX 28 46 29 47 30 48 65 49 31 50 70 51 64 52 66 53 32 54 69 55
REMARK SMILES IDX 63 56 62 57 33 59 55 60 40 61 54 62 41 63 44 64 53 65 67 66
REMARK SMILES IDX 42 67 43 68 52 70 68 71 45 72 34 73 35 74 39 75 36 76 38 77
REMARK SMILES IDX 37 78 56 79 57 80 61 81 58 82 60 83 59 84 46 85 47 86 51 87
REMARK SMILES IDX 48 88 50 89 49 90
REMARK H PARENT 18 4 85 17 22 39 66 58 44 69
REMARK Flexibility Score: inf
ROOT
ATOM      1  C   UNL A   1      38.624  23.323  26.185  1.00  0.00     0.251 C 
ATOM      2  O   UNL A   1      39.137  24.408  26.469  1.00  0.00    -0.269 OA
ATOM      3  N   UNL A   1      39.444  22.227  26.196  1.00  0.00    -0.352 N 
ATOM      4  H   UNL A   1      40.376  22.431  26.437  1.00  0.00     0.163 HD
ENDROOT
BRANCH   1   5
ATOM      5  C   UNL A   1      37.161  23.262  25.906  1.00  0.00     0.039 A 
ATOM      6  C   UNL A   1      34.429  23.281  25.181  1.00  0.00    -0.035 A 
ATOM      7  C   UNL A   1      35.427  23.417  24.204  1.00  0.00     0.005 A 
ATOM      8  C   UNL A   1      34.815  23.080  26.511  1.00  0.00     0.005 A 
ATOM      9  C   UNL A   1      36.775  23.417  24.567  1.00  0.00     0.014 A 
ATOM     10  C   UNL A   1      36.168  23.043  26.862  1.00  0.00     0.014 A 
BRANCH   6  11
ATOM     11  C   UNL A   1      32.942  23.331  24.820  1.00  0.00     0.098 C 
ATOM     12  C   UNL A   1      31.863  21.232  21.665  1.00  0.00     0.065 C 
ATOM     13  C   UNL A   1      32.204  22.316  22.658  1.00  0.00     0.025 C 
ATOM     14  C   UNL A   1      32.586  22.133  23.942  1.00  0.00     0.068 C 
ATOM     15  N   UNL A   1      32.070  23.611  22.168  1.00  0.00    -0.344 N 
ATOM     16  C   UNL A   1      32.198  24.778  22.905  1.00  0.00     0.123 A 
ATOM     17  H   UNL A   1      31.865  23.708  21.209  1.00  0.00     0.168 HD
ATOM     18  C   UNL A   1      32.593  24.670  24.185  1.00  0.00     0.071 A 
ATOM     19  N   UNL A   1      31.938  26.032  22.374  1.00  0.00    -0.282 N 
ATOM     20  C   UNL A   1      32.700  25.871  25.036  1.00  0.00     0.262 A 
ATOM     21  C   UNL A   1      31.435  26.149  21.011  1.00  0.00     0.157 C 
ATOM     22  C   UNL A   1      32.150  27.216  23.081  1.00  0.00     0.332 A 
ATOM     23  N   UNL A   1      32.590  27.081  24.387  1.00  0.00    -0.263 N 
ATOM     24  O   UNL A   1      32.865  25.759  26.249  1.00  0.00    -0.269 OA
ATOM     25  O   UNL A   1      31.946  28.326  22.583  1.00  0.00    -0.247 OA
ATOM     26  C   UNL A   1      32.831  28.299  25.136  1.00  0.00     0.158 C 
BRANCH  14  27
ATOM     27  C   UNL A   1      32.634  20.840  24.674  1.00  0.00     0.336 C 
ATOM     28  O   UNL A   1      31.819  20.543  25.533  1.00  0.00    -0.246 OA
BRANCH  27  29
ATOM     29  O   UNL A   1      33.713  20.105  24.320  1.00  0.00    -0.462 OA
BRANCH  29  30
ATOM     30  C   UNL A   1      33.766  18.755  24.816  1.00  0.00     0.236 C 
BRANCH  30  31
ATOM     31  C   UNL A   1      33.911  17.772  23.648  1.00  0.00     0.021 C 
ATOM     32  C   UNL A   1      34.153  16.345  24.139  1.00  0.00     0.011 C 
ATOM     33  C   UNL A   1      32.673  17.820  22.754  1.00  0.00     0.011 C 
ENDBRANCH  30  31
ENDBRANCH  29  30
ENDBRANCH  27  29
ENDBRANCH  14  27
ENDBRANCH   6  11
ENDBRANCH   1   5
BRANCH   3  34
ATOM     34  C   UNL A   1      39.207  20.823  25.921  1.00  0.00     0.118 C 
BRANCH  34  35
ATOM     35  C   UNL A   1      40.500  20.023  26.056  1.00  0.00     0.042 C 
BRANCH  35  36
ATOM     36  C   UNL A   1      41.639  20.839  26.663  1.00  0.00     0.118 C 
BRANCH  36  37
ATOM     37  N   UNL A   1      42.552  21.328  25.641  1.00  0.00    -0.352 N 
ATOM     38  C   UNL A   1      42.937  22.609  25.344  1.00  0.00     0.251 C 
ATOM     39  H   UNL A   1      42.956  20.630  25.074  1.00  0.00     0.163 HD
ATOM     40  O   UNL A   1      43.490  22.848  24.275  1.00  0.00    -0.269 OA
BRANCH  38  41
ATOM     41  C   UNL A   1      42.698  23.701  26.310  1.00  0.00     0.039 A 
ATOM     42  C   UNL A   1      42.834  25.024  25.880  1.00  0.00     0.014 A 
ATOM     43  C   UNL A   1      42.406  23.422  27.648  1.00  0.00     0.014 A 
ATOM     44  C   UNL A   1      42.640  26.067  26.785  1.00  0.00     0.010 A 
ATOM     45  C   UNL A   1      42.139  24.463  28.530  1.00  0.00     0.010 A 
ATOM     46  C   UNL A   1      42.272  25.793  28.112  1.00  0.00    -0.014 A 
BRANCH  46  47
ATOM     47  C   UNL A   1      42.056  26.887  29.089  1.00  0.00     0.031 A 
ATOM     48  C   UNL A   1      40.827  27.748  28.991  1.00  0.00     0.074 A 
ATOM     49  C   UNL A   1      42.983  27.126  30.035  1.00  0.00     0.049 A 
ATOM     50  N   UNL A   1      40.484  28.780  29.718  1.00  0.00    -0.248 NA
ATOM     51  C   UNL A   1      39.864  27.415  27.926  1.00  0.00     0.031 C 
ATOM     52  C   UNL A   1      44.221  26.367  30.220  1.00  0.00     0.029 A 
ATOM     53  N   UNL A   1      43.025  28.077  31.023  1.00  0.00    -0.354 N 
ATOM     54  C   UNL A   1      39.275  29.222  29.196  1.00  0.00     0.074 A 
ATOM     55  C   UNL A   1      38.971  28.384  28.056  1.00  0.00     0.031 C 
ATOM     56  C   UNL A   1      44.882  26.856  31.281  1.00  0.00     0.029 A 
ATOM     57  C   UNL A   1      44.140  27.991  31.821  1.00  0.00     0.049 A 
ATOM     58  H   UNL A   1      42.322  28.755  31.150  1.00  0.00     0.167 HD
ATOM     59  C   UNL A   1      38.476  30.219  29.642  1.00  0.00     0.031 A 
ATOM     60  C   UNL A   1      44.522  28.745  32.869  1.00  0.00     0.031 A 
ATOM     61  C   UNL A   1      38.781  31.047  30.777  1.00  0.00     0.049 A 
ATOM     62  C   UNL A   1      43.642  29.880  33.311  1.00  0.00     0.074 A 
ATOM     63  C   UNL A   1      38.023  32.066  31.326  1.00  0.00     0.029 A 
ATOM     64  N   UNL A   1      39.935  30.949  31.538  1.00  0.00    -0.354 N 
ATOM     65  N   UNL A   1      42.481  30.261  32.833  1.00  0.00    -0.248 NA
ATOM     66  C   UNL A   1      44.121  30.686  34.443  1.00  0.00     0.031 C 
ATOM     67  C   UNL A   1      38.744  32.621  32.387  1.00  0.00     0.029 A 
ATOM     68  C   UNL A   1      39.922  31.906  32.537  1.00  0.00     0.049 A 
ATOM     69  H   UNL A   1      40.656  30.294  31.390  1.00  0.00     0.167 HD
ATOM     70  C   UNL A   1      42.081  31.334  33.617  1.00  0.00     0.074 A 
ATOM     71  C   UNL A   1      43.112  31.530  34.616  1.00  0.00     0.031 C 
ATOM     72  C   UNL A   1      40.960  32.090  33.519  1.00  0.00     0.031 A 
BRANCH  59  73
ATOM     73  C   UNL A   1      37.191  30.467  28.902  1.00  0.00    -0.014 A 
ATOM     74  C   UNL A   1      36.231  29.453  28.759  1.00  0.00     0.009 A 
ATOM     75  C   UNL A   1      36.908  31.744  28.394  1.00  0.00     0.009 A 
ATOM     76  C   UNL A   1      35.026  29.705  28.100  1.00  0.00     0.001 A 
ATOM     77  C   UNL A   1      35.690  32.003  27.763  1.00  0.00     0.001 A 
ATOM     78  C   UNL A   1      34.752  30.981  27.609  1.00  0.00     0.000 A 
ENDBRANCH  59  73
BRANCH  60  79
ATOM     79  C   UNL A   1      45.786  28.432  33.586  1.00  0.00    -0.014 A 
ATOM     80  C   UNL A   1      45.784  27.540  34.670  1.00  0.00     0.009 A 
ATOM     81  C   UNL A   1      47.003  29.005  33.184  1.00  0.00     0.009 A 
ATOM     82  C   UNL A   1      46.969  27.244  35.347  1.00  0.00     0.001 A 
ATOM     83  C   UNL A   1      48.191  28.684  33.843  1.00  0.00     0.001 A 
ATOM     84  C   UNL A   1      48.172  27.811  34.929  1.00  0.00     0.000 A 
ENDBRANCH  60  79
BRANCH  72  85
ATOM     85  C   UNL A   1      40.776  33.189  34.527  1.00  0.00    -0.014 A 
ATOM     86  C   UNL A   1      41.220  34.494  34.266  1.00  0.00     0.009 A 
ATOM     87  C   UNL A   1      40.086  32.930  35.722  1.00  0.00     0.009 A 
ATOM     88  C   UNL A   1      40.999  35.513  35.194  1.00  0.00     0.001 A 
ATOM     89  C   UNL A   1      39.838  33.958  36.633  1.00  0.00     0.001 A 
ATOM     90  C   UNL A   1      40.301  35.246  36.373  1.00  0.00     0.000 A 
ENDBRANCH  72  85
ENDBRANCH  46  47
ENDBRANCH  38  41
ENDBRANCH  36  37
ENDBRANCH  35  36
ENDBRANCH  34  35
ENDBRANCH   3  34
TORSDOF 15
ENDMDL
