MODEL 1
REMARK VINA RESULT:      -8.5      0.000      0.000
REMARK SMILES C[C@H](C(=O)NCCCNC(=O)c1ccc(-c2c3nc(c(-c4ccccc4)c4ccc([nH]4)c(-c4ccccc4)c4nc(c(-c5ccccc5)c5ccc2[nH]5)C=C4)C=C3)cc1)c1ccc(C[C@H]2CCC[C@@H]2O)cc1
REMARK SMILES IDX 6 1 5 2 3 3 4 4 2 6 1 7 60 8 61 9 72 10 62 11 71 12 63 13
REMARK SMILES IDX 64 14 65 15 66 16 69 17 67 18 68 19 70 20 7 22 8 23 9 24
REMARK SMILES IDX 10 25 11 27 12 28 13 29 59 30 14 31 58 32 15 33 16 34 17 35
REMARK SMILES IDX 52 36 18 37 57 38 51 39 53 40 19 41 56 42 50 43 49 44 20 46
REMARK SMILES IDX 42 47 27 48 41 49 28 50 31 51 40 52 54 53 29 54 30 55 39 57
REMARK SMILES IDX 55 58 32 59 21 60 22 61 26 62 23 63 25 64 24 65 43 66 44 67
REMARK SMILES IDX 48 68 45 69 47 70 46 71 33 72 34 73 38 74 35 75 37 76 36 77
REMARK H PARENT 5 5 70 21 9 26 53 45 31 56
REMARK Flexibility Score: inf
ROOT
ATOM      1  C   UNL A   1      34.331  33.572  30.525  1.00  0.00     0.117 C 
ENDROOT
BRANCH   1   2
ATOM      2  N   UNL A   1      34.876  34.307  31.645  1.00  0.00    -0.356 N 
ATOM      3  C   UNL A   1      36.127  34.381  32.167  1.00  0.00     0.227 C 
ATOM      4  O   UNL A   1      36.265  35.291  33.002  1.00  0.00    -0.274 OA
ATOM      5  H   UNL A   1      34.213  34.859  32.119  1.00  0.00     0.163 HD
BRANCH   3   6
ATOM      6  C   UNL A   1      37.340  33.468  31.857  1.00  0.00     0.105 C 
ATOM      7  C   UNL A   1      38.352  34.365  31.111  1.00  0.00     0.023 C 
BRANCH   6   8
ATOM      8  C   UNL A   1      37.978  32.650  32.977  1.00  0.00    -0.036 A 
ATOM      9  C   UNL A   1      39.030  33.186  33.745  1.00  0.00     0.005 A 
ATOM     10  C   UNL A   1      37.587  31.334  33.256  1.00  0.00     0.005 A 
ATOM     11  C   UNL A   1      39.828  32.348  34.548  1.00  0.00     0.004 A 
ATOM     12  C   UNL A   1      38.325  30.533  34.128  1.00  0.00     0.004 A 
ATOM     13  C   UNL A   1      39.522  30.988  34.682  1.00  0.00    -0.048 A 
BRANCH  13  14
ATOM     14  C   UNL A   1      40.443  30.016  35.386  1.00  0.00     0.041 C 
BRANCH  14  15
ATOM     15  C   UNL A   1      41.554  29.341  34.538  1.00  0.00     0.022 C 
ATOM     16  C   UNL A   1      42.938  29.159  35.193  1.00  0.00     0.007 C 
ATOM     17  C   UNL A   1      41.207  27.955  33.988  1.00  0.00     0.117 C 
ATOM     18  C   UNL A   1      43.495  27.824  34.693  1.00  0.00     0.003 C 
ATOM     19  C   UNL A   1      42.562  27.384  33.582  1.00  0.00     0.032 C 
BRANCH  17  20
ATOM     20  O   UNL A   1      40.374  28.027  32.844  1.00  0.00    -0.393 OA
ATOM     21  H   UNL A   1      39.999  28.919  32.774  1.00  0.00     0.210 HD
ENDBRANCH  17  20
ENDBRANCH  14  15
ENDBRANCH  13  14
ENDBRANCH   6   8
ENDBRANCH   3   6
ENDBRANCH   1   2
BRANCH   1  22
ATOM     22  C   UNL A   1      34.463  34.260  29.185  1.00  0.00     0.042 C 
BRANCH  22  23
ATOM     23  C   UNL A   1      34.924  33.372  28.052  1.00  0.00     0.118 C 
BRANCH  23  24
ATOM     24  N   UNL A   1      34.111  32.170  27.890  1.00  0.00    -0.352 N 
ATOM     25  C   UNL A   1      34.415  30.831  27.895  1.00  0.00     0.251 C 
ATOM     26  H   UNL A   1      33.156  32.357  27.748  1.00  0.00     0.163 HD
ATOM     27  O   UNL A   1      33.531  30.028  27.573  1.00  0.00    -0.269 OA
BRANCH  25  28
ATOM     28  C   UNL A   1      35.758  30.319  28.250  1.00  0.00     0.039 A 
ATOM     29  C   UNL A   1      36.762  30.287  27.273  1.00  0.00     0.014 A 
ATOM     30  C   UNL A   1      36.040  29.813  29.516  1.00  0.00     0.014 A 
ATOM     31  C   UNL A   1      38.038  29.807  27.589  1.00  0.00     0.010 A 
ATOM     32  C   UNL A   1      37.343  29.490  29.874  1.00  0.00     0.010 A 
ATOM     33  C   UNL A   1      38.351  29.437  28.906  1.00  0.00    -0.014 A 
BRANCH  33  34
ATOM     34  C   UNL A   1      39.691  28.922  29.292  1.00  0.00     0.031 A 
ATOM     35  C   UNL A   1      40.622  29.785  30.111  1.00  0.00     0.074 A 
ATOM     36  C   UNL A   1      40.105  27.718  28.852  1.00  0.00     0.049 A 
ATOM     37  N   UNL A   1      41.863  29.561  30.468  1.00  0.00    -0.248 NA
ATOM     38  C   UNL A   1      40.107  31.095  30.549  1.00  0.00     0.031 C 
ATOM     39  C   UNL A   1      39.329  26.807  28.006  1.00  0.00     0.029 A 
ATOM     40  N   UNL A   1      41.289  27.055  29.055  1.00  0.00    -0.354 N 
ATOM     41  C   UNL A   1      42.278  30.710  31.132  1.00  0.00     0.074 A 
ATOM     42  C   UNL A   1      41.188  31.657  31.065  1.00  0.00     0.031 C 
ATOM     43  C   UNL A   1      40.041  25.686  27.800  1.00  0.00     0.029 A 
ATOM     44  C   UNL A   1      41.336  25.818  28.459  1.00  0.00     0.049 A 
ATOM     45  H   UNL A   1      42.034  27.430  29.578  1.00  0.00     0.167 HD
ATOM     46  C   UNL A   1      43.446  30.951  31.774  1.00  0.00     0.031 A 
ATOM     47  C   UNL A   1      42.315  24.894  28.445  1.00  0.00     0.031 A 
ATOM     48  C   UNL A   1      44.515  29.997  31.877  1.00  0.00     0.049 A 
ATOM     49  C   UNL A   1      43.592  25.169  29.188  1.00  0.00     0.074 A 
ATOM     50  C   UNL A   1      45.713  30.112  32.558  1.00  0.00     0.029 A 
ATOM     51  N   UNL A   1      44.506  28.741  31.289  1.00  0.00    -0.354 N 
ATOM     52  N   UNL A   1      43.944  26.236  29.864  1.00  0.00    -0.248 NA
ATOM     53  C   UNL A   1      44.603  24.101  29.180  1.00  0.00     0.031 C 
ATOM     54  C   UNL A   1      46.449  28.942  32.344  1.00  0.00     0.029 A 
ATOM     55  C   UNL A   1      45.683  28.077  31.580  1.00  0.00     0.049 A 
ATOM     56  H   UNL A   1      43.770  28.377  30.745  1.00  0.00     0.167 HD
ATOM     57  C   UNL A   1      45.200  25.957  30.388  1.00  0.00     0.074 A 
ATOM     58  C   UNL A   1      45.540  24.613  29.965  1.00  0.00     0.031 C 
ATOM     59  C   UNL A   1      46.001  26.740  31.151  1.00  0.00     0.031 A 
BRANCH  46  60
ATOM     60  C   UNL A   1      43.616  32.301  32.420  1.00  0.00    -0.014 A 
ATOM     61  C   UNL A   1      43.282  32.511  33.769  1.00  0.00     0.009 A 
ATOM     62  C   UNL A   1      44.132  33.373  31.676  1.00  0.00     0.009 A 
ATOM     63  C   UNL A   1      43.414  33.778  34.343  1.00  0.00     0.001 A 
ATOM     64  C   UNL A   1      44.297  34.630  32.264  1.00  0.00     0.001 A 
ATOM     65  C   UNL A   1      43.926  34.834  33.592  1.00  0.00     0.000 A 
ENDBRANCH  46  60
BRANCH  47  66
ATOM     66  C   UNL A   1      42.111  23.604  27.732  1.00  0.00    -0.014 A 
ATOM     67  C   UNL A   1      42.549  23.447  26.407  1.00  0.00     0.009 A 
ATOM     68  C   UNL A   1      41.481  22.525  28.369  1.00  0.00     0.009 A 
ATOM     69  C   UNL A   1      42.332  22.247  25.727  1.00  0.00     0.001 A 
ATOM     70  C   UNL A   1      41.292  21.316  27.695  1.00  0.00     0.001 A 
ATOM     71  C   UNL A   1      41.709  21.182  26.373  1.00  0.00     0.000 A 
ENDBRANCH  47  66
BRANCH  59  72
ATOM     72  C   UNL A   1      47.302  26.145  31.613  1.00  0.00    -0.014 A 
ATOM     73  C   UNL A   1      47.429  25.554  32.878  1.00  0.00     0.009 A 
ATOM     74  C   UNL A   1      48.408  26.148  30.747  1.00  0.00     0.009 A 
ATOM     75  C   UNL A   1      48.651  25.014  33.284  1.00  0.00     0.001 A 
ATOM     76  C   UNL A   1      49.618  25.579  31.143  1.00  0.00     0.001 A 
ATOM     77  C   UNL A   1      49.742  25.023  32.416  1.00  0.00     0.000 A 
ENDBRANCH  59  72
ENDBRANCH  33  34
ENDBRANCH  25  28
ENDBRANCH  23  24
ENDBRANCH  22  23
ENDBRANCH   1  22
TORSDOF 14
ENDMDL
MODEL 2
REMARK VINA RESULT:      -8.5      4.067      9.639
REMARK SMILES C[C@H](C(=O)NCCCNC(=O)c1ccc(-c2c3nc(c(-c4ccccc4)c4ccc([nH]4)c(-c4ccccc4)c4nc(c(-c5ccccc5)c5ccc2[nH]5)C=C4)C=C3)cc1)c1ccc(C[C@H]2CCC[C@@H]2O)cc1
REMARK SMILES IDX 6 1 5 2 3 3 4 4 2 6 1 7 60 8 61 9 72 10 62 11 71 12 63 13
REMARK SMILES IDX 64 14 65 15 66 16 69 17 67 18 68 19 70 20 7 22 8 23 9 24
REMARK SMILES IDX 10 25 11 27 12 28 13 29 59 30 14 31 58 32 15 33 16 34 17 35
REMARK SMILES IDX 52 36 18 37 57 38 51 39 53 40 19 41 56 42 50 43 49 44 20 46
REMARK SMILES IDX 42 47 27 48 41 49 28 50 31 51 40 52 54 53 29 54 30 55 39 57
REMARK SMILES IDX 55 58 32 59 21 60 22 61 26 62 23 63 25 64 24 65 43 66 44 67
REMARK SMILES IDX 48 68 45 69 47 70 46 71 33 72 34 73 38 74 35 75 37 76 36 77
REMARK H PARENT 5 5 70 21 9 26 53 45 31 56
REMARK Flexibility Score: inf
ROOT
ATOM      1  C   UNL A   1      31.136  30.209  25.358  1.00  0.00     0.117 C 
ENDROOT
BRANCH   1   2
ATOM      2  N   UNL A   1      30.644  30.132  24.000  1.00  0.00    -0.356 N 
ATOM      3  C   UNL A   1      29.947  29.177  23.334  1.00  0.00     0.227 C 
ATOM      4  O   UNL A   1      29.509  29.555  22.234  1.00  0.00    -0.274 OA
ATOM      5  H   UNL A   1      30.856  30.924  23.455  1.00  0.00     0.163 HD
BRANCH   3   6
ATOM      6  C   UNL A   1      29.678  27.716  23.777  1.00  0.00     0.105 C 
ATOM      7  C   UNL A   1      28.179  27.471  23.495  1.00  0.00     0.023 C 
BRANCH   6   8
ATOM      8  C   UNL A   1      30.574  26.592  23.267  1.00  0.00    -0.036 A 
ATOM      9  C   UNL A   1      30.340  25.258  23.652  1.00  0.00     0.005 A 
ATOM     10  C   UNL A   1      31.683  26.836  22.446  1.00  0.00     0.005 A 
ATOM     11  C   UNL A   1      31.327  24.273  23.456  1.00  0.00     0.004 A 
ATOM     12  C   UNL A   1      32.613  25.832  22.173  1.00  0.00     0.004 A 
ATOM     13  C   UNL A   1      32.513  24.578  22.778  1.00  0.00    -0.048 A 
BRANCH  13  14
ATOM     14  C   UNL A   1      33.673  23.610  22.697  1.00  0.00     0.041 C 
BRANCH  14  15
ATOM     15  C   UNL A   1      34.952  23.954  23.505  1.00  0.00     0.022 C 
ATOM     16  C   UNL A   1      34.781  24.295  24.998  1.00  0.00     0.007 C 
ATOM     17  C   UNL A   1      36.050  22.888  23.480  1.00  0.00     0.117 C 
ATOM     18  C   UNL A   1      35.994  23.717  25.729  1.00  0.00     0.003 C 
ATOM     19  C   UNL A   1      36.957  23.284  24.640  1.00  0.00     0.032 C 
BRANCH  17  20
ATOM     20  O   UNL A   1      36.798  22.919  22.277  1.00  0.00    -0.393 OA
ATOM     21  H   UNL A   1      37.393  23.684  22.287  1.00  0.00     0.210 HD
ENDBRANCH  17  20
ENDBRANCH  14  15
ENDBRANCH  13  14
ENDBRANCH   6   8
ENDBRANCH   3   6
ENDBRANCH   1   2
BRANCH   1  22
ATOM     22  C   UNL A   1      31.061  31.582  25.987  1.00  0.00     0.042 C 
BRANCH  22  23
ATOM     23  C   UNL A   1      32.281  31.991  26.780  1.00  0.00     0.118 C 
BRANCH  23  24
ATOM     24  N   UNL A   1      32.225  33.368  27.259  1.00  0.00    -0.352 N 
ATOM     25  C   UNL A   1      33.028  34.095  28.104  1.00  0.00     0.251 C 
ATOM     26  H   UNL A   1      31.460  33.878  26.909  1.00  0.00     0.163 HD
ATOM     27  O   UNL A   1      32.644  35.216  28.458  1.00  0.00    -0.269 OA
BRANCH  25  28
ATOM     28  C   UNL A   1      34.318  33.580  28.618  1.00  0.00     0.039 A 
ATOM     29  C   UNL A   1      34.325  32.745  29.744  1.00  0.00     0.014 A 
ATOM     30  C   UNL A   1      35.534  33.947  28.050  1.00  0.00     0.014 A 
ATOM     31  C   UNL A   1      35.534  32.248  30.244  1.00  0.00     0.010 A 
ATOM     32  C   UNL A   1      36.714  33.329  28.443  1.00  0.00     0.010 A 
ATOM     33  C   UNL A   1      36.740  32.507  29.575  1.00  0.00    -0.014 A 
BRANCH  33  34
ATOM     34  C   UNL A   1      38.049  32.001  30.066  1.00  0.00     0.031 A 
ATOM     35  C   UNL A   1      38.602  30.701  29.532  1.00  0.00     0.074 A 
ATOM     36  C   UNL A   1      38.707  32.662  31.038  1.00  0.00     0.049 A 
ATOM     37  N   UNL A   1      39.673  30.042  29.898  1.00  0.00    -0.248 NA
ATOM     38  C   UNL A   1      37.823  30.026  28.477  1.00  0.00     0.031 C 
ATOM     39  C   UNL A   1      38.257  33.899  31.683  1.00  0.00     0.029 A 
ATOM     40  N   UNL A   1      39.898  32.379  31.657  1.00  0.00    -0.354 N 
ATOM     41  C   UNL A   1      39.670  28.870  29.149  1.00  0.00     0.074 A 
ATOM     42  C   UNL A   1      38.458  28.871  28.364  1.00  0.00     0.031 C 
ATOM     43  C   UNL A   1      39.183  34.290  32.574  1.00  0.00     0.029 A 
ATOM     44  C   UNL A   1      40.265  33.312  32.596  1.00  0.00     0.049 A 
ATOM     45  H   UNL A   1      40.439  31.583  31.448  1.00  0.00     0.167 HD
ATOM     46  C   UNL A   1      40.607  27.893  29.088  1.00  0.00     0.031 A 
ATOM     47  C   UNL A   1      41.353  33.372  33.387  1.00  0.00     0.031 A 
ATOM     48  C   UNL A   1      41.833  27.911  29.836  1.00  0.00     0.049 A 
ATOM     49  C   UNL A   1      42.394  32.293  33.283  1.00  0.00     0.074 A 
ATOM     50  C   UNL A   1      42.880  27.008  29.801  1.00  0.00     0.029 A 
ATOM     51  N   UNL A   1      42.181  28.894  30.750  1.00  0.00    -0.354 N 
ATOM     52  N   UNL A   1      42.405  31.224  32.524  1.00  0.00    -0.248 NA
ATOM     53  C   UNL A   1      43.583  32.440  34.134  1.00  0.00     0.031 C 
ATOM     54  C   UNL A   1      43.842  27.421  30.728  1.00  0.00     0.029 A 
ATOM     55  C   UNL A   1      43.421  28.612  31.295  1.00  0.00     0.049 A 
ATOM     56  H   UNL A   1      41.628  29.677  30.976  1.00  0.00     0.167 HD
ATOM     57  C   UNL A   1      43.614  30.588  32.781  1.00  0.00     0.074 A 
ATOM     58  C   UNL A   1      44.315  31.402  33.754  1.00  0.00     0.031 C 
ATOM     59  C   UNL A   1      44.102  29.436  32.260  1.00  0.00     0.031 A 
BRANCH  46  60
ATOM     60  C   UNL A   1      40.336  26.731  28.169  1.00  0.00    -0.014 A 
ATOM     61  C   UNL A   1      39.578  25.627  28.594  1.00  0.00     0.009 A 
ATOM     62  C   UNL A   1      40.832  26.746  26.857  1.00  0.00     0.009 A 
ATOM     63  C   UNL A   1      39.365  24.542  27.741  1.00  0.00     0.001 A 
ATOM     64  C   UNL A   1      40.587  25.675  25.993  1.00  0.00     0.001 A 
ATOM     65  C   UNL A   1      39.865  24.569  26.440  1.00  0.00     0.000 A 
ENDBRANCH  46  60
BRANCH  47  66
ATOM     66  C   UNL A   1      41.531  34.514  34.323  1.00  0.00    -0.014 A 
ATOM     67  C   UNL A   1      41.041  34.440  35.637  1.00  0.00     0.009 A 
ATOM     68  C   UNL A   1      42.191  35.681  33.912  1.00  0.00     0.009 A 
ATOM     69  C   UNL A   1      41.181  35.523  36.508  1.00  0.00     0.001 A 
ATOM     70  C   UNL A   1      42.356  36.751  34.795  1.00  0.00     0.001 A 
ATOM     71  C   UNL A   1      41.843  36.674  36.088  1.00  0.00     0.000 A 
ENDBRANCH  47  66
BRANCH  59  72
ATOM     72  C   UNL A   1      45.475  29.012  32.699  1.00  0.00    -0.014 A 
ATOM     73  C   UNL A   1      46.626  29.443  32.023  1.00  0.00     0.009 A 
ATOM     74  C   UNL A   1      45.616  28.196  33.833  1.00  0.00     0.009 A 
ATOM     75  C   UNL A   1      47.889  29.030  32.449  1.00  0.00     0.001 A 
ATOM     76  C   UNL A   1      46.881  27.811  34.276  1.00  0.00     0.001 A 
ATOM     77  C   UNL A   1      48.017  28.219  33.576  1.00  0.00     0.000 A 
ENDBRANCH  59  72
ENDBRANCH  33  34
ENDBRANCH  25  28
ENDBRANCH  23  24
ENDBRANCH  22  23
ENDBRANCH   1  22
TORSDOF 14
ENDMDL
MODEL 3
REMARK VINA RESULT:      -8.4      3.860     10.130
REMARK SMILES C[C@H](C(=O)NCCCNC(=O)c1ccc(-c2c3nc(c(-c4ccccc4)c4ccc([nH]4)c(-c4ccccc4)c4nc(c(-c5ccccc5)c5ccc2[nH]5)C=C4)C=C3)cc1)c1ccc(C[C@H]2CCC[C@@H]2O)cc1
REMARK SMILES IDX 6 1 5 2 3 3 4 4 2 6 1 7 60 8 61 9 72 10 62 11 71 12 63 13
REMARK SMILES IDX 64 14 65 15 66 16 69 17 67 18 68 19 70 20 7 22 8 23 9 24
REMARK SMILES IDX 10 25 11 27 12 28 13 29 59 30 14 31 58 32 15 33 16 34 17 35
REMARK SMILES IDX 52 36 18 37 57 38 51 39 53 40 19 41 56 42 50 43 49 44 20 46
REMARK SMILES IDX 42 47 27 48 41 49 28 50 31 51 40 52 54 53 29 54 30 55 39 57
REMARK SMILES IDX 55 58 32 59 21 60 22 61 26 62 23 63 25 64 24 65 43 66 44 67
REMARK SMILES IDX 48 68 45 69 47 70 46 71 33 72 34 73 38 74 35 75 37 76 36 77
REMARK H PARENT 5 5 70 21 9 26 53 45 31 56
REMARK Flexibility Score: inf
ROOT
ATOM      1  C   UNL A   1      31.463  30.481  26.259  1.00  0.00     0.117 C 
ENDROOT
BRANCH   1   2
ATOM      2  N   UNL A   1      32.589  29.815  26.876  1.00  0.00    -0.356 N 
ATOM      3  C   UNL A   1      33.462  28.882  26.417  1.00  0.00     0.227 C 
ATOM      4  O   UNL A   1      34.438  28.704  27.165  1.00  0.00    -0.274 OA
ATOM      5  H   UNL A   1      32.752  30.090  27.807  1.00  0.00     0.163 HD
BRANCH   3   6
ATOM      6  C   UNL A   1      33.354  28.037  25.123  1.00  0.00     0.105 C 
ATOM      7  C   UNL A   1      33.831  26.621  25.515  1.00  0.00     0.023 C 
BRANCH   6   8
ATOM      8  C   UNL A   1      32.051  28.031  24.329  1.00  0.00    -0.036 A 
ATOM      9  C   UNL A   1      31.902  28.844  23.189  1.00  0.00     0.005 A 
ATOM     10  C   UNL A   1      30.943  27.265  24.718  1.00  0.00     0.005 A 
ATOM     11  C   UNL A   1      30.626  29.088  22.645  1.00  0.00     0.004 A 
ATOM     12  C   UNL A   1      29.699  27.440  24.113  1.00  0.00     0.004 A 
ATOM     13  C   UNL A   1      29.497  28.441  23.161  1.00  0.00    -0.048 A 
BRANCH  13  14
ATOM     14  C   UNL A   1      28.091  28.799  22.733  1.00  0.00     0.041 C 
BRANCH  14  15
ATOM     15  C   UNL A   1      27.759  30.304  22.551  1.00  0.00     0.022 C 
ATOM     16  C   UNL A   1      28.178  31.267  23.678  1.00  0.00     0.007 C 
ATOM     17  C   UNL A   1      28.309  30.947  21.275  1.00  0.00     0.117 C 
ATOM     18  C   UNL A   1      28.611  32.573  23.010  1.00  0.00     0.003 C 
ATOM     19  C   UNL A   1      28.203  32.442  21.555  1.00  0.00     0.032 C 
BRANCH  17  20
ATOM     20  O   UNL A   1      27.526  30.633  20.137  1.00  0.00    -0.393 OA
ATOM     21  H   UNL A   1      27.478  29.670  20.034  1.00  0.00     0.210 HD
ENDBRANCH  17  20
ENDBRANCH  14  15
ENDBRANCH  13  14
ENDBRANCH   6   8
ENDBRANCH   3   6
ENDBRANCH   1   2
BRANCH   1  22
ATOM     22  C   UNL A   1      31.356  31.960  26.556  1.00  0.00     0.042 C 
BRANCH  22  23
ATOM     23  C   UNL A   1      32.663  32.642  26.888  1.00  0.00     0.118 C 
BRANCH  23  24
ATOM     24  N   UNL A   1      32.495  33.878  27.648  1.00  0.00    -0.352 N 
ATOM     25  C   UNL A   1      33.198  34.436  28.688  1.00  0.00     0.251 C 
ATOM     26  H   UNL A   1      31.725  34.417  27.358  1.00  0.00     0.163 HD
ATOM     27  O   UNL A   1      32.726  35.434  29.245  1.00  0.00    -0.269 OA
BRANCH  25  28
ATOM     28  C   UNL A   1      34.480  33.878  29.175  1.00  0.00     0.039 A 
ATOM     29  C   UNL A   1      35.680  34.298  28.586  1.00  0.00     0.014 A 
ATOM     30  C   UNL A   1      34.527  32.902  30.166  1.00  0.00     0.014 A 
ATOM     31  C   UNL A   1      36.902  33.782  29.033  1.00  0.00     0.010 A 
ATOM     32  C   UNL A   1      35.740  32.513  30.718  1.00  0.00     0.010 A 
ATOM     33  C   UNL A   1      36.946  32.909  30.131  1.00  0.00    -0.014 A 
BRANCH  33  34
ATOM     34  C   UNL A   1      38.218  32.336  30.643  1.00  0.00     0.031 A 
ATOM     35  C   UNL A   1      38.770  31.067  30.036  1.00  0.00     0.074 A 
ATOM     36  C   UNL A   1      38.840  32.903  31.695  1.00  0.00     0.049 A 
ATOM     37  N   UNL A   1      39.808  30.356  30.401  1.00  0.00    -0.248 NA
ATOM     38  C   UNL A   1      38.031  30.495  28.896  1.00  0.00     0.031 C 
ATOM     39  C   UNL A   1      38.385  34.097  32.412  1.00  0.00     0.029 A 
ATOM     40  N   UNL A   1      39.993  32.544  32.346  1.00  0.00    -0.354 N 
ATOM     41  C   UNL A   1      39.818  29.246  29.563  1.00  0.00     0.074 A 
ATOM     42  C   UNL A   1      38.646  29.337  28.723  1.00  0.00     0.031 C 
ATOM     43  C   UNL A   1      39.273  34.395  33.375  1.00  0.00     0.029 A 
ATOM     44  C   UNL A   1      40.332  33.392  33.372  1.00  0.00     0.049 A 
ATOM     45  H   UNL A   1      40.527  31.754  32.101  1.00  0.00     0.167 HD
ATOM     46  C   UNL A   1      40.736  28.254  29.470  1.00  0.00     0.031 A 
ATOM     47  C   UNL A   1      41.381  33.364  34.216  1.00  0.00     0.031 A 
ATOM     48  C   UNL A   1      41.924  28.184  30.276  1.00  0.00     0.049 A 
ATOM     49  C   UNL A   1      42.403  32.271  34.078  1.00  0.00     0.074 A 
ATOM     50  C   UNL A   1      42.952  27.261  30.220  1.00  0.00     0.029 A 
ATOM     51  N   UNL A   1      42.246  29.085  31.279  1.00  0.00    -0.354 N 
ATOM     52  N   UNL A   1      42.430  31.265  33.239  1.00  0.00    -0.248 NA
ATOM     53  C   UNL A   1      43.551  32.323  34.994  1.00  0.00     0.031 C 
ATOM     54  C   UNL A   1      43.876  27.577  31.221  1.00  0.00     0.029 A 
ATOM     55  C   UNL A   1      43.451  28.732  31.859  1.00  0.00     0.049 A 
ATOM     56  H   UNL A   1      41.698  29.861  31.539  1.00  0.00     0.167 HD
ATOM     57  C   UNL A   1      43.611  30.582  33.503  1.00  0.00     0.074 A 
ATOM     58  C   UNL A   1      44.280  31.300  34.569  1.00  0.00     0.031 C 
ATOM     59  C   UNL A   1      44.100  29.461  32.917  1.00  0.00     0.031 A 
BRANCH  46  60
ATOM     60  C   UNL A   1      40.488  27.173  28.452  1.00  0.00    -0.014 A 
ATOM     61  C   UNL A   1      40.998  27.270  27.146  1.00  0.00     0.009 A 
ATOM     62  C   UNL A   1      39.747  26.035  28.805  1.00  0.00     0.009 A 
ATOM     63  C   UNL A   1      40.730  26.274  26.204  1.00  0.00     0.001 A 
ATOM     64  C   UNL A   1      39.510  25.024  27.871  1.00  0.00     0.001 A 
ATOM     65  C   UNL A   1      39.991  25.150  26.569  1.00  0.00     0.000 A 
ENDBRANCH  46  60
BRANCH  47  66
ATOM     66  C   UNL A   1      41.535  34.426  35.247  1.00  0.00    -0.014 A 
ATOM     67  C   UNL A   1      40.984  34.261  36.527  1.00  0.00     0.009 A 
ATOM     68  C   UNL A   1      42.234  35.608  34.959  1.00  0.00     0.009 A 
ATOM     69  C   UNL A   1      41.103  35.269  37.486  1.00  0.00     0.001 A 
ATOM     70  C   UNL A   1      42.378  36.601  35.929  1.00  0.00     0.001 A 
ATOM     71  C   UNL A   1      41.804  36.436  37.188  1.00  0.00     0.000 A 
ENDBRANCH  47  66
BRANCH  59  72
ATOM     72  C   UNL A   1      45.441  28.972  33.387  1.00  0.00    -0.014 A 
ATOM     73  C   UNL A   1      46.632  29.422  32.800  1.00  0.00     0.009 A 
ATOM     74  C   UNL A   1      45.509  28.070  34.462  1.00  0.00     0.009 A 
ATOM     75  C   UNL A   1      47.864  28.946  33.252  1.00  0.00     0.001 A 
ATOM     76  C   UNL A   1      46.742  27.622  34.933  1.00  0.00     0.001 A 
ATOM     77  C   UNL A   1      47.919  28.051  34.320  1.00  0.00     0.000 A 
ENDBRANCH  59  72
ENDBRANCH  33  34
ENDBRANCH  25  28
ENDBRANCH  23  24
ENDBRANCH  22  23
ENDBRANCH   1  22
TORSDOF 14
ENDMDL
