MODEL 1
REMARK VINA RESULT:     -11.9      0.000      0.000
REMARK SMILES COc1ccc(NC(=O)[C@@H]2[C@@H](C(=O)NCCCNC(=O)c3ccc(-c4c5nc(c(-c6ccccc6)c6ccc([nH]6)c(-c6ccccc6)c6nc(c(-c7ccccc7)c7ccc4[nH]7)C=C6)C=C5)cc3)[C@@H]3CC[C@H]2C3=C(C)C)cc1
REMARK SMILES IDX 15 1 14 2 12 3 13 4 11 6 10 7 72 8 69 9 71 10 73 11 70 12
REMARK SMILES IDX 74 13 75 14 76 15 8 16 7 17 9 19 6 20 3 21 4 22 78 23 5 24
REMARK SMILES IDX 77 25 2 26 1 27 16 28 17 29 18 30 19 31 20 33 21 34 22 35
REMARK SMILES IDX 68 36 23 37 67 38 24 39 25 40 26 41 61 42 27 43 66 44 60 45
REMARK SMILES IDX 62 46 28 47 65 48 59 49 58 50 29 52 51 53 36 54 50 55 37 56
REMARK SMILES IDX 40 57 49 58 63 59 38 60 39 61 48 63 64 64 41 65 30 66 31 67
REMARK SMILES IDX 35 68 32 69 34 70 33 71 52 72 53 73 57 74 54 75 56 76 55 77
REMARK SMILES IDX 42 78 43 79 47 80 44 81 46 82 45 83
REMARK H PARENT 14 5 7 18 18 32 62 51 40 62
REMARK Flexibility Score: inf
ROOT
ATOM      1  C   UNL A   1      31.949  26.808  26.238  1.00  0.00     0.117 C 
ENDROOT
BRANCH   1   2
ATOM      2  N   UNL A   1      32.136  25.559  26.935  1.00  0.00    -0.356 N 
ATOM      3  C   UNL A   1      32.313  24.305  26.452  1.00  0.00     0.224 C 
ATOM      4  O   UNL A   1      31.936  23.391  27.195  1.00  0.00    -0.275 OA
ATOM      5  H   UNL A   1      32.134  25.628  27.917  1.00  0.00     0.163 HD
BRANCH   3   6
ATOM      6  C   UNL A   1      32.979  23.955  25.127  1.00  0.00     0.098 C 
ATOM      7  C   UNL A   1      33.073  22.451  24.764  1.00  0.00     0.099 C 
ATOM      8  C   UNL A   1      34.445  22.397  24.039  1.00  0.00     0.028 C 
ATOM      9  C   UNL A   1      34.426  24.488  24.910  1.00  0.00     0.028 C 
ATOM     10  C   UNL A   1      34.554  23.342  22.811  1.00  0.00     0.009 C 
ATOM     11  C   UNL A   1      35.268  23.232  24.976  1.00  0.00    -0.064 C 
ATOM     12  C   UNL A   1      34.576  24.763  23.411  1.00  0.00     0.009 C 
ATOM     13  C   UNL A   1      36.429  22.920  25.580  1.00  0.00    -0.077 C 
ATOM     14  C   UNL A   1      37.282  23.912  26.318  1.00  0.00     0.039 C 
ATOM     15  C   UNL A   1      36.973  21.515  25.576  1.00  0.00     0.039 C 
BRANCH   7  16
ATOM     16  C   UNL A   1      31.987  21.902  23.834  1.00  0.00     0.228 C 
ATOM     17  N   UNL A   1      31.732  20.579  23.658  1.00  0.00    -0.326 N 
ATOM     18  H   UNL A   1      30.863  20.414  23.226  1.00  0.00     0.169 HD
ATOM     19  O   UNL A   1      31.257  22.666  23.190  1.00  0.00    -0.274 OA
BRANCH  17  20
ATOM     20  C   UNL A   1      32.423  19.398  23.951  1.00  0.00     0.041 A 
ATOM     21  C   UNL A   1      33.676  16.932  24.359  1.00  0.00     0.119 A 
ATOM     22  C   UNL A   1      33.408  17.765  25.439  1.00  0.00     0.048 A 
ATOM     23  C   UNL A   1      33.380  17.343  23.065  1.00  0.00     0.048 A 
ATOM     24  C   UNL A   1      32.810  19.011  25.231  1.00  0.00     0.030 A 
ATOM     25  C   UNL A   1      32.770  18.584  22.863  1.00  0.00     0.030 A 
BRANCH  21  26
ATOM     26  O   UNL A   1      34.133  15.670  24.616  1.00  0.00    -0.497 OA
ATOM     27  C   UNL A   1      35.380  15.706  25.303  1.00  0.00     0.278 C 
ENDBRANCH  21  26
ENDBRANCH  17  20
ENDBRANCH   7  16
ENDBRANCH   3   6
ENDBRANCH   1   2
BRANCH   1  28
ATOM     28  C   UNL A   1      32.089  27.975  27.212  1.00  0.00     0.042 C 
BRANCH  28  29
ATOM     29  C   UNL A   1      33.507  28.522  27.259  1.00  0.00     0.118 C 
BRANCH  29  30
ATOM     30  N   UNL A   1      33.536  29.935  27.621  1.00  0.00    -0.352 N 
ATOM     31  C   UNL A   1      34.519  30.680  28.222  1.00  0.00     0.251 C 
ATOM     32  H   UNL A   1      32.719  30.435  27.396  1.00  0.00     0.163 HD
ATOM     33  O   UNL A   1      34.259  31.817  28.616  1.00  0.00    -0.269 OA
BRANCH  31  34
ATOM     34  C   UNL A   1      35.875  30.127  28.423  1.00  0.00     0.039 A 
ATOM     35  C   UNL A   1      36.797  30.185  27.372  1.00  0.00     0.014 A 
ATOM     36  C   UNL A   1      36.242  29.537  29.633  1.00  0.00     0.014 A 
ATOM     37  C   UNL A   1      38.098  29.714  27.561  1.00  0.00     0.010 A 
ATOM     38  C   UNL A   1      37.564  29.178  29.857  1.00  0.00     0.010 A 
ATOM     39  C   UNL A   1      38.504  29.245  28.820  1.00  0.00    -0.014 A 
BRANCH  39  40
ATOM     40  C   UNL A   1      39.893  28.792  29.077  1.00  0.00     0.031 A 
ATOM     41  C   UNL A   1      40.882  29.730  29.716  1.00  0.00     0.074 A 
ATOM     42  C   UNL A   1      40.285  27.570  28.668  1.00  0.00     0.049 A 
ATOM     43  N   UNL A   1      42.161  29.560  29.937  1.00  0.00    -0.248 NA
ATOM     44  C   UNL A   1      40.375  31.051  30.126  1.00  0.00     0.031 C 
ATOM     45  C   UNL A   1      39.434  26.581  28.002  1.00  0.00     0.029 A 
ATOM     46  N   UNL A   1      41.508  26.951  28.750  1.00  0.00    -0.354 N 
ATOM     47  C   UNL A   1      42.610  30.755  30.486  1.00  0.00     0.074 A 
ATOM     48  C   UNL A   1      41.486  31.664  30.503  1.00  0.00     0.031 C 
ATOM     49  C   UNL A   1      40.149  25.468  27.772  1.00  0.00     0.029 A 
ATOM     50  C   UNL A   1      41.517  25.681  28.227  1.00  0.00     0.049 A 
ATOM     51  H   UNL A   1      42.302  27.377  29.146  1.00  0.00     0.167 HD
ATOM     52  C   UNL A   1      43.841  31.063  30.960  1.00  0.00     0.031 A 
ATOM     53  C   UNL A   1      42.521  24.790  28.120  1.00  0.00     0.031 A 
ATOM     54  C   UNL A   1      44.953  30.152  30.955  1.00  0.00     0.049 A 
ATOM     55  C   UNL A   1      43.884  25.161  28.634  1.00  0.00     0.074 A 
ATOM     56  C   UNL A   1      46.228  30.343  31.458  1.00  0.00     0.029 A 
ATOM     57  N   UNL A   1      44.920  28.873  30.419  1.00  0.00    -0.354 N 
ATOM     58  N   UNL A   1      44.277  26.274  29.208  1.00  0.00    -0.248 NA
ATOM     59  C   UNL A   1      44.940  24.148  28.494  1.00  0.00     0.031 C 
ATOM     60  C   UNL A   1      46.982  29.200  31.177  1.00  0.00     0.029 A 
ATOM     61  C   UNL A   1      46.159  28.272  30.557  1.00  0.00     0.049 A 
ATOM     62  H   UNL A   1      44.132  28.456  30.001  1.00  0.00     0.167 HD
ATOM     63  C   UNL A   1      45.616  26.082  29.525  1.00  0.00     0.074 A 
ATOM     64  C   UNL A   1      45.961  24.742  29.095  1.00  0.00     0.031 C 
ATOM     65  C   UNL A   1      46.481  26.938  30.122  1.00  0.00     0.031 A 
BRANCH  52  66
ATOM     66  C   UNL A   1      44.040  32.447  31.517  1.00  0.00    -0.014 A 
ATOM     67  C   UNL A   1      43.791  32.732  32.869  1.00  0.00     0.009 A 
ATOM     68  C   UNL A   1      44.496  33.479  30.681  1.00  0.00     0.009 A 
ATOM     69  C   UNL A   1      43.947  34.030  33.362  1.00  0.00     0.001 A 
ATOM     70  C   UNL A   1      44.685  34.768  31.184  1.00  0.00     0.001 A 
ATOM     71  C   UNL A   1      44.397  35.046  32.519  1.00  0.00     0.000 A 
ENDBRANCH  52  66
BRANCH  53  72
ATOM     72  C   UNL A   1      42.270  23.450  27.526  1.00  0.00    -0.014 A 
ATOM     73  C   UNL A   1      41.705  22.426  28.302  1.00  0.00     0.009 A 
ATOM     74  C   UNL A   1      42.594  23.184  26.187  1.00  0.00     0.009 A 
ATOM     75  C   UNL A   1      41.495  21.157  27.757  1.00  0.00     0.001 A 
ATOM     76  C   UNL A   1      42.355  21.923  25.635  1.00  0.00     0.001 A 
ATOM     77  C   UNL A   1      41.815  20.908  26.424  1.00  0.00     0.000 A 
ENDBRANCH  53  72
BRANCH  65  78
ATOM     78  C   UNL A   1      47.874  26.434  30.383  1.00  0.00    -0.014 A 
ATOM     79  C   UNL A   1      48.897  26.582  29.434  1.00  0.00     0.009 A 
ATOM     80  C   UNL A   1      48.172  25.839  31.620  1.00  0.00     0.009 A 
ATOM     81  C   UNL A   1      50.183  26.110  29.705  1.00  0.00     0.001 A 
ATOM     82  C   UNL A   1      49.466  25.400  31.901  1.00  0.00     0.001 A 
ATOM     83  C   UNL A   1      50.468  25.527  30.939  1.00  0.00     0.000 A 
ENDBRANCH  65  78
ENDBRANCH  39  40
ENDBRANCH  31  34
ENDBRANCH  29  30
ENDBRANCH  28  29
ENDBRANCH   1  28
TORSDOF 13
ENDMDL
MODEL 2
REMARK VINA RESULT:     -11.9      2.473      7.726
REMARK SMILES COc1ccc(NC(=O)[C@@H]2[C@@H](C(=O)NCCCNC(=O)c3ccc(-c4c5nc(c(-c6ccccc6)c6ccc([nH]6)c(-c6ccccc6)c6nc(c(-c7ccccc7)c7ccc4[nH]7)C=C6)C=C5)cc3)[C@@H]3CC[C@H]2C3=C(C)C)cc1
REMARK SMILES IDX 15 1 14 2 12 3 13 4 11 6 10 7 72 8 69 9 71 10 73 11 70 12
REMARK SMILES IDX 74 13 75 14 76 15 8 16 7 17 9 19 6 20 3 21 4 22 78 23 5 24
REMARK SMILES IDX 77 25 2 26 1 27 16 28 17 29 18 30 19 31 20 33 21 34 22 35
REMARK SMILES IDX 68 36 23 37 67 38 24 39 25 40 26 41 61 42 27 43 66 44 60 45
REMARK SMILES IDX 62 46 28 47 65 48 59 49 58 50 29 52 51 53 36 54 50 55 37 56
REMARK SMILES IDX 40 57 49 58 63 59 38 60 39 61 48 63 64 64 41 65 30 66 31 67
REMARK SMILES IDX 35 68 32 69 34 70 33 71 52 72 53 73 57 74 54 75 56 76 55 77
REMARK SMILES IDX 42 78 43 79 47 80 44 81 46 82 45 83
REMARK H PARENT 14 5 7 18 18 32 62 51 40 62
REMARK Flexibility Score: inf
ROOT
ATOM      1  C   UNL A   1      36.444  20.792  25.114  1.00  0.00     0.117 C 
ENDROOT
BRANCH   1   2
ATOM      2  N   UNL A   1      36.671  22.053  24.450  1.00  0.00    -0.356 N 
ATOM      3  C   UNL A   1      35.947  22.680  23.492  1.00  0.00     0.224 C 
ATOM      4  O   UNL A   1      36.587  23.435  22.751  1.00  0.00    -0.275 OA
ATOM      5  H   UNL A   1      37.482  22.532  24.738  1.00  0.00     0.163 HD
BRANCH   3   6
ATOM      6  C   UNL A   1      34.438  22.571  23.313  1.00  0.00     0.098 C 
ATOM      7  C   UNL A   1      33.649  23.898  23.182  1.00  0.00     0.099 C 
ATOM      8  C   UNL A   1      32.331  23.544  23.924  1.00  0.00     0.028 C 
ATOM      9  C   UNL A   1      33.661  21.773  24.401  1.00  0.00     0.028 C 
ATOM     10  C   UNL A   1      31.582  22.314  23.341  1.00  0.00     0.009 C 
ATOM     11  C   UNL A   1      32.891  22.852  25.133  1.00  0.00    -0.064 C 
ATOM     12  C   UNL A   1      32.474  21.108  23.699  1.00  0.00     0.009 C 
ATOM     13  C   UNL A   1      32.662  23.114  26.432  1.00  0.00    -0.077 C 
ATOM     14  C   UNL A   1      33.095  22.217  27.556  1.00  0.00     0.039 C 
ATOM     15  C   UNL A   1      31.950  24.365  26.876  1.00  0.00     0.039 C 
BRANCH   7  16
ATOM     16  C   UNL A   1      33.319  24.362  21.760  1.00  0.00     0.228 C 
ATOM     17  N   UNL A   1      32.891  25.613  21.447  1.00  0.00    -0.326 N 
ATOM     18  H   UNL A   1      32.961  25.808  20.484  1.00  0.00     0.169 HD
ATOM     19  O   UNL A   1      33.449  23.596  20.797  1.00  0.00    -0.274 OA
BRANCH  17  20
ATOM     20  C   UNL A   1      32.374  26.686  22.180  1.00  0.00     0.041 A 
ATOM     21  C   UNL A   1      31.545  28.826  23.778  1.00  0.00     0.119 A 
ATOM     22  C   UNL A   1      30.616  27.905  23.308  1.00  0.00     0.048 A 
ATOM     23  C   UNL A   1      32.881  28.727  23.407  1.00  0.00     0.048 A 
ATOM     24  C   UNL A   1      31.027  26.853  22.484  1.00  0.00     0.030 A 
ATOM     25  C   UNL A   1      33.289  27.667  22.594  1.00  0.00     0.030 A 
BRANCH  21  26
ATOM     26  O   UNL A   1      31.127  29.755  24.689  1.00  0.00    -0.497 OA
ATOM     27  C   UNL A   1      32.037  29.848  25.781  1.00  0.00     0.278 C 
ENDBRANCH  21  26
ENDBRANCH  17  20
ENDBRANCH   7  16
ENDBRANCH   3   6
ENDBRANCH   1   2
BRANCH   1  28
ATOM     28  C   UNL A   1      37.675  19.899  24.975  1.00  0.00     0.042 C 
BRANCH  28  29
ATOM     29  C   UNL A   1      38.868  20.435  25.750  1.00  0.00     0.118 C 
BRANCH  29  30
ATOM     30  N   UNL A   1      39.942  19.451  25.849  1.00  0.00    -0.352 N 
ATOM     31  C   UNL A   1      41.276  19.615  26.126  1.00  0.00     0.251 C 
ATOM     32  H   UNL A   1      39.663  18.520  25.694  1.00  0.00     0.163 HD
ATOM     33  O   UNL A   1      42.046  18.668  25.964  1.00  0.00    -0.269 OA
BRANCH  31  34
ATOM     34  C   UNL A   1      41.801  20.916  26.590  1.00  0.00     0.039 A 
ATOM     35  C   UNL A   1      42.206  21.864  25.645  1.00  0.00     0.014 A 
ATOM     36  C   UNL A   1      41.914  21.203  27.951  1.00  0.00     0.014 A 
ATOM     37  C   UNL A   1      42.656  23.118  26.065  1.00  0.00     0.010 A 
ATOM     38  C   UNL A   1      42.248  22.486  28.364  1.00  0.00     0.010 A 
ATOM     39  C   UNL A   1      42.640  23.453  27.428  1.00  0.00    -0.014 A 
BRANCH  39  40
ATOM     40  C   UNL A   1      43.054  24.795  27.909  1.00  0.00     0.031 A 
ATOM     41  C   UNL A   1      42.012  25.840  28.205  1.00  0.00     0.074 A 
ATOM     42  C   UNL A   1      44.363  25.096  28.007  1.00  0.00     0.049 A 
ATOM     43  N   UNL A   1      42.170  27.095  28.542  1.00  0.00    -0.248 NA
ATOM     44  C   UNL A   1      40.604  25.432  28.066  1.00  0.00     0.031 C 
ATOM     45  C   UNL A   1      45.472  24.184  27.713  1.00  0.00     0.029 A 
ATOM     46  N   UNL A   1      44.985  26.262  28.379  1.00  0.00    -0.354 N 
ATOM     47  C   UNL A   1      40.889  27.626  28.629  1.00  0.00     0.074 A 
ATOM     48  C   UNL A   1      39.969  26.579  28.245  1.00  0.00     0.031 C 
ATOM     49  C   UNL A   1      46.634  24.812  27.954  1.00  0.00     0.029 A 
ATOM     50  C   UNL A   1      46.356  26.182  28.369  1.00  0.00     0.049 A 
ATOM     51  H   UNL A   1      44.495  27.078  28.630  1.00  0.00     0.167 HD
ATOM     52  C   UNL A   1      40.507  28.865  29.019  1.00  0.00     0.031 A 
ATOM     53  C   UNL A   1      47.286  27.112  28.656  1.00  0.00     0.031 A 
ATOM     54  C   UNL A   1      41.424  29.899  29.414  1.00  0.00     0.049 A 
ATOM     55  C   UNL A   1      46.839  28.487  29.067  1.00  0.00     0.074 A 
ATOM     56  C   UNL A   1      41.142  31.173  29.877  1.00  0.00     0.029 A 
ATOM     57  N   UNL A   1      42.806  29.776  29.391  1.00  0.00    -0.354 N 
ATOM     58  N   UNL A   1      45.621  28.955  29.204  1.00  0.00    -0.248 NA
ATOM     59  C   UNL A   1      47.898  29.461  29.371  1.00  0.00     0.031 C 
ATOM     60  C   UNL A   1      42.354  31.838  30.082  1.00  0.00     0.029 A 
ATOM     61  C   UNL A   1      43.391  30.959  29.811  1.00  0.00     0.049 A 
ATOM     62  H   UNL A   1      43.297  28.968  29.118  1.00  0.00     0.167 HD
ATOM     63  C   UNL A   1      45.767  30.265  29.641  1.00  0.00     0.074 A 
ATOM     64  C   UNL A   1      47.190  30.511  29.761  1.00  0.00     0.031 C 
ATOM     65  C   UNL A   1      44.808  31.182  29.922  1.00  0.00     0.031 A 
BRANCH  52  66
ATOM     66  C   UNL A   1      39.032  29.161  29.030  1.00  0.00    -0.014 A 
ATOM     67  C   UNL A   1      38.368  29.608  27.876  1.00  0.00     0.009 A 
ATOM     68  C   UNL A   1      38.290  28.978  30.207  1.00  0.00     0.009 A 
ATOM     69  C   UNL A   1      37.005  29.911  27.912  1.00  0.00     0.001 A 
ATOM     70  C   UNL A   1      36.920  29.249  30.233  1.00  0.00     0.001 A 
ATOM     71  C   UNL A   1      36.281  29.728  29.090  1.00  0.00     0.000 A 
ENDBRANCH  52  66
BRANCH  53  72
ATOM     72  C   UNL A   1      48.731  26.769  28.592  1.00  0.00    -0.014 A 
ATOM     73  C   UNL A   1      49.388  26.255  29.721  1.00  0.00     0.009 A 
ATOM     74  C   UNL A   1      49.463  26.951  27.408  1.00  0.00     0.009 A 
ATOM     75  C   UNL A   1      50.753  25.959  29.674  1.00  0.00     0.001 A 
ATOM     76  C   UNL A   1      50.821  26.625  27.354  1.00  0.00     0.001 A 
ATOM     77  C   UNL A   1      51.466  26.140  28.490  1.00  0.00     0.000 A 
ENDBRANCH  53  72
BRANCH  65  78
ATOM     78  C   UNL A   1      45.268  32.522  30.426  1.00  0.00    -0.014 A 
ATOM     79  C   UNL A   1      45.501  33.594  29.551  1.00  0.00     0.009 A 
ATOM     80  C   UNL A   1      45.428  32.723  31.807  1.00  0.00     0.009 A 
ATOM     81  C   UNL A   1      45.921  34.831  30.047  1.00  0.00     0.001 A 
ATOM     82  C   UNL A   1      45.815  33.968  32.302  1.00  0.00     0.001 A 
ATOM     83  C   UNL A   1      46.071  35.018  31.420  1.00  0.00     0.000 A 
ENDBRANCH  65  78
ENDBRANCH  39  40
ENDBRANCH  31  34
ENDBRANCH  29  30
ENDBRANCH  28  29
ENDBRANCH   1  28
TORSDOF 13
ENDMDL
MODEL 3
REMARK VINA RESULT:     -11.9      2.974      7.263
REMARK SMILES COc1ccc(NC(=O)[C@@H]2[C@@H](C(=O)NCCCNC(=O)c3ccc(-c4c5nc(c(-c6ccccc6)c6ccc([nH]6)c(-c6ccccc6)c6nc(c(-c7ccccc7)c7ccc4[nH]7)C=C6)C=C5)cc3)[C@@H]3CC[C@H]2C3=C(C)C)cc1
REMARK SMILES IDX 15 1 14 2 12 3 13 4 11 6 10 7 72 8 69 9 71 10 73 11 70 12
REMARK SMILES IDX 74 13 75 14 76 15 8 16 7 17 9 19 6 20 3 21 4 22 78 23 5 24
REMARK SMILES IDX 77 25 2 26 1 27 16 28 17 29 18 30 19 31 20 33 21 34 22 35
REMARK SMILES IDX 68 36 23 37 67 38 24 39 25 40 26 41 61 42 27 43 66 44 60 45
REMARK SMILES IDX 62 46 28 47 65 48 59 49 58 50 29 52 51 53 36 54 50 55 37 56
REMARK SMILES IDX 40 57 49 58 63 59 38 60 39 61 48 63 64 64 41 65 30 66 31 67
REMARK SMILES IDX 35 68 32 69 34 70 33 71 52 72 53 73 57 74 54 75 56 76 55 77
REMARK SMILES IDX 42 78 43 79 47 80 44 81 46 82 45 83
REMARK H PARENT 14 5 7 18 18 32 62 51 40 62
REMARK Flexibility Score: inf
ROOT
ATOM      1  C   UNL A   1      31.725  30.385  25.779  1.00  0.00     0.117 C 
ENDROOT
BRANCH   1   2
ATOM      2  N   UNL A   1      32.057  29.359  26.738  1.00  0.00    -0.356 N 
ATOM      3  C   UNL A   1      31.507  28.137  26.938  1.00  0.00     0.224 C 
ATOM      4  O   UNL A   1      31.600  27.693  28.088  1.00  0.00    -0.275 OA
ATOM      5  H   UNL A   1      32.800  29.583  27.344  1.00  0.00     0.163 HD
BRANCH   3   6
ATOM      6  C   UNL A   1      30.858  27.274  25.862  1.00  0.00     0.098 C 
ATOM      7  C   UNL A   1      31.275  25.783  25.812  1.00  0.00     0.099 C 
ATOM      8  C   UNL A   1      31.253  25.511  24.283  1.00  0.00     0.028 C 
ATOM      9  C   UNL A   1      31.011  27.761  24.390  1.00  0.00     0.028 C 
ATOM     10  C   UNL A   1      29.885  25.798  23.605  1.00  0.00     0.009 C 
ATOM     11  C   UNL A   1      31.955  26.742  23.789  1.00  0.00    -0.064 C 
ATOM     12  C   UNL A   1      29.741  27.333  23.648  1.00  0.00     0.009 C 
ATOM     13  C   UNL A   1      33.034  26.830  22.990  1.00  0.00    -0.077 C 
ATOM     14  C   UNL A   1      33.518  28.111  22.375  1.00  0.00     0.039 C 
ATOM     15  C   UNL A   1      33.872  25.624  22.654  1.00  0.00     0.039 C 
BRANCH   7  16
ATOM     16  C   UNL A   1      30.347  24.788  26.516  1.00  0.00     0.228 C 
ATOM     17  N   UNL A   1      30.693  23.511  26.825  1.00  0.00    -0.326 N 
ATOM     18  H   UNL A   1      30.082  23.099  27.478  1.00  0.00     0.169 HD
ATOM     19  O   UNL A   1      29.207  25.121  26.863  1.00  0.00    -0.274 OA
BRANCH  17  20
ATOM     20  C   UNL A   1      31.719  22.648  26.425  1.00  0.00     0.041 A 
ATOM     21  C   UNL A   1      33.927  21.092  25.701  1.00  0.00     0.119 A 
ATOM     22  C   UNL A   1      32.765  21.051  24.939  1.00  0.00     0.048 A 
ATOM     23  C   UNL A   1      33.979  21.856  26.861  1.00  0.00     0.048 A 
ATOM     24  C   UNL A   1      31.651  21.806  25.319  1.00  0.00     0.030 A 
ATOM     25  C   UNL A   1      32.868  22.618  27.230  1.00  0.00     0.030 A 
BRANCH  21  26
ATOM     26  O   UNL A   1      35.035  20.451  25.222  1.00  0.00    -0.497 OA
ATOM     27  C   UNL A   1      36.221  21.172  25.537  1.00  0.00     0.278 C 
ENDBRANCH  21  26
ENDBRANCH  17  20
ENDBRANCH   7  16
ENDBRANCH   3   6
ENDBRANCH   1   2
BRANCH   1  28
ATOM     28  C   UNL A   1      31.436  31.699  26.501  1.00  0.00     0.042 C 
BRANCH  28  29
ATOM     29  C   UNL A   1      32.661  32.247  27.216  1.00  0.00     0.118 C 
BRANCH  29  30
ATOM     30  N   UNL A   1      32.479  33.636  27.627  1.00  0.00    -0.352 N 
ATOM     31  C   UNL A   1      33.190  34.402  28.516  1.00  0.00     0.251 C 
ATOM     32  H   UNL A   1      31.725  34.098  27.195  1.00  0.00     0.163 HD
ATOM     33  O   UNL A   1      32.743  35.495  28.862  1.00  0.00    -0.269 OA
BRANCH  31  34
ATOM     34  C   UNL A   1      34.469  33.922  29.078  1.00  0.00     0.039 A 
ATOM     35  C   UNL A   1      34.450  33.093  30.205  1.00  0.00     0.014 A 
ATOM     36  C   UNL A   1      35.690  34.293  28.514  1.00  0.00     0.014 A 
ATOM     37  C   UNL A   1      35.646  32.588  30.719  1.00  0.00     0.010 A 
ATOM     38  C   UNL A   1      36.866  33.698  28.951  1.00  0.00     0.010 A 
ATOM     39  C   UNL A   1      36.861  32.853  30.069  1.00  0.00    -0.014 A 
BRANCH  39  40
ATOM     40  C   UNL A   1      38.147  32.287  30.548  1.00  0.00     0.031 A 
ATOM     41  C   UNL A   1      38.665  31.002  29.961  1.00  0.00     0.074 A 
ATOM     42  C   UNL A   1      38.806  32.884  31.560  1.00  0.00     0.049 A 
ATOM     43  N   UNL A   1      39.713  30.296  30.306  1.00  0.00    -0.248 NA
ATOM     44  C   UNL A   1      37.882  30.409  28.863  1.00  0.00     0.031 C 
ATOM     45  C   UNL A   1      38.388  34.112  32.241  1.00  0.00     0.029 A 
ATOM     46  N   UNL A   1      39.970  32.533  32.198  1.00  0.00    -0.354 N 
ATOM     47  C   UNL A   1      39.696  29.173  29.490  1.00  0.00     0.074 A 
ATOM     48  C   UNL A   1      38.502  29.255  28.678  1.00  0.00     0.031 C 
ATOM     49  C   UNL A   1      39.301  34.432  33.172  1.00  0.00     0.029 A 
ATOM     50  C   UNL A   1      40.339  33.408  33.189  1.00  0.00     0.049 A 
ATOM     51  H   UNL A   1      40.490  31.730  31.966  1.00  0.00     0.167 HD
ATOM     52  C   UNL A   1      40.606  28.173  29.400  1.00  0.00     0.031 A 
ATOM     53  C   UNL A   1      41.396  33.384  34.024  1.00  0.00     0.031 A 
ATOM     54  C   UNL A   1      41.800  28.102  30.197  1.00  0.00     0.049 A 
ATOM     55  C   UNL A   1      42.382  32.254  33.920  1.00  0.00     0.074 A 
ATOM     56  C   UNL A   1      42.815  27.162  30.150  1.00  0.00     0.029 A 
ATOM     57  N   UNL A   1      42.139  29.011  31.189  1.00  0.00    -0.354 N 
ATOM     58  N   UNL A   1      42.384  31.231  33.099  1.00  0.00    -0.248 NA
ATOM     59  C   UNL A   1      43.516  32.282  34.854  1.00  0.00     0.031 C 
ATOM     60  C   UNL A   1      43.740  27.473  31.151  1.00  0.00     0.029 A 
ATOM     61  C   UNL A   1      43.336  28.642  31.777  1.00  0.00     0.049 A 
ATOM     62  H   UNL A   1      41.607  29.802  31.437  1.00  0.00     0.167 HD
ATOM     63  C   UNL A   1      43.535  30.512  33.396  1.00  0.00     0.074 A 
ATOM     64  C   UNL A   1      44.212  31.225  34.460  1.00  0.00     0.031 C 
ATOM     65  C   UNL A   1      43.992  29.365  32.835  1.00  0.00     0.031 A 
BRANCH  52  66
ATOM     66  C   UNL A   1      40.333  27.078  28.404  1.00  0.00    -0.014 A 
ATOM     67  C   UNL A   1      40.862  27.125  27.104  1.00  0.00     0.009 A 
ATOM     68  C   UNL A   1      39.546  25.976  28.775  1.00  0.00     0.009 A 
ATOM     69  C   UNL A   1      40.569  26.117  26.182  1.00  0.00     0.001 A 
ATOM     70  C   UNL A   1      39.284  24.952  27.862  1.00  0.00     0.001 A 
ATOM     71  C   UNL A   1      39.784  25.030  26.563  1.00  0.00     0.000 A 
ENDBRANCH  52  66
BRANCH  53  72
ATOM     72  C   UNL A   1      41.592  34.478  35.012  1.00  0.00    -0.014 A 
ATOM     73  C   UNL A   1      41.045  34.375  36.300  1.00  0.00     0.009 A 
ATOM     74  C   UNL A   1      42.321  35.629  34.677  1.00  0.00     0.009 A 
ATOM     75  C   UNL A   1      41.201  35.413  37.222  1.00  0.00     0.001 A 
ATOM     76  C   UNL A   1      42.502  36.653  35.610  1.00  0.00     0.001 A 
ATOM     77  C   UNL A   1      41.933  36.548  36.878  1.00  0.00     0.000 A 
ENDBRANCH  53  72
BRANCH  65  78
ATOM     78  C   UNL A   1      45.307  28.835  33.335  1.00  0.00    -0.014 A 
ATOM     79  C   UNL A   1      46.525  29.245  32.770  1.00  0.00     0.009 A 
ATOM     80  C   UNL A   1      45.325  27.942  34.418  1.00  0.00     0.009 A 
ATOM     81  C   UNL A   1      47.733  28.741  33.258  1.00  0.00     0.001 A 
ATOM     82  C   UNL A   1      46.534  27.468  34.927  1.00  0.00     0.001 A 
ATOM     83  C   UNL A   1      47.737  27.860  34.339  1.00  0.00     0.000 A 
ENDBRANCH  65  78
ENDBRANCH  39  40
ENDBRANCH  31  34
ENDBRANCH  29  30
ENDBRANCH  28  29
ENDBRANCH   1  28
TORSDOF 13
ENDMDL
