MODEL 1
REMARK VINA RESULT:     -13.2      0.000      0.000
REMARK SMILES COC(=O)c1c(NC(=O)[C@@H]2C[C@@H]2C(=O)NCCCNC(=O)c2ccc(-c3c4nc(c(-c5ccccc5)c5ccc([nH]5)c(-c5ccccc5)c5nc(c(-c6ccccc6)c6ccc3[nH]6)C=C5)C=C4)cc2)sc2c1CC[N@@H+](Cc1ccccc1)C2
REMARK SMILES IDX 16 1 15 2 13 3 14 4 12 6 10 7 11 8 8 9 7 10 9 12 6 13 5 14
REMARK SMILES IDX 72 15 70 16 71 17 73 18 83 19 74 20 75 21 3 23 4 24 2 25
REMARK SMILES IDX 1 26 76 27 77 28 78 29 82 30 79 31 81 32 80 33 17 34 18 35
REMARK SMILES IDX 19 36 20 37 21 39 22 40 23 41 69 42 24 43 68 44 25 45 26 46
REMARK SMILES IDX 27 47 62 48 28 49 67 50 61 51 63 52 29 53 66 54 60 55 59 56
REMARK SMILES IDX 30 58 52 59 37 60 51 61 38 62 41 63 50 64 64 65 39 66 40 67
REMARK SMILES IDX 49 69 65 70 42 71 31 72 32 73 36 74 33 75 35 76 34 77 53 78
REMARK SMILES IDX 54 79 58 80 55 81 57 82 56 83 43 84 44 85 48 86 45 87 47 88
REMARK SMILES IDX 46 89
REMARK H PARENT 15 5 7 11 75 22 19 38 63 57 41 68
REMARK Flexibility Score: inf
ROOT
ATOM      1  C   UNL A   1      40.063  22.809  27.322  1.00  0.00     0.117 C 
ENDROOT
BRANCH   1   2
ATOM      2  N   UNL A   1      38.681  22.920  25.685  1.00  0.00    -0.356 N 
ATOM      3  C   UNL A   1      37.269  23.292  25.278  1.00  0.00     0.223 C 
ATOM      4  O   UNL A   1      37.144  23.626  24.096  1.00  0.00    -0.275 OA
ATOM      5  H   UNL A   1      39.149  22.603  24.880  1.00  0.00     0.163 HD
BRANCH   3   6
ATOM      6  C   UNL A   1      35.954  23.426  26.113  1.00  0.00     0.091 C 
ATOM      7  C   UNL A   1      34.871  22.363  26.034  1.00  0.00     0.092 C 
ATOM      8  C   UNL A   1      34.483  23.775  25.814  1.00  0.00     0.028 C 
BRANCH   7   9
ATOM      9  C   UNL A   1      34.751  21.462  24.886  1.00  0.00     0.228 C 
ATOM     10  N   UNL A   1      33.624  21.506  24.121  1.00  0.00    -0.317 N 
ATOM     11  H   UNL A   1      33.523  20.795  23.449  1.00  0.00     0.170 HD
ATOM     12  O   UNL A   1      35.680  20.718  24.596  1.00  0.00    -0.274 OA
BRANCH  10  13
ATOM     13  C   UNL A   1      32.610  22.438  24.187  1.00  0.00     0.110 A 
ATOM     14  C   UNL A   1      31.268  23.276  25.156  1.00  0.00     0.098 A 
ATOM     15  C   UNL A   1      30.726  24.917  24.300  1.00  0.00    -0.006 A 
ATOM     16  S   UNL A   1      33.196  23.758  22.342  1.00  0.00    -0.116 S 
ATOM     17  C   UNL A   1      31.524  25.240  22.841  1.00  0.00     0.065 A 
ATOM     18  C   UNL A   1      29.731  25.935  24.765  1.00  0.00     0.099 C 
ATOM     19  C   UNL A   1      31.404  26.485  22.066  1.00  0.00     0.310 C 
ATOM     20  C   UNL A   1      29.365  26.905  23.606  1.00  0.00     0.267 C 
ATOM     21  N   UNL A   1      30.421  27.395  22.698  1.00  0.00    -0.326 N 
ATOM     22  H   UNL A   1      29.819  27.424  21.875  1.00  0.00     0.348 HD
BRANCH  14  23
ATOM     23  C   UNL A   1      30.771  23.181  26.545  1.00  0.00     0.341 C 
ATOM     24  O   UNL A   1      31.259  23.792  27.483  1.00  0.00    -0.246 OA
BRANCH  23  25
ATOM     25  O   UNL A   1      29.754  22.260  26.661  1.00  0.00    -0.465 OA
ATOM     26  C   UNL A   1      28.713  22.517  27.622  1.00  0.00     0.282 C 
ENDBRANCH  23  25
ENDBRANCH  14  23
BRANCH  21  27
ATOM     27  C   UNL A   1      30.879  28.763  22.948  1.00  0.00     0.299 C 
BRANCH  27  28
ATOM     28  C   UNL A   1      29.752  29.728  22.779  1.00  0.00     0.006 A 
ATOM     29  C   UNL A   1      29.321  30.477  23.877  1.00  0.00     0.009 A 
ATOM     30  C   UNL A   1      29.376  30.085  21.482  1.00  0.00     0.009 A 
ATOM     31  C   UNL A   1      28.700  31.698  23.656  1.00  0.00     0.001 A 
ATOM     32  C   UNL A   1      28.774  31.309  21.269  1.00  0.00     0.001 A 
ATOM     33  C   UNL A   1      28.480  32.134  22.351  1.00  0.00     0.000 A 
ENDBRANCH  27  28
ENDBRANCH  21  27
ENDBRANCH  10  13
ENDBRANCH   7   9
ENDBRANCH   3   6
ENDBRANCH   1   2
BRANCH   1  34
ATOM     34  C   UNL A   1      41.045  21.636  28.035  1.00  0.00     0.042 C 
BRANCH  34  35
ATOM     35  C   UNL A   1      41.544  20.399  27.259  1.00  0.00     0.118 C 
BRANCH  35  36
ATOM     36  N   UNL A   1      42.895  20.366  26.657  1.00  0.00    -0.352 N 
ATOM     37  C   UNL A   1      43.607  21.267  25.830  1.00  0.00     0.251 C 
ATOM     38  H   UNL A   1      43.403  19.552  26.877  1.00  0.00     0.163 HD
ATOM     39  O   UNL A   1      44.458  20.803  25.070  1.00  0.00    -0.269 OA
BRANCH  37  40
ATOM     40  C   UNL A   1      43.540  22.761  25.983  1.00  0.00     0.039 A 
ATOM     41  C   UNL A   1      43.116  23.713  25.042  1.00  0.00     0.014 A 
ATOM     42  C   UNL A   1      44.198  23.283  27.041  1.00  0.00     0.014 A 
ATOM     43  C   UNL A   1      43.633  25.061  25.079  1.00  0.00     0.010 A 
ATOM     44  C   UNL A   1      44.742  24.532  27.033  1.00  0.00     0.010 A 
ATOM     45  C   UNL A   1      44.618  25.414  26.005  1.00  0.00    -0.014 A 
BRANCH  45  46
ATOM     46  C   UNL A   1      45.268  26.688  26.402  1.00  0.00     0.031 A 
ATOM     47  C   UNL A   1      46.728  26.569  26.033  1.00  0.00     0.074 A 
ATOM     48  C   UNL A   1      44.705  27.903  26.698  1.00  0.00     0.049 A 
ATOM     49  N   UNL A   1      47.582  26.018  26.830  1.00  0.00    -0.248 NA
ATOM     50  C   UNL A   1      47.254  26.663  24.636  1.00  0.00     0.031 C 
ATOM     51  C   UNL A   1      43.300  28.337  26.809  1.00  0.00     0.029 A 
ATOM     52  N   UNL A   1      45.352  29.096  26.955  1.00  0.00    -0.354 N 
ATOM     53  C   UNL A   1      48.788  26.041  26.159  1.00  0.00     0.074 A 
ATOM     54  C   UNL A   1      48.462  26.105  24.767  1.00  0.00     0.031 C 
ATOM     55  C   UNL A   1      43.216  29.697  26.911  1.00  0.00     0.029 A 
ATOM     56  C   UNL A   1      44.552  30.260  27.027  1.00  0.00     0.049 A 
ATOM     57  H   UNL A   1      46.328  29.135  27.083  1.00  0.00     0.167 HD
ATOM     58  C   UNL A   1      49.911  26.428  26.820  1.00  0.00     0.031 A 
ATOM     59  C   UNL A   1      44.955  31.557  27.262  1.00  0.00     0.031 A 
ATOM     60  C   UNL A   1      49.633  26.547  28.236  1.00  0.00     0.049 A 
ATOM     61  C   UNL A   1      46.264  31.472  27.954  1.00  0.00     0.074 A 
ATOM     62  C   UNL A   1      49.136  25.684  29.193  1.00  0.00     0.029 A 
ATOM     63  N   UNL A   1      49.363  27.821  28.680  1.00  0.00    -0.354 N 
ATOM     64  N   UNL A   1      46.381  30.981  29.154  1.00  0.00    -0.248 NA
ATOM     65  C   UNL A   1      47.443  31.386  27.108  1.00  0.00     0.031 C 
ATOM     66  C   UNL A   1      48.195  26.458  29.932  1.00  0.00     0.029 A 
ATOM     67  C   UNL A   1      48.274  27.784  29.511  1.00  0.00     0.049 A 
ATOM     68  H   UNL A   1      49.871  28.630  28.440  1.00  0.00     0.167 HD
ATOM     69  C   UNL A   1      47.421  30.076  29.038  1.00  0.00     0.074 A 
ATOM     70  C   UNL A   1      48.067  30.397  27.756  1.00  0.00     0.031 C 
ATOM     71  C   UNL A   1      47.444  28.934  29.788  1.00  0.00     0.031 A 
BRANCH  58  72
ATOM     72  C   UNL A   1      51.053  27.172  26.182  1.00  0.00    -0.014 A 
ATOM     73  C   UNL A   1      52.256  26.470  26.001  1.00  0.00     0.009 A 
ATOM     74  C   UNL A   1      51.096  28.568  26.006  1.00  0.00     0.009 A 
ATOM     75  C   UNL A   1      53.454  27.138  25.737  1.00  0.00     0.001 A 
ATOM     76  C   UNL A   1      52.286  29.236  25.706  1.00  0.00     0.001 A 
ATOM     77  C   UNL A   1      53.470  28.522  25.597  1.00  0.00     0.000 A 
ENDBRANCH  58  72
BRANCH  59  78
ATOM     78  C   UNL A   1      44.501  32.892  26.738  1.00  0.00    -0.014 A 
ATOM     79  C   UNL A   1      44.193  33.118  25.370  1.00  0.00     0.009 A 
ATOM     80  C   UNL A   1      44.039  33.860  27.642  1.00  0.00     0.009 A 
ATOM     81  C   UNL A   1      43.432  34.233  24.948  1.00  0.00     0.001 A 
ATOM     82  C   UNL A   1      43.271  34.963  27.225  1.00  0.00     0.001 A 
ATOM     83  C   UNL A   1      42.955  35.146  25.881  1.00  0.00     0.000 A 
ENDBRANCH  59  78
BRANCH  71  84
ATOM     84  C   UNL A   1      46.431  28.779  30.900  1.00  0.00    -0.014 A 
ATOM     85  C   UNL A   1      46.630  29.182  32.235  1.00  0.00     0.009 A 
ATOM     86  C   UNL A   1      45.150  28.350  30.527  1.00  0.00     0.009 A 
ATOM     87  C   UNL A   1      45.581  29.126  33.165  1.00  0.00     0.001 A 
ATOM     88  C   UNL A   1      44.101  28.313  31.446  1.00  0.00     0.001 A 
ATOM     89  C   UNL A   1      44.318  28.693  32.768  1.00  0.00     0.000 A 
ENDBRANCH  71  84
ENDBRANCH  45  46
ENDBRANCH  37  40
ENDBRANCH  35  36
ENDBRANCH  34  35
ENDBRANCH   1  34
TORSDOF 16
ENDMDL
MODEL 2
REMARK VINA RESULT:     -13.2      3.463      7.583
REMARK SMILES COC(=O)c1c(NC(=O)[C@@H]2C[C@@H]2C(=O)NCCCNC(=O)c2ccc(-c3c4nc(c(-c5ccccc5)c5ccc([nH]5)c(-c5ccccc5)c5nc(c(-c6ccccc6)c6ccc3[nH]6)C=C5)C=C4)cc2)sc2c1CC[N@@H+](Cc1ccccc1)C2
REMARK SMILES IDX 16 1 15 2 13 3 14 4 12 6 10 7 11 8 8 9 7 10 9 12 6 13 5 14
REMARK SMILES IDX 72 15 70 16 71 17 73 18 83 19 74 20 75 21 3 23 4 24 2 25
REMARK SMILES IDX 1 26 76 27 77 28 78 29 82 30 79 31 81 32 80 33 17 34 18 35
REMARK SMILES IDX 19 36 20 37 21 39 22 40 23 41 69 42 24 43 68 44 25 45 26 46
REMARK SMILES IDX 27 47 62 48 28 49 67 50 61 51 63 52 29 53 66 54 60 55 59 56
REMARK SMILES IDX 30 58 52 59 37 60 51 61 38 62 41 63 50 64 64 65 39 66 40 67
REMARK SMILES IDX 49 69 65 70 42 71 31 72 32 73 36 74 33 75 35 76 34 77 53 78
REMARK SMILES IDX 54 79 58 80 55 81 57 82 56 83 43 84 44 85 48 86 45 87 47 88
REMARK SMILES IDX 46 89
REMARK H PARENT 15 5 7 11 75 22 19 38 63 57 41 68
REMARK Flexibility Score: inf
ROOT
ATOM      1  C   UNL A   1      34.146  26.283  25.362  1.00  0.00     0.117 C 
ENDROOT
BRANCH   1   2
ATOM      2  N   UNL A   1      34.002  24.411  26.397  1.00  0.00    -0.356 N 
ATOM      3  C   UNL A   1      34.432  22.956  26.395  1.00  0.00     0.223 C 
ATOM      4  O   UNL A   1      34.460  22.426  27.510  1.00  0.00    -0.275 OA
ATOM      5  H   UNL A   1      33.430  24.550  27.185  1.00  0.00     0.163 HD
BRANCH   3   6
ATOM      6  C   UNL A   1      34.944  22.032  25.244  1.00  0.00     0.091 C 
ATOM      7  C   UNL A   1      33.967  21.270  24.365  1.00  0.00     0.092 C 
ATOM      8  C   UNL A   1      35.061  20.513  25.013  1.00  0.00     0.028 C 
BRANCH   7   9
ATOM      9  C   UNL A   1      32.605  20.963  24.806  1.00  0.00     0.228 C 
ATOM     10  N   UNL A   1      31.664  21.949  24.796  1.00  0.00    -0.317 N 
ATOM     11  H   UNL A   1      30.805  21.739  25.228  1.00  0.00     0.170 HD
ATOM     12  O   UNL A   1      32.313  19.818  25.130  1.00  0.00    -0.274 OA
BRANCH  10  13
ATOM     13  C   UNL A   1      31.785  23.208  24.248  1.00  0.00     0.110 A 
ATOM     14  C   UNL A   1      32.329  24.298  22.849  1.00  0.00     0.098 A 
ATOM     15  C   UNL A   1      31.505  26.038  22.974  1.00  0.00    -0.006 A 
ATOM     16  S   UNL A   1      30.221  24.344  25.574  1.00  0.00    -0.116 S 
ATOM     17  C   UNL A   1      30.510  26.243  24.329  1.00  0.00     0.065 A 
ATOM     18  C   UNL A   1      31.608  27.195  22.029  1.00  0.00     0.099 C 
ATOM     19  C   UNL A   1      29.656  27.414  24.584  1.00  0.00     0.310 C 
ATOM     20  C   UNL A   1      31.065  28.491  22.698  1.00  0.00     0.267 C 
ATOM     21  N   UNL A   1      29.845  28.433  23.526  1.00  0.00    -0.326 N 
ATOM     22  H   UNL A   1      30.153  29.151  24.182  1.00  0.00     0.348 HD
BRANCH  14  23
ATOM     23  C   UNL A   1      32.942  24.065  21.524  1.00  0.00     0.341 C 
ATOM     24  O   UNL A   1      33.288  22.966  21.120  1.00  0.00    -0.246 OA
BRANCH  23  25
ATOM     25  O   UNL A   1      33.149  25.245  20.844  1.00  0.00    -0.465 OA
ATOM     26  C   UNL A   1      32.659  25.344  19.494  1.00  0.00     0.282 C 
ENDBRANCH  23  25
ENDBRANCH  14  23
BRANCH  21  27
ATOM     27  C   UNL A   1      28.625  28.926  22.883  1.00  0.00     0.299 C 
BRANCH  27  28
ATOM     28  C   UNL A   1      28.806  30.340  22.441  1.00  0.00     0.006 A 
ATOM     29  C   UNL A   1      28.507  30.690  21.122  1.00  0.00     0.009 A 
ATOM     30  C   UNL A   1      28.961  31.325  23.420  1.00  0.00     0.009 A 
ATOM     31  C   UNL A   1      28.151  32.000  20.837  1.00  0.00     0.001 A 
ATOM     32  C   UNL A   1      28.588  32.623  23.134  1.00  0.00     0.001 A 
ATOM     33  C   UNL A   1      28.139  32.949  21.857  1.00  0.00     0.000 A 
ENDBRANCH  27  28
ENDBRANCH  21  27
ENDBRANCH  10  13
ENDBRANCH   7   9
ENDBRANCH   3   6
ENDBRANCH   1   2
BRANCH   1  34
ATOM     34  C   UNL A   1      33.616  27.868  25.591  1.00  0.00     0.042 C 
BRANCH  34  35
ATOM     35  C   UNL A   1      33.936  28.664  26.875  1.00  0.00     0.118 C 
BRANCH  35  36
ATOM     36  N   UNL A   1      34.156  30.127  26.834  1.00  0.00    -0.352 N 
ATOM     37  C   UNL A   1      34.806  31.031  27.706  1.00  0.00     0.251 C 
ATOM     38  H   UNL A   1      33.770  30.559  26.037  1.00  0.00     0.163 HD
ATOM     39  O   UNL A   1      34.416  32.199  27.721  1.00  0.00    -0.269 OA
BRANCH  37  40
ATOM     40  C   UNL A   1      36.074  30.703  28.443  1.00  0.00     0.039 A 
ATOM     41  C   UNL A   1      36.961  31.585  29.084  1.00  0.00     0.014 A 
ATOM     42  C   UNL A   1      36.567  29.459  28.260  1.00  0.00     0.014 A 
ATOM     43  C   UNL A   1      38.358  31.246  29.222  1.00  0.00     0.010 A 
ATOM     44  C   UNL A   1      37.897  29.171  28.324  1.00  0.00     0.010 A 
ATOM     45  C   UNL A   1      38.860  30.074  28.654  1.00  0.00    -0.014 A 
BRANCH  45  46
ATOM     46  C   UNL A   1      40.166  29.368  28.701  1.00  0.00     0.031 A 
ATOM     47  C   UNL A   1      40.370  28.917  30.128  1.00  0.00     0.074 A 
ATOM     48  C   UNL A   1      40.921  28.855  27.677  1.00  0.00     0.049 A 
ATOM     49  N   UNL A   1      40.891  29.699  31.014  1.00  0.00    -0.248 NA
ATOM     50  C   UNL A   1      39.653  27.766  30.758  1.00  0.00     0.031 C 
ATOM     51  C   UNL A   1      40.753  28.899  26.212  1.00  0.00     0.029 A 
ATOM     52  N   UNL A   1      42.077  28.106  27.770  1.00  0.00    -0.354 N 
ATOM     53  C   UNL A   1      40.881  28.984  32.194  1.00  0.00     0.074 A 
ATOM     54  C   UNL A   1      39.838  28.014  32.058  1.00  0.00     0.031 C 
ATOM     55  C   UNL A   1      41.640  28.061  25.596  1.00  0.00     0.029 A 
ATOM     56  C   UNL A   1      42.558  27.514  26.580  1.00  0.00     0.049 A 
ATOM     57  H   UNL A   1      42.546  27.989  28.629  1.00  0.00     0.167 HD
ATOM     58  C   UNL A   1      41.990  28.981  32.981  1.00  0.00     0.031 A 
ATOM     59  C   UNL A   1      43.675  26.723  26.415  1.00  0.00     0.031 A 
ATOM     60  C   UNL A   1      42.943  29.956  32.493  1.00  0.00     0.049 A 
ATOM     61  C   UNL A   1      44.580  27.028  27.549  1.00  0.00     0.074 A 
ATOM     62  C   UNL A   1      42.888  31.314  32.246  1.00  0.00     0.029 A 
ATOM     63  N   UNL A   1      43.945  29.454  31.693  1.00  0.00    -0.354 N 
ATOM     64  N   UNL A   1      45.148  28.192  27.685  1.00  0.00    -0.248 NA
ATOM     65  C   UNL A   1      44.371  26.269  28.771  1.00  0.00     0.031 C 
ATOM     66  C   UNL A   1      43.537  31.486  30.988  1.00  0.00     0.029 A 
ATOM     67  C   UNL A   1      44.099  30.269  30.603  1.00  0.00     0.049 A 
ATOM     68  H   UNL A   1      44.467  28.639  31.875  1.00  0.00     0.167 HD
ATOM     69  C   UNL A   1      44.885  28.533  29.000  1.00  0.00     0.074 A 
ATOM     70  C   UNL A   1      44.433  27.286  29.636  1.00  0.00     0.031 C 
ATOM     71  C   UNL A   1      44.702  29.837  29.363  1.00  0.00     0.031 A 
BRANCH  58  72
ATOM     72  C   UNL A   1      42.428  27.811  33.820  1.00  0.00    -0.014 A 
ATOM     73  C   UNL A   1      43.488  27.030  33.331  1.00  0.00     0.009 A 
ATOM     74  C   UNL A   1      41.694  27.286  34.901  1.00  0.00     0.009 A 
ATOM     75  C   UNL A   1      43.749  25.757  33.843  1.00  0.00     0.001 A 
ATOM     76  C   UNL A   1      41.976  26.028  35.439  1.00  0.00     0.001 A 
ATOM     77  C   UNL A   1      42.987  25.254  34.892  1.00  0.00     0.000 A 
ENDBRANCH  58  72
BRANCH  59  78
ATOM     78  C   UNL A   1      43.977  25.526  25.553  1.00  0.00    -0.014 A 
ATOM     79  C   UNL A   1      45.300  25.134  25.216  1.00  0.00     0.009 A 
ATOM     80  C   UNL A   1      42.977  24.565  25.344  1.00  0.00     0.009 A 
ATOM     81  C   UNL A   1      45.596  23.839  24.733  1.00  0.00     0.001 A 
ATOM     82  C   UNL A   1      43.273  23.272  24.874  1.00  0.00     0.001 A 
ATOM     83  C   UNL A   1      44.582  22.901  24.581  1.00  0.00     0.000 A 
ENDBRANCH  59  78
BRANCH  71  84
ATOM     84  C   UNL A   1      45.006  30.919  28.351  1.00  0.00    -0.014 A 
ATOM     85  C   UNL A   1      44.100  31.397  27.385  1.00  0.00     0.009 A 
ATOM     86  C   UNL A   1      46.224  31.595  28.501  1.00  0.00     0.009 A 
ATOM     87  C   UNL A   1      44.425  32.500  26.580  1.00  0.00     0.001 A 
ATOM     88  C   UNL A   1      46.539  32.704  27.716  1.00  0.00     0.001 A 
ATOM     89  C   UNL A   1      45.645  33.152  26.749  1.00  0.00     0.000 A 
ENDBRANCH  71  84
ENDBRANCH  45  46
ENDBRANCH  37  40
ENDBRANCH  35  36
ENDBRANCH  34  35
ENDBRANCH   1  34
TORSDOF 16
ENDMDL
MODEL 3
REMARK VINA RESULT:     -13.1      4.074      7.674
REMARK SMILES COC(=O)c1c(NC(=O)[C@@H]2C[C@@H]2C(=O)NCCCNC(=O)c2ccc(-c3c4nc(c(-c5ccccc5)c5ccc([nH]5)c(-c5ccccc5)c5nc(c(-c6ccccc6)c6ccc3[nH]6)C=C5)C=C4)cc2)sc2c1CC[N@@H+](Cc1ccccc1)C2
REMARK SMILES IDX 16 1 15 2 13 3 14 4 12 6 10 7 11 8 8 9 7 10 9 12 6 13 5 14
REMARK SMILES IDX 72 15 70 16 71 17 73 18 83 19 74 20 75 21 3 23 4 24 2 25
REMARK SMILES IDX 1 26 76 27 77 28 78 29 82 30 79 31 81 32 80 33 17 34 18 35
REMARK SMILES IDX 19 36 20 37 21 39 22 40 23 41 69 42 24 43 68 44 25 45 26 46
REMARK SMILES IDX 27 47 62 48 28 49 67 50 61 51 63 52 29 53 66 54 60 55 59 56
REMARK SMILES IDX 30 58 52 59 37 60 51 61 38 62 41 63 50 64 64 65 39 66 40 67
REMARK SMILES IDX 49 69 65 70 42 71 31 72 32 73 36 74 33 75 35 76 34 77 53 78
REMARK SMILES IDX 54 79 58 80 55 81 57 82 56 83 43 84 44 85 48 86 45 87 47 88
REMARK SMILES IDX 46 89
REMARK H PARENT 15 5 7 11 75 22 19 38 63 57 41 68
REMARK Flexibility Score: inf
ROOT
ATOM      1  C   UNL A   1      34.640  24.989  25.670  1.00  0.00     0.117 C 
ENDROOT
BRANCH   1   2
ATOM      2  N   UNL A   1      34.218  26.640  24.367  1.00  0.00    -0.356 N 
ATOM      3  C   UNL A   1      33.516  27.979  24.250  1.00  0.00     0.223 C 
ATOM      4  O   UNL A   1      34.008  28.748  23.419  1.00  0.00    -0.275 OA
ATOM      5  H   UNL A   1      34.650  26.454  23.503  1.00  0.00     0.163 HD
BRANCH   3   6
ATOM      6  C   UNL A   1      32.337  28.602  25.066  1.00  0.00     0.091 C 
ATOM      7  C   UNL A   1      30.894  28.350  24.664  1.00  0.00     0.092 C 
ATOM      8  C   UNL A   1      31.331  29.751  24.856  1.00  0.00     0.028 C 
BRANCH   7   9
ATOM      9  C   UNL A   1      30.526  27.958  23.302  1.00  0.00     0.228 C 
ATOM     10  N   UNL A   1      30.742  26.674  22.898  1.00  0.00    -0.317 N 
ATOM     11  H   UNL A   1      30.612  26.489  21.940  1.00  0.00     0.170 HD
ATOM     12  O   UNL A   1      29.985  28.769  22.560  1.00  0.00    -0.274 OA
BRANCH  10  13
ATOM     13  C   UNL A   1      31.124  25.608  23.684  1.00  0.00     0.110 A 
ATOM     14  C   UNL A   1      30.888  24.582  25.211  1.00  0.00     0.098 A 
ATOM     15  C   UNL A   1      31.794  22.886  25.045  1.00  0.00    -0.006 A 
ATOM     16  S   UNL A   1      32.354  24.397  22.098  1.00  0.00    -0.116 S 
ATOM     17  C   UNL A   1      32.648  22.690  23.595  1.00  0.00     0.065 A 
ATOM     18  C   UNL A   1      31.814  21.735  26.002  1.00  0.00     0.099 C 
ATOM     19  C   UNL A   1      33.300  21.446  23.157  1.00  0.00     0.310 C 
ATOM     20  C   UNL A   1      32.938  20.730  25.618  1.00  0.00     0.267 C 
ATOM     21  N   UNL A   1      33.176  20.401  24.199  1.00  0.00    -0.326 N 
ATOM     22  H   UNL A   1      34.185  20.294  24.305  1.00  0.00     0.348 HD
BRANCH  14  23
ATOM     23  C   UNL A   1      29.932  24.595  26.338  1.00  0.00     0.341 C 
ATOM     24  O   UNL A   1      29.078  25.454  26.494  1.00  0.00    -0.246 OA
BRANCH  23  25
ATOM     25  O   UNL A   1      30.180  23.574  27.228  1.00  0.00    -0.465 OA
ATOM     26  C   UNL A   1      29.092  22.696  27.573  1.00  0.00     0.282 C 
ENDBRANCH  23  25
ENDBRANCH  14  23
BRANCH  21  27
ATOM     27  C   UNL A   1      32.646  19.111  23.756  1.00  0.00     0.299 C 
BRANCH  27  28
ATOM     28  C   UNL A   1      33.206  18.005  24.589  1.00  0.00     0.006 A 
ATOM     29  C   UNL A   1      32.336  17.157  25.277  1.00  0.00     0.009 A 
ATOM     30  C   UNL A   1      34.547  17.655  24.409  1.00  0.00     0.009 A 
ATOM     31  C   UNL A   1      32.755  15.871  25.589  1.00  0.00     0.001 A 
ATOM     32  C   UNL A   1      34.952  16.369  24.705  1.00  0.00     0.001 A 
ATOM     33  C   UNL A   1      34.044  15.465  25.250  1.00  0.00     0.000 A 
ENDBRANCH  27  28
ENDBRANCH  21  27
ENDBRANCH  10  13
ENDBRANCH   7   9
ENDBRANCH   3   6
ENDBRANCH   1   2
BRANCH   1  34
ATOM     34  C   UNL A   1      35.556  23.573  25.616  1.00  0.00     0.042 C 
BRANCH  34  35
ATOM     35  C   UNL A   1      37.089  23.592  25.428  1.00  0.00     0.118 C 
BRANCH  35  36
ATOM     36  N   UNL A   1      37.963  22.658  26.172  1.00  0.00    -0.352 N 
ATOM     37  C   UNL A   1      39.331  22.694  26.531  1.00  0.00     0.251 C 
ATOM     38  H   UNL A   1      37.498  21.847  26.480  1.00  0.00     0.163 HD
ATOM     39  O   UNL A   1      39.917  21.620  26.676  1.00  0.00    -0.269 OA
BRANCH  37  40
ATOM     40  C   UNL A   1      40.043  23.947  26.957  1.00  0.00     0.039 A 
ATOM     41  C   UNL A   1      41.301  24.067  27.570  1.00  0.00     0.014 A 
ATOM     42  C   UNL A   1      39.297  25.073  26.998  1.00  0.00     0.014 A 
ATOM     43  C   UNL A   1      41.595  25.193  28.425  1.00  0.00     0.010 A 
ATOM     44  C   UNL A   1      39.547  26.097  27.862  1.00  0.00     0.010 A 
ATOM     45  C   UNL A   1      40.607  26.137  28.714  1.00  0.00    -0.014 A 
BRANCH  45  46
ATOM     46  C   UNL A   1      40.586  27.441  29.424  1.00  0.00     0.031 A 
ATOM     47  C   UNL A   1      41.442  28.392  28.621  1.00  0.00     0.074 A 
ATOM     48  C   UNL A   1      39.724  27.899  30.387  1.00  0.00     0.049 A 
ATOM     49  N   UNL A   1      42.722  28.451  28.788  1.00  0.00    -0.248 NA
ATOM     50  C   UNL A   1      41.022  29.016  27.329  1.00  0.00     0.031 C 
ATOM     51  C   UNL A   1      38.606  27.251  31.098  1.00  0.00     0.029 A 
ATOM     52  N   UNL A   1      39.670  29.162  30.944  1.00  0.00    -0.354 N 
ATOM     53  C   UNL A   1      43.175  29.378  27.871  1.00  0.00     0.074 A 
ATOM     54  C   UNL A   1      42.198  29.407  26.826  1.00  0.00     0.031 C 
ATOM     55  C   UNL A   1      37.891  28.166  31.818  1.00  0.00     0.029 A 
ATOM     56  C   UNL A   1      38.558  29.456  31.767  1.00  0.00     0.049 A 
ATOM     57  H   UNL A   1      40.375  29.829  30.775  1.00  0.00     0.167 HD
ATOM     58  C   UNL A   1      44.074  30.319  28.263  1.00  0.00     0.031 A 
ATOM     59  C   UNL A   1      38.274  30.634  32.424  1.00  0.00     0.031 A 
ATOM     60  C   UNL A   1      44.561  30.012  29.591  1.00  0.00     0.049 A 
ATOM     61  C   UNL A   1      39.562  31.354  32.575  1.00  0.00     0.074 A 
ATOM     62  C   UNL A   1      45.175  28.913  30.160  1.00  0.00     0.029 A 
ATOM     63  N   UNL A   1      43.943  30.690  30.618  1.00  0.00    -0.354 N 
ATOM     64  N   UNL A   1      40.521  30.902  33.330  1.00  0.00    -0.248 NA
ATOM     65  C   UNL A   1      39.963  32.208  31.469  1.00  0.00     0.031 C 
ATOM     66  C   UNL A   1      44.518  28.733  31.412  1.00  0.00     0.029 A 
ATOM     67  C   UNL A   1      43.658  29.809  31.628  1.00  0.00     0.049 A 
ATOM     68  H   UNL A   1      43.737  31.653  30.626  1.00  0.00     0.167 HD
ATOM     69  C   UNL A   1      41.637  30.963  32.513  1.00  0.00     0.074 A 
ATOM     70  C   UNL A   1      41.239  31.817  31.384  1.00  0.00     0.031 C 
ATOM     71  C   UNL A   1      42.640  30.042  32.627  1.00  0.00     0.031 A 
BRANCH  58  72
ATOM     72  C   UNL A   1      44.124  31.720  27.715  1.00  0.00    -0.014 A 
ATOM     73  C   UNL A   1      44.908  31.935  26.570  1.00  0.00     0.009 A 
ATOM     74  C   UNL A   1      43.677  32.862  28.407  1.00  0.00     0.009 A 
ATOM     75  C   UNL A   1      45.291  33.221  26.183  1.00  0.00     0.001 A 
ATOM     76  C   UNL A   1      44.028  34.152  28.000  1.00  0.00     0.001 A 
ATOM     77  C   UNL A   1      44.856  34.329  26.902  1.00  0.00     0.000 A 
ENDBRANCH  58  72
BRANCH  59  78
ATOM     78  C   UNL A   1      36.996  31.372  32.718  1.00  0.00    -0.014 A 
ATOM     79  C   UNL A   1      36.864  32.283  33.800  1.00  0.00     0.009 A 
ATOM     80  C   UNL A   1      36.005  31.443  31.728  1.00  0.00     0.009 A 
ATOM     81  C   UNL A   1      35.817  33.230  33.857  1.00  0.00     0.001 A 
ATOM     82  C   UNL A   1      34.969  32.394  31.778  1.00  0.00     0.001 A 
ATOM     83  C   UNL A   1      34.879  33.297  32.834  1.00  0.00     0.000 A 
ENDBRANCH  59  78
BRANCH  71  84
ATOM     84  C   UNL A   1      42.615  29.086  33.798  1.00  0.00    -0.014 A 
ATOM     85  C   UNL A   1      43.154  29.356  35.071  1.00  0.00     0.009 A 
ATOM     86  C   UNL A   1      41.859  27.918  33.639  1.00  0.00     0.009 A 
ATOM     87  C   UNL A   1      42.960  28.463  36.136  1.00  0.00     0.001 A 
ATOM     88  C   UNL A   1      41.647  27.040  34.702  1.00  0.00     0.001 A 
ATOM     89  C   UNL A   1      42.205  27.307  35.949  1.00  0.00     0.000 A 
ENDBRANCH  71  84
ENDBRANCH  45  46
ENDBRANCH  37  40
ENDBRANCH  35  36
ENDBRANCH  34  35
ENDBRANCH   1  34
TORSDOF 16
ENDMDL
