MODEL 1
REMARK VINA RESULT:     -12.4      0.000      0.000
REMARK SMILES N#Cc1ccc(C(=O)N2CCC(Oc3ccccc3)(C(=O)NCCCNC(=O)c3ccc(-c4c5nc(c(-c6ccccc6)c6ccc([nH]6)c(-c6ccccc6)c6nc(c(-c7ccccc7)c7ccc4[nH]7)C=C6)C=C5)cc3)CC2)cc1
REMARK SMILES IDX 24 1 23 2 22 3 20 4 21 5 12 7 7 8 8 9 9 10 10 11 78 12 11 13
REMARK SMILES IDX 77 14 6 15 3 16 4 17 80 18 5 19 79 20 2 21 1 22 13 23 14 24
REMARK SMILES IDX 15 25 19 26 16 27 18 28 17 29 25 30 26 31 27 32 28 34 29 35
REMARK SMILES IDX 30 36 76 37 31 38 75 39 32 40 33 41 34 42 69 43 35 44 74 45
REMARK SMILES IDX 68 46 70 47 36 48 73 49 67 50 66 51 37 53 59 54 44 55 58 56
REMARK SMILES IDX 45 57 48 58 57 59 71 60 46 61 47 62 56 64 72 65 49 66 38 67
REMARK SMILES IDX 39 68 43 69 40 70 42 71 41 72 60 73 61 74 65 75 62 76 64 77
REMARK SMILES IDX 63 78 50 79 51 80 55 81 52 82 54 83 53 84
REMARK H PARENT 22 6 26 33 70 52 48 63
REMARK Flexibility Score: inf
ROOT
ATOM      1  C   UNL A   1      37.424  19.647  25.025  1.00  0.00     0.042 C 
ENDROOT
BRANCH   1   2
ATOM      2  C   UNL A   1      36.256  20.605  24.839  1.00  0.00     0.118 C 
BRANCH   2   3
ATOM      3  N   UNL A   1      35.780  21.115  26.112  1.00  0.00    -0.353 N 
ATOM      4  C   UNL A   1      34.515  21.407  26.534  1.00  0.00     0.264 C 
ATOM      5  O   UNL A   1      34.418  21.780  27.709  1.00  0.00    -0.270 OA
ATOM      6  H   UNL A   1      36.485  21.276  26.780  1.00  0.00     0.163 HD
BRANCH   4   7
ATOM      7  C   UNL A   1      33.287  21.304  25.583  1.00  0.00     0.190 C 
ATOM      8  C   UNL A   1      32.531  25.051  23.826  1.00  0.00     0.253 C 
ATOM      9  O   UNL A   1      32.237  24.891  22.644  1.00  0.00    -0.269 OA
ATOM     10  N   UNL A   1      33.009  24.022  24.619  1.00  0.00    -0.338 N 
ATOM     11  C   UNL A   1      34.063  23.183  24.088  1.00  0.00     0.124 C 
ATOM     12  C   UNL A   1      32.500  23.723  25.956  1.00  0.00     0.124 C 
ATOM     13  C   UNL A   1      33.669  21.726  24.153  1.00  0.00     0.080 C 
ATOM     14  C   UNL A   1      32.163  22.232  26.109  1.00  0.00     0.080 C 
BRANCH   8  15
ATOM     15  C   UNL A   1      32.581  26.432  24.385  1.00  0.00     0.040 A 
ATOM     16  C   UNL A   1      32.695  28.857  25.791  1.00  0.00     0.052 A 
ATOM     17  C   UNL A   1      33.874  28.173  25.475  1.00  0.00     0.020 A 
ATOM     18  C   UNL A   1      31.460  28.335  25.396  1.00  0.00     0.020 A 
ATOM     19  C   UNL A   1      33.818  26.962  24.775  1.00  0.00     0.015 A 
ATOM     20  C   UNL A   1      31.404  27.122  24.705  1.00  0.00     0.015 A 
BRANCH  16  21
ATOM     21  C   UNL A   1      32.739  30.072  26.553  1.00  0.00     0.099 C 
ATOM     22  N   UNL A   1      32.775  31.042  27.186  1.00  0.00    -0.192 NA
ENDBRANCH  16  21
ENDBRANCH   8  15
BRANCH   7  23
ATOM     23  O   UNL A   1      32.925  19.906  25.738  1.00  0.00    -0.477 OA
BRANCH  23  24
ATOM     24  C   UNL A   1      33.130  19.052  24.697  1.00  0.00     0.120 A 
ATOM     25  C   UNL A   1      32.247  19.131  23.624  1.00  0.00     0.046 A 
ATOM     26  C   UNL A   1      34.075  18.027  24.741  1.00  0.00     0.046 A 
ATOM     27  C   UNL A   1      32.374  18.250  22.550  1.00  0.00     0.004 A 
ATOM     28  C   UNL A   1      34.226  17.167  23.655  1.00  0.00     0.004 A 
ATOM     29  C   UNL A   1      33.380  17.283  22.555  1.00  0.00     0.000 A 
ENDBRANCH  23  24
ENDBRANCH   7  23
ENDBRANCH   4   7
ENDBRANCH   2   3
ENDBRANCH   1   2
BRANCH   1  30
ATOM     30  C   UNL A   1      38.707  20.326  25.483  1.00  0.00     0.118 C 
BRANCH  30  31
ATOM     31  N   UNL A   1      39.805  19.387  25.654  1.00  0.00    -0.352 N 
ATOM     32  C   UNL A   1      41.100  19.601  26.051  1.00  0.00     0.251 C 
ATOM     33  H   UNL A   1      39.583  18.450  25.451  1.00  0.00     0.163 HD
ATOM     34  O   UNL A   1      41.927  18.703  25.925  1.00  0.00    -0.269 OA
BRANCH  32  35
ATOM     35  C   UNL A   1      41.511  20.905  26.614  1.00  0.00     0.039 A 
ATOM     36  C   UNL A   1      42.021  21.876  25.749  1.00  0.00     0.014 A 
ATOM     37  C   UNL A   1      41.427  21.166  27.985  1.00  0.00     0.014 A 
ATOM     38  C   UNL A   1      42.393  23.123  26.251  1.00  0.00     0.010 A 
ATOM     39  C   UNL A   1      41.707  22.441  28.468  1.00  0.00     0.010 A 
ATOM     40  C   UNL A   1      42.204  23.431  27.609  1.00  0.00    -0.014 A 
BRANCH  40  41
ATOM     41  C   UNL A   1      42.524  24.782  28.138  1.00  0.00     0.031 A 
ATOM     42  C   UNL A   1      43.930  25.133  28.540  1.00  0.00     0.074 A 
ATOM     43  C   UNL A   1      41.534  25.685  28.288  1.00  0.00     0.049 A 
ATOM     44  N   UNL A   1      44.390  26.258  29.030  1.00  0.00    -0.248 NA
ATOM     45  C   UNL A   1      44.948  24.081  28.397  1.00  0.00     0.031 C 
ATOM     46  C   UNL A   1      40.123  25.457  27.967  1.00  0.00     0.029 A 
ATOM     47  N   UNL A   1      41.565  26.979  28.745  1.00  0.00    -0.354 N 
ATOM     48  C   UNL A   1      45.744  26.045  29.258  1.00  0.00     0.074 A 
ATOM     49  C   UNL A   1      46.019  24.667  28.913  1.00  0.00     0.031 C 
ATOM     50  C   UNL A   1      39.434  26.586  28.195  1.00  0.00     0.029 A 
ATOM     51  C   UNL A   1      40.339  27.598  28.728  1.00  0.00     0.049 A 
ATOM     52  H   UNL A   1      42.389  27.421  29.055  1.00  0.00     0.167 HD
ATOM     53  C   UNL A   1      46.681  26.921  29.693  1.00  0.00     0.031 A 
ATOM     54  C   UNL A   1      39.979  28.839  29.107  1.00  0.00     0.031 A 
ATOM     55  C   UNL A   1      46.405  28.290  30.044  1.00  0.00     0.049 A 
ATOM     56  C   UNL A   1      41.031  29.777  29.633  1.00  0.00     0.074 A 
ATOM     57  C   UNL A   1      47.294  29.268  30.456  1.00  0.00     0.029 A 
ATOM     58  N   UNL A   1      45.146  28.869  30.037  1.00  0.00    -0.354 N 
ATOM     59  N   UNL A   1      42.320  29.581  29.774  1.00  0.00    -0.248 NA
ATOM     60  C   UNL A   1      40.577  31.113  30.039  1.00  0.00     0.031 C 
ATOM     61  C   UNL A   1      46.561  30.417  30.769  1.00  0.00     0.029 A 
ATOM     62  C   UNL A   1      45.229  30.183  30.472  1.00  0.00     0.049 A 
ATOM     63  H   UNL A   1      44.316  28.416  29.764  1.00  0.00     0.167 HD
ATOM     64  C   UNL A   1      42.834  30.780  30.253  1.00  0.00     0.074 A 
ATOM     65  C   UNL A   1      41.722  31.700  30.355  1.00  0.00     0.031 C 
ATOM     66  C   UNL A   1      44.114  31.090  30.576  1.00  0.00     0.031 A 
BRANCH  53  67
ATOM     67  C   UNL A   1      48.093  26.418  29.831  1.00  0.00    -0.014 A 
ATOM     68  C   UNL A   1      49.016  26.522  28.777  1.00  0.00     0.009 A 
ATOM     69  C   UNL A   1      48.521  25.865  31.049  1.00  0.00     0.009 A 
ATOM     70  C   UNL A   1      50.321  26.046  28.925  1.00  0.00     0.001 A 
ATOM     71  C   UNL A   1      49.836  25.423  31.206  1.00  0.00     0.001 A 
ATOM     72  C   UNL A   1      50.731  25.504  30.142  1.00  0.00     0.000 A 
ENDBRANCH  53  67
BRANCH  54  73
ATOM     73  C   UNL A   1      38.560  29.272  29.002  1.00  0.00    -0.014 A 
ATOM     74  C   UNL A   1      38.046  29.755  27.789  1.00  0.00     0.009 A 
ATOM     75  C   UNL A   1      37.714  29.221  30.121  1.00  0.00     0.009 A 
ATOM     76  C   UNL A   1      36.728  30.213  27.709  1.00  0.00     0.001 A 
ATOM     77  C   UNL A   1      36.386  29.644  30.030  1.00  0.00     0.001 A 
ATOM     78  C   UNL A   1      35.899  30.152  28.828  1.00  0.00     0.000 A 
ENDBRANCH  54  73
BRANCH  66  79
ATOM     79  C   UNL A   1      44.388  32.500  31.027  1.00  0.00    -0.014 A 
ATOM     80  C   UNL A   1      44.360  32.860  32.384  1.00  0.00     0.009 A 
ATOM     81  C   UNL A   1      44.709  33.481  30.074  1.00  0.00     0.009 A 
ATOM     82  C   UNL A   1      44.600  34.180  32.770  1.00  0.00     0.001 A 
ATOM     83  C   UNL A   1      44.987  34.790  30.466  1.00  0.00     0.001 A 
ATOM     84  C   UNL A   1      44.919  35.142  31.813  1.00  0.00     0.000 A 
ENDBRANCH  66  79
ENDBRANCH  40  41
ENDBRANCH  32  35
ENDBRANCH  30  31
ENDBRANCH   1  30
TORSDOF 14
ENDMDL
MODEL 2
REMARK VINA RESULT:     -12.4      0.290      5.696
REMARK SMILES N#Cc1ccc(C(=O)N2CCC(Oc3ccccc3)(C(=O)NCCCNC(=O)c3ccc(-c4c5nc(c(-c6ccccc6)c6ccc([nH]6)c(-c6ccccc6)c6nc(c(-c7ccccc7)c7ccc4[nH]7)C=C6)C=C5)cc3)CC2)cc1
REMARK SMILES IDX 24 1 23 2 22 3 20 4 21 5 12 7 7 8 8 9 9 10 10 11 78 12 11 13
REMARK SMILES IDX 77 14 6 15 3 16 4 17 80 18 5 19 79 20 2 21 1 22 13 23 14 24
REMARK SMILES IDX 15 25 19 26 16 27 18 28 17 29 25 30 26 31 27 32 28 34 29 35
REMARK SMILES IDX 30 36 76 37 31 38 75 39 32 40 33 41 34 42 69 43 35 44 74 45
REMARK SMILES IDX 68 46 70 47 36 48 73 49 67 50 66 51 37 53 59 54 44 55 58 56
REMARK SMILES IDX 45 57 48 58 57 59 71 60 46 61 47 62 56 64 72 65 49 66 38 67
REMARK SMILES IDX 39 68 43 69 40 70 42 71 41 72 60 73 61 74 65 75 62 76 64 77
REMARK SMILES IDX 63 78 50 79 51 80 55 81 52 82 54 83 53 84
REMARK H PARENT 22 6 26 33 70 52 48 63
REMARK Flexibility Score: inf
ROOT
ATOM      1  C   UNL A   1      37.394  19.829  24.980  1.00  0.00     0.042 C 
ENDROOT
BRANCH   1   2
ATOM      2  C   UNL A   1      36.246  20.820  24.843  1.00  0.00     0.118 C 
BRANCH   2   3
ATOM      3  N   UNL A   1      35.737  21.226  26.140  1.00  0.00    -0.353 N 
ATOM      4  C   UNL A   1      34.457  21.431  26.567  1.00  0.00     0.264 C 
ATOM      5  O   UNL A   1      34.333  21.724  27.761  1.00  0.00    -0.270 OA
ATOM      6  H   UNL A   1      36.428  21.377  26.824  1.00  0.00     0.163 HD
BRANCH   4   7
ATOM      7  C   UNL A   1      33.242  21.330  25.598  1.00  0.00     0.190 C 
ATOM      8  C   UNL A   1      32.498  25.086  23.854  1.00  0.00     0.253 C 
ATOM      9  O   UNL A   1      32.221  24.932  22.668  1.00  0.00    -0.269 OA
ATOM     10  N   UNL A   1      32.969  24.053  24.647  1.00  0.00    -0.338 N 
ATOM     11  C   UNL A   1      34.032  23.221  24.126  1.00  0.00     0.124 C 
ATOM     12  C   UNL A   1      32.443  23.744  25.975  1.00  0.00     0.124 C 
ATOM     13  C   UNL A   1      33.642  21.762  24.176  1.00  0.00     0.080 C 
ATOM     14  C   UNL A   1      32.108  22.251  26.114  1.00  0.00     0.080 C 
BRANCH   8  15
ATOM     15  C   UNL A   1      32.537  26.463  24.422  1.00  0.00     0.040 A 
ATOM     16  C   UNL A   1      32.721  28.884  25.829  1.00  0.00     0.052 A 
ATOM     17  C   UNL A   1      33.863  28.318  25.251  1.00  0.00     0.020 A 
ATOM     18  C   UNL A   1      31.485  28.244  25.696  1.00  0.00     0.020 A 
ATOM     19  C   UNL A   1      33.772  27.110  24.550  1.00  0.00     0.015 A 
ATOM     20  C   UNL A   1      31.397  27.034  25.004  1.00  0.00     0.015 A 
BRANCH  16  21
ATOM     21  C   UNL A   1      32.813  30.094  26.593  1.00  0.00     0.099 C 
ATOM     22  N   UNL A   1      32.890  31.083  27.193  1.00  0.00    -0.192 NA
ENDBRANCH  16  21
ENDBRANCH   8  15
BRANCH   7  23
ATOM     23  O   UNL A   1      32.882  19.930  25.739  1.00  0.00    -0.477 OA
BRANCH  23  24
ATOM     24  C   UNL A   1      33.115  19.080  24.700  1.00  0.00     0.120 A 
ATOM     25  C   UNL A   1      32.211  19.106  23.641  1.00  0.00     0.046 A 
ATOM     26  C   UNL A   1      34.112  18.107  24.735  1.00  0.00     0.046 A 
ATOM     27  C   UNL A   1      32.366  18.225  22.571  1.00  0.00     0.004 A 
ATOM     28  C   UNL A   1      34.290  17.248  23.651  1.00  0.00     0.004 A 
ATOM     29  C   UNL A   1      33.421  17.313  22.565  1.00  0.00     0.000 A 
ENDBRANCH  23  24
ENDBRANCH   7  23
ENDBRANCH   4   7
ENDBRANCH   2   3
ENDBRANCH   1   2
BRANCH   1  30
ATOM     30  C   UNL A   1      38.636  20.418  25.634  1.00  0.00     0.118 C 
BRANCH  30  31
ATOM     31  N   UNL A   1      39.720  19.454  25.739  1.00  0.00    -0.352 N 
ATOM     32  C   UNL A   1      41.040  19.636  26.068  1.00  0.00     0.251 C 
ATOM     33  H   UNL A   1      39.468  18.523  25.542  1.00  0.00     0.163 HD
ATOM     34  O   UNL A   1      41.839  18.721  25.892  1.00  0.00    -0.269 OA
BRANCH  32  35
ATOM     35  C   UNL A   1      41.509  20.926  26.618  1.00  0.00     0.039 A 
ATOM     36  C   UNL A   1      42.029  21.879  25.738  1.00  0.00     0.014 A 
ATOM     37  C   UNL A   1      41.468  21.192  27.989  1.00  0.00     0.014 A 
ATOM     38  C   UNL A   1      42.456  23.113  26.228  1.00  0.00     0.010 A 
ATOM     39  C   UNL A   1      41.803  22.458  28.463  1.00  0.00     0.010 A 
ATOM     40  C   UNL A   1      42.312  23.429  27.590  1.00  0.00    -0.014 A 
BRANCH  40  41
ATOM     41  C   UNL A   1      42.690  24.769  28.107  1.00  0.00     0.031 A 
ATOM     42  C   UNL A   1      41.648  25.837  28.298  1.00  0.00     0.074 A 
ATOM     43  C   UNL A   1      43.985  25.035  28.372  1.00  0.00     0.049 A 
ATOM     44  N   UNL A   1      41.797  27.065  28.728  1.00  0.00    -0.248 NA
ATOM     45  C   UNL A   1      40.264  25.492  27.939  1.00  0.00     0.031 C 
ATOM     46  C   UNL A   1      45.095  24.097  28.196  1.00  0.00     0.029 A 
ATOM     47  N   UNL A   1      44.584  26.173  28.851  1.00  0.00    -0.354 N 
ATOM     48  C   UNL A   1      40.531  27.637  28.685  1.00  0.00     0.074 A 
ATOM     49  C   UNL A   1      39.639  26.645  28.128  1.00  0.00     0.031 C 
ATOM     50  C   UNL A   1      46.233  24.682  28.604  1.00  0.00     0.029 A 
ATOM     51  C   UNL A   1      45.942  26.051  29.017  1.00  0.00     0.049 A 
ATOM     52  H   UNL A   1      44.088  26.998  29.056  1.00  0.00     0.167 HD
ATOM     53  C   UNL A   1      40.140  28.869  29.092  1.00  0.00     0.031 A 
ATOM     54  C   UNL A   1      46.856  26.942  29.445  1.00  0.00     0.031 A 
ATOM     55  C   UNL A   1      41.032  29.859  29.638  1.00  0.00     0.049 A 
ATOM     56  C   UNL A   1      46.402  28.320  29.845  1.00  0.00     0.074 A 
ATOM     57  C   UNL A   1      40.725  31.121  30.118  1.00  0.00     0.029 A 
ATOM     58  N   UNL A   1      42.403  29.705  29.765  1.00  0.00    -0.354 N 
ATOM     59  N   UNL A   1      45.191  28.820  29.865  1.00  0.00    -0.248 NA
ATOM     60  C   UNL A   1      47.445  29.251  30.295  1.00  0.00     0.031 C 
ATOM     61  C   UNL A   1      41.920  31.757  30.465  1.00  0.00     0.029 A 
ATOM     62  C   UNL A   1      42.962  30.863  30.283  1.00  0.00     0.049 A 
ATOM     63  H   UNL A   1      42.906  28.893  29.524  1.00  0.00     0.167 HD
ATOM     64  C   UNL A   1      45.322  30.110  30.361  1.00  0.00     0.074 A 
ATOM     65  C   UNL A   1      46.727  30.306  30.649  1.00  0.00     0.031 C 
ATOM     66  C   UNL A   1      44.364  31.048  30.561  1.00  0.00     0.031 A 
BRANCH  53  67
ATOM     67  C   UNL A   1      38.684  29.220  28.944  1.00  0.00    -0.014 A 
ATOM     68  C   UNL A   1      38.160  29.678  27.724  1.00  0.00     0.009 A 
ATOM     69  C   UNL A   1      37.811  29.053  30.031  1.00  0.00     0.009 A 
ATOM     70  C   UNL A   1      36.806  30.000  27.608  1.00  0.00     0.001 A 
ATOM     71  C   UNL A   1      36.451  29.341  29.902  1.00  0.00     0.001 A 
ATOM     72  C   UNL A   1      35.952  29.825  28.695  1.00  0.00     0.000 A 
ENDBRANCH  53  67
BRANCH  54  73
ATOM     73  C   UNL A   1      48.292  26.564  29.522  1.00  0.00    -0.014 A 
ATOM     74  C   UNL A   1      49.158  26.809  28.446  1.00  0.00     0.009 A 
ATOM     75  C   UNL A   1      48.803  25.937  30.670  1.00  0.00     0.009 A 
ATOM     76  C   UNL A   1      50.494  26.402  28.502  1.00  0.00     0.001 A 
ATOM     77  C   UNL A   1      50.147  25.564  30.739  1.00  0.00     0.001 A 
ATOM     78  C   UNL A   1      50.987  25.784  29.650  1.00  0.00     0.000 A 
ENDBRANCH  54  73
BRANCH  66  79
ATOM     79  C   UNL A   1      44.798  32.358  31.165  1.00  0.00    -0.014 A 
ATOM     80  C   UNL A   1      44.849  32.550  32.554  1.00  0.00     0.009 A 
ATOM     81  C   UNL A   1      45.190  33.411  30.321  1.00  0.00     0.009 A 
ATOM     82  C   UNL A   1      45.237  33.783  33.083  1.00  0.00     0.001 A 
ATOM     83  C   UNL A   1      45.615  34.628  30.854  1.00  0.00     0.001 A 
ATOM     84  C   UNL A   1      45.625  34.818  32.234  1.00  0.00     0.000 A 
ENDBRANCH  66  79
ENDBRANCH  40  41
ENDBRANCH  32  35
ENDBRANCH  30  31
ENDBRANCH   1  30
TORSDOF 14
ENDMDL
MODEL 3
REMARK VINA RESULT:     -12.2      3.158      9.164
REMARK SMILES N#Cc1ccc(C(=O)N2CCC(Oc3ccccc3)(C(=O)NCCCNC(=O)c3ccc(-c4c5nc(c(-c6ccccc6)c6ccc([nH]6)c(-c6ccccc6)c6nc(c(-c7ccccc7)c7ccc4[nH]7)C=C6)C=C5)cc3)CC2)cc1
REMARK SMILES IDX 24 1 23 2 22 3 20 4 21 5 12 7 7 8 8 9 9 10 10 11 78 12 11 13
REMARK SMILES IDX 77 14 6 15 3 16 4 17 80 18 5 19 79 20 2 21 1 22 13 23 14 24
REMARK SMILES IDX 15 25 19 26 16 27 18 28 17 29 25 30 26 31 27 32 28 34 29 35
REMARK SMILES IDX 30 36 76 37 31 38 75 39 32 40 33 41 34 42 69 43 35 44 74 45
REMARK SMILES IDX 68 46 70 47 36 48 73 49 67 50 66 51 37 53 59 54 44 55 58 56
REMARK SMILES IDX 45 57 48 58 57 59 71 60 46 61 47 62 56 64 72 65 49 66 38 67
REMARK SMILES IDX 39 68 43 69 40 70 42 71 41 72 60 73 61 74 65 75 62 76 64 77
REMARK SMILES IDX 63 78 50 79 51 80 55 81 52 82 54 83 53 84
REMARK H PARENT 22 6 26 33 70 52 48 63
REMARK Flexibility Score: inf
ROOT
ATOM      1  C   UNL A   1      31.395  31.512  26.225  1.00  0.00     0.042 C 
ENDROOT
BRANCH   1   2
ATOM      2  C   UNL A   1      31.561  30.072  25.758  1.00  0.00     0.118 C 
BRANCH   2   3
ATOM      3  N   UNL A   1      32.721  29.922  24.898  1.00  0.00    -0.353 N 
ATOM      4  C   UNL A   1      32.901  29.168  23.775  1.00  0.00     0.264 C 
ATOM      5  O   UNL A   1      33.999  29.292  23.220  1.00  0.00    -0.270 OA
ATOM      6  H   UNL A   1      33.504  30.452  25.168  1.00  0.00     0.163 HD
BRANCH   4   7
ATOM      7  C   UNL A   1      31.803  28.196  23.252  1.00  0.00     0.190 C 
ATOM      8  C   UNL A   1      32.426  24.355  24.854  1.00  0.00     0.253 C 
ATOM      9  O   UNL A   1      31.343  23.867  25.166  1.00  0.00    -0.269 OA
ATOM     10  N   UNL A   1      32.562  25.679  24.470  1.00  0.00    -0.338 N 
ATOM     11  C   UNL A   1      31.920  26.694  25.277  1.00  0.00     0.124 C 
ATOM     12  C   UNL A   1      33.304  26.109  23.287  1.00  0.00     0.124 C 
ATOM     13  C   UNL A   1      31.029  27.568  24.426  1.00  0.00     0.080 C 
ATOM     14  C   UNL A   1      32.476  27.073  22.424  1.00  0.00     0.080 C 
BRANCH   8  15
ATOM     15  C   UNL A   1      33.674  23.575  25.093  1.00  0.00     0.040 A 
ATOM     16  C   UNL A   1      36.203  22.383  25.324  1.00  0.00     0.052 A 
ATOM     17  C   UNL A   1      35.832  23.417  26.191  1.00  0.00     0.020 A 
ATOM     18  C   UNL A   1      35.307  21.939  24.347  1.00  0.00     0.020 A 
ATOM     19  C   UNL A   1      34.571  24.013  26.075  1.00  0.00     0.015 A 
ATOM     20  C   UNL A   1      34.052  22.541  24.226  1.00  0.00     0.015 A 
BRANCH  16  21
ATOM     21  C   UNL A   1      37.512  21.802  25.401  1.00  0.00     0.099 C 
ATOM     22  N   UNL A   1      38.578  21.350  25.465  1.00  0.00    -0.192 NA
ENDBRANCH  16  21
ENDBRANCH   8  15
BRANCH   7  23
ATOM     23  O   UNL A   1      31.025  29.077  22.401  1.00  0.00    -0.477 OA
BRANCH  23  24
ATOM     24  C   UNL A   1      29.765  29.426  22.787  1.00  0.00     0.120 A 
ATOM     25  C   UNL A   1      28.775  28.452  22.685  1.00  0.00     0.046 A 
ATOM     26  C   UNL A   1      29.418  30.733  23.124  1.00  0.00     0.046 A 
ATOM     27  C   UNL A   1      27.457  28.762  23.017  1.00  0.00     0.004 A 
ATOM     28  C   UNL A   1      28.107  31.037  23.489  1.00  0.00     0.004 A 
ATOM     29  C   UNL A   1      27.127  30.048  23.443  1.00  0.00     0.000 A 
ENDBRANCH  23  24
ENDBRANCH   7  23
ENDBRANCH   4   7
ENDBRANCH   2   3
ENDBRANCH   1   2
BRANCH   1  30
ATOM     30  C   UNL A   1      32.623  32.071  26.930  1.00  0.00     0.118 C 
BRANCH  30  31
ATOM     31  N   UNL A   1      32.419  33.431  27.406  1.00  0.00    -0.352 N 
ATOM     32  C   UNL A   1      33.130  34.164  28.322  1.00  0.00     0.251 C 
ATOM     33  H   UNL A   1      31.650  33.898  27.009  1.00  0.00     0.163 HD
ATOM     34  O   UNL A   1      32.666  35.221  28.742  1.00  0.00    -0.269 OA
BRANCH  32  35
ATOM     35  C   UNL A   1      34.438  33.688  28.819  1.00  0.00     0.039 A 
ATOM     36  C   UNL A   1      34.474  32.940  29.999  1.00  0.00     0.014 A 
ATOM     37  C   UNL A   1      35.627  33.995  28.152  1.00  0.00     0.014 A 
ATOM     38  C   UNL A   1      35.693  32.459  30.476  1.00  0.00     0.010 A 
ATOM     39  C   UNL A   1      36.828  33.433  28.575  1.00  0.00     0.010 A 
ATOM     40  C   UNL A   1      36.877  32.668  29.748  1.00  0.00    -0.014 A 
BRANCH  40  41
ATOM     41  C   UNL A   1      38.167  32.091  30.206  1.00  0.00     0.031 A 
ATOM     42  C   UNL A   1      38.650  30.771  29.669  1.00  0.00     0.074 A 
ATOM     43  C   UNL A   1      38.890  32.744  31.139  1.00  0.00     0.049 A 
ATOM     44  N   UNL A   1      39.743  30.113  29.962  1.00  0.00    -0.248 NA
ATOM     45  C   UNL A   1      37.783  30.091  28.693  1.00  0.00     0.031 C 
ATOM     46  C   UNL A   1      38.515  34.014  31.765  1.00  0.00     0.029 A 
ATOM     47  N   UNL A   1      40.093  32.430  31.718  1.00  0.00    -0.354 N 
ATOM     48  C   UNL A   1      39.691  28.943  29.214  1.00  0.00     0.074 A 
ATOM     49  C   UNL A   1      38.432  28.951  28.503  1.00  0.00     0.031 C 
ATOM     50  C   UNL A   1      39.490  34.392  32.607  1.00  0.00     0.029 A 
ATOM     51  C   UNL A   1      40.530  33.368  32.622  1.00  0.00     0.049 A 
ATOM     52  H   UNL A   1      40.596  31.611  31.506  1.00  0.00     0.167 HD
ATOM     53  C   UNL A   1      40.617  27.959  29.109  1.00  0.00     0.031 A 
ATOM     54  C   UNL A   1      41.638  33.400  33.386  1.00  0.00     0.031 A 
ATOM     55  C   UNL A   1      41.867  27.947  29.825  1.00  0.00     0.049 A 
ATOM     56  C   UNL A   1      42.627  32.271  33.287  1.00  0.00     0.074 A 
ATOM     57  C   UNL A   1      42.889  27.016  29.754  1.00  0.00     0.029 A 
ATOM     58  N   UNL A   1      42.258  28.903  30.748  1.00  0.00    -0.354 N 
ATOM     59  N   UNL A   1      42.596  31.207  32.521  1.00  0.00    -0.248 NA
ATOM     60  C   UNL A   1      43.812  32.356  34.151  1.00  0.00     0.031 C 
ATOM     61  C   UNL A   1      43.865  27.370  30.691  1.00  0.00     0.029 A 
ATOM     62  C   UNL A   1      43.492  28.565  31.283  1.00  0.00     0.049 A 
ATOM     63  H   UNL A   1      41.737  29.703  30.990  1.00  0.00     0.167 HD
ATOM     64  C   UNL A   1      43.771  30.516  32.786  1.00  0.00     0.074 A 
ATOM     65  C   UNL A   1      44.501  31.292  33.765  1.00  0.00     0.031 C 
ATOM     66  C   UNL A   1      44.207  29.343  32.263  1.00  0.00     0.031 A 
BRANCH  53  67
ATOM     67  C   UNL A   1      40.302  26.802  28.198  1.00  0.00    -0.014 A 
ATOM     68  C   UNL A   1      40.806  26.742  26.889  1.00  0.00     0.009 A 
ATOM     69  C   UNL A   1      39.522  25.735  28.670  1.00  0.00     0.009 A 
ATOM     70  C   UNL A   1      40.500  25.659  26.059  1.00  0.00     0.001 A 
ATOM     71  C   UNL A   1      39.247  24.638  27.851  1.00  0.00     0.001 A 
ATOM     72  C   UNL A   1      39.727  24.606  26.544  1.00  0.00     0.000 A 
ENDBRANCH  53  67
BRANCH  54  73
ATOM     73  C   UNL A   1      41.878  34.540  34.311  1.00  0.00    -0.014 A 
ATOM     74  C   UNL A   1      41.434  34.490  35.641  1.00  0.00     0.009 A 
ATOM     75  C   UNL A   1      42.537  35.695  33.862  1.00  0.00     0.009 A 
ATOM     76  C   UNL A   1      41.613  35.585  36.491  1.00  0.00     0.001 A 
ATOM     77  C   UNL A   1      42.748  36.774  34.723  1.00  0.00     0.001 A 
ATOM     78  C   UNL A   1      42.274  36.723  36.032  1.00  0.00     0.000 A 
ENDBRANCH  54  73
BRANCH  66  79
ATOM     79  C   UNL A   1      45.560  28.852  32.706  1.00  0.00    -0.014 A 
ATOM     80  C   UNL A   1      46.742  29.280  32.081  1.00  0.00     0.009 A 
ATOM     81  C   UNL A   1      45.651  27.963  33.790  1.00  0.00     0.009 A 
ATOM     82  C   UNL A   1      47.980  28.791  32.503  1.00  0.00     0.001 A 
ATOM     83  C   UNL A   1      46.892  27.508  34.234  1.00  0.00     0.001 A 
ATOM     84  C   UNL A   1      48.055  27.911  33.581  1.00  0.00     0.000 A 
ENDBRANCH  66  79
ENDBRANCH  40  41
ENDBRANCH  32  35
ENDBRANCH  30  31
ENDBRANCH   1  30
TORSDOF 14
ENDMDL
