MODEL 1
REMARK VINA RESULT:     -12.1      0.000      0.000
REMARK SMILES Cc1nn(C)cc1-c1cc(C(=O)NCCCNC(=O)c2ccc(-c3c4nc(c(-c5ccccc5)c5ccc([nH]5)c(-c5ccccc5)c5nc(c(-c6ccccc6)c6ccc3[nH]6)C=C5)C=C4)cc2)n2nc(C)c(Br)c2n1
REMARK SMILES IDX 15 1 14 2 13 3 11 4 12 5 10 7 8 8 9 9 75 10 74 11 68 12
REMARK SMILES IDX 72 13 69 14 70 15 73 16 71 17 7 18 1 19 2 20 3 21 4 22 6 23
REMARK SMILES IDX 5 24 16 25 17 26 18 27 19 29 20 30 21 31 67 32 22 33 66 34
REMARK SMILES IDX 23 35 24 36 25 37 60 38 26 39 65 40 59 41 61 42 27 43 64 44
REMARK SMILES IDX 58 45 57 46 28 48 50 49 35 50 49 51 36 52 39 53 48 54 62 55
REMARK SMILES IDX 37 56 38 57 47 59 63 60 40 61 29 62 30 63 34 64 31 65 33 66
REMARK SMILES IDX 32 67 51 68 52 69 56 70 53 71 55 72 54 73 41 74 42 75 46 76
REMARK SMILES IDX 43 77 45 78 44 79
REMARK H PARENT 13 6 17 28 61 47 39 58
REMARK Flexibility Score: inf
ROOT
ATOM      1  C   UNL A   1      34.635  30.083  27.501  1.00  0.00     0.042 C 
ENDROOT
BRANCH   1   2
ATOM      2  C   UNL A   1      34.063  29.152  26.414  1.00  0.00     0.118 C 
BRANCH   2   3
ATOM      3  N   UNL A   1      32.925  28.386  26.900  1.00  0.00    -0.351 N 
ATOM      4  C   UNL A   1      31.836  27.778  26.352  1.00  0.00     0.270 C 
ATOM      5  O   UNL A   1      31.114  27.203  27.165  1.00  0.00    -0.268 OA
ATOM      6  H   UNL A   1      32.950  28.278  27.878  1.00  0.00     0.163 HD
BRANCH   4   7
ATOM      7  C   UNL A   1      31.502  27.776  24.889  1.00  0.00     0.134 A 
ATOM      8  C   UNL A   1      30.262  28.445  22.936  1.00  0.00     0.079 A 
ATOM      9  C   UNL A   1      30.470  28.488  24.403  1.00  0.00     0.063 A 
ATOM     10  N   UNL A   1      30.857  27.668  22.092  1.00  0.00    -0.227 NA
ATOM     11  C   UNL A   1      31.820  26.858  22.630  1.00  0.00     0.171 A 
ATOM     12  N   UNL A   1      32.199  26.927  23.990  1.00  0.00    -0.208 N 
ATOM     13  C   UNL A   1      32.581  25.858  22.078  1.00  0.00     0.085 A 
ATOM     14  N   UNL A   1      33.230  26.065  24.232  1.00  0.00    -0.170 NA
ATOM     15  C   UNL A   1      33.416  25.383  23.098  1.00  0.00     0.076 A 
ATOM     16  Br  UNL A   1      32.525  25.221  20.318  1.00  0.00    -0.045 Br
ATOM     17  C   UNL A   1      34.409  24.280  23.043  1.00  0.00     0.070 C 
BRANCH   8  18
ATOM     18  C   UNL A   1      29.279  29.390  22.472  1.00  0.00     0.041 A 
ATOM     19  C   UNL A   1      27.037  28.485  23.499  1.00  0.00     0.069 C 
ATOM     20  C   UNL A   1      27.871  29.399  22.676  1.00  0.00     0.069 A 
ATOM     21  N   UNL A   1      27.284  30.401  22.009  1.00  0.00    -0.178 NA
ATOM     22  N   UNL A   1      28.307  31.057  21.436  1.00  0.00    -0.275 N 
ATOM     23  C   UNL A   1      29.524  30.507  21.703  1.00  0.00     0.119 A 
ATOM     24  C   UNL A   1      28.033  32.198  20.595  1.00  0.00     0.173 C 
ENDBRANCH   8  18
ENDBRANCH   4   7
ENDBRANCH   2   3
ENDBRANCH   1   2
BRANCH   1  25
ATOM     25  C   UNL A   1      33.641  31.151  28.001  1.00  0.00     0.118 C 
BRANCH  25  26
ATOM     26  N   UNL A   1      34.158  32.483  27.728  1.00  0.00    -0.352 N 
ATOM     27  C   UNL A   1      35.055  33.271  28.390  1.00  0.00     0.251 C 
ATOM     28  H   UNL A   1      33.791  32.893  26.912  1.00  0.00     0.163 HD
ATOM     29  O   UNL A   1      34.959  34.487  28.242  1.00  0.00    -0.269 OA
BRANCH  27  30
ATOM     30  C   UNL A   1      36.170  32.738  29.202  1.00  0.00     0.039 A 
ATOM     31  C   UNL A   1      37.313  32.313  28.508  1.00  0.00     0.014 A 
ATOM     32  C   UNL A   1      36.029  32.424  30.556  1.00  0.00     0.014 A 
ATOM     33  C   UNL A   1      38.297  31.568  29.154  1.00  0.00     0.010 A 
ATOM     34  C   UNL A   1      37.021  31.674  31.204  1.00  0.00     0.010 A 
ATOM     35  C   UNL A   1      38.156  31.231  30.506  1.00  0.00    -0.014 A 
BRANCH  35  36
ATOM     36  C   UNL A   1      39.267  30.494  31.148  1.00  0.00     0.031 A 
ATOM     37  C   UNL A   1      39.454  29.080  30.698  1.00  0.00     0.074 A 
ATOM     38  C   UNL A   1      40.334  31.136  31.673  1.00  0.00     0.049 A 
ATOM     39  N   UNL A   1      40.131  28.759  29.633  1.00  0.00    -0.248 NA
ATOM     40  C   UNL A   1      38.675  27.975  31.258  1.00  0.00     0.031 C 
ATOM     41  C   UNL A   1      40.916  32.354  31.091  1.00  0.00     0.029 A 
ATOM     42  N   UNL A   1      41.247  30.750  32.628  1.00  0.00    -0.354 N 
ATOM     43  C   UNL A   1      39.832  27.439  29.339  1.00  0.00     0.074 A 
ATOM     44  C   UNL A   1      38.935  26.991  30.382  1.00  0.00     0.031 C 
ATOM     45  C   UNL A   1      42.166  32.512  31.577  1.00  0.00     0.029 A 
ATOM     46  C   UNL A   1      42.414  31.512  32.611  1.00  0.00     0.049 A 
ATOM     47  H   UNL A   1      41.091  30.011  33.260  1.00  0.00     0.167 HD
ATOM     48  C   UNL A   1      40.322  26.794  28.246  1.00  0.00     0.031 A 
ATOM     49  C   UNL A   1      43.644  31.058  32.981  1.00  0.00     0.031 A 
ATOM     50  C   UNL A   1      41.216  27.557  27.430  1.00  0.00     0.049 A 
ATOM     51  C   UNL A   1      43.971  30.165  31.808  1.00  0.00     0.074 A 
ATOM     52  C   UNL A   1      41.173  28.267  26.251  1.00  0.00     0.029 A 
ATOM     53  N   UNL A   1      42.504  27.711  27.879  1.00  0.00    -0.354 N 
ATOM     54  N   UNL A   1      44.372  30.544  30.626  1.00  0.00    -0.248 NA
ATOM     55  C   UNL A   1      43.464  28.790  31.870  1.00  0.00     0.031 C 
ATOM     56  C   UNL A   1      42.278  29.173  26.313  1.00  0.00     0.029 A 
ATOM     57  C   UNL A   1      42.905  28.976  27.542  1.00  0.00     0.049 A 
ATOM     58  H   UNL A   1      43.042  27.037  28.355  1.00  0.00     0.167 HD
ATOM     59  C   UNL A   1      43.874  29.585  29.742  1.00  0.00     0.074 A 
ATOM     60  C   UNL A   1      43.341  28.525  30.576  1.00  0.00     0.031 C 
ATOM     61  C   UNL A   1      43.743  29.786  28.398  1.00  0.00     0.031 A 
BRANCH  48  62
ATOM     62  C   UNL A   1      40.120  25.362  27.944  1.00  0.00    -0.014 A 
ATOM     63  C   UNL A   1      41.167  24.474  28.246  1.00  0.00     0.009 A 
ATOM     64  C   UNL A   1      39.041  24.907  27.178  1.00  0.00     0.009 A 
ATOM     65  C   UNL A   1      41.158  23.170  27.758  1.00  0.00     0.001 A 
ATOM     66  C   UNL A   1      39.031  23.592  26.699  1.00  0.00     0.001 A 
ATOM     67  C   UNL A   1      40.093  22.731  26.977  1.00  0.00     0.000 A 
ENDBRANCH  48  62
BRANCH  49  68
ATOM     68  C   UNL A   1      43.776  30.585  34.401  1.00  0.00    -0.014 A 
ATOM     69  C   UNL A   1      45.059  30.249  34.881  1.00  0.00     0.009 A 
ATOM     70  C   UNL A   1      42.702  30.437  35.292  1.00  0.00     0.009 A 
ATOM     71  C   UNL A   1      45.276  29.910  36.221  1.00  0.00     0.001 A 
ATOM     72  C   UNL A   1      42.920  30.125  36.642  1.00  0.00     0.001 A 
ATOM     73  C   UNL A   1      44.208  29.881  37.109  1.00  0.00     0.000 A 
ENDBRANCH  49  68
BRANCH  61  74
ATOM     74  C   UNL A   1      44.319  31.048  27.847  1.00  0.00    -0.014 A 
ATOM     75  C   UNL A   1      43.672  32.269  28.067  1.00  0.00     0.009 A 
ATOM     76  C   UNL A   1      45.561  31.041  27.188  1.00  0.00     0.009 A 
ATOM     77  C   UNL A   1      44.274  33.465  27.672  1.00  0.00     0.001 A 
ATOM     78  C   UNL A   1      46.168  32.238  26.808  1.00  0.00     0.001 A 
ATOM     79  C   UNL A   1      45.527  33.450  27.058  1.00  0.00     0.000 A 
ENDBRANCH  61  74
ENDBRANCH  35  36
ENDBRANCH  27  30
ENDBRANCH  25  26
ENDBRANCH   1  25
TORSDOF 11
ENDMDL
MODEL 2
REMARK VINA RESULT:     -11.5      1.709      3.364
REMARK SMILES Cc1nn(C)cc1-c1cc(C(=O)NCCCNC(=O)c2ccc(-c3c4nc(c(-c5ccccc5)c5ccc([nH]5)c(-c5ccccc5)c5nc(c(-c6ccccc6)c6ccc3[nH]6)C=C5)C=C4)cc2)n2nc(C)c(Br)c2n1
REMARK SMILES IDX 15 1 14 2 13 3 11 4 12 5 10 7 8 8 9 9 75 10 74 11 68 12
REMARK SMILES IDX 72 13 69 14 70 15 73 16 71 17 7 18 1 19 2 20 3 21 4 22 6 23
REMARK SMILES IDX 5 24 16 25 17 26 18 27 19 29 20 30 21 31 67 32 22 33 66 34
REMARK SMILES IDX 23 35 24 36 25 37 60 38 26 39 65 40 59 41 61 42 27 43 64 44
REMARK SMILES IDX 58 45 57 46 28 48 50 49 35 50 49 51 36 52 39 53 48 54 62 55
REMARK SMILES IDX 37 56 38 57 47 59 63 60 40 61 29 62 30 63 34 64 31 65 33 66
REMARK SMILES IDX 32 67 51 68 52 69 56 70 53 71 55 72 54 73 41 74 42 75 46 76
REMARK SMILES IDX 43 77 45 78 44 79
REMARK H PARENT 13 6 17 28 61 47 39 58
REMARK Flexibility Score: inf
ROOT
ATOM      1  C   UNL A   1      34.785  30.138  27.298  1.00  0.00     0.042 C 
ENDROOT
BRANCH   1   2
ATOM      2  C   UNL A   1      34.141  28.962  26.538  1.00  0.00     0.118 C 
BRANCH   2   3
ATOM      3  N   UNL A   1      34.341  29.071  25.101  1.00  0.00    -0.351 N 
ATOM      4  C   UNL A   1      33.697  28.645  23.978  1.00  0.00     0.270 C 
ATOM      5  O   UNL A   1      34.228  28.996  22.926  1.00  0.00    -0.268 OA
ATOM      6  H   UNL A   1      35.151  29.586  24.884  1.00  0.00     0.163 HD
BRANCH   4   7
ATOM      7  C   UNL A   1      32.443  27.823  23.970  1.00  0.00     0.134 A 
ATOM      8  C   UNL A   1      31.182  25.770  23.981  1.00  0.00     0.079 A 
ATOM      9  C   UNL A   1      32.485  26.479  23.941  1.00  0.00     0.063 A 
ATOM     10  N   UNL A   1      30.009  26.299  23.872  1.00  0.00    -0.227 NA
ATOM     11  C   UNL A   1      29.996  27.664  23.776  1.00  0.00     0.171 A 
ATOM     12  N   UNL A   1      31.170  28.445  23.877  1.00  0.00    -0.208 N 
ATOM     13  C   UNL A   1      28.972  28.552  23.559  1.00  0.00     0.085 A 
ATOM     14  N   UNL A   1      30.854  29.772  23.824  1.00  0.00    -0.170 NA
ATOM     15  C   UNL A   1      29.543  29.831  23.574  1.00  0.00     0.076 A 
ATOM     16  Br  UNL A   1      27.163  28.160  23.278  1.00  0.00    -0.045 Br
ATOM     17  C   UNL A   1      28.883  31.143  23.353  1.00  0.00     0.070 C 
BRANCH   8  18
ATOM     18  C   UNL A   1      31.315  24.347  24.158  1.00  0.00     0.041 A 
ATOM     19  C   UNL A   1      30.418  23.952  26.596  1.00  0.00     0.069 C 
ATOM     20  C   UNL A   1      31.024  23.549  25.300  1.00  0.00     0.069 A 
ATOM     21  N   UNL A   1      31.363  22.268  25.105  1.00  0.00    -0.178 NA
ATOM     22  N   UNL A   1      31.809  22.237  23.838  1.00  0.00    -0.275 N 
ATOM     23  C   UNL A   1      31.778  23.449  23.219  1.00  0.00     0.119 A 
ATOM     24  C   UNL A   1      32.301  20.994  23.292  1.00  0.00     0.173 C 
ENDBRANCH   8  18
ENDBRANCH   4   7
ENDBRANCH   2   3
ENDBRANCH   1   2
BRANCH   1  25
ATOM     25  C   UNL A   1      33.768  31.107  27.935  1.00  0.00     0.118 C 
BRANCH  25  26
ATOM     26  N   UNL A   1      34.222  32.481  27.781  1.00  0.00    -0.352 N 
ATOM     27  C   UNL A   1      35.071  33.254  28.521  1.00  0.00     0.251 C 
ATOM     28  H   UNL A   1      33.846  32.940  26.996  1.00  0.00     0.163 HD
ATOM     29  O   UNL A   1      34.917  34.471  28.472  1.00  0.00    -0.269 OA
BRANCH  27  30
ATOM     30  C   UNL A   1      36.201  32.708  29.304  1.00  0.00     0.039 A 
ATOM     31  C   UNL A   1      37.300  32.225  28.579  1.00  0.00     0.014 A 
ATOM     32  C   UNL A   1      36.105  32.442  30.672  1.00  0.00     0.014 A 
ATOM     33  C   UNL A   1      38.286  31.468  29.209  1.00  0.00     0.010 A 
ATOM     34  C   UNL A   1      37.098  31.679  31.303  1.00  0.00     0.010 A 
ATOM     35  C   UNL A   1      38.189  31.178  30.575  1.00  0.00    -0.014 A 
BRANCH  35  36
ATOM     36  C   UNL A   1      39.302  30.424  31.196  1.00  0.00     0.031 A 
ATOM     37  C   UNL A   1      39.473  29.014  30.727  1.00  0.00     0.074 A 
ATOM     38  C   UNL A   1      40.379  31.051  31.718  1.00  0.00     0.049 A 
ATOM     39  N   UNL A   1      40.136  28.702  29.650  1.00  0.00    -0.248 NA
ATOM     40  C   UNL A   1      38.692  27.909  31.280  1.00  0.00     0.031 C 
ATOM     41  C   UNL A   1      40.964  32.272  31.145  1.00  0.00     0.029 A 
ATOM     42  N   UNL A   1      41.299  30.647  32.658  1.00  0.00    -0.354 N 
ATOM     43  C   UNL A   1      39.823  27.389  29.342  1.00  0.00     0.074 A 
ATOM     44  C   UNL A   1      38.934  26.934  30.389  1.00  0.00     0.031 C 
ATOM     45  C   UNL A   1      42.220  32.415  31.619  1.00  0.00     0.029 A 
ATOM     46  C   UNL A   1      42.472  31.400  32.638  1.00  0.00     0.049 A 
ATOM     47  H   UNL A   1      41.144  29.901  33.282  1.00  0.00     0.167 HD
ATOM     48  C   UNL A   1      40.297  26.754  28.237  1.00  0.00     0.031 A 
ATOM     49  C   UNL A   1      43.702  30.932  32.989  1.00  0.00     0.031 A 
ATOM     50  C   UNL A   1      41.188  27.521  27.420  1.00  0.00     0.049 A 
ATOM     51  C   UNL A   1      44.009  30.052  31.801  1.00  0.00     0.074 A 
ATOM     52  C   UNL A   1      41.138  28.246  26.251  1.00  0.00     0.029 A 
ATOM     53  N   UNL A   1      42.482  27.659  27.857  1.00  0.00    -0.354 N 
ATOM     54  N   UNL A   1      44.401  30.443  30.620  1.00  0.00    -0.248 NA
ATOM     55  C   UNL A   1      43.493  28.681  31.851  1.00  0.00     0.031 C 
ATOM     56  C   UNL A   1      42.250  29.143  26.312  1.00  0.00     0.029 A 
ATOM     57  C   UNL A   1      42.889  28.925  27.532  1.00  0.00     0.049 A 
ATOM     58  H   UNL A   1      43.019  26.975  28.319  1.00  0.00     0.167 HD
ATOM     59  C   UNL A   1      43.886  29.499  29.729  1.00  0.00     0.074 A 
ATOM     60  C   UNL A   1      43.354  28.433  30.555  1.00  0.00     0.031 C 
ATOM     61  C   UNL A   1      43.742  29.718  28.389  1.00  0.00     0.031 A 
BRANCH  48  62
ATOM     62  C   UNL A   1      40.081  25.327  27.919  1.00  0.00    -0.014 A 
ATOM     63  C   UNL A   1      41.118  24.426  28.214  1.00  0.00     0.009 A 
ATOM     64  C   UNL A   1      39.000  24.892  27.145  1.00  0.00     0.009 A 
ATOM     65  C   UNL A   1      41.096  23.126  27.712  1.00  0.00     0.001 A 
ATOM     66  C   UNL A   1      38.977  23.582  26.652  1.00  0.00     0.001 A 
ATOM     67  C   UNL A   1      40.030  22.707  26.923  1.00  0.00     0.000 A 
ENDBRANCH  48  62
BRANCH  49  68
ATOM     68  C   UNL A   1      43.845  30.440  34.401  1.00  0.00    -0.014 A 
ATOM     69  C   UNL A   1      42.969  30.948  35.382  1.00  0.00     0.009 A 
ATOM     70  C   UNL A   1      44.809  29.512  34.825  1.00  0.00     0.009 A 
ATOM     71  C   UNL A   1      42.967  30.455  36.691  1.00  0.00     0.001 A 
ATOM     72  C   UNL A   1      44.792  28.997  36.129  1.00  0.00     0.001 A 
ATOM     73  C   UNL A   1      43.859  29.454  37.055  1.00  0.00     0.000 A 
ENDBRANCH  49  68
BRANCH  61  74
ATOM     74  C   UNL A   1      44.322  30.983  27.848  1.00  0.00    -0.014 A 
ATOM     75  C   UNL A   1      45.426  30.937  26.990  1.00  0.00     0.009 A 
ATOM     76  C   UNL A   1      43.712  32.221  28.112  1.00  0.00     0.009 A 
ATOM     77  C   UNL A   1      45.887  32.102  26.374  1.00  0.00     0.001 A 
ATOM     78  C   UNL A   1      44.165  33.382  27.484  1.00  0.00     0.001 A 
ATOM     79  C   UNL A   1      45.248  33.320  26.609  1.00  0.00     0.000 A 
ENDBRANCH  61  74
ENDBRANCH  35  36
ENDBRANCH  27  30
ENDBRANCH  25  26
ENDBRANCH   1  25
TORSDOF 11
ENDMDL
MODEL 3
REMARK VINA RESULT:     -11.4      3.019      7.119
REMARK SMILES Cc1nn(C)cc1-c1cc(C(=O)NCCCNC(=O)c2ccc(-c3c4nc(c(-c5ccccc5)c5ccc([nH]5)c(-c5ccccc5)c5nc(c(-c6ccccc6)c6ccc3[nH]6)C=C5)C=C4)cc2)n2nc(C)c(Br)c2n1
REMARK SMILES IDX 15 1 14 2 13 3 11 4 12 5 10 7 8 8 9 9 75 10 74 11 68 12
REMARK SMILES IDX 72 13 69 14 70 15 73 16 71 17 7 18 1 19 2 20 3 21 4 22 6 23
REMARK SMILES IDX 5 24 16 25 17 26 18 27 19 29 20 30 21 31 67 32 22 33 66 34
REMARK SMILES IDX 23 35 24 36 25 37 60 38 26 39 65 40 59 41 61 42 27 43 64 44
REMARK SMILES IDX 58 45 57 46 28 48 50 49 35 50 49 51 36 52 39 53 48 54 62 55
REMARK SMILES IDX 37 56 38 57 47 59 63 60 40 61 29 62 30 63 34 64 31 65 33 66
REMARK SMILES IDX 32 67 51 68 52 69 56 70 53 71 55 72 54 73 41 74 42 75 46 76
REMARK SMILES IDX 43 77 45 78 44 79
REMARK H PARENT 13 6 17 28 61 47 39 58
REMARK Flexibility Score: inf
ROOT
ATOM      1  C   UNL A   1      36.291  23.174  25.955  1.00  0.00     0.042 C 
ENDROOT
BRANCH   1   2
ATOM      2  C   UNL A   1      35.668  22.000  26.735  1.00  0.00     0.118 C 
BRANCH   2   3
ATOM      3  N   UNL A   1      34.434  22.386  27.403  1.00  0.00    -0.351 N 
ATOM      4  C   UNL A   1      33.167  22.719  27.025  1.00  0.00     0.270 C 
ATOM      5  O   UNL A   1      32.408  22.965  27.961  1.00  0.00    -0.268 OA
ATOM      6  H   UNL A   1      34.542  22.414  28.380  1.00  0.00     0.163 HD
BRANCH   4   7
ATOM      7  C   UNL A   1      32.687  22.788  25.606  1.00  0.00     0.134 A 
ATOM      8  C   UNL A   1      31.675  23.852  23.697  1.00  0.00     0.079 A 
ATOM      9  C   UNL A   1      32.066  23.880  25.127  1.00  0.00     0.063 A 
ATOM     10  N   UNL A   1      31.714  22.833  22.903  1.00  0.00    -0.227 NA
ATOM     11  C   UNL A   1      32.236  21.693  23.450  1.00  0.00     0.171 A 
ATOM     12  N   UNL A   1      32.774  21.653  24.757  1.00  0.00    -0.208 N 
ATOM     13  C   UNL A   1      32.351  20.416  22.958  1.00  0.00     0.085 A 
ATOM     14  N   UNL A   1      33.291  20.416  25.012  1.00  0.00    -0.170 NA
ATOM     15  C   UNL A   1      32.983  19.660  23.954  1.00  0.00     0.076 A 
ATOM     16  Br  UNL A   1      31.772  19.779  21.295  1.00  0.00    -0.045 Br
ATOM     17  C   UNL A   1      33.315  18.213  23.947  1.00  0.00     0.070 C 
BRANCH   8  18
ATOM     18  C   UNL A   1      31.210  25.125  23.209  1.00  0.00     0.041 A 
ATOM     19  C   UNL A   1      32.739  25.570  21.120  1.00  0.00     0.069 C 
ATOM     20  C   UNL A   1      31.686  25.901  22.116  1.00  0.00     0.069 A 
ATOM     21  N   UNL A   1      31.049  27.075  22.031  1.00  0.00    -0.178 NA
ATOM     22  N   UNL A   1      30.138  27.026  23.018  1.00  0.00    -0.275 N 
ATOM     23  C   UNL A   1      30.176  25.869  23.736  1.00  0.00     0.119 A 
ATOM     24  C   UNL A   1      29.279  28.163  23.245  1.00  0.00     0.173 C 
ENDBRANCH   8  18
ENDBRANCH   4   7
ENDBRANCH   2   3
ENDBRANCH   1   2
BRANCH   1  25
ATOM     25  C   UNL A   1      37.618  22.826  25.250  1.00  0.00     0.118 C 
BRANCH  25  26
ATOM     26  N   UNL A   1      38.331  21.806  26.003  1.00  0.00    -0.352 N 
ATOM     27  C   UNL A   1      39.612  21.741  26.473  1.00  0.00     0.251 C 
ATOM     28  H   UNL A   1      37.788  21.011  26.212  1.00  0.00     0.163 HD
ATOM     29  O   UNL A   1      40.100  20.626  26.638  1.00  0.00    -0.269 OA
BRANCH  27  30
ATOM     30  C   UNL A   1      40.400  22.929  26.864  1.00  0.00     0.039 A 
ATOM     31  C   UNL A   1      39.743  23.903  27.630  1.00  0.00     0.014 A 
ATOM     32  C   UNL A   1      41.649  23.217  26.306  1.00  0.00     0.014 A 
ATOM     33  C   UNL A   1      40.317  25.157  27.825  1.00  0.00     0.010 A 
ATOM     34  C   UNL A   1      42.224  24.481  26.503  1.00  0.00     0.010 A 
ATOM     35  C   UNL A   1      41.559  25.463  27.254  1.00  0.00    -0.014 A 
BRANCH  35  36
ATOM     36  C   UNL A   1      42.142  26.791  27.552  1.00  0.00     0.031 A 
ATOM     37  C   UNL A   1      41.167  27.920  27.655  1.00  0.00     0.074 A 
ATOM     38  C   UNL A   1      43.326  26.918  28.190  1.00  0.00     0.049 A 
ATOM     39  N   UNL A   1      40.512  28.193  28.747  1.00  0.00    -0.248 NA
ATOM     40  C   UNL A   1      40.673  28.633  26.478  1.00  0.00     0.031 C 
ATOM     41  C   UNL A   1      43.775  26.010  29.256  1.00  0.00     0.029 A 
ATOM     42  N   UNL A   1      44.233  27.952  28.225  1.00  0.00    -0.354 N 
ATOM     43  C   UNL A   1      39.487  29.059  28.406  1.00  0.00     0.074 A 
ATOM     44  C   UNL A   1      39.635  29.315  26.990  1.00  0.00     0.031 C 
ATOM     45  C   UNL A   1      44.762  26.613  29.952  1.00  0.00     0.029 A 
ATOM     46  C   UNL A   1      45.123  27.866  29.295  1.00  0.00     0.049 A 
ATOM     47  H   UNL A   1      44.253  28.678  27.560  1.00  0.00     0.167 HD
ATOM     48  C   UNL A   1      38.565  29.504  29.301  1.00  0.00     0.031 A 
ATOM     49  C   UNL A   1      45.702  28.934  29.910  1.00  0.00     0.031 A 
ATOM     50  C   UNL A   1      38.744  29.053  30.647  1.00  0.00     0.049 A 
ATOM     51  C   UNL A   1      44.521  29.484  30.674  1.00  0.00     0.074 A 
ATOM     52  C   UNL A   1      38.218  28.095  31.485  1.00  0.00     0.029 A 
ATOM     53  N   UNL A   1      39.719  29.667  31.394  1.00  0.00    -0.354 N 
ATOM     54  N   UNL A   1      44.018  29.010  31.781  1.00  0.00    -0.248 NA
ATOM     55  C   UNL A   1      43.641  30.404  29.947  1.00  0.00     0.031 C 
ATOM     56  C   UNL A   1      39.212  27.884  32.492  1.00  0.00     0.029 A 
ATOM     57  C   UNL A   1      40.293  28.707  32.183  1.00  0.00     0.049 A 
ATOM     58  H   UNL A   1      39.960  30.621  31.368  1.00  0.00     0.167 HD
ATOM     59  C   UNL A   1      42.655  29.310  31.724  1.00  0.00     0.074 A 
ATOM     60  C   UNL A   1      42.495  30.184  30.579  1.00  0.00     0.031 C 
ATOM     61  C   UNL A   1      41.708  28.684  32.483  1.00  0.00     0.031 A 
BRANCH  48  62
ATOM     62  C   UNL A   1      37.519  30.508  29.014  1.00  0.00    -0.014 A 
ATOM     63  C   UNL A   1      36.350  30.072  28.370  1.00  0.00     0.009 A 
ATOM     64  C   UNL A   1      37.747  31.882  29.154  1.00  0.00     0.009 A 
ATOM     65  C   UNL A   1      35.445  30.987  27.837  1.00  0.00     0.001 A 
ATOM     66  C   UNL A   1      36.830  32.799  28.628  1.00  0.00     0.001 A 
ATOM     67  C   UNL A   1      35.689  32.351  27.959  1.00  0.00     0.000 A 
ENDBRANCH  48  62
BRANCH  49  68
ATOM     68  C   UNL A   1      46.566  29.808  29.047  1.00  0.00    -0.014 A 
ATOM     69  C   UNL A   1      46.898  29.357  27.753  1.00  0.00     0.009 A 
ATOM     70  C   UNL A   1      47.087  31.050  29.442  1.00  0.00     0.009 A 
ATOM     71  C   UNL A   1      47.602  30.163  26.852  1.00  0.00     0.001 A 
ATOM     72  C   UNL A   1      47.769  31.871  28.533  1.00  0.00     0.001 A 
ATOM     73  C   UNL A   1      48.009  31.435  27.234  1.00  0.00     0.000 A 
ENDBRANCH  49  68
BRANCH  61  74
ATOM     74  C   UNL A   1      42.199  27.747  33.535  1.00  0.00    -0.014 A 
ATOM     75  C   UNL A   1      41.665  27.799  34.827  1.00  0.00     0.009 A 
ATOM     76  C   UNL A   1      43.129  26.740  33.221  1.00  0.00     0.009 A 
ATOM     77  C   UNL A   1      42.021  26.840  35.776  1.00  0.00     0.001 A 
ATOM     78  C   UNL A   1      43.473  25.773  34.166  1.00  0.00     0.001 A 
ATOM     79  C   UNL A   1      42.912  25.819  35.441  1.00  0.00     0.000 A 
ENDBRANCH  61  74
ENDBRANCH  35  36
ENDBRANCH  27  30
ENDBRANCH  25  26
ENDBRANCH   1  25
TORSDOF 11
ENDMDL
