MODEL 1
REMARK VINA RESULT:      -8.6      0.000      0.000
REMARK SMILES C[C@@H](C(=O)NCCCNC(=O)c1ccc(-c2c3nc(c(-c4ccccc4)c4ccc([nH]4)c(-c4ccccc4)c4nc(c(-c5ccccc5)c5ccc2[nH]5)C=C4)C=C3)cc1)c1ccc(=O)n(C(F)F)c1
REMARK SMILES IDX 7 1 6 2 5 3 3 4 4 5 2 7 1 8 60 9 61 10 69 11 62 12 65 13
REMARK SMILES IDX 63 14 64 15 66 16 67 17 68 18 8 19 9 20 10 21 11 23 12 24
REMARK SMILES IDX 13 25 59 26 14 27 58 28 15 29 16 30 17 31 52 32 18 33 57 34
REMARK SMILES IDX 51 35 53 36 19 37 56 38 50 39 49 40 20 42 42 43 27 44 41 45
REMARK SMILES IDX 28 46 31 47 40 48 54 49 29 50 30 51 39 53 55 54 32 55 21 56
REMARK SMILES IDX 22 57 26 58 23 59 25 60 24 61 43 62 44 63 48 64 45 65 47 66
REMARK SMILES IDX 46 67 33 68 34 69 38 70 35 71 37 72 36 73
REMARK H PARENT 5 6 9 22 53 41 31 52
REMARK Flexibility Score: inf
ROOT
ATOM      1  C   UNL A   1      33.053  34.840  32.687  1.00  0.00     0.042 C 
ENDROOT
BRANCH   1   2
ATOM      2  C   UNL A   1      34.161  33.978  33.290  1.00  0.00     0.117 C 
BRANCH   2   3
ATOM      3  N   UNL A   1      35.459  34.621  33.225  1.00  0.00    -0.356 N 
ATOM      4  C   UNL A   1      36.659  34.279  33.776  1.00  0.00     0.227 C 
ATOM      5  O   UNL A   1      37.598  35.047  33.554  1.00  0.00    -0.274 OA
ATOM      6  H   UNL A   1      35.477  35.449  32.692  1.00  0.00     0.163 HD
BRANCH   4   7
ATOM      7  C   UNL A   1      36.793  32.996  34.626  1.00  0.00     0.107 C 
ATOM      8  C   UNL A   1      37.144  33.317  36.080  1.00  0.00     0.023 C 
BRANCH   7   9
ATOM      9  C   UNL A   1      37.799  32.001  34.054  1.00  0.00    -0.019 A 
ATOM     10  C   UNL A   1      39.216  32.173  34.326  1.00  0.00     0.012 A 
ATOM     11  C   UNL A   1      37.420  30.935  33.326  1.00  0.00     0.099 A 
ATOM     12  C   UNL A   1      40.127  31.319  33.846  1.00  0.00     0.072 A 
ATOM     13  N   UNL A   1      38.339  30.017  32.841  1.00  0.00    -0.258 N 
ATOM     14  C   UNL A   1      39.703  30.145  33.041  1.00  0.00     0.254 A 
ATOM     15  O   UNL A   1      40.566  29.376  32.622  1.00  0.00    -0.269 OA
BRANCH  13  16
ATOM     16  C   UNL A   1      37.902  28.868  32.092  1.00  0.00     0.451 C 
ATOM     17  F   UNL A   1      37.635  27.821  32.911  1.00  0.00    -0.185 F 
ATOM     18  F   UNL A   1      36.781  29.142  31.381  1.00  0.00    -0.185 F 
ENDBRANCH  13  16
ENDBRANCH   7   9
ENDBRANCH   4   7
ENDBRANCH   2   3
ENDBRANCH   1   2
BRANCH   1  19
ATOM     19  C   UNL A   1      33.443  35.616  31.429  1.00  0.00     0.118 C 
BRANCH  19  20
ATOM     20  N   UNL A   1      32.898  35.042  30.210  1.00  0.00    -0.352 N 
ATOM     21  C   UNL A   1      33.483  34.267  29.242  1.00  0.00     0.251 C 
ATOM     22  H   UNL A   1      31.946  35.244  30.054  1.00  0.00     0.163 HD
ATOM     23  O   UNL A   1      32.846  34.018  28.220  1.00  0.00    -0.269 OA
BRANCH  21  24
ATOM     24  C   UNL A   1      34.864  33.745  29.381  1.00  0.00     0.039 A 
ATOM     25  C   UNL A   1      35.087  32.721  30.308  1.00  0.00     0.014 A 
ATOM     26  C   UNL A   1      35.944  34.278  28.673  1.00  0.00     0.014 A 
ATOM     27  C   UNL A   1      36.372  32.201  30.487  1.00  0.00     0.010 A 
ATOM     28  C   UNL A   1      37.218  33.715  28.804  1.00  0.00     0.010 A 
ATOM     29  C   UNL A   1      37.445  32.673  29.715  1.00  0.00    -0.014 A 
BRANCH  29  30
ATOM     30  C   UNL A   1      38.793  32.062  29.852  1.00  0.00     0.031 A 
ATOM     31  C   UNL A   1      39.909  32.791  30.549  1.00  0.00     0.074 A 
ATOM     32  C   UNL A   1      39.021  30.842  29.327  1.00  0.00     0.049 A 
ATOM     33  N   UNL A   1      41.132  32.387  30.793  1.00  0.00    -0.248 NA
ATOM     34  C   UNL A   1      39.625  34.157  31.017  1.00  0.00     0.031 C 
ATOM     35  C   UNL A   1      38.044  30.044  28.585  1.00  0.00     0.029 A 
ATOM     36  N   UNL A   1      40.147  30.056  29.345  1.00  0.00    -0.354 N 
ATOM     37  C   UNL A   1      41.762  33.447  31.433  1.00  0.00     0.074 A 
ATOM     38  C   UNL A   1      40.802  34.528  31.499  1.00  0.00     0.031 C 
ATOM     39  C   UNL A   1      38.598  28.868  28.252  1.00  0.00     0.029 A 
ATOM     40  C   UNL A   1      39.976  28.838  28.733  1.00  0.00     0.049 A 
ATOM     41  H   UNL A   1      40.995  30.338  29.758  1.00  0.00     0.167 HD
ATOM     42  C   UNL A   1      43.018  33.511  31.936  1.00  0.00     0.031 A 
ATOM     43  C   UNL A   1      40.828  27.808  28.583  1.00  0.00     0.031 A 
ATOM     44  C   UNL A   1      43.976  32.438  31.881  1.00  0.00     0.049 A 
ATOM     45  C   UNL A   1      42.211  27.898  29.161  1.00  0.00     0.074 A 
ATOM     46  C   UNL A   1      45.253  32.393  32.415  1.00  0.00     0.029 A 
ATOM     47  N   UNL A   1      43.764  31.222  31.254  1.00  0.00    -0.354 N 
ATOM     48  N   UNL A   1      42.763  28.882  29.827  1.00  0.00    -0.248 NA
ATOM     49  C   UNL A   1      43.080  26.728  28.977  1.00  0.00     0.031 C 
ATOM     50  C   UNL A   1      45.829  31.163  32.074  1.00  0.00     0.029 A 
ATOM     51  C   UNL A   1      44.892  30.426  31.367  1.00  0.00     0.049 A 
ATOM     52  H   UNL A   1      42.933  30.961  30.794  1.00  0.00     0.167 HD
ATOM     53  C   UNL A   1      44.038  28.442  30.158  1.00  0.00     0.074 A 
ATOM     54  C   UNL A   1      44.168  27.096  29.639  1.00  0.00     0.031 C 
ATOM     55  C   UNL A   1      45.015  29.096  30.833  1.00  0.00     0.031 A 
BRANCH  42  56
ATOM     56  C   UNL A   1      43.432  34.797  32.594  1.00  0.00    -0.014 A 
ATOM     57  C   UNL A   1      44.022  35.834  31.852  1.00  0.00     0.009 A 
ATOM     58  C   UNL A   1      43.196  34.992  33.964  1.00  0.00     0.009 A 
ATOM     59  C   UNL A   1      44.398  37.024  32.477  1.00  0.00     0.001 A 
ATOM     60  C   UNL A   1      43.550  36.194  34.580  1.00  0.00     0.001 A 
ATOM     61  C   UNL A   1      44.159  37.205  33.838  1.00  0.00     0.000 A 
ENDBRANCH  42  56
BRANCH  43  62
ATOM     62  C   UNL A   1      40.383  26.577  27.879  1.00  0.00    -0.014 A 
ATOM     63  C   UNL A   1      40.694  26.383  26.525  1.00  0.00     0.009 A 
ATOM     64  C   UNL A   1      39.648  25.595  28.558  1.00  0.00     0.009 A 
ATOM     65  C   UNL A   1      40.257  25.237  25.857  1.00  0.00     0.001 A 
ATOM     66  C   UNL A   1      39.232  24.439  27.894  1.00  0.00     0.001 A 
ATOM     67  C   UNL A   1      39.530  24.265  26.543  1.00  0.00     0.000 A 
ENDBRANCH  43  62
BRANCH  55  68
ATOM     68  C   UNL A   1      46.301  28.353  31.057  1.00  0.00    -0.014 A 
ATOM     69  C   UNL A   1      47.362  28.449  30.142  1.00  0.00     0.009 A 
ATOM     70  C   UNL A   1      46.458  27.559  32.203  1.00  0.00     0.009 A 
ATOM     71  C   UNL A   1      48.541  27.730  30.352  1.00  0.00     0.001 A 
ATOM     72  C   UNL A   1      47.648  26.863  32.423  1.00  0.00     0.001 A 
ATOM     73  C   UNL A   1      48.683  26.941  31.492  1.00  0.00     0.000 A 
ENDBRANCH  55  68
ENDBRANCH  29  30
ENDBRANCH  21  24
ENDBRANCH  19  20
ENDBRANCH   1  19
TORSDOF 12
ENDMDL
MODEL 2
REMARK VINA RESULT:      -8.6      5.182      7.620
REMARK SMILES C[C@@H](C(=O)NCCCNC(=O)c1ccc(-c2c3nc(c(-c4ccccc4)c4ccc([nH]4)c(-c4ccccc4)c4nc(c(-c5ccccc5)c5ccc2[nH]5)C=C4)C=C3)cc1)c1ccc(=O)n(C(F)F)c1
REMARK SMILES IDX 7 1 6 2 5 3 3 4 4 5 2 7 1 8 60 9 61 10 69 11 62 12 65 13
REMARK SMILES IDX 63 14 64 15 66 16 67 17 68 18 8 19 9 20 10 21 11 23 12 24
REMARK SMILES IDX 13 25 59 26 14 27 58 28 15 29 16 30 17 31 52 32 18 33 57 34
REMARK SMILES IDX 51 35 53 36 19 37 56 38 50 39 49 40 20 42 42 43 27 44 41 45
REMARK SMILES IDX 28 46 31 47 40 48 54 49 29 50 30 51 39 53 55 54 32 55 21 56
REMARK SMILES IDX 22 57 26 58 23 59 25 60 24 61 43 62 44 63 48 64 45 65 47 66
REMARK SMILES IDX 46 67 33 68 34 69 38 70 35 71 37 72 36 73
REMARK H PARENT 5 6 9 22 53 41 31 52
REMARK Flexibility Score: inf
ROOT
ATOM      1  C   UNL A   1      32.369  28.209  26.424  1.00  0.00     0.042 C 
ENDROOT
BRANCH   1   2
ATOM      2  C   UNL A   1      31.936  29.291  25.436  1.00  0.00     0.117 C 
BRANCH   2   3
ATOM      3  N   UNL A   1      32.777  29.332  24.256  1.00  0.00    -0.356 N 
ATOM      4  C   UNL A   1      32.820  28.526  23.156  1.00  0.00     0.227 C 
ATOM      5  O   UNL A   1      33.672  28.807  22.310  1.00  0.00    -0.274 OA
ATOM      6  H   UNL A   1      33.430  30.068  24.247  1.00  0.00     0.163 HD
BRANCH   4   7
ATOM      7  C   UNL A   1      31.844  27.337  23.017  1.00  0.00     0.107 C 
ATOM      8  C   UNL A   1      32.153  26.495  21.777  1.00  0.00     0.023 C 
BRANCH   7   9
ATOM      9  C   UNL A   1      30.379  27.763  23.007  1.00  0.00    -0.019 A 
ATOM     10  C   UNL A   1      29.387  26.945  23.684  1.00  0.00     0.012 A 
ATOM     11  C   UNL A   1      29.964  28.899  22.417  1.00  0.00     0.099 A 
ATOM     12  C   UNL A   1      28.094  27.289  23.701  1.00  0.00     0.072 A 
ATOM     13  N   UNL A   1      28.637  29.295  22.443  1.00  0.00    -0.258 N 
ATOM     14  C   UNL A   1      27.642  28.543  23.046  1.00  0.00     0.254 A 
ATOM     15  O   UNL A   1      26.448  28.831  23.087  1.00  0.00    -0.269 OA
BRANCH  13  16
ATOM     16  C   UNL A   1      28.228  30.532  21.832  1.00  0.00     0.451 C 
ATOM     17  F   UNL A   1      29.259  31.408  21.759  1.00  0.00    -0.185 F 
ATOM     18  F   UNL A   1      27.759  30.328  20.576  1.00  0.00    -0.185 F 
ENDBRANCH  13  16
ENDBRANCH   7   9
ENDBRANCH   4   7
ENDBRANCH   2   3
ENDBRANCH   1   2
BRANCH   1  19
ATOM     19  C   UNL A   1      33.552  28.578  27.319  1.00  0.00     0.118 C 
BRANCH  19  20
ATOM     20  N   UNL A   1      33.555  29.976  27.714  1.00  0.00    -0.352 N 
ATOM     21  C   UNL A   1      34.528  30.741  28.307  1.00  0.00     0.251 C 
ATOM     22  H   UNL A   1      32.716  30.457  27.524  1.00  0.00     0.163 HD
ATOM     23  O   UNL A   1      34.240  31.878  28.678  1.00  0.00    -0.269 OA
BRANCH  21  24
ATOM     24  C   UNL A   1      35.900  30.229  28.535  1.00  0.00     0.039 A 
ATOM     25  C   UNL A   1      36.810  30.298  27.474  1.00  0.00     0.014 A 
ATOM     26  C   UNL A   1      36.290  29.630  29.736  1.00  0.00     0.014 A 
ATOM     27  C   UNL A   1      38.113  29.818  27.633  1.00  0.00     0.010 A 
ATOM     28  C   UNL A   1      37.611  29.209  29.916  1.00  0.00     0.010 A 
ATOM     29  C   UNL A   1      38.536  29.296  28.865  1.00  0.00    -0.014 A 
BRANCH  29  30
ATOM     30  C   UNL A   1      39.944  28.861  29.052  1.00  0.00     0.031 A 
ATOM     31  C   UNL A   1      40.962  29.772  29.681  1.00  0.00     0.074 A 
ATOM     32  C   UNL A   1      40.316  27.635  28.635  1.00  0.00     0.049 A 
ATOM     33  N   UNL A   1      42.221  29.535  29.957  1.00  0.00    -0.248 NA
ATOM     34  C   UNL A   1      40.517  31.131  30.029  1.00  0.00     0.031 C 
ATOM     35  C   UNL A   1      39.445  26.667  27.966  1.00  0.00     0.029 A 
ATOM     36  N   UNL A   1      41.526  26.990  28.720  1.00  0.00    -0.354 N 
ATOM     37  C   UNL A   1      42.719  30.713  30.502  1.00  0.00     0.074 A 
ATOM     38  C   UNL A   1      41.640  31.677  30.476  1.00  0.00     0.031 C 
ATOM     39  C   UNL A   1      40.135  25.539  27.736  1.00  0.00     0.029 A 
ATOM     40  C   UNL A   1      41.502  25.712  28.216  1.00  0.00     0.049 A 
ATOM     41  H   UNL A   1      42.332  27.403  29.105  1.00  0.00     0.167 HD
ATOM     42  C   UNL A   1      43.955  30.965  30.996  1.00  0.00     0.031 A 
ATOM     43  C   UNL A   1      42.469  24.778  28.154  1.00  0.00     0.031 A 
ATOM     44  C   UNL A   1      45.031  30.011  31.033  1.00  0.00     0.049 A 
ATOM     45  C   UNL A   1      43.828  25.078  28.720  1.00  0.00     0.074 A 
ATOM     46  C   UNL A   1      46.300  30.161  31.566  1.00  0.00     0.029 A 
ATOM     47  N   UNL A   1      44.967  28.728  30.514  1.00  0.00    -0.354 N 
ATOM     48  N   UNL A   1      44.256  26.173  29.298  1.00  0.00    -0.248 NA
ATOM     49  C   UNL A   1      44.828  24.005  28.638  1.00  0.00     0.031 C 
ATOM     50  C   UNL A   1      47.017  28.981  31.332  1.00  0.00     0.029 A 
ATOM     51  C   UNL A   1      46.179  28.082  30.694  1.00  0.00     0.049 A 
ATOM     52  H   UNL A   1      44.176  28.334  30.080  1.00  0.00     0.167 HD
ATOM     53  C   UNL A   1      45.571  25.915  29.664  1.00  0.00     0.074 A 
ATOM     54  C   UNL A   1      45.860  24.553  29.263  1.00  0.00     0.031 C 
ATOM     55  C   UNL A   1      46.460  26.734  30.278  1.00  0.00     0.031 A 
BRANCH  42  56
ATOM     56  C   UNL A   1      44.211  32.344  31.539  1.00  0.00    -0.014 A 
ATOM     57  C   UNL A   1      43.978  32.645  32.891  1.00  0.00     0.009 A 
ATOM     58  C   UNL A   1      44.727  33.343  30.700  1.00  0.00     0.009 A 
ATOM     59  C   UNL A   1      44.223  33.929  33.381  1.00  0.00     0.001 A 
ATOM     60  C   UNL A   1      44.995  34.619  31.199  1.00  0.00     0.001 A 
ATOM     61  C   UNL A   1      44.735  34.913  32.537  1.00  0.00     0.000 A 
ENDBRANCH  42  56
BRANCH  43  62
ATOM     62  C   UNL A   1      42.176  23.448  27.561  1.00  0.00    -0.014 A 
ATOM     63  C   UNL A   1      42.487  23.186  26.219  1.00  0.00     0.009 A 
ATOM     64  C   UNL A   1      41.586  22.438  28.334  1.00  0.00     0.009 A 
ATOM     65  C   UNL A   1      42.192  21.944  25.654  1.00  0.00     0.001 A 
ATOM     66  C   UNL A   1      41.313  21.188  27.774  1.00  0.00     0.001 A 
ATOM     67  C   UNL A   1      41.608  20.946  26.433  1.00  0.00     0.000 A 
ENDBRANCH  43  62
BRANCH  55  68
ATOM     68  C   UNL A   1      47.821  26.167  30.563  1.00  0.00    -0.014 A 
ATOM     69  C   UNL A   1      48.154  25.688  31.839  1.00  0.00     0.009 A 
ATOM     70  C   UNL A   1      48.777  26.100  29.538  1.00  0.00     0.009 A 
ATOM     71  C   UNL A   1      49.433  25.189  32.093  1.00  0.00     0.001 A 
ATOM     72  C   UNL A   1      50.047  25.576  29.789  1.00  0.00     0.001 A 
ATOM     73  C   UNL A   1      50.376  25.131  31.068  1.00  0.00     0.000 A 
ENDBRANCH  55  68
ENDBRANCH  29  30
ENDBRANCH  21  24
ENDBRANCH  19  20
ENDBRANCH   1  19
TORSDOF 12
ENDMDL
MODEL 3
REMARK VINA RESULT:      -8.6      0.463      6.240
REMARK SMILES C[C@@H](C(=O)NCCCNC(=O)c1ccc(-c2c3nc(c(-c4ccccc4)c4ccc([nH]4)c(-c4ccccc4)c4nc(c(-c5ccccc5)c5ccc2[nH]5)C=C4)C=C3)cc1)c1ccc(=O)n(C(F)F)c1
REMARK SMILES IDX 7 1 6 2 5 3 3 4 4 5 2 7 1 8 60 9 61 10 69 11 62 12 65 13
REMARK SMILES IDX 63 14 64 15 66 16 67 17 68 18 8 19 9 20 10 21 11 23 12 24
REMARK SMILES IDX 13 25 59 26 14 27 58 28 15 29 16 30 17 31 52 32 18 33 57 34
REMARK SMILES IDX 51 35 53 36 19 37 56 38 50 39 49 40 20 42 42 43 27 44 41 45
REMARK SMILES IDX 28 46 31 47 40 48 54 49 29 50 30 51 39 53 55 54 32 55 21 56
REMARK SMILES IDX 22 57 26 58 23 59 25 60 24 61 43 62 44 63 48 64 45 65 47 66
REMARK SMILES IDX 46 67 33 68 34 69 38 70 35 71 37 72 36 73
REMARK H PARENT 5 6 9 22 53 41 31 52
REMARK Flexibility Score: inf
ROOT
ATOM      1  C   UNL A   1      33.031  34.869  32.608  1.00  0.00     0.042 C 
ENDROOT
BRANCH   1   2
ATOM      2  C   UNL A   1      34.140  34.007  33.212  1.00  0.00     0.117 C 
BRANCH   2   3
ATOM      3  N   UNL A   1      35.432  34.665  33.180  1.00  0.00    -0.356 N 
ATOM      4  C   UNL A   1      36.615  34.350  33.779  1.00  0.00     0.227 C 
ATOM      5  O   UNL A   1      37.552  35.125  33.575  1.00  0.00    -0.274 OA
ATOM      6  H   UNL A   1      35.459  35.482  32.630  1.00  0.00     0.163 HD
BRANCH   4   7
ATOM      7  C   UNL A   1      36.735  33.086  34.659  1.00  0.00     0.107 C 
ATOM      8  C   UNL A   1      37.055  33.439  36.113  1.00  0.00     0.023 C 
BRANCH   7   9
ATOM      9  C   UNL A   1      37.754  32.081  34.130  1.00  0.00    -0.019 A 
ATOM     10  C   UNL A   1      39.162  32.250  34.446  1.00  0.00     0.012 A 
ATOM     11  C   UNL A   1      37.395  31.009  33.399  1.00  0.00     0.099 A 
ATOM     12  C   UNL A   1      40.084  31.386  34.004  1.00  0.00     0.072 A 
ATOM     13  N   UNL A   1      38.324  30.083  32.953  1.00  0.00    -0.258 N 
ATOM     14  C   UNL A   1      39.682  30.207  33.197  1.00  0.00     0.254 A 
ATOM     15  O   UNL A   1      40.555  29.431  32.814  1.00  0.00    -0.269 OA
BRANCH  13  16
ATOM     16  C   UNL A   1      37.907  28.929  32.201  1.00  0.00     0.451 C 
ATOM     17  F   UNL A   1      37.652  27.878  33.017  1.00  0.00    -0.185 F 
ATOM     18  F   UNL A   1      36.785  29.188  31.486  1.00  0.00    -0.185 F 
ENDBRANCH  13  16
ENDBRANCH   7   9
ENDBRANCH   4   7
ENDBRANCH   2   3
ENDBRANCH   1   2
BRANCH   1  19
ATOM     19  C   UNL A   1      33.424  35.654  31.356  1.00  0.00     0.118 C 
BRANCH  19  20
ATOM     20  N   UNL A   1      32.866  35.100  30.135  1.00  0.00    -0.352 N 
ATOM     21  C   UNL A   1      33.412  34.265  29.194  1.00  0.00     0.251 C 
ATOM     22  H   UNL A   1      31.936  35.371  29.952  1.00  0.00     0.163 HD
ATOM     23  O   UNL A   1      32.781  34.046  28.161  1.00  0.00    -0.269 OA
BRANCH  21  24
ATOM     24  C   UNL A   1      34.746  33.642  29.375  1.00  0.00     0.039 A 
ATOM     25  C   UNL A   1      35.810  34.140  28.615  1.00  0.00     0.014 A 
ATOM     26  C   UNL A   1      34.957  32.549  30.219  1.00  0.00     0.014 A 
ATOM     27  C   UNL A   1      37.085  33.581  28.739  1.00  0.00     0.010 A 
ATOM     28  C   UNL A   1      36.244  32.031  30.392  1.00  0.00     0.010 A 
ATOM     29  C   UNL A   1      37.321  32.540  29.650  1.00  0.00    -0.014 A 
BRANCH  29  30
ATOM     30  C   UNL A   1      38.694  32.002  29.836  1.00  0.00     0.031 A 
ATOM     31  C   UNL A   1      39.075  30.646  29.310  1.00  0.00     0.074 A 
ATOM     32  C   UNL A   1      39.606  32.738  30.502  1.00  0.00     0.049 A 
ATOM     33  N   UNL A   1      40.239  30.044  29.348  1.00  0.00    -0.248 NA
ATOM     34  C   UNL A   1      38.010  29.853  28.675  1.00  0.00     0.031 C 
ATOM     35  C   UNL A   1      39.359  34.049  31.106  1.00  0.00     0.029 A 
ATOM     36  N   UNL A   1      40.929  32.490  30.775  1.00  0.00    -0.354 N 
ATOM     37  C   UNL A   1      40.044  28.804  28.752  1.00  0.00     0.074 A 
ATOM     38  C   UNL A   1      38.643  28.720  28.403  1.00  0.00     0.031 C 
ATOM     39  C   UNL A   1      40.500  34.506  31.644  1.00  0.00     0.029 A 
ATOM     40  C   UNL A   1      41.551  33.513  31.448  1.00  0.00     0.049 A 
ATOM     41  H   UNL A   1      41.387  31.659  30.514  1.00  0.00     0.167 HD
ATOM     42  C   UNL A   1      40.952  27.830  28.502  1.00  0.00     0.031 A 
ATOM     43  C   UNL A   1      42.827  33.645  31.853  1.00  0.00     0.031 A 
ATOM     44  C   UNL A   1      42.349  27.907  28.839  1.00  0.00     0.049 A 
ATOM     45  C   UNL A   1      43.817  32.556  31.553  1.00  0.00     0.074 A 
ATOM     46  C   UNL A   1      43.354  26.993  28.573  1.00  0.00     0.029 A 
ATOM     47  N   UNL A   1      42.940  28.961  29.518  1.00  0.00    -0.354 N 
ATOM     48  N   UNL A   1      43.629  31.423  30.923  1.00  0.00    -0.248 NA
ATOM     49  C   UNL A   1      45.197  32.776  32.007  1.00  0.00     0.031 C 
ATOM     50  C   UNL A   1      44.545  27.474  29.129  1.00  0.00     0.029 A 
ATOM     51  C   UNL A   1      44.290  28.710  29.700  1.00  0.00     0.049 A 
ATOM     52  H   UNL A   1      42.469  29.768  29.827  1.00  0.00     0.167 HD
ATOM     53  C   UNL A   1      44.872  30.802  30.889  1.00  0.00     0.074 A 
ATOM     54  C   UNL A   1      45.807  31.694  31.542  1.00  0.00     0.031 C 
ATOM     55  C   UNL A   1      45.207  29.598  30.364  1.00  0.00     0.031 A 
BRANCH  42  56
ATOM     56  C   UNL A   1      40.455  26.582  27.826  1.00  0.00    -0.014 A 
ATOM     57  C   UNL A   1      39.709  25.624  28.532  1.00  0.00     0.009 A 
ATOM     58  C   UNL A   1      40.703  26.379  26.460  1.00  0.00     0.009 A 
ATOM     59  C   UNL A   1      39.251  24.472  27.890  1.00  0.00     0.001 A 
ATOM     60  C   UNL A   1      40.222  25.238  25.815  1.00  0.00     0.001 A 
ATOM     61  C   UNL A   1      39.504  24.281  26.532  1.00  0.00     0.000 A 
ENDBRANCH  42  56
BRANCH  43  62
ATOM     62  C   UNL A   1      43.255  34.878  32.563  1.00  0.00    -0.014 A 
ATOM     63  C   UNL A   1      43.247  34.929  33.964  1.00  0.00     0.009 A 
ATOM     64  C   UNL A   1      43.672  36.006  31.841  1.00  0.00     0.009 A 
ATOM     65  C   UNL A   1      43.627  36.095  34.631  1.00  0.00     0.001 A 
ATOM     66  C   UNL A   1      44.074  37.164  32.511  1.00  0.00     0.001 A 
ATOM     67  C   UNL A   1      44.043  37.210  33.904  1.00  0.00     0.000 A 
ENDBRANCH  43  62
BRANCH  55  68
ATOM     68  C   UNL A   1      46.649  29.191  30.465  1.00  0.00    -0.014 A 
ATOM     69  C   UNL A   1      47.132  28.508  31.592  1.00  0.00     0.009 A 
ATOM     70  C   UNL A   1      47.531  29.481  29.413  1.00  0.00     0.009 A 
ATOM     71  C   UNL A   1      48.481  28.160  31.681  1.00  0.00     0.001 A 
ATOM     72  C   UNL A   1      48.874  29.108  29.493  1.00  0.00     0.001 A 
ATOM     73  C   UNL A   1      49.349  28.457  30.631  1.00  0.00     0.000 A 
ENDBRANCH  55  68
ENDBRANCH  29  30
ENDBRANCH  21  24
ENDBRANCH  19  20
ENDBRANCH   1  19
TORSDOF 12
ENDMDL
