MODEL 1
REMARK VINA RESULT:     -11.3      0.000      0.000
REMARK SMILES CC(C)C[C@H](NC(=O)c1cc(Cl)nnc1Cl)C(=O)NCCCNC(=O)c1ccc(-c2c3nc(c(-c4ccccc4)c4ccc([nH]4)c(-c4ccccc4)c4nc(c(-c5ccccc5)c5ccc2[nH]5)C=C4)C=C3)cc1
REMARK SMILES IDX 21 1 20 2 19 3 17 4 18 5 5 7 4 8 2 9 1 10 3 11 6 12 7 13
REMARK SMILES IDX 8 15 9 16 10 17 15 18 11 19 14 20 16 21 12 22 13 23 22 24
REMARK SMILES IDX 23 25 24 26 25 28 26 29 27 30 73 31 28 32 72 33 29 34 30 35
REMARK SMILES IDX 31 36 66 37 32 38 71 39 65 40 67 41 33 42 70 43 64 44 63 45
REMARK SMILES IDX 34 47 56 48 41 49 55 50 42 51 45 52 54 53 68 54 43 55 44 56
REMARK SMILES IDX 53 58 69 59 46 60 35 61 36 62 40 63 37 64 39 65 38 66 57 67
REMARK SMILES IDX 58 68 62 69 59 70 61 71 60 72 47 73 48 74 52 75 49 76 51 77
REMARK SMILES IDX 50 78
REMARK H PARENT 19 6 6 14 23 27 67 46 45 57
REMARK Flexibility Score: inf
ROOT
ATOM      1  C   UNL A   1      31.404  32.235  26.504  1.00  0.00     0.042 C 
ENDROOT
BRANCH   1   2
ATOM      2  C   UNL A   1      31.403  30.715  26.489  1.00  0.00     0.117 C 
BRANCH   2   3
ATOM      3  N   UNL A   1      32.560  30.184  25.792  1.00  0.00    -0.354 N 
ATOM      4  C   UNL A   1      32.732  28.971  25.195  1.00  0.00     0.242 C 
ATOM      5  O   UNL A   1      33.834  28.719  24.701  1.00  0.00    -0.273 OA
ATOM      6  H   UNL A   1      33.335  30.790  25.742  1.00  0.00     0.163 HD
BRANCH   4   7
ATOM      7  C   UNL A   1      31.588  27.943  25.171  1.00  0.00     0.171 C 
BRANCH   7   8
ATOM      8  C   UNL A   1      31.702  26.824  26.225  1.00  0.00     0.038 C 
BRANCH   8   9
ATOM      9  C   UNL A   1      32.168  25.406  25.832  1.00  0.00    -0.015 C 
ATOM     10  C   UNL A   1      33.679  25.226  25.757  1.00  0.00     0.007 C 
ATOM     11  C   UNL A   1      31.577  24.405  26.834  1.00  0.00     0.007 C 
ENDBRANCH   8   9
ENDBRANCH   7   8
BRANCH   7  12
ATOM     12  N   UNL A   1      31.450  27.552  23.740  1.00  0.00    -0.340 N 
ATOM     13  C   UNL A   1      30.604  27.842  22.711  1.00  0.00     0.255 C 
ATOM     14  H   UNL A   1      32.155  26.920  23.467  1.00  0.00     0.164 HD
ATOM     15  O   UNL A   1      30.740  27.289  21.624  1.00  0.00    -0.269 OA
BRANCH  13  16
ATOM     16  C   UNL A   1      29.449  28.711  22.885  1.00  0.00     0.082 A 
ATOM     17  C   UNL A   1      29.585  30.057  22.534  1.00  0.00     0.060 A 
ATOM     18  C   UNL A   1      28.246  28.248  23.372  1.00  0.00     0.164 A 
ATOM     19  C   UNL A   1      28.463  30.846  22.621  1.00  0.00     0.152 A 
ATOM     20  N   UNL A   1      27.170  29.057  23.448  1.00  0.00    -0.136 NA
ATOM     21  Cl  UNL A   1      27.961  26.636  23.876  1.00  0.00    -0.059 Cl
ATOM     22  Cl  UNL A   1      28.476  32.481  22.120  1.00  0.00    -0.060 Cl
ATOM     23  N   UNL A   1      27.277  30.373  23.051  1.00  0.00    -0.137 NA
ENDBRANCH  13  16
ENDBRANCH   7  12
ENDBRANCH   4   7
ENDBRANCH   2   3
ENDBRANCH   1   2
BRANCH   1  24
ATOM     24  C   UNL A   1      32.563  32.808  27.308  1.00  0.00     0.118 C 
BRANCH  24  25
ATOM     25  N   UNL A   1      32.360  34.215  27.635  1.00  0.00    -0.352 N 
ATOM     26  C   UNL A   1      32.974  34.974  28.600  1.00  0.00     0.251 C 
ATOM     27  H   UNL A   1      31.692  34.686  27.088  1.00  0.00     0.163 HD
ATOM     28  O   UNL A   1      32.533  36.074  28.911  1.00  0.00    -0.269 OA
BRANCH  26  29
ATOM     29  C   UNL A   1      34.167  34.432  29.272  1.00  0.00     0.039 A 
ATOM     30  C   UNL A   1      34.021  33.737  30.473  1.00  0.00     0.014 A 
ATOM     31  C   UNL A   1      35.423  34.583  28.677  1.00  0.00     0.014 A 
ATOM     32  C   UNL A   1      35.136  33.124  31.043  1.00  0.00     0.010 A 
ATOM     33  C   UNL A   1      36.517  33.911  29.206  1.00  0.00     0.010 A 
ATOM     34  C   UNL A   1      36.381  33.179  30.394  1.00  0.00    -0.014 A 
BRANCH  34  35
ATOM     35  C   UNL A   1      37.564  32.494  30.957  1.00  0.00     0.031 A 
ATOM     36  C   UNL A   1      38.179  32.999  32.229  1.00  0.00     0.074 A 
ATOM     37  C   UNL A   1      38.107  31.452  30.300  1.00  0.00     0.049 A 
ATOM     38  N   UNL A   1      39.226  32.547  32.869  1.00  0.00    -0.248 NA
ATOM     39  C   UNL A   1      37.549  34.174  32.855  1.00  0.00     0.031 C 
ATOM     40  C   UNL A   1      37.619  30.899  29.035  1.00  0.00     0.029 A 
ATOM     41  N   UNL A   1      39.187  30.668  30.613  1.00  0.00    -0.354 N 
ATOM     42  C   UNL A   1      39.381  33.384  33.965  1.00  0.00     0.074 A 
ATOM     43  C   UNL A   1      38.358  34.400  33.880  1.00  0.00     0.031 C 
ATOM     44  C   UNL A   1      38.376  29.840  28.700  1.00  0.00     0.029 A 
ATOM     45  C   UNL A   1      39.414  29.658  29.710  1.00  0.00     0.049 A 
ATOM     46  H   UNL A   1      39.748  30.815  31.409  1.00  0.00     0.167 HD
ATOM     47  C   UNL A   1      40.280  33.295  34.970  1.00  0.00     0.031 A 
ATOM     48  C   UNL A   1      40.346  28.689  29.703  1.00  0.00     0.031 A 
ATOM     49  C   UNL A   1      41.280  32.271  35.069  1.00  0.00     0.049 A 
ATOM     50  C   UNL A   1      41.345  28.621  30.823  1.00  0.00     0.074 A 
ATOM     51  C   UNL A   1      42.199  32.064  36.083  1.00  0.00     0.029 A 
ATOM     52  N   UNL A   1      41.488  31.282  34.123  1.00  0.00    -0.354 N 
ATOM     53  N   UNL A   1      41.447  29.388  31.879  1.00  0.00    -0.248 NA
ATOM     54  C   UNL A   1      42.354  27.553  30.751  1.00  0.00     0.031 C 
ATOM     55  C   UNL A   1      42.987  30.964  35.734  1.00  0.00     0.029 A 
ATOM     56  C   UNL A   1      42.535  30.470  34.520  1.00  0.00     0.049 A 
ATOM     57  H   UNL A   1      40.970  31.174  33.294  1.00  0.00     0.167 HD
ATOM     58  C   UNL A   1      42.521  28.893  32.605  1.00  0.00     0.074 A 
ATOM     59  C   UNL A   1      43.035  27.753  31.874  1.00  0.00     0.031 C 
ATOM     60  C   UNL A   1      43.033  29.344  33.775  1.00  0.00     0.031 A 
BRANCH  47  61
ATOM     61  C   UNL A   1      40.205  34.322  36.058  1.00  0.00    -0.014 A 
ATOM     62  C   UNL A   1      39.435  34.089  37.209  1.00  0.00     0.009 A 
ATOM     63  C   UNL A   1      40.950  35.506  35.962  1.00  0.00     0.009 A 
ATOM     64  C   UNL A   1      39.400  35.032  38.236  1.00  0.00     0.001 A 
ATOM     65  C   UNL A   1      40.928  36.439  37.000  1.00  0.00     0.001 A 
ATOM     66  C   UNL A   1      40.150  36.203  38.133  1.00  0.00     0.000 A 
ENDBRANCH  47  61
BRANCH  48  67
ATOM     67  C   UNL A   1      40.347  27.681  28.615  1.00  0.00    -0.014 A 
ATOM     68  C   UNL A   1      41.076  27.917  27.438  1.00  0.00     0.009 A 
ATOM     69  C   UNL A   1      39.661  26.467  28.760  1.00  0.00     0.009 A 
ATOM     70  C   UNL A   1      41.113  26.956  26.427  1.00  0.00     0.001 A 
ATOM     71  C   UNL A   1      39.713  25.501  27.752  1.00  0.00     0.001 A 
ATOM     72  C   UNL A   1      40.437  25.748  26.586  1.00  0.00     0.000 A 
ENDBRANCH  48  67
BRANCH  60  73
ATOM     73  C   UNL A   1      44.210  28.616  34.351  1.00  0.00    -0.014 A 
ATOM     74  C   UNL A   1      44.021  27.511  35.192  1.00  0.00     0.009 A 
ATOM     75  C   UNL A   1      45.508  28.962  33.949  1.00  0.00     0.009 A 
ATOM     76  C   UNL A   1      45.117  26.761  35.621  1.00  0.00     0.001 A 
ATOM     77  C   UNL A   1      46.600  28.200  34.365  1.00  0.00     0.001 A 
ATOM     78  C   UNL A   1      46.402  27.100  35.200  1.00  0.00     0.000 A 
ENDBRANCH  60  73
ENDBRANCH  34  35
ENDBRANCH  26  29
ENDBRANCH  24  25
ENDBRANCH   1  24
TORSDOF 14
ENDMDL
MODEL 2
REMARK VINA RESULT:     -11.3      6.003     10.797
REMARK SMILES CC(C)C[C@H](NC(=O)c1cc(Cl)nnc1Cl)C(=O)NCCCNC(=O)c1ccc(-c2c3nc(c(-c4ccccc4)c4ccc([nH]4)c(-c4ccccc4)c4nc(c(-c5ccccc5)c5ccc2[nH]5)C=C4)C=C3)cc1
REMARK SMILES IDX 21 1 20 2 19 3 17 4 18 5 5 7 4 8 2 9 1 10 3 11 6 12 7 13
REMARK SMILES IDX 8 15 9 16 10 17 15 18 11 19 14 20 16 21 12 22 13 23 22 24
REMARK SMILES IDX 23 25 24 26 25 28 26 29 27 30 73 31 28 32 72 33 29 34 30 35
REMARK SMILES IDX 31 36 66 37 32 38 71 39 65 40 67 41 33 42 70 43 64 44 63 45
REMARK SMILES IDX 34 47 56 48 41 49 55 50 42 51 45 52 54 53 68 54 43 55 44 56
REMARK SMILES IDX 53 58 69 59 46 60 35 61 36 62 40 63 37 64 39 65 38 66 57 67
REMARK SMILES IDX 58 68 62 69 59 70 61 71 60 72 47 73 48 74 52 75 49 76 51 77
REMARK SMILES IDX 50 78
REMARK H PARENT 19 6 6 14 23 27 67 46 45 57
REMARK Flexibility Score: inf
ROOT
ATOM      1  C   UNL A   1      38.130  19.847  24.626  1.00  0.00     0.042 C 
ENDROOT
BRANCH   1   2
ATOM      2  C   UNL A   1      36.676  20.076  25.001  1.00  0.00     0.117 C 
BRANCH   2   3
ATOM      3  N   UNL A   1      36.484  21.357  25.654  1.00  0.00    -0.354 N 
ATOM      4  C   UNL A   1      35.591  22.348  25.378  1.00  0.00     0.242 C 
ATOM      5  O   UNL A   1      35.648  23.383  26.045  1.00  0.00    -0.273 OA
ATOM      6  H   UNL A   1      37.089  21.538  26.411  1.00  0.00     0.163 HD
BRANCH   4   7
ATOM      7  C   UNL A   1      34.565  22.180  24.243  1.00  0.00     0.171 C 
BRANCH   7   8
ATOM      8  C   UNL A   1      34.564  23.315  23.200  1.00  0.00     0.038 C 
BRANCH   8   9
ATOM      9  C   UNL A   1      33.400  24.327  23.127  1.00  0.00    -0.015 C 
ATOM     10  C   UNL A   1      33.739  25.729  23.619  1.00  0.00     0.007 C 
ATOM     11  C   UNL A   1      32.904  24.393  21.676  1.00  0.00     0.007 C 
ENDBRANCH   8   9
ENDBRANCH   7   8
BRANCH   7  12
ATOM     12  N   UNL A   1      33.284  21.851  24.927  1.00  0.00    -0.340 N 
ATOM     13  C   UNL A   1      32.451  20.773  25.004  1.00  0.00     0.255 C 
ATOM     14  H   UNL A   1      32.953  22.607  25.463  1.00  0.00     0.164 HD
ATOM     15  O   UNL A   1      31.403  20.846  25.639  1.00  0.00    -0.269 OA
BRANCH  13  16
ATOM     16  C   UNL A   1      32.699  19.552  24.252  1.00  0.00     0.082 A 
ATOM     17  C   UNL A   1      33.246  18.463  24.936  1.00  0.00     0.060 A 
ATOM     18  C   UNL A   1      32.410  19.442  22.908  1.00  0.00     0.164 A 
ATOM     19  C   UNL A   1      33.395  17.290  24.235  1.00  0.00     0.152 A 
ATOM     20  N   UNL A   1      32.576  18.274  22.256  1.00  0.00    -0.136 NA
ATOM     21  Cl  UNL A   1      31.778  20.711  21.948  1.00  0.00    -0.059 Cl
ATOM     22  Cl  UNL A   1      33.953  15.860  24.988  1.00  0.00    -0.060 Cl
ATOM     23  N   UNL A   1      33.062  17.177  22.934  1.00  0.00    -0.137 NA
ENDBRANCH  13  16
ENDBRANCH   7  12
ENDBRANCH   4   7
ENDBRANCH   2   3
ENDBRANCH   1   2
BRANCH   1  24
ATOM     24  C   UNL A   1      39.078  20.098  25.792  1.00  0.00     0.118 C 
BRANCH  24  25
ATOM     25  N   UNL A   1      40.104  19.066  25.896  1.00  0.00    -0.352 N 
ATOM     26  C   UNL A   1      41.460  19.211  26.048  1.00  0.00     0.251 C 
ATOM     27  H   UNL A   1      39.779  18.138  25.852  1.00  0.00     0.163 HD
ATOM     28  O   UNL A   1      42.217  18.262  25.884  1.00  0.00    -0.269 OA
BRANCH  26  29
ATOM     29  C   UNL A   1      41.994  20.539  26.395  1.00  0.00     0.039 A 
ATOM     30  C   UNL A   1      42.326  21.432  25.376  1.00  0.00     0.014 A 
ATOM     31  C   UNL A   1      42.121  20.903  27.739  1.00  0.00     0.014 A 
ATOM     32  C   UNL A   1      42.717  22.728  25.709  1.00  0.00     0.010 A 
ATOM     33  C   UNL A   1      42.440  22.213  28.066  1.00  0.00     0.010 A 
ATOM     34  C   UNL A   1      42.742  23.134  27.054  1.00  0.00    -0.014 A 
BRANCH  34  35
ATOM     35  C   UNL A   1      43.107  24.518  27.425  1.00  0.00     0.031 A 
ATOM     36  C   UNL A   1      44.546  24.943  27.388  1.00  0.00     0.074 A 
ATOM     37  C   UNL A   1      42.152  25.373  27.836  1.00  0.00     0.049 A 
ATOM     38  N   UNL A   1      45.067  26.102  27.692  1.00  0.00    -0.248 NA
ATOM     39  C   UNL A   1      45.530  23.929  26.972  1.00  0.00     0.031 C 
ATOM     40  C   UNL A   1      40.725  25.060  27.950  1.00  0.00     0.029 A 
ATOM     41  N   UNL A   1      42.238  26.683  28.228  1.00  0.00    -0.354 N 
ATOM     42  C   UNL A   1      46.434  25.954  27.511  1.00  0.00     0.074 A 
ATOM     43  C   UNL A   1      46.672  24.584  27.121  1.00  0.00     0.031 C 
ATOM     44  C   UNL A   1      40.066  26.161  28.347  1.00  0.00     0.029 A 
ATOM     45  C   UNL A   1      41.025  27.246  28.540  1.00  0.00     0.049 A 
ATOM     46  H   UNL A   1      43.090  27.175  28.282  1.00  0.00     0.167 HD
ATOM     47  C   UNL A   1      47.404  26.888  27.632  1.00  0.00     0.031 A 
ATOM     48  C   UNL A   1      40.719  28.497  28.926  1.00  0.00     0.031 A 
ATOM     49  C   UNL A   1      47.166  28.256  27.994  1.00  0.00     0.049 A 
ATOM     50  C   UNL A   1      41.816  29.513  29.069  1.00  0.00     0.074 A 
ATOM     51  C   UNL A   1      48.079  29.291  28.084  1.00  0.00     0.029 A 
ATOM     52  N   UNL A   1      45.926  28.777  28.322  1.00  0.00    -0.354 N 
ATOM     53  N   UNL A   1      43.098  29.372  28.843  1.00  0.00    -0.248 NA
ATOM     54  C   UNL A   1      41.424  30.858  29.515  1.00  0.00     0.031 C 
ATOM     55  C   UNL A   1      47.395  30.436  28.499  1.00  0.00     0.029 A 
ATOM     56  C   UNL A   1      46.052  30.119  28.634  1.00  0.00     0.049 A 
ATOM     57  H   UNL A   1      45.084  28.270  28.332  1.00  0.00     0.167 HD
ATOM     58  C   UNL A   1      43.668  30.610  29.108  1.00  0.00     0.074 A 
ATOM     59  C   UNL A   1      42.590  31.493  29.504  1.00  0.00     0.031 C 
ATOM     60  C   UNL A   1      44.968  30.979  29.029  1.00  0.00     0.031 A 
BRANCH  47  61
ATOM     61  C   UNL A   1      48.812  26.464  27.343  1.00  0.00    -0.014 A 
ATOM     62  C   UNL A   1      49.647  26.007  28.374  1.00  0.00     0.009 A 
ATOM     63  C   UNL A   1      49.291  26.467  26.025  1.00  0.00     0.009 A 
ATOM     64  C   UNL A   1      50.944  25.577  28.092  1.00  0.00     0.001 A 
ATOM     65  C   UNL A   1      50.582  26.018  25.743  1.00  0.00     0.001 A 
ATOM     66  C   UNL A   1      51.408  25.578  26.777  1.00  0.00     0.000 A 
ENDBRANCH  47  61
BRANCH  48  67
ATOM     67  C   UNL A   1      39.301  28.863  29.164  1.00  0.00    -0.014 A 
ATOM     68  C   UNL A   1      38.740  28.707  30.442  1.00  0.00     0.009 A 
ATOM     69  C   UNL A   1      38.518  29.408  28.137  1.00  0.00     0.009 A 
ATOM     70  C   UNL A   1      37.418  29.087  30.683  1.00  0.00     0.001 A 
ATOM     71  C   UNL A   1      37.201  29.801  28.386  1.00  0.00     0.001 A 
ATOM     72  C   UNL A   1      36.652  29.638  29.657  1.00  0.00     0.000 A 
ENDBRANCH  48  67
BRANCH  60  73
ATOM     73  C   UNL A   1      45.317  32.395  29.373  1.00  0.00    -0.014 A 
ATOM     74  C   UNL A   1      45.736  32.731  30.668  1.00  0.00     0.009 A 
ATOM     75  C   UNL A   1      45.346  33.370  28.364  1.00  0.00     0.009 A 
ATOM     76  C   UNL A   1      46.181  34.023  30.947  1.00  0.00     0.001 A 
ATOM     77  C   UNL A   1      45.809  34.656  28.643  1.00  0.00     0.001 A 
ATOM     78  C   UNL A   1      46.226  34.981  29.934  1.00  0.00     0.000 A 
ENDBRANCH  60  73
ENDBRANCH  34  35
ENDBRANCH  26  29
ENDBRANCH  24  25
ENDBRANCH   1  24
TORSDOF 14
ENDMDL
MODEL 3
REMARK VINA RESULT:     -11.3      4.616      9.477
REMARK SMILES CC(C)C[C@H](NC(=O)c1cc(Cl)nnc1Cl)C(=O)NCCCNC(=O)c1ccc(-c2c3nc(c(-c4ccccc4)c4ccc([nH]4)c(-c4ccccc4)c4nc(c(-c5ccccc5)c5ccc2[nH]5)C=C4)C=C3)cc1
REMARK SMILES IDX 21 1 20 2 19 3 17 4 18 5 5 7 4 8 2 9 1 10 3 11 6 12 7 13
REMARK SMILES IDX 8 15 9 16 10 17 15 18 11 19 14 20 16 21 12 22 13 23 22 24
REMARK SMILES IDX 23 25 24 26 25 28 26 29 27 30 73 31 28 32 72 33 29 34 30 35
REMARK SMILES IDX 31 36 66 37 32 38 71 39 65 40 67 41 33 42 70 43 64 44 63 45
REMARK SMILES IDX 34 47 56 48 41 49 55 50 42 51 45 52 54 53 68 54 43 55 44 56
REMARK SMILES IDX 53 58 69 59 46 60 35 61 36 62 40 63 37 64 39 65 38 66 57 67
REMARK SMILES IDX 58 68 62 69 59 70 61 71 60 72 47 73 48 74 52 75 49 76 51 77
REMARK SMILES IDX 50 78
REMARK H PARENT 19 6 6 14 23 27 67 46 45 57
REMARK Flexibility Score: inf
ROOT
ATOM      1  C   UNL A   1      37.438  20.088  24.759  1.00  0.00     0.042 C 
ENDROOT
BRANCH   1   2
ATOM      2  C   UNL A   1      36.120  20.652  25.261  1.00  0.00     0.117 C 
BRANCH   2   3
ATOM      3  N   UNL A   1      35.004  19.781  24.937  1.00  0.00    -0.354 N 
ATOM      4  C   UNL A   1      33.691  20.088  24.744  1.00  0.00     0.242 C 
ATOM      5  O   UNL A   1      32.906  19.163  24.524  1.00  0.00    -0.273 OA
ATOM      6  H   UNL A   1      35.231  18.827  24.840  1.00  0.00     0.163 HD
BRANCH   4   7
ATOM      7  C   UNL A   1      33.209  21.547  24.832  1.00  0.00     0.171 C 
BRANCH   7   8
ATOM      8  C   UNL A   1      31.764  21.720  25.341  1.00  0.00     0.038 C 
BRANCH   8   9
ATOM      9  C   UNL A   1      31.379  22.907  26.251  1.00  0.00    -0.015 C 
ATOM     10  C   UNL A   1      30.005  22.797  26.900  1.00  0.00     0.007 C 
ATOM     11  C   UNL A   1      32.454  23.055  27.337  1.00  0.00     0.007 C 
ENDBRANCH   8   9
ENDBRANCH   7   8
BRANCH   7  12
ATOM     12  N   UNL A   1      33.571  22.152  23.521  1.00  0.00    -0.340 N 
ATOM     13  C   UNL A   1      33.726  23.412  23.021  1.00  0.00     0.255 C 
ATOM     14  H   UNL A   1      33.745  21.464  22.838  1.00  0.00     0.164 HD
ATOM     15  O   UNL A   1      33.991  23.578  21.834  1.00  0.00    -0.269 OA
BRANCH  13  16
ATOM     16  C   UNL A   1      33.469  24.597  23.825  1.00  0.00     0.082 A 
ATOM     17  C   UNL A   1      32.301  25.321  23.568  1.00  0.00     0.060 A 
ATOM     18  C   UNL A   1      34.328  25.015  24.819  1.00  0.00     0.164 A 
ATOM     19  C   UNL A   1      32.027  26.387  24.392  1.00  0.00     0.152 A 
ATOM     20  N   UNL A   1      34.026  26.070  25.601  1.00  0.00    -0.136 NA
ATOM     21  Cl  UNL A   1      35.809  24.243  25.204  1.00  0.00    -0.059 Cl
ATOM     22  Cl  UNL A   1      30.579  27.284  24.247  1.00  0.00    -0.060 Cl
ATOM     23  N   UNL A   1      32.849  26.757  25.394  1.00  0.00    -0.137 NA
ENDBRANCH  13  16
ENDBRANCH   7  12
ENDBRANCH   4   7
ENDBRANCH   2   3
ENDBRANCH   1   2
BRANCH   1  24
ATOM     24  C   UNL A   1      38.621  20.526  25.613  1.00  0.00     0.118 C 
BRANCH  24  25
ATOM     25  N   UNL A   1      39.645  19.491  25.702  1.00  0.00    -0.352 N 
ATOM     26  C   UNL A   1      40.976  19.620  26.011  1.00  0.00     0.251 C 
ATOM     27  H   UNL A   1      39.340  18.575  25.515  1.00  0.00     0.163 HD
ATOM     28  O   UNL A   1      41.759  18.697  25.817  1.00  0.00    -0.269 OA
BRANCH  26  29
ATOM     29  C   UNL A   1      41.453  20.898  26.566  1.00  0.00     0.039 A 
ATOM     30  C   UNL A   1      41.994  21.857  25.710  1.00  0.00     0.014 A 
ATOM     31  C   UNL A   1      41.318  21.150  27.934  1.00  0.00     0.014 A 
ATOM     32  C   UNL A   1      42.332  23.110  26.220  1.00  0.00     0.010 A 
ATOM     33  C   UNL A   1      41.586  22.420  28.426  1.00  0.00     0.010 A 
ATOM     34  C   UNL A   1      42.098  23.407  27.573  1.00  0.00    -0.014 A 
BRANCH  34  35
ATOM     35  C   UNL A   1      42.404  24.745  28.123  1.00  0.00     0.031 A 
ATOM     36  C   UNL A   1      43.810  25.076  28.531  1.00  0.00     0.074 A 
ATOM     37  C   UNL A   1      41.413  25.640  28.293  1.00  0.00     0.049 A 
ATOM     38  N   UNL A   1      44.274  26.183  29.048  1.00  0.00    -0.248 NA
ATOM     39  C   UNL A   1      44.823  24.021  28.354  1.00  0.00     0.031 C 
ATOM     40  C   UNL A   1      40.003  25.415  27.969  1.00  0.00     0.029 A 
ATOM     41  N   UNL A   1      41.445  26.922  28.778  1.00  0.00    -0.354 N 
ATOM     42  C   UNL A   1      45.626  25.955  29.261  1.00  0.00     0.074 A 
ATOM     43  C   UNL A   1      45.902  24.593  28.869  1.00  0.00     0.031 C 
ATOM     44  C   UNL A   1      39.311  26.538  28.229  1.00  0.00     0.029 A 
ATOM     45  C   UNL A   1      40.222  27.547  28.760  1.00  0.00     0.049 A 
ATOM     46  H   UNL A   1      42.266  27.354  29.108  1.00  0.00     0.167 HD
ATOM     47  C   UNL A   1      46.562  26.817  29.718  1.00  0.00     0.031 A 
ATOM     48  C   UNL A   1      39.877  28.795  29.122  1.00  0.00     0.031 A 
ATOM     49  C   UNL A   1      46.295  28.179  30.084  1.00  0.00     0.049 A 
ATOM     50  C   UNL A   1      40.932  29.730  29.642  1.00  0.00     0.074 A 
ATOM     51  C   UNL A   1      47.191  29.147  30.501  1.00  0.00     0.029 A 
ATOM     52  N   UNL A   1      45.041  28.764  30.071  1.00  0.00    -0.354 N 
ATOM     53  N   UNL A   1      42.216  29.516  29.788  1.00  0.00    -0.248 NA
ATOM     54  C   UNL A   1      40.493  31.075  30.041  1.00  0.00     0.031 C 
ATOM     55  C   UNL A   1      46.471  30.313  30.773  1.00  0.00     0.029 A 
ATOM     56  C   UNL A   1      45.135  30.078  30.492  1.00  0.00     0.049 A 
ATOM     57  H   UNL A   1      44.208  28.313  29.804  1.00  0.00     0.167 HD
ATOM     58  C   UNL A   1      42.743  30.700  30.287  1.00  0.00     0.074 A 
ATOM     59  C   UNL A   1      41.641  31.632  30.409  1.00  0.00     0.031 C 
ATOM     60  C   UNL A   1      44.025  30.987  30.611  1.00  0.00     0.031 A 
BRANCH  47  61
ATOM     61  C   UNL A   1      47.971  26.317  29.822  1.00  0.00    -0.014 A 
ATOM     62  C   UNL A   1      48.456  25.792  31.030  1.00  0.00     0.009 A 
ATOM     63  C   UNL A   1      48.802  26.316  28.693  1.00  0.00     0.009 A 
ATOM     64  C   UNL A   1      49.756  25.292  31.110  1.00  0.00     0.001 A 
ATOM     65  C   UNL A   1      50.096  25.797  28.771  1.00  0.00     0.001 A 
ATOM     66  C   UNL A   1      50.572  25.290  29.979  1.00  0.00     0.000 A 
ENDBRANCH  47  61
BRANCH  48  67
ATOM     67  C   UNL A   1      38.471  29.241  28.962  1.00  0.00    -0.014 A 
ATOM     68  C   UNL A   1      37.593  29.202  30.057  1.00  0.00     0.009 A 
ATOM     69  C   UNL A   1      38.013  29.748  27.737  1.00  0.00     0.009 A 
ATOM     70  C   UNL A   1      36.280  29.658  29.924  1.00  0.00     0.001 A 
ATOM     71  C   UNL A   1      36.703  30.217  27.613  1.00  0.00     0.001 A 
ATOM     72  C   UNL A   1      35.838  30.169  28.705  1.00  0.00     0.000 A 
ENDBRANCH  48  67
BRANCH  60  73
ATOM     73  C   UNL A   1      44.326  32.359  31.132  1.00  0.00    -0.014 A 
ATOM     74  C   UNL A   1      44.364  32.605  32.512  1.00  0.00     0.009 A 
ATOM     75  C   UNL A   1      44.696  33.377  30.241  1.00  0.00     0.009 A 
ATOM     76  C   UNL A   1      44.770  33.850  32.991  1.00  0.00     0.001 A 
ATOM     77  C   UNL A   1      45.118  34.616  30.724  1.00  0.00     0.001 A 
ATOM     78  C   UNL A   1      45.156  34.850  32.099  1.00  0.00     0.000 A 
ENDBRANCH  60  73
ENDBRANCH  34  35
ENDBRANCH  26  29
ENDBRANCH  24  25
ENDBRANCH   1  24
TORSDOF 14
ENDMDL
