MODEL 1
REMARK VINA RESULT:     -10.1      0.000      0.000
REMARK SMILES C[C@@](NC(=O)CSCc1ccccc1)(C(=O)NCCCNC(=O)c1ccc(-c2c3nc(c(-c4ccccc4)c4ccc([nH]4)c(-c4ccccc4)c4nc(c(-c5ccccc5)c5ccc2[nH]5)C=C4)C=C3)cc1)C1CC1
REMARK SMILES IDX 15 1 16 2 17 3 2 5 1 6 3 7 4 8 5 10 6 11 7 12 8 13 9 14
REMARK SMILES IDX 10 15 14 16 11 17 13 18 12 19 72 20 73 21 74 22 18 23 19 24
REMARK SMILES IDX 20 25 21 26 22 27 23 29 24 30 25 31 71 32 26 33 70 34 27 35
REMARK SMILES IDX 28 36 29 37 64 38 30 39 69 40 63 41 65 42 31 43 68 44 62 45
REMARK SMILES IDX 61 46 32 48 54 49 39 50 53 51 40 52 43 53 52 54 66 55 41 56
REMARK SMILES IDX 42 57 51 59 67 60 44 61 33 62 34 63 38 64 35 65 37 66 36 67
REMARK SMILES IDX 55 68 56 69 60 70 57 71 59 72 58 73 45 74 46 75 50 76 47 77
REMARK SMILES IDX 49 78 48 79
REMARK H PARENT 17 4 3 9 21 28 65 47 43 58
REMARK Flexibility Score: inf
ROOT
ATOM      1  C   UNL A   1      32.890  22.515  26.996  1.00  0.00     0.245 C 
ATOM      2  O   UNL A   1      32.230  22.614  28.036  1.00  0.00    -0.272 OA
ATOM      3  N   UNL A   1      34.206  22.825  27.138  1.00  0.00    -0.354 N 
ATOM      4  H   UNL A   1      34.429  23.317  27.962  1.00  0.00     0.163 HD
ENDROOT
BRANCH   1   5
ATOM      5  C   UNL A   1      32.279  22.066  25.632  1.00  0.00     0.119 C 
ATOM      6  C   UNL A   1      30.736  22.288  25.678  1.00  0.00     0.046 C 
BRANCH   5   7
ATOM      7  N   UNL A   1      32.768  22.891  24.503  1.00  0.00    -0.341 N 
ATOM      8  C   UNL A   1      32.597  24.188  24.146  1.00  0.00     0.230 C 
ATOM      9  H   UNL A   1      33.341  22.391  23.878  1.00  0.00     0.164 HD
ATOM     10  O   UNL A   1      33.419  24.635  23.338  1.00  0.00    -0.274 OA
BRANCH   8  11
ATOM     11  C   UNL A   1      31.450  25.049  24.633  1.00  0.00     0.169 C 
BRANCH  11  12
ATOM     12  S   UNL A   1      31.757  25.868  26.244  1.00  0.00    -0.147 SA
BRANCH  12  13
ATOM     13  C   UNL A   1      33.296  26.799  25.932  1.00  0.00     0.105 C 
BRANCH  13  14
ATOM     14  C   UNL A   1      33.341  28.239  26.387  1.00  0.00    -0.038 A 
ATOM     15  C   UNL A   1      34.472  28.878  26.911  1.00  0.00     0.004 A 
ATOM     16  C   UNL A   1      32.128  28.954  26.370  1.00  0.00     0.004 A 
ATOM     17  C   UNL A   1      34.396  30.191  27.385  1.00  0.00     0.000 A 
ATOM     18  C   UNL A   1      32.052  30.266  26.840  1.00  0.00     0.000 A 
ATOM     19  C   UNL A   1      33.189  30.885  27.346  1.00  0.00     0.000 A 
ENDBRANCH  13  14
ENDBRANCH  12  13
ENDBRANCH  11  12
ENDBRANCH   8  11
ENDBRANCH   5   7
BRANCH   5  20
ATOM     20  C   UNL A   1      32.473  20.582  25.262  1.00  0.00     0.024 C 
ATOM     21  C   UNL A   1      32.511  19.939  23.885  1.00  0.00     0.007 C 
ATOM     22  C   UNL A   1      33.792  20.166  24.619  1.00  0.00     0.007 C 
ENDBRANCH   5  20
ENDBRANCH   1   5
BRANCH   3  23
ATOM     23  C   UNL A   1      35.334  22.549  26.275  1.00  0.00     0.117 C 
BRANCH  23  24
ATOM     24  C   UNL A   1      36.191  23.768  25.978  1.00  0.00     0.042 C 
BRANCH  24  25
ATOM     25  C   UNL A   1      37.317  23.583  24.971  1.00  0.00     0.118 C 
BRANCH  25  26
ATOM     26  N   UNL A   1      38.373  22.686  25.404  1.00  0.00    -0.352 N 
ATOM     27  C   UNL A   1      39.487  22.949  26.169  1.00  0.00     0.251 C 
ATOM     28  H   UNL A   1      38.278  21.751  25.108  1.00  0.00     0.163 HD
ATOM     29  O   UNL A   1      40.364  22.110  26.327  1.00  0.00    -0.269 OA
BRANCH  27  30
ATOM     30  C   UNL A   1      39.656  24.267  26.803  1.00  0.00     0.039 A 
ATOM     31  C   UNL A   1      39.175  24.461  28.100  1.00  0.00     0.014 A 
ATOM     32  C   UNL A   1      40.282  25.308  26.118  1.00  0.00     0.014 A 
ATOM     33  C   UNL A   1      39.409  25.675  28.742  1.00  0.00     0.010 A 
ATOM     34  C   UNL A   1      40.634  26.459  26.802  1.00  0.00     0.010 A 
ATOM     35  C   UNL A   1      40.186  26.661  28.114  1.00  0.00    -0.014 A 
BRANCH  35  36
ATOM     36  C   UNL A   1      40.539  27.923  28.803  1.00  0.00     0.031 A 
ATOM     37  C   UNL A   1      41.901  28.076  29.422  1.00  0.00     0.074 A 
ATOM     38  C   UNL A   1      39.605  28.883  28.936  1.00  0.00     0.049 A 
ATOM     39  N   UNL A   1      42.375  29.062  30.138  1.00  0.00    -0.248 NA
ATOM     40  C   UNL A   1      42.840  26.952  29.254  1.00  0.00     0.031 C 
ATOM     41  C   UNL A   1      38.231  28.809  28.428  1.00  0.00     0.029 A 
ATOM     42  N   UNL A   1      39.668  30.111  29.540  1.00  0.00    -0.354 N 
ATOM     43  C   UNL A   1      43.648  28.663  30.528  1.00  0.00     0.074 A 
ATOM     44  C   UNL A   1      43.847  27.322  30.029  1.00  0.00     0.031 C 
ATOM     45  C   UNL A   1      37.599  29.961  28.701  1.00  0.00     0.029 A 
ATOM     46  C   UNL A   1      38.504  30.832  29.440  1.00  0.00     0.049 A 
ATOM     47  H   UNL A   1      40.470  30.443  30.002  1.00  0.00     0.167 HD
ATOM     48  C   UNL A   1      44.578  29.363  31.217  1.00  0.00     0.031 A 
ATOM     49  C   UNL A   1      38.205  32.063  29.891  1.00  0.00     0.031 A 
ATOM     50  C   UNL A   1      44.375  30.707  31.684  1.00  0.00     0.049 A 
ATOM     51  C   UNL A   1      39.266  32.834  30.624  1.00  0.00     0.074 A 
ATOM     52  C   UNL A   1      45.263  31.540  32.339  1.00  0.00     0.029 A 
ATOM     53  N   UNL A   1      43.193  31.418  31.532  1.00  0.00    -0.354 N 
ATOM     54  N   UNL A   1      40.488  32.469  30.930  1.00  0.00    -0.248 NA
ATOM     55  C   UNL A   1      38.912  34.190  31.057  1.00  0.00     0.031 C 
ATOM     56  C   UNL A   1      44.603  32.740  32.625  1.00  0.00     0.029 A 
ATOM     57  C   UNL A   1      43.324  32.675  32.095  1.00  0.00     0.049 A 
ATOM     58  H   UNL A   1      42.382  31.077  31.091  1.00  0.00     0.167 HD
ATOM     59  C   UNL A   1      41.060  33.560  31.569  1.00  0.00     0.074 A 
ATOM     60  C   UNL A   1      40.055  34.606  31.582  1.00  0.00     0.031 C 
ATOM     61  C   UNL A   1      42.301  33.690  32.098  1.00  0.00     0.031 A 
BRANCH  48  62
ATOM     62  C   UNL A   1      45.890  28.680  31.502  1.00  0.00    -0.014 A 
ATOM     63  C   UNL A   1      46.968  28.766  30.604  1.00  0.00     0.009 A 
ATOM     64  C   UNL A   1      46.054  27.946  32.686  1.00  0.00     0.009 A 
ATOM     65  C   UNL A   1      48.165  28.095  30.865  1.00  0.00     0.001 A 
ATOM     66  C   UNL A   1      47.264  27.303  32.961  1.00  0.00     0.001 A 
ATOM     67  C   UNL A   1      48.313  27.369  32.045  1.00  0.00     0.000 A 
ENDBRANCH  48  62
BRANCH  49  68
ATOM     68  C   UNL A   1      36.865  32.652  29.628  1.00  0.00    -0.014 A 
ATOM     69  C   UNL A   1      36.599  33.295  28.409  1.00  0.00     0.009 A 
ATOM     70  C   UNL A   1      35.842  32.567  30.585  1.00  0.00     0.009 A 
ATOM     71  C   UNL A   1      35.346  33.864  28.166  1.00  0.00     0.001 A 
ATOM     72  C   UNL A   1      34.581  33.110  30.327  1.00  0.00     0.001 A 
ATOM     73  C   UNL A   1      34.338  33.766  29.122  1.00  0.00     0.000 A 
ENDBRANCH  49  68
BRANCH  61  74
ATOM     74  C   UNL A   1      42.640  35.022  32.703  1.00  0.00    -0.014 A 
ATOM     75  C   UNL A   1      43.360  35.988  31.984  1.00  0.00     0.009 A 
ATOM     76  C   UNL A   1      42.213  35.318  34.006  1.00  0.00     0.009 A 
ATOM     77  C   UNL A   1      43.687  37.208  32.576  1.00  0.00     0.001 A 
ATOM     78  C   UNL A   1      42.513  36.552  34.584  1.00  0.00     0.001 A 
ATOM     79  C   UNL A   1      43.260  37.490  33.874  1.00  0.00     0.000 A 
ENDBRANCH  61  74
ENDBRANCH  35  36
ENDBRANCH  27  30
ENDBRANCH  25  26
ENDBRANCH  24  25
ENDBRANCH  23  24
ENDBRANCH   3  23
TORSDOF 16
ENDMDL
MODEL 2
REMARK VINA RESULT:     -10.1      2.450      7.763
REMARK SMILES C[C@@](NC(=O)CSCc1ccccc1)(C(=O)NCCCNC(=O)c1ccc(-c2c3nc(c(-c4ccccc4)c4ccc([nH]4)c(-c4ccccc4)c4nc(c(-c5ccccc5)c5ccc2[nH]5)C=C4)C=C3)cc1)C1CC1
REMARK SMILES IDX 15 1 16 2 17 3 2 5 1 6 3 7 4 8 5 10 6 11 7 12 8 13 9 14
REMARK SMILES IDX 10 15 14 16 11 17 13 18 12 19 72 20 73 21 74 22 18 23 19 24
REMARK SMILES IDX 20 25 21 26 22 27 23 29 24 30 25 31 71 32 26 33 70 34 27 35
REMARK SMILES IDX 28 36 29 37 64 38 30 39 69 40 63 41 65 42 31 43 68 44 62 45
REMARK SMILES IDX 61 46 32 48 54 49 39 50 53 51 40 52 43 53 52 54 66 55 41 56
REMARK SMILES IDX 42 57 51 59 67 60 44 61 33 62 34 63 38 64 35 65 37 66 36 67
REMARK SMILES IDX 55 68 56 69 60 70 57 71 59 72 58 73 45 74 46 75 50 76 47 77
REMARK SMILES IDX 49 78 48 79
REMARK H PARENT 17 4 3 9 21 28 65 47 43 58
REMARK Flexibility Score: inf
ROOT
ATOM      1  C   UNL A   1      32.946  28.905  23.864  1.00  0.00     0.245 C 
ATOM      2  O   UNL A   1      33.781  29.257  23.024  1.00  0.00    -0.272 OA
ATOM      3  N   UNL A   1      32.757  29.798  24.872  1.00  0.00    -0.354 N 
ATOM      4  H   UNL A   1      33.460  30.483  24.955  1.00  0.00     0.163 HD
ENDROOT
BRANCH   1   5
ATOM      5  C   UNL A   1      32.161  27.559  23.782  1.00  0.00     0.119 C 
ATOM      6  C   UNL A   1      33.101  26.468  23.183  1.00  0.00     0.046 C 
BRANCH   5   7
ATOM      7  N   UNL A   1      31.771  27.058  25.121  1.00  0.00    -0.341 N 
ATOM      8  C   UNL A   1      31.446  25.834  25.607  1.00  0.00     0.230 C 
ATOM      9  H   UNL A   1      31.742  27.765  25.805  1.00  0.00     0.164 HD
ATOM     10  O   UNL A   1      31.505  25.713  26.836  1.00  0.00    -0.274 OA
BRANCH   8  11
ATOM     11  C   UNL A   1      30.974  24.685  24.741  1.00  0.00     0.169 C 
BRANCH  11  12
ATOM     12  S   UNL A   1      31.742  23.072  25.150  1.00  0.00    -0.147 SA
BRANCH  12  13
ATOM     13  C   UNL A   1      32.762  22.729  23.676  1.00  0.00     0.105 C 
BRANCH  13  14
ATOM     14  C   UNL A   1      34.207  22.351  23.903  1.00  0.00    -0.038 A 
ATOM     15  C   UNL A   1      34.637  21.245  24.647  1.00  0.00     0.004 A 
ATOM     16  C   UNL A   1      35.185  23.235  23.408  1.00  0.00     0.004 A 
ATOM     17  C   UNL A   1      35.999  21.022  24.873  1.00  0.00     0.000 A 
ATOM     18  C   UNL A   1      36.545  23.011  23.631  1.00  0.00     0.000 A 
ATOM     19  C   UNL A   1      36.951  21.902  24.364  1.00  0.00     0.000 A 
ENDBRANCH  13  14
ENDBRANCH  12  13
ENDBRANCH  11  12
ENDBRANCH   8  11
ENDBRANCH   5   7
BRANCH   5  20
ATOM     20  C   UNL A   1      30.906  27.563  22.887  1.00  0.00     0.024 C 
ATOM     21  C   UNL A   1      29.487  27.981  23.235  1.00  0.00     0.007 C 
ATOM     22  C   UNL A   1      30.345  28.908  22.437  1.00  0.00     0.007 C 
ENDBRANCH   5  20
ENDBRANCH   1   5
BRANCH   3  23
ATOM     23  C   UNL A   1      31.691  29.905  25.844  1.00  0.00     0.117 C 
BRANCH  23  24
ATOM     24  C   UNL A   1      31.472  31.317  26.361  1.00  0.00     0.042 C 
BRANCH  24  25
ATOM     25  C   UNL A   1      32.662  31.992  27.028  1.00  0.00     0.118 C 
BRANCH  25  26
ATOM     26  N   UNL A   1      32.424  33.363  27.443  1.00  0.00    -0.352 N 
ATOM     27  C   UNL A   1      33.144  34.154  28.309  1.00  0.00     0.251 C 
ATOM     28  H   UNL A   1      31.630  33.790  27.047  1.00  0.00     0.163 HD
ATOM     29  O   UNL A   1      32.729  35.247  28.669  1.00  0.00    -0.269 OA
BRANCH  27  30
ATOM     30  C   UNL A   1      34.436  33.685  28.840  1.00  0.00     0.039 A 
ATOM     31  C   UNL A   1      34.449  32.903  29.997  1.00  0.00     0.014 A 
ATOM     32  C   UNL A   1      35.629  34.020  28.200  1.00  0.00     0.014 A 
ATOM     33  C   UNL A   1      35.656  32.381  30.456  1.00  0.00     0.010 A 
ATOM     34  C   UNL A   1      36.803  33.391  28.574  1.00  0.00     0.010 A 
ATOM     35  C   UNL A   1      36.831  32.579  29.715  1.00  0.00    -0.014 A 
BRANCH  35  36
ATOM     36  C   UNL A   1      38.113  31.957  30.118  1.00  0.00     0.031 A 
ATOM     37  C   UNL A   1      39.021  32.679  31.074  1.00  0.00     0.074 A 
ATOM     38  C   UNL A   1      38.484  30.792  29.556  1.00  0.00     0.049 A 
ATOM     39  N   UNL A   1      40.218  32.348  31.485  1.00  0.00    -0.248 NA
ATOM     40  C   UNL A   1      38.543  33.968  31.604  1.00  0.00     0.031 C 
ATOM     41  C   UNL A   1      37.705  30.038  28.567  1.00  0.00     0.029 A 
ATOM     42  N   UNL A   1      39.611  30.034  29.735  1.00  0.00    -0.354 N 
ATOM     43  C   UNL A   1      40.641  33.398  32.291  1.00  0.00     0.074 A 
ATOM     44  C   UNL A   1      39.606  34.405  32.259  1.00  0.00     0.031 C 
ATOM     45  C   UNL A   1      38.356  28.905  28.265  1.00  0.00     0.029 A 
ATOM     46  C   UNL A   1      39.614  28.873  29.000  1.00  0.00     0.049 A 
ATOM     47  H   UNL A   1      40.347  30.296  30.332  1.00  0.00     0.167 HD
ATOM     48  C   UNL A   1      41.779  33.500  33.016  1.00  0.00     0.031 A 
ATOM     49  C   UNL A   1      40.531  27.892  28.933  1.00  0.00     0.031 A 
ATOM     50  C   UNL A   1      42.787  32.476  33.060  1.00  0.00     0.049 A 
ATOM     51  C   UNL A   1      41.771  28.013  29.774  1.00  0.00     0.074 A 
ATOM     52  C   UNL A   1      43.952  32.439  33.804  1.00  0.00     0.029 A 
ATOM     53  N   UNL A   1      42.738  31.298  32.328  1.00  0.00    -0.354 N 
ATOM     54  N   UNL A   1      42.129  28.982  30.582  1.00  0.00    -0.248 NA
ATOM     55  C   UNL A   1      42.722  26.897  29.706  1.00  0.00     0.031 C 
ATOM     56  C   UNL A   1      44.631  31.258  33.487  1.00  0.00     0.029 A 
ATOM     57  C   UNL A   1      43.860  30.533  32.591  1.00  0.00     0.049 A 
ATOM     58  H   UNL A   1      42.013  31.045  31.712  1.00  0.00     0.167 HD
ATOM     59  C   UNL A   1      43.335  28.582  31.141  1.00  0.00     0.074 A 
ATOM     60  C   UNL A   1      43.631  27.272  30.595  1.00  0.00     0.031 C 
ATOM     61  C   UNL A   1      44.129  29.237  32.024  1.00  0.00     0.031 A 
BRANCH  48  62
ATOM     62  C   UNL A   1      41.982  34.762  33.812  1.00  0.00    -0.014 A 
ATOM     63  C   UNL A   1      42.652  35.870  33.266  1.00  0.00     0.009 A 
ATOM     64  C   UNL A   1      41.491  34.848  35.123  1.00  0.00     0.009 A 
ATOM     65  C   UNL A   1      42.866  37.019  34.032  1.00  0.00     0.001 A 
ATOM     66  C   UNL A   1      41.677  36.011  35.875  1.00  0.00     0.001 A 
ATOM     67  C   UNL A   1      42.374  37.090  35.334  1.00  0.00     0.000 A 
ENDBRANCH  48  62
BRANCH  49  68
ATOM     68  C   UNL A   1      40.293  26.701  28.076  1.00  0.00    -0.014 A 
ATOM     69  C   UNL A   1      40.778  26.665  26.760  1.00  0.00     0.009 A 
ATOM     70  C   UNL A   1      39.591  25.590  28.569  1.00  0.00     0.009 A 
ATOM     71  C   UNL A   1      40.542  25.553  25.946  1.00  0.00     0.001 A 
ATOM     72  C   UNL A   1      39.382  24.468  27.764  1.00  0.00     0.001 A 
ATOM     73  C   UNL A   1      39.849  24.455  26.450  1.00  0.00     0.000 A 
ENDBRANCH  49  68
BRANCH  61  74
ATOM     74  C   UNL A   1      45.372  28.521  32.471  1.00  0.00    -0.014 A 
ATOM     75  C   UNL A   1      46.591  28.688  31.797  1.00  0.00     0.009 A 
ATOM     76  C   UNL A   1      45.321  27.684  33.595  1.00  0.00     0.009 A 
ATOM     77  C   UNL A   1      47.726  27.991  32.214  1.00  0.00     0.001 A 
ATOM     78  C   UNL A   1      46.465  27.015  34.030  1.00  0.00     0.001 A 
ATOM     79  C   UNL A   1      47.662  27.158  33.332  1.00  0.00     0.000 A 
ENDBRANCH  61  74
ENDBRANCH  35  36
ENDBRANCH  27  30
ENDBRANCH  25  26
ENDBRANCH  24  25
ENDBRANCH  23  24
ENDBRANCH   3  23
TORSDOF 16
ENDMDL
MODEL 3
REMARK VINA RESULT:     -10.1      2.565      7.887
REMARK SMILES C[C@@](NC(=O)CSCc1ccccc1)(C(=O)NCCCNC(=O)c1ccc(-c2c3nc(c(-c4ccccc4)c4ccc([nH]4)c(-c4ccccc4)c4nc(c(-c5ccccc5)c5ccc2[nH]5)C=C4)C=C3)cc1)C1CC1
REMARK SMILES IDX 15 1 16 2 17 3 2 5 1 6 3 7 4 8 5 10 6 11 7 12 8 13 9 14
REMARK SMILES IDX 10 15 14 16 11 17 13 18 12 19 72 20 73 21 74 22 18 23 19 24
REMARK SMILES IDX 20 25 21 26 22 27 23 29 24 30 25 31 71 32 26 33 70 34 27 35
REMARK SMILES IDX 28 36 29 37 64 38 30 39 69 40 63 41 65 42 31 43 68 44 62 45
REMARK SMILES IDX 61 46 32 48 54 49 39 50 53 51 40 52 43 53 52 54 66 55 41 56
REMARK SMILES IDX 42 57 51 59 67 60 44 61 33 62 34 63 38 64 35 65 37 66 36 67
REMARK SMILES IDX 55 68 56 69 60 70 57 71 59 72 58 73 45 74 46 75 50 76 47 77
REMARK SMILES IDX 49 78 48 79
REMARK H PARENT 17 4 3 9 21 28 65 47 43 58
REMARK Flexibility Score: inf
ROOT
ATOM      1  C   UNL A   1      32.526  26.671  23.076  1.00  0.00     0.245 C 
ATOM      2  O   UNL A   1      33.027  26.098  22.103  1.00  0.00    -0.272 OA
ATOM      3  N   UNL A   1      33.391  27.466  23.762  1.00  0.00    -0.354 N 
ATOM      4  H   UNL A   1      34.343  27.308  23.566  1.00  0.00     0.163 HD
ENDROOT
BRANCH   1   5
ATOM      5  C   UNL A   1      31.029  26.512  23.489  1.00  0.00     0.119 C 
ATOM      6  C   UNL A   1      30.503  25.149  22.947  1.00  0.00     0.046 C 
BRANCH   5   7
ATOM      7  N   UNL A   1      30.860  26.449  24.960  1.00  0.00    -0.341 N 
ATOM      8  C   UNL A   1      31.329  25.617  25.923  1.00  0.00     0.230 C 
ATOM      9  H   UNL A   1      30.284  27.164  25.314  1.00  0.00     0.164 HD
ATOM     10  O   UNL A   1      31.271  26.050  27.080  1.00  0.00    -0.274 OA
BRANCH   8  11
ATOM     11  C   UNL A   1      31.838  24.217  25.649  1.00  0.00     0.169 C 
BRANCH  11  12
ATOM     12  S   UNL A   1      33.482  23.861  26.377  1.00  0.00    -0.147 SA
BRANCH  12  13
ATOM     13  C   UNL A   1      34.579  23.881  24.918  1.00  0.00     0.105 C 
BRANCH  13  14
ATOM     14  C   UNL A   1      35.894  23.146  25.028  1.00  0.00    -0.038 A 
ATOM     15  C   UNL A   1      36.152  21.882  24.483  1.00  0.00     0.004 A 
ATOM     16  C   UNL A   1      36.896  23.741  25.819  1.00  0.00     0.004 A 
ATOM     17  C   UNL A   1      37.375  21.243  24.707  1.00  0.00     0.000 A 
ATOM     18  C   UNL A   1      38.118  23.105  26.040  1.00  0.00     0.000 A 
ATOM     19  C   UNL A   1      38.358  21.855  25.482  1.00  0.00     0.000 A 
ENDBRANCH  13  14
ENDBRANCH  12  13
ENDBRANCH  11  12
ENDBRANCH   8  11
ENDBRANCH   5   7
BRANCH   5  20
ATOM     20  C   UNL A   1      30.061  27.579  22.940  1.00  0.00     0.024 C 
ATOM     21  C   UNL A   1      29.812  28.991  23.445  1.00  0.00     0.007 C 
ATOM     22  C   UNL A   1      30.652  28.790  22.226  1.00  0.00     0.007 C 
ENDBRANCH   5  20
ENDBRANCH   1   5
BRANCH   3  23
ATOM     23  C   UNL A   1      33.138  28.508  24.734  1.00  0.00     0.117 C 
BRANCH  23  24
ATOM     24  C   UNL A   1      34.084  28.478  25.923  1.00  0.00     0.042 C 
BRANCH  24  25
ATOM     25  C   UNL A   1      33.478  28.780  27.286  1.00  0.00     0.118 C 
BRANCH  25  26
ATOM     26  N   UNL A   1      33.538  30.177  27.677  1.00  0.00    -0.352 N 
ATOM     27  C   UNL A   1      34.558  30.874  28.283  1.00  0.00     0.251 C 
ATOM     28  H   UNL A   1      32.729  30.704  27.480  1.00  0.00     0.163 HD
ATOM     29  O   UNL A   1      34.399  32.020  28.682  1.00  0.00    -0.269 OA
BRANCH  27  30
ATOM     30  C   UNL A   1      35.873  30.240  28.482  1.00  0.00     0.039 A 
ATOM     31  C   UNL A   1      36.825  30.321  27.463  1.00  0.00     0.014 A 
ATOM     32  C   UNL A   1      36.161  29.563  29.667  1.00  0.00     0.014 A 
ATOM     33  C   UNL A   1      38.100  29.802  27.677  1.00  0.00     0.010 A 
ATOM     34  C   UNL A   1      37.462  29.173  29.930  1.00  0.00     0.010 A 
ATOM     35  C   UNL A   1      38.441  29.273  28.931  1.00  0.00    -0.014 A 
BRANCH  35  36
ATOM     36  C   UNL A   1      39.813  28.804  29.226  1.00  0.00     0.031 A 
ATOM     37  C   UNL A   1      40.773  29.715  29.940  1.00  0.00     0.074 A 
ATOM     38  C   UNL A   1      40.207  27.598  28.777  1.00  0.00     0.049 A 
ATOM     39  N   UNL A   1      42.037  29.528  30.217  1.00  0.00    -0.248 NA
ATOM     40  C   UNL A   1      40.258  31.032  30.358  1.00  0.00     0.031 C 
ATOM     41  C   UNL A   1      39.373  26.660  28.018  1.00  0.00     0.029 A 
ATOM     42  N   UNL A   1      41.409  26.952  28.893  1.00  0.00    -0.354 N 
ATOM     43  C   UNL A   1      42.469  30.709  30.809  1.00  0.00     0.074 A 
ATOM     44  C   UNL A   1      41.356  31.629  30.790  1.00  0.00     0.031 C 
ATOM     45  C   UNL A   1      40.075  25.541  27.779  1.00  0.00     0.029 A 
ATOM     46  C   UNL A   1      41.417  25.701  28.325  1.00  0.00     0.049 A 
ATOM     47  H   UNL A   1      42.192  27.346  29.340  1.00  0.00     0.167 HD
ATOM     48  C   UNL A   1      43.679  30.991  31.345  1.00  0.00     0.031 A 
ATOM     49  C   UNL A   1      42.399  24.785  28.259  1.00  0.00     0.031 A 
ATOM     50  C   UNL A   1      44.769  30.055  31.380  1.00  0.00     0.049 A 
ATOM     51  C   UNL A   1      43.723  25.109  28.892  1.00  0.00     0.074 A 
ATOM     52  C   UNL A   1      46.021  30.203  31.950  1.00  0.00     0.029 A 
ATOM     53  N   UNL A   1      44.728  28.783  30.825  1.00  0.00    -0.354 N 
ATOM     54  N   UNL A   1      44.098  26.205  29.506  1.00  0.00    -0.248 NA
ATOM     55  C   UNL A   1      44.750  24.062  28.838  1.00  0.00     0.031 C 
ATOM     56  C   UNL A   1      46.753  29.038  31.699  1.00  0.00     0.029 A 
ATOM     57  C   UNL A   1      45.937  28.142  31.025  1.00  0.00     0.049 A 
ATOM     58  H   UNL A   1      43.953  28.397  30.357  1.00  0.00     0.167 HD
ATOM     59  C   UNL A   1      45.397  25.972  29.936  1.00  0.00     0.074 A 
ATOM     60  C   UNL A   1      45.732  24.621  29.531  1.00  0.00     0.031 C 
ATOM     61  C   UNL A   1      46.240  26.799  30.603  1.00  0.00     0.031 A 
BRANCH  48  62
ATOM     62  C   UNL A   1      43.875  32.364  31.930  1.00  0.00    -0.014 A 
ATOM     63  C   UNL A   1      44.351  33.430  31.148  1.00  0.00     0.009 A 
ATOM     64  C   UNL A   1      43.572  32.599  33.279  1.00  0.00     0.009 A 
ATOM     65  C   UNL A   1      44.563  34.689  31.716  1.00  0.00     0.001 A 
ATOM     66  C   UNL A   1      43.754  33.867  33.837  1.00  0.00     0.001 A 
ATOM     67  C   UNL A   1      44.260  34.907  33.058  1.00  0.00     0.000 A 
ENDBRANCH  48  62
BRANCH  49  68
ATOM     68  C   UNL A   1      42.155  23.470  27.609  1.00  0.00    -0.014 A 
ATOM     69  C   UNL A   1      41.546  22.427  28.323  1.00  0.00     0.009 A 
ATOM     70  C   UNL A   1      42.516  23.252  26.270  1.00  0.00     0.009 A 
ATOM     71  C   UNL A   1      41.329  21.185  27.720  1.00  0.00     0.001 A 
ATOM     72  C   UNL A   1      42.272  22.020  25.660  1.00  0.00     0.001 A 
ATOM     73  C   UNL A   1      41.688  20.985  26.389  1.00  0.00     0.000 A 
ENDBRANCH  49  68
BRANCH  61  74
ATOM     74  C   UNL A   1      47.589  26.241  30.959  1.00  0.00    -0.014 A 
ATOM     75  C   UNL A   1      47.840  25.696  32.227  1.00  0.00     0.009 A 
ATOM     76  C   UNL A   1      48.614  26.245  30.002  1.00  0.00     0.009 A 
ATOM     77  C   UNL A   1      49.108  25.209  32.545  1.00  0.00     0.001 A 
ATOM     78  C   UNL A   1      49.871  25.726  30.311  1.00  0.00     0.001 A 
ATOM     79  C   UNL A   1      50.121  25.221  31.585  1.00  0.00     0.000 A 
ENDBRANCH  61  74
ENDBRANCH  35  36
ENDBRANCH  27  30
ENDBRANCH  25  26
ENDBRANCH  24  25
ENDBRANCH  23  24
ENDBRANCH   3  23
TORSDOF 16
ENDMDL
