MODEL 1
REMARK VINA RESULT:     -10.1      0.000      0.000
REMARK SMILES CC(C)CN(CC(=O)NCCCNC(=O)c1ccc(-c2c3nc(c(-c4ccccc4)c4ccc([nH]4)c(-c4ccccc4)c4nc(c(-c5ccccc5)c5ccc2[nH]5)C=C4)C=C3)cc1)C(=O)C[C@H]1C[NH2+]CCO1
REMARK SMILES IDX 10 1 9 2 7 3 8 4 6 6 5 7 4 8 2 9 1 10 3 11 64 12 65 13 66 14
REMARK SMILES IDX 67 15 68 16 72 17 69 18 71 19 70 20 11 23 12 24 13 25 14 26
REMARK SMILES IDX 15 28 16 29 17 30 63 31 18 32 62 33 19 34 20 35 21 36 56 37
REMARK SMILES IDX 22 38 61 39 55 40 57 41 23 42 60 43 54 44 53 45 24 47 46 48
REMARK SMILES IDX 31 49 45 50 32 51 35 52 44 53 58 54 33 55 34 56 43 58 59 59
REMARK SMILES IDX 36 60 25 61 26 62 30 63 27 64 29 65 28 66 47 67 48 68 52 69
REMARK SMILES IDX 49 70 51 71 50 72 37 73 38 74 42 75 39 76 41 77 40 78
REMARK H PARENT 9 5 69 21 69 22 13 27 57 46 35 57
REMARK Flexibility Score: inf
ROOT
ATOM      1  C   UNL A   1      31.245  30.773  25.568  1.00  0.00     0.117 C 
ENDROOT
BRANCH   1   2
ATOM      2  N   UNL A   1      32.399  29.944  25.839  1.00  0.00    -0.354 N 
ATOM      3  C   UNL A   1      33.050  29.082  25.016  1.00  0.00     0.239 C 
ATOM      4  O   UNL A   1      34.019  28.468  25.474  1.00  0.00    -0.273 OA
ATOM      5  H   UNL A   1      32.764  30.015  26.750  1.00  0.00     0.163 HD
BRANCH   3   6
ATOM      6  C   UNL A   1      32.602  28.881  23.563  1.00  0.00     0.219 C 
BRANCH   6   7
ATOM      7  N   UNL A   1      31.554  27.870  23.345  1.00  0.00    -0.333 N 
BRANCH   7   8
ATOM      8  C   UNL A   1      31.956  26.456  23.452  1.00  0.00     0.123 C 
BRANCH   8   9
ATOM      9  C   UNL A   1      33.183  26.039  22.608  1.00  0.00     0.002 C 
ATOM     10  C   UNL A   1      33.953  24.860  23.209  1.00  0.00     0.009 C 
ATOM     11  C   UNL A   1      32.708  25.643  21.204  1.00  0.00     0.009 C 
ENDBRANCH   8   9
ENDBRANCH   7   8
BRANCH   7  12
ATOM     12  C   UNL A   1      30.224  28.145  23.048  1.00  0.00     0.225 C 
ATOM     13  O   UNL A   1      29.342  27.312  23.278  1.00  0.00    -0.275 OA
BRANCH  12  14
ATOM     14  C   UNL A   1      29.815  29.434  22.363  1.00  0.00     0.138 C 
BRANCH  14  15
ATOM     15  C   UNL A   1      28.306  29.712  22.299  1.00  0.00     0.182 C 
ATOM     16  C   UNL A   1      27.749  30.727  23.315  1.00  0.00     0.293 C 
ATOM     17  O   UNL A   1      27.956  30.188  20.975  1.00  0.00    -0.366 OA
ATOM     18  N   UNL A   1      28.333  32.072  23.170  1.00  0.00    -0.342 N 
ATOM     19  C   UNL A   1      28.482  31.499  20.710  1.00  0.00     0.222 C 
ATOM     20  C   UNL A   1      28.101  32.531  21.787  1.00  0.00     0.289 C 
ATOM     21  H   UNL A   1      29.335  32.035  23.357  1.00  0.00     0.346 HD
ATOM     22  H   UNL A   1      27.901  32.717  23.831  1.00  0.00     0.346 HD
ENDBRANCH  14  15
ENDBRANCH  12  14
ENDBRANCH   7  12
ENDBRANCH   6   7
ENDBRANCH   3   6
ENDBRANCH   1   2
BRANCH   1  23
ATOM     23  C   UNL A   1      31.157  31.961  26.518  1.00  0.00     0.042 C 
BRANCH  23  24
ATOM     24  C   UNL A   1      32.515  32.509  26.949  1.00  0.00     0.118 C 
BRANCH  24  25
ATOM     25  N   UNL A   1      32.405  33.796  27.621  1.00  0.00    -0.352 N 
ATOM     26  C   UNL A   1      33.150  34.332  28.634  1.00  0.00     0.251 C 
ATOM     27  H   UNL A   1      31.677  34.373  27.295  1.00  0.00     0.163 HD
ATOM     28  O   UNL A   1      32.737  35.331  29.226  1.00  0.00    -0.269 OA
BRANCH  26  29
ATOM     29  C   UNL A   1      34.440  33.732  29.021  1.00  0.00     0.039 A 
ATOM     30  C   UNL A   1      35.566  33.987  28.234  1.00  0.00     0.014 A 
ATOM     31  C   UNL A   1      34.531  32.875  30.121  1.00  0.00     0.014 A 
ATOM     32  C   UNL A   1      36.791  33.412  28.574  1.00  0.00     0.010 A 
ATOM     33  C   UNL A   1      35.768  32.370  30.508  1.00  0.00     0.010 A 
ATOM     34  C   UNL A   1      36.905  32.617  29.725  1.00  0.00    -0.014 A 
BRANCH  34  35
ATOM     35  C   UNL A   1      38.202  32.008  30.106  1.00  0.00     0.031 A 
ATOM     36  C   UNL A   1      39.120  32.724  31.058  1.00  0.00     0.074 A 
ATOM     37  C   UNL A   1      38.568  30.833  29.562  1.00  0.00     0.049 A 
ATOM     38  N   UNL A   1      40.298  32.362  31.497  1.00  0.00    -0.248 NA
ATOM     39  C   UNL A   1      38.668  34.032  31.562  1.00  0.00     0.031 C 
ATOM     40  C   UNL A   1      37.781  30.065  28.594  1.00  0.00     0.029 A 
ATOM     41  N   UNL A   1      39.695  30.077  29.751  1.00  0.00    -0.354 N 
ATOM     42  C   UNL A   1      40.732  33.400  32.311  1.00  0.00     0.074 A 
ATOM     43  C   UNL A   1      39.719  34.431  32.262  1.00  0.00     0.031 C 
ATOM     44  C   UNL A   1      38.435  28.928  28.302  1.00  0.00     0.029 A 
ATOM     45  C   UNL A   1      39.697  28.905  29.034  1.00  0.00     0.049 A 
ATOM     46  H   UNL A   1      40.434  30.347  30.342  1.00  0.00     0.167 HD
ATOM     47  C   UNL A   1      41.862  33.481  33.052  1.00  0.00     0.031 A 
ATOM     48  C   UNL A   1      40.611  27.919  28.981  1.00  0.00     0.031 A 
ATOM     49  C   UNL A   1      42.862  32.449  33.111  1.00  0.00     0.049 A 
ATOM     50  C   UNL A   1      41.855  28.028  29.816  1.00  0.00     0.074 A 
ATOM     51  C   UNL A   1      44.019  32.409  33.869  1.00  0.00     0.029 A 
ATOM     52  N   UNL A   1      42.821  31.273  32.378  1.00  0.00    -0.354 N 
ATOM     53  N   UNL A   1      42.218  28.986  30.634  1.00  0.00    -0.248 NA
ATOM     54  C   UNL A   1      42.805  26.911  29.732  1.00  0.00     0.031 C 
ATOM     55  C   UNL A   1      44.699  31.224  33.564  1.00  0.00     0.029 A 
ATOM     56  C   UNL A   1      43.939  30.505  32.655  1.00  0.00     0.049 A 
ATOM     57  H   UNL A   1      42.103  31.020  31.754  1.00  0.00     0.167 HD
ATOM     58  C   UNL A   1      43.425  28.574  31.185  1.00  0.00     0.074 A 
ATOM     59  C   UNL A   1      43.722  27.274  30.619  1.00  0.00     0.031 C 
ATOM     60  C   UNL A   1      44.214  29.213  32.083  1.00  0.00     0.031 A 
BRANCH  47  61
ATOM     61  C   UNL A   1      42.072  34.734  33.857  1.00  0.00    -0.014 A 
ATOM     62  C   UNL A   1      41.611  34.833  35.180  1.00  0.00     0.009 A 
ATOM     63  C   UNL A   1      42.755  35.823  33.294  1.00  0.00     0.009 A 
ATOM     64  C   UNL A   1      41.793  36.012  35.907  1.00  0.00     0.001 A 
ATOM     65  C   UNL A   1      42.963  36.988  34.034  1.00  0.00     0.001 A 
ATOM     66  C   UNL A   1      42.472  37.086  35.335  1.00  0.00     0.000 A 
ENDBRANCH  47  61
BRANCH  48  67
ATOM     67  C   UNL A   1      40.364  26.723  28.134  1.00  0.00    -0.014 A 
ATOM     68  C   UNL A   1      39.554  25.678  28.604  1.00  0.00     0.009 A 
ATOM     69  C   UNL A   1      40.928  26.622  26.854  1.00  0.00     0.009 A 
ATOM     70  C   UNL A   1      39.336  24.544  27.818  1.00  0.00     0.001 A 
ATOM     71  C   UNL A   1      40.686  25.499  26.060  1.00  0.00     0.001 A 
ATOM     72  C   UNL A   1      39.898  24.458  26.546  1.00  0.00     0.000 A 
ENDBRANCH  48  67
BRANCH  60  73
ATOM     73  C   UNL A   1      45.452  28.495  32.537  1.00  0.00    -0.014 A 
ATOM     74  C   UNL A   1      46.668  28.630  31.851  1.00  0.00     0.009 A 
ATOM     75  C   UNL A   1      45.406  27.702  33.694  1.00  0.00     0.009 A 
ATOM     76  C   UNL A   1      47.806  27.954  32.295  1.00  0.00     0.001 A 
ATOM     77  C   UNL A   1      46.551  27.051  34.152  1.00  0.00     0.001 A 
ATOM     78  C   UNL A   1      47.748  27.170  33.447  1.00  0.00     0.000 A 
ENDBRANCH  60  73
ENDBRANCH  34  35
ENDBRANCH  26  29
ENDBRANCH  24  25
ENDBRANCH  23  24
ENDBRANCH   1  23
TORSDOF 16
ENDMDL
MODEL 2
REMARK VINA RESULT:     -10.1      4.745      9.829
REMARK SMILES CC(C)CN(CC(=O)NCCCNC(=O)c1ccc(-c2c3nc(c(-c4ccccc4)c4ccc([nH]4)c(-c4ccccc4)c4nc(c(-c5ccccc5)c5ccc2[nH]5)C=C4)C=C3)cc1)C(=O)C[C@H]1C[NH2+]CCO1
REMARK SMILES IDX 10 1 9 2 7 3 8 4 6 6 5 7 4 8 2 9 1 10 3 11 64 12 65 13 66 14
REMARK SMILES IDX 67 15 68 16 72 17 69 18 71 19 70 20 11 23 12 24 13 25 14 26
REMARK SMILES IDX 15 28 16 29 17 30 63 31 18 32 62 33 19 34 20 35 21 36 56 37
REMARK SMILES IDX 22 38 61 39 55 40 57 41 23 42 60 43 54 44 53 45 24 47 46 48
REMARK SMILES IDX 31 49 45 50 32 51 35 52 44 53 58 54 33 55 34 56 43 58 59 59
REMARK SMILES IDX 36 60 25 61 26 62 30 63 27 64 29 65 28 66 47 67 48 68 52 69
REMARK SMILES IDX 49 70 51 71 50 72 37 73 38 74 42 75 39 76 41 77 40 78
REMARK H PARENT 9 5 69 21 69 22 13 27 57 46 35 57
REMARK Flexibility Score: inf
ROOT
ATOM      1  C   UNL A   1      37.066  20.139  24.668  1.00  0.00     0.117 C 
ENDROOT
BRANCH   1   2
ATOM      2  N   UNL A   1      37.258  21.514  25.072  1.00  0.00    -0.354 N 
ATOM      3  C   UNL A   1      36.386  22.361  25.678  1.00  0.00     0.239 C 
ATOM      4  O   UNL A   1      36.773  23.508  25.925  1.00  0.00    -0.273 OA
ATOM      5  H   UNL A   1      38.147  21.890  24.881  1.00  0.00     0.163 HD
BRANCH   3   6
ATOM      6  C   UNL A   1      34.968  21.909  26.050  1.00  0.00     0.219 C 
BRANCH   6   7
ATOM      7  N   UNL A   1      33.932  22.128  25.028  1.00  0.00    -0.333 N 
BRANCH   7   8
ATOM      8  C   UNL A   1      33.537  23.524  24.765  1.00  0.00     0.123 C 
BRANCH   8   9
ATOM      9  C   UNL A   1      33.357  24.419  26.012  1.00  0.00     0.002 C 
ATOM     10  C   UNL A   1      33.803  25.866  25.784  1.00  0.00     0.009 C 
ATOM     11  C   UNL A   1      31.875  24.426  26.409  1.00  0.00     0.009 C 
ENDBRANCH   8   9
ENDBRANCH   7   8
BRANCH   7  12
ATOM     12  C   UNL A   1      33.302  21.128  24.297  1.00  0.00     0.225 C 
ATOM     13  O   UNL A   1      32.485  21.412  23.415  1.00  0.00    -0.275 OA
BRANCH  12  14
ATOM     14  C   UNL A   1      33.528  19.661  24.602  1.00  0.00     0.138 C 
BRANCH  14  15
ATOM     15  C   UNL A   1      32.459  18.692  24.078  1.00  0.00     0.182 C 
ATOM     16  C   UNL A   1      32.885  17.746  22.939  1.00  0.00     0.293 C 
ATOM     17  O   UNL A   1      31.976  17.866  25.168  1.00  0.00    -0.366 OA
ATOM     18  N   UNL A   1      33.984  16.842  23.317  1.00  0.00    -0.342 N 
ATOM     19  C   UNL A   1      32.972  16.940  25.633  1.00  0.00     0.222 C 
ATOM     20  C   UNL A   1      33.566  16.076  24.506  1.00  0.00     0.289 C 
ATOM     21  H   UNL A   1      34.819  17.385  23.534  1.00  0.00     0.346 HD
ATOM     22  H   UNL A   1      34.198  16.207  22.548  1.00  0.00     0.346 HD
ENDBRANCH  14  15
ENDBRANCH  12  14
ENDBRANCH   7  12
ENDBRANCH   6   7
ENDBRANCH   3   6
ENDBRANCH   1   2
BRANCH   1  23
ATOM     23  C   UNL A   1      38.261  19.264  25.027  1.00  0.00     0.042 C 
BRANCH  23  24
ATOM     24  C   UNL A   1      39.346  19.993  25.813  1.00  0.00     0.118 C 
BRANCH  24  25
ATOM     25  N   UNL A   1      40.604  19.259  25.836  1.00  0.00    -0.352 N 
ATOM     26  C   UNL A   1      41.882  19.698  26.035  1.00  0.00     0.251 C 
ATOM     27  H   UNL A   1      40.519  18.290  25.682  1.00  0.00     0.163 HD
ATOM     28  O   UNL A   1      42.827  18.953  25.767  1.00  0.00    -0.269 OA
BRANCH  26  29
ATOM     29  C   UNL A   1      42.141  21.048  26.567  1.00  0.00     0.039 A 
ATOM     30  C   UNL A   1      42.066  21.255  27.947  1.00  0.00     0.014 A 
ATOM     31  C   UNL A   1      42.401  22.121  25.710  1.00  0.00     0.014 A 
ATOM     32  C   UNL A   1      42.291  22.529  28.468  1.00  0.00     0.010 A 
ATOM     33  C   UNL A   1      42.707  23.372  26.234  1.00  0.00     0.010 A 
ATOM     34  C   UNL A   1      42.633  23.592  27.617  1.00  0.00    -0.014 A 
BRANCH  34  35
ATOM     35  C   UNL A   1      42.885  24.950  28.156  1.00  0.00     0.031 A 
ATOM     36  C   UNL A   1      44.280  25.363  28.536  1.00  0.00     0.074 A 
ATOM     37  C   UNL A   1      41.851  25.792  28.340  1.00  0.00     0.049 A 
ATOM     38  N   UNL A   1      44.696  26.498  29.037  1.00  0.00    -0.248 NA
ATOM     39  C   UNL A   1      45.344  24.361  28.355  1.00  0.00     0.031 C 
ATOM     40  C   UNL A   1      40.448  25.490  28.050  1.00  0.00     0.029 A 
ATOM     41  N   UNL A   1      41.824  27.078  28.813  1.00  0.00    -0.354 N 
ATOM     42  C   UNL A   1      46.060  26.340  29.246  1.00  0.00     0.074 A 
ATOM     43  C   UNL A   1      46.393  24.984  28.871  1.00  0.00     0.031 C 
ATOM     44  C   UNL A   1      39.702  26.574  28.316  1.00  0.00     0.029 A 
ATOM     45  C   UNL A   1      40.567  27.632  28.827  1.00  0.00     0.049 A 
ATOM     46  H   UNL A   1      42.628  27.560  29.115  1.00  0.00     0.167 HD
ATOM     47  C   UNL A   1      46.961  27.248  29.688  1.00  0.00     0.031 A 
ATOM     48  C   UNL A   1      40.160  28.858  29.202  1.00  0.00     0.031 A 
ATOM     49  C   UNL A   1      46.631  28.601  30.048  1.00  0.00     0.049 A 
ATOM     50  C   UNL A   1      41.179  29.851  29.685  1.00  0.00     0.074 A 
ATOM     51  C   UNL A   1      47.476  29.616  30.459  1.00  0.00     0.029 A 
ATOM     52  N   UNL A   1      45.348  29.125  30.037  1.00  0.00    -0.354 N 
ATOM     53  N   UNL A   1      42.477  29.708  29.812  1.00  0.00    -0.248 NA
ATOM     54  C   UNL A   1      40.679  31.180  30.059  1.00  0.00     0.031 C 
ATOM     55  C   UNL A   1      46.697  30.745  30.737  1.00  0.00     0.029 A 
ATOM     56  C   UNL A   1      45.375  30.447  30.448  1.00  0.00     0.049 A 
ATOM     57  H   UNL A   1      44.537  28.632  29.776  1.00  0.00     0.167 HD
ATOM     58  C   UNL A   1      42.951  30.936  30.253  1.00  0.00     0.074 A 
ATOM     59  C   UNL A   1      41.804  31.816  30.356  1.00  0.00     0.031 C 
ATOM     60  C   UNL A   1      44.223  31.305  30.541  1.00  0.00     0.031 A 
BRANCH  47  61
ATOM     61  C   UNL A   1      48.392  26.799  29.809  1.00  0.00    -0.014 A 
ATOM     62  C   UNL A   1      49.276  26.893  28.722  1.00  0.00     0.009 A 
ATOM     63  C   UNL A   1      48.867  26.294  31.028  1.00  0.00     0.009 A 
ATOM     64  C   UNL A   1      50.596  26.452  28.842  1.00  0.00     0.001 A 
ATOM     65  C   UNL A   1      50.196  25.881  31.155  1.00  0.00     0.001 A 
ATOM     66  C   UNL A   1      51.055  25.950  30.059  1.00  0.00     0.000 A 
ENDBRANCH  47  61
BRANCH  48  67
ATOM     67  C   UNL A   1      38.725  29.229  29.097  1.00  0.00    -0.014 A 
ATOM     68  C   UNL A   1      38.209  29.728  27.892  1.00  0.00     0.009 A 
ATOM     69  C   UNL A   1      37.865  29.080  30.195  1.00  0.00     0.009 A 
ATOM     70  C   UNL A   1      36.865  30.096  27.796  1.00  0.00     0.001 A 
ATOM     71  C   UNL A   1      36.515  29.423  30.088  1.00  0.00     0.001 A 
ATOM     72  C   UNL A   1      36.019  29.938  28.892  1.00  0.00     0.000 A 
ENDBRANCH  48  67
BRANCH  60  73
ATOM     73  C   UNL A   1      44.443  32.731  30.957  1.00  0.00    -0.014 A 
ATOM     74  C   UNL A   1      44.683  33.740  30.012  1.00  0.00     0.009 A 
ATOM     75  C   UNL A   1      44.370  33.074  32.317  1.00  0.00     0.009 A 
ATOM     76  C   UNL A   1      44.881  35.059  30.424  1.00  0.00     0.001 A 
ATOM     77  C   UNL A   1      44.540  34.396  32.723  1.00  0.00     0.001 A 
ATOM     78  C   UNL A   1      44.805  35.386  31.778  1.00  0.00     0.000 A 
ENDBRANCH  60  73
ENDBRANCH  34  35
ENDBRANCH  26  29
ENDBRANCH  24  25
ENDBRANCH  23  24
ENDBRANCH   1  23
TORSDOF 16
ENDMDL
MODEL 3
REMARK VINA RESULT:     -10.0      0.706      6.081
REMARK SMILES CC(C)CN(CC(=O)NCCCNC(=O)c1ccc(-c2c3nc(c(-c4ccccc4)c4ccc([nH]4)c(-c4ccccc4)c4nc(c(-c5ccccc5)c5ccc2[nH]5)C=C4)C=C3)cc1)C(=O)C[C@H]1C[NH2+]CCO1
REMARK SMILES IDX 10 1 9 2 7 3 8 4 6 6 5 7 4 8 2 9 1 10 3 11 64 12 65 13 66 14
REMARK SMILES IDX 67 15 68 16 72 17 69 18 71 19 70 20 11 23 12 24 13 25 14 26
REMARK SMILES IDX 15 28 16 29 17 30 63 31 18 32 62 33 19 34 20 35 21 36 56 37
REMARK SMILES IDX 22 38 61 39 55 40 57 41 23 42 60 43 54 44 53 45 24 47 46 48
REMARK SMILES IDX 31 49 45 50 32 51 35 52 44 53 58 54 33 55 34 56 43 58 59 59
REMARK SMILES IDX 36 60 25 61 26 62 30 63 27 64 29 65 28 66 47 67 48 68 52 69
REMARK SMILES IDX 49 70 51 71 50 72 37 73 38 74 42 75 39 76 41 77 40 78
REMARK H PARENT 9 5 69 21 69 22 13 27 57 46 35 57
REMARK Flexibility Score: inf
ROOT
ATOM      1  C   UNL A   1      31.359  30.868  25.786  1.00  0.00     0.117 C 
ENDROOT
BRANCH   1   2
ATOM      2  N   UNL A   1      32.507  30.048  26.104  1.00  0.00    -0.354 N 
ATOM      3  C   UNL A   1      33.183  29.174  25.314  1.00  0.00     0.239 C 
ATOM      4  O   UNL A   1      34.141  28.571  25.808  1.00  0.00    -0.273 OA
ATOM      5  H   UNL A   1      32.848  30.136  27.023  1.00  0.00     0.163 HD
BRANCH   3   6
ATOM      6  C   UNL A   1      32.775  28.945  23.853  1.00  0.00     0.219 C 
BRANCH   6   7
ATOM      7  N   UNL A   1      31.734  27.930  23.625  1.00  0.00    -0.333 N 
BRANCH   7   8
ATOM      8  C   UNL A   1      32.140  26.518  23.744  1.00  0.00     0.123 C 
BRANCH   8   9
ATOM      9  C   UNL A   1      33.326  26.080  22.855  1.00  0.00     0.002 C 
ATOM     10  C   UNL A   1      34.034  24.825  23.372  1.00  0.00     0.009 C 
ATOM     11  C   UNL A   1      32.807  25.795  21.440  1.00  0.00     0.009 C 
ENDBRANCH   8   9
ENDBRANCH   7   8
BRANCH   7  12
ATOM     12  C   UNL A   1      30.408  28.198  23.308  1.00  0.00     0.225 C 
ATOM     13  O   UNL A   1      29.527  27.359  23.522  1.00  0.00    -0.275 OA
BRANCH  12  14
ATOM     14  C   UNL A   1      30.002  29.486  22.621  1.00  0.00     0.138 C 
BRANCH  14  15
ATOM     15  C   UNL A   1      28.656  30.085  23.053  1.00  0.00     0.182 C 
ATOM     16  C   UNL A   1      28.674  31.551  23.525  1.00  0.00     0.293 C 
ATOM     17  O   UNL A   1      27.710  29.994  21.958  1.00  0.00    -0.366 OA
ATOM     18  N   UNL A   1      29.126  32.490  22.484  1.00  0.00    -0.342 N 
ATOM     19  C   UNL A   1      28.053  30.866  20.868  1.00  0.00     0.222 C 
ATOM     20  C   UNL A   1      28.254  32.328  21.305  1.00  0.00     0.289 C 
ATOM     21  H   UNL A   1      30.092  32.284  22.229  1.00  0.00     0.346 HD
ATOM     22  H   UNL A   1      29.077  33.448  22.828  1.00  0.00     0.346 HD
ENDBRANCH  14  15
ENDBRANCH  12  14
ENDBRANCH   7  12
ENDBRANCH   6   7
ENDBRANCH   3   6
ENDBRANCH   1   2
BRANCH   1  23
ATOM     23  C   UNL A   1      31.251  32.081  26.702  1.00  0.00     0.042 C 
BRANCH  23  24
ATOM     24  C   UNL A   1      32.595  32.591  27.214  1.00  0.00     0.118 C 
BRANCH  24  25
ATOM     25  N   UNL A   1      32.508  33.943  27.748  1.00  0.00    -0.352 N 
ATOM     26  C   UNL A   1      33.244  34.559  28.721  1.00  0.00     0.251 C 
ATOM     27  H   UNL A   1      31.807  34.503  27.343  1.00  0.00     0.163 HD
ATOM     28  O   UNL A   1      32.846  35.626  29.196  1.00  0.00    -0.269 OA
BRANCH  26  29
ATOM     29  C   UNL A   1      34.504  33.966  29.204  1.00  0.00     0.039 A 
ATOM     30  C   UNL A   1      34.468  33.118  30.313  1.00  0.00     0.014 A 
ATOM     31  C   UNL A   1      35.725  34.287  28.604  1.00  0.00     0.014 A 
ATOM     32  C   UNL A   1      35.652  32.561  30.795  1.00  0.00     0.010 A 
ATOM     33  C   UNL A   1      36.893  33.667  29.033  1.00  0.00     0.010 A 
ATOM     34  C   UNL A   1      36.871  32.816  30.146  1.00  0.00    -0.014 A 
BRANCH  34  35
ATOM     35  C   UNL A   1      38.137  32.224  30.640  1.00  0.00     0.031 A 
ATOM     36  C   UNL A   1      38.655  30.945  30.041  1.00  0.00     0.074 A 
ATOM     37  C   UNL A   1      38.794  32.816  31.654  1.00  0.00     0.049 A 
ATOM     38  N   UNL A   1      39.731  30.267  30.350  1.00  0.00    -0.248 NA
ATOM     39  C   UNL A   1      37.845  30.333  28.976  1.00  0.00     0.031 C 
ATOM     40  C   UNL A   1      38.368  34.035  32.344  1.00  0.00     0.029 A 
ATOM     41  N   UNL A   1      39.966  32.472  32.277  1.00  0.00    -0.354 N 
ATOM     42  C   UNL A   1      39.716  29.145  29.530  1.00  0.00     0.074 A 
ATOM     43  C   UNL A   1      38.499  29.203  28.752  1.00  0.00     0.031 C 
ATOM     44  C   UNL A   1      39.285  34.357  33.272  1.00  0.00     0.029 A 
ATOM     45  C   UNL A   1      40.342  33.351  33.263  1.00  0.00     0.049 A 
ATOM     46  H   UNL A   1      40.487  31.671  32.042  1.00  0.00     0.167 HD
ATOM     47  C   UNL A   1      40.644  28.165  29.418  1.00  0.00     0.031 A 
ATOM     48  C   UNL A   1      41.423  33.350  34.064  1.00  0.00     0.031 A 
ATOM     49  C   UNL A   1      41.860  28.116  30.183  1.00  0.00     0.049 A 
ATOM     50  C   UNL A   1      42.441  32.255  33.918  1.00  0.00     0.074 A 
ATOM     51  C   UNL A   1      42.890  27.196  30.110  1.00  0.00     0.029 A 
ATOM     52  N   UNL A   1      42.209  29.032  31.163  1.00  0.00    -0.354 N 
ATOM     53  N   UNL A   1      42.446  31.238  33.091  1.00  0.00    -0.248 NA
ATOM     54  C   UNL A   1      43.609  32.319  34.805  1.00  0.00     0.031 C 
ATOM     55  C   UNL A   1      43.845  27.532  31.077  1.00  0.00     0.029 A 
ATOM     56  C   UNL A   1      43.433  28.691  31.714  1.00  0.00     0.049 A 
ATOM     57  H   UNL A   1      41.667  29.810  31.429  1.00  0.00     0.167 HD
ATOM     58  C   UNL A   1      43.631  30.557  33.337  1.00  0.00     0.074 A 
ATOM     59  C   UNL A   1      44.324  31.287  34.380  1.00  0.00     0.031 C 
ATOM     60  C   UNL A   1      44.106  29.432  32.749  1.00  0.00     0.031 A 
BRANCH  47  61
ATOM     61  C   UNL A   1      40.369  27.065  28.430  1.00  0.00    -0.014 A 
ATOM     62  C   UNL A   1      39.627  25.930  28.796  1.00  0.00     0.009 A 
ATOM     63  C   UNL A   1      40.840  27.171  27.113  1.00  0.00     0.009 A 
ATOM     64  C   UNL A   1      39.398  24.905  27.875  1.00  0.00     0.001 A 
ATOM     65  C   UNL A   1      40.584  26.159  26.185  1.00  0.00     0.001 A 
ATOM     66  C   UNL A   1      39.874  25.023  26.569  1.00  0.00     0.000 A 
ENDBRANCH  47  61
BRANCH  48  67
ATOM     67  C   UNL A   1      41.617  34.445  35.050  1.00  0.00    -0.014 A 
ATOM     68  C   UNL A   1      41.122  34.317  36.357  1.00  0.00     0.009 A 
ATOM     69  C   UNL A   1      42.300  35.617  34.695  1.00  0.00     0.009 A 
ATOM     70  C   UNL A   1      41.285  35.352  37.280  1.00  0.00     0.001 A 
ATOM     71  C   UNL A   1      42.486  36.639  35.628  1.00  0.00     0.001 A 
ATOM     72  C   UNL A   1      41.971  36.509  36.917  1.00  0.00     0.000 A 
ENDBRANCH  48  67
BRANCH  60  73
ATOM     73  C   UNL A   1      45.455  28.946  33.193  1.00  0.00    -0.014 A 
ATOM     74  C   UNL A   1      45.591  28.020  34.239  1.00  0.00     0.009 A 
ATOM     75  C   UNL A   1      46.606  29.395  32.526  1.00  0.00     0.009 A 
ATOM     76  C   UNL A   1      46.857  27.581  34.631  1.00  0.00     0.001 A 
ATOM     77  C   UNL A   1      47.867  28.933  32.901  1.00  0.00     0.001 A 
ATOM     78  C   UNL A   1      47.992  28.034  33.959  1.00  0.00     0.000 A 
ENDBRANCH  60  73
ENDBRANCH  34  35
ENDBRANCH  26  29
ENDBRANCH  24  25
ENDBRANCH  23  24
ENDBRANCH   1  23
TORSDOF 16
ENDMDL
