MODEL 1
REMARK VINA RESULT:     -14.2      0.000      0.000
REMARK SMILES Cc1ccccc1C(=O)Nc1cc(C(=O)NCCCNC(=O)c2ccc(-c3c4nc(c(-c5ccccc5)c5ccc([nH]5)c(-c5ccccc5)c5nc(c(-c6ccccc6)c6ccc3[nH]6)C=C5)C=C4)cc2)ccc1N1CC[NH+](CC(=O)Nc2ccc(F)cc2)CC1
REMARK SMILES IDX 17 1 16 2 14 3 15 4 13 6 11 7 12 8 73 9 72 10 71 11 10 12
REMARK SMILES IDX 8 13 9 14 7 16 1 17 2 18 3 19 4 20 6 21 5 22 74 23 75 24
REMARK SMILES IDX 90 25 76 26 89 27 77 28 78 30 79 31 80 32 81 33 82 35 83 36
REMARK SMILES IDX 88 37 84 38 87 39 85 40 86 41 18 42 19 43 20 44 21 45 22 47
REMARK SMILES IDX 23 48 24 49 70 50 25 51 69 52 26 53 27 54 28 55 63 56 29 57
REMARK SMILES IDX 68 58 62 59 64 60 30 61 67 62 61 63 60 64 31 66 53 67 38 68
REMARK SMILES IDX 52 69 39 70 42 71 51 72 65 73 40 74 41 75 50 77 66 78 43 79
REMARK SMILES IDX 32 80 33 81 37 82 34 83 36 84 35 85 54 86 55 87 59 88 56 89
REMARK SMILES IDX 58 90 57 91 44 92 45 93 49 94 46 95 48 96 47 97
REMARK H PARENT 16 5 10 15 77 29 81 34 20 46 64 65 42 76
REMARK Flexibility Score: inf
ROOT
ATOM      1  C   UNL A   1      33.960  31.419  28.057  1.00  0.00     0.118 C 
ENDROOT
BRANCH   1   2
ATOM      2  N   UNL A   1      32.864  31.825  27.175  1.00  0.00    -0.352 N 
ATOM      3  C   UNL A   1      31.876  31.139  26.492  1.00  0.00     0.251 C 
ATOM      4  O   UNL A   1      30.974  31.805  25.982  1.00  0.00    -0.269 OA
ATOM      5  H   UNL A   1      32.821  32.799  27.039  1.00  0.00     0.163 HD
BRANCH   3   6
ATOM      6  C   UNL A   1      31.835  29.654  26.317  1.00  0.00     0.042 A 
ATOM      7  C   UNL A   1      31.808  27.669  24.913  1.00  0.00     0.065 A 
ATOM      8  C   UNL A   1      31.852  29.046  25.081  1.00  0.00     0.042 A 
ATOM      9  C   UNL A   1      31.714  26.781  26.013  1.00  0.00     0.061 A 
ATOM     10  C   UNL A   1      31.679  27.397  27.275  1.00  0.00     0.029 A 
ATOM     11  C   UNL A   1      31.752  28.804  27.427  1.00  0.00     0.016 A 
BRANCH   7  12
ATOM     12  N   UNL A   1      31.823  27.197  23.593  1.00  0.00    -0.320 N 
ATOM     13  C   UNL A   1      30.997  27.497  22.525  1.00  0.00     0.255 C 
ATOM     14  O   UNL A   1      31.328  27.060  21.417  1.00  0.00    -0.269 OA
ATOM     15  H   UNL A   1      32.534  26.547  23.394  1.00  0.00     0.170 HD
BRANCH  13  16
ATOM     16  C   UNL A   1      29.740  28.308  22.604  1.00  0.00     0.043 A 
ATOM     17  C   UNL A   1      28.209  26.686  23.936  1.00  0.00     0.045 C 
ATOM     18  C   UNL A   1      28.502  27.955  23.186  1.00  0.00    -0.038 A 
ATOM     19  C   UNL A   1      27.423  28.863  23.089  1.00  0.00     0.004 A 
ATOM     20  C   UNL A   1      27.581  30.126  22.522  1.00  0.00     0.000 A 
ATOM     21  C   UNL A   1      29.885  29.607  22.071  1.00  0.00     0.014 A 
ATOM     22  C   UNL A   1      28.821  30.510  22.034  1.00  0.00     0.001 A 
ENDBRANCH  13  16
ENDBRANCH   7  12
BRANCH   9  23
ATOM     23  N   UNL A   1      31.726  25.399  25.860  1.00  0.00    -0.359 N 
ATOM     24  C   UNL A   1      30.624  24.485  26.265  1.00  0.00     0.178 C 
ATOM     25  C   UNL A   1      33.001  24.687  25.828  1.00  0.00     0.178 C 
ATOM     26  C   UNL A   1      30.759  23.030  25.637  1.00  0.00     0.284 C 
ATOM     27  C   UNL A   1      32.888  23.634  24.727  1.00  0.00     0.284 C 
ATOM     28  N   UNL A   1      32.085  22.518  25.204  1.00  0.00    -0.324 N 
ATOM     29  H   UNL A   1      31.874  21.864  24.449  1.00  0.00     0.348 HD
BRANCH  28  30
ATOM     30  C   UNL A   1      32.827  21.601  26.104  1.00  0.00     0.364 C 
BRANCH  30  31
ATOM     31  C   UNL A   1      33.330  20.277  25.530  1.00  0.00     0.279 C 
ATOM     32  O   UNL A   1      32.558  19.308  25.476  1.00  0.00    -0.268 OA
ATOM     33  N   UNL A   1      34.579  20.066  25.007  1.00  0.00    -0.321 N 
ATOM     34  H   UNL A   1      34.585  19.274  24.422  1.00  0.00     0.170 HD
BRANCH  33  35
ATOM     35  C   UNL A   1      35.861  20.658  25.070  1.00  0.00     0.041 A 
ATOM     36  C   UNL A   1      36.953  19.781  24.925  1.00  0.00     0.029 A 
ATOM     37  C   UNL A   1      36.144  21.986  25.373  1.00  0.00     0.029 A 
ATOM     38  C   UNL A   1      38.272  20.207  25.140  1.00  0.00     0.041 A 
ATOM     39  C   UNL A   1      37.456  22.407  25.652  1.00  0.00     0.041 A 
ATOM     40  C   UNL A   1      38.509  21.514  25.534  1.00  0.00     0.123 A 
ATOM     41  F   UNL A   1      39.760  21.915  25.793  1.00  0.00    -0.207 F 
ENDBRANCH  33  35
ENDBRANCH  30  31
ENDBRANCH  28  30
ENDBRANCH   9  23
ENDBRANCH   3   6
ENDBRANCH   1   2
BRANCH   1  42
ATOM     42  C   UNL A   1      34.854  32.578  28.528  1.00  0.00     0.042 C 
BRANCH  42  43
ATOM     43  C   UNL A   1      35.139  32.572  30.012  1.00  0.00     0.118 C 
BRANCH  43  44
ATOM     44  N   UNL A   1      34.102  33.194  30.840  1.00  0.00    -0.352 N 
ATOM     45  C   UNL A   1      34.271  33.765  32.097  1.00  0.00     0.251 C 
ATOM     46  H   UNL A   1      33.190  33.208  30.468  1.00  0.00     0.163 HD
ATOM     47  O   UNL A   1      33.361  34.303  32.691  1.00  0.00    -0.269 OA
BRANCH  45  48
ATOM     48  C   UNL A   1      35.658  33.803  32.620  1.00  0.00     0.039 A 
ATOM     49  C   UNL A   1      36.564  34.588  31.904  1.00  0.00     0.014 A 
ATOM     50  C   UNL A   1      36.088  32.757  33.433  1.00  0.00     0.014 A 
ATOM     51  C   UNL A   1      37.869  34.134  31.764  1.00  0.00     0.010 A 
ATOM     52  C   UNL A   1      37.352  32.247  33.205  1.00  0.00     0.010 A 
ATOM     53  C   UNL A   1      38.210  32.891  32.304  1.00  0.00    -0.014 A 
BRANCH  53  54
ATOM     54  C   UNL A   1      39.413  32.175  31.897  1.00  0.00     0.031 A 
ATOM     55  C   UNL A   1      39.271  30.958  31.082  1.00  0.00     0.074 A 
ATOM     56  C   UNL A   1      40.647  32.550  32.307  1.00  0.00     0.049 A 
ATOM     57  N   UNL A   1      40.009  29.905  31.207  1.00  0.00    -0.248 NA
ATOM     58  C   UNL A   1      38.206  30.815  30.099  1.00  0.00     0.031 C 
ATOM     59  C   UNL A   1      41.922  31.979  31.879  1.00  0.00     0.029 A 
ATOM     60  N   UNL A   1      40.988  33.360  33.391  1.00  0.00    -0.354 N 
ATOM     61  C   UNL A   1      39.733  29.098  30.129  1.00  0.00     0.074 A 
ATOM     62  C   UNL A   1      38.529  29.645  29.546  1.00  0.00     0.031 C 
ATOM     63  C   UNL A   1      42.825  32.170  32.854  1.00  0.00     0.029 A 
ATOM     64  C   UNL A   1      42.134  32.787  33.972  1.00  0.00     0.049 A 
ATOM     65  H   UNL A   1      40.520  34.173  33.690  1.00  0.00     0.167 HD
ATOM     66  C   UNL A   1      40.641  28.162  29.729  1.00  0.00     0.031 A 
ATOM     67  C   UNL A   1      42.209  32.393  35.275  1.00  0.00     0.031 A 
ATOM     68  C   UNL A   1      41.793  28.092  30.628  1.00  0.00     0.049 A 
ATOM     69  C   UNL A   1      42.552  30.928  35.435  1.00  0.00     0.074 A 
ATOM     70  C   UNL A   1      43.090  28.575  30.534  1.00  0.00     0.029 A 
ATOM     71  N   UNL A   1      41.615  27.707  31.953  1.00  0.00    -0.354 N 
ATOM     72  N   UNL A   1      42.519  30.064  34.460  1.00  0.00    -0.248 NA
ATOM     73  C   UNL A   1      42.881  30.306  36.715  1.00  0.00     0.031 C 
ATOM     74  C   UNL A   1      43.673  28.528  31.826  1.00  0.00     0.029 A 
ATOM     75  C   UNL A   1      42.740  28.000  32.700  1.00  0.00     0.049 A 
ATOM     76  H   UNL A   1      40.801  27.283  32.308  1.00  0.00     0.167 HD
ATOM     77  C   UNL A   1      42.792  28.810  34.942  1.00  0.00     0.074 A 
ATOM     78  C   UNL A   1      43.027  29.017  36.360  1.00  0.00     0.031 C 
ATOM     79  C   UNL A   1      42.783  27.711  34.129  1.00  0.00     0.031 A 
BRANCH  66  80
ATOM     80  C   UNL A   1      40.627  27.578  28.332  1.00  0.00    -0.014 A 
ATOM     81  C   UNL A   1      39.996  26.342  28.097  1.00  0.00     0.009 A 
ATOM     82  C   UNL A   1      41.282  28.145  27.226  1.00  0.00     0.009 A 
ATOM     83  C   UNL A   1      40.121  25.661  26.878  1.00  0.00     0.001 A 
ATOM     84  C   UNL A   1      41.456  27.451  26.020  1.00  0.00     0.001 A 
ATOM     85  C   UNL A   1      40.887  26.198  25.852  1.00  0.00     0.000 A 
ENDBRANCH  66  80
BRANCH  67  86
ATOM     86  C   UNL A   1      41.316  33.158  36.185  1.00  0.00    -0.014 A 
ATOM     87  C   UNL A   1      41.661  34.494  36.470  1.00  0.00     0.009 A 
ATOM     88  C   UNL A   1      39.996  32.741  36.404  1.00  0.00     0.009 A 
ATOM     89  C   UNL A   1      40.679  35.425  36.821  1.00  0.00     0.001 A 
ATOM     90  C   UNL A   1      39.021  33.676  36.772  1.00  0.00     0.001 A 
ATOM     91  C   UNL A   1      39.353  35.021  36.935  1.00  0.00     0.000 A 
ENDBRANCH  67  86
BRANCH  79  92
ATOM     92  C   UNL A   1      42.900  26.268  34.565  1.00  0.00    -0.014 A 
ATOM     93  C   UNL A   1      41.942  25.578  35.317  1.00  0.00     0.009 A 
ATOM     94  C   UNL A   1      44.001  25.508  34.106  1.00  0.00     0.009 A 
ATOM     95  C   UNL A   1      42.102  24.222  35.643  1.00  0.00     0.001 A 
ATOM     96  C   UNL A   1      44.144  24.147  34.389  1.00  0.00     0.001 A 
ATOM     97  C   UNL A   1      43.198  23.506  35.173  1.00  0.00     0.000 A 
ENDBRANCH  79  92
ENDBRANCH  53  54
ENDBRANCH  45  48
ENDBRANCH  43  44
ENDBRANCH  42  43
ENDBRANCH   1  42
TORSDOF 16
ENDMDL
MODEL 2
REMARK VINA RESULT:     -14.1      1.610      2.121
REMARK SMILES Cc1ccccc1C(=O)Nc1cc(C(=O)NCCCNC(=O)c2ccc(-c3c4nc(c(-c5ccccc5)c5ccc([nH]5)c(-c5ccccc5)c5nc(c(-c6ccccc6)c6ccc3[nH]6)C=C5)C=C4)cc2)ccc1N1CC[NH+](CC(=O)Nc2ccc(F)cc2)CC1
REMARK SMILES IDX 17 1 16 2 14 3 15 4 13 6 11 7 12 8 73 9 72 10 71 11 10 12
REMARK SMILES IDX 8 13 9 14 7 16 1 17 2 18 3 19 4 20 6 21 5 22 74 23 75 24
REMARK SMILES IDX 90 25 76 26 89 27 77 28 78 30 79 31 80 32 81 33 82 35 83 36
REMARK SMILES IDX 88 37 84 38 87 39 85 40 86 41 18 42 19 43 20 44 21 45 22 47
REMARK SMILES IDX 23 48 24 49 70 50 25 51 69 52 26 53 27 54 28 55 63 56 29 57
REMARK SMILES IDX 68 58 62 59 64 60 30 61 67 62 61 63 60 64 31 66 53 67 38 68
REMARK SMILES IDX 52 69 39 70 42 71 51 72 65 73 40 74 41 75 50 77 66 78 43 79
REMARK SMILES IDX 32 80 33 81 37 82 34 83 36 84 35 85 54 86 55 87 59 88 56 89
REMARK SMILES IDX 58 90 57 91 44 92 45 93 49 94 46 95 48 96 47 97
REMARK H PARENT 16 5 10 15 77 29 81 34 20 46 64 65 42 76
REMARK Flexibility Score: inf
ROOT
ATOM      1  C   UNL A   1      33.854  31.583  28.019  1.00  0.00     0.118 C 
ENDROOT
BRANCH   1   2
ATOM      2  N   UNL A   1      32.728  31.921  27.146  1.00  0.00    -0.352 N 
ATOM      3  C   UNL A   1      31.784  31.175  26.464  1.00  0.00     0.251 C 
ATOM      4  O   UNL A   1      30.837  31.782  25.963  1.00  0.00    -0.269 OA
ATOM      5  H   UNL A   1      32.620  32.890  27.016  1.00  0.00     0.163 HD
BRANCH   3   6
ATOM      6  C   UNL A   1      31.841  29.691  26.280  1.00  0.00     0.042 A 
ATOM      7  C   UNL A   1      31.890  27.716  24.864  1.00  0.00     0.065 A 
ATOM      8  C   UNL A   1      31.844  29.092  25.040  1.00  0.00     0.042 A 
ATOM      9  C   UNL A   1      31.909  26.818  25.961  1.00  0.00     0.061 A 
ATOM     10  C   UNL A   1      31.888  27.425  27.228  1.00  0.00     0.029 A 
ATOM     11  C   UNL A   1      31.868  28.833  27.386  1.00  0.00     0.016 A 
BRANCH   7  12
ATOM     12  N   UNL A   1      31.878  27.252  23.541  1.00  0.00    -0.320 N 
ATOM     13  C   UNL A   1      31.018  27.541  22.498  1.00  0.00     0.255 C 
ATOM     14  O   UNL A   1      31.327  27.117  21.379  1.00  0.00    -0.269 OA
ATOM     15  H   UNL A   1      32.596  26.616  23.320  1.00  0.00     0.170 HD
BRANCH  13  16
ATOM     16  C   UNL A   1      29.748  28.327  22.616  1.00  0.00     0.043 A 
ATOM     17  C   UNL A   1      28.262  26.640  23.917  1.00  0.00     0.045 C 
ATOM     18  C   UNL A   1      28.524  27.936  23.202  1.00  0.00    -0.038 A 
ATOM     19  C   UNL A   1      27.428  28.827  23.144  1.00  0.00     0.004 A 
ATOM     20  C   UNL A   1      27.557  30.108  22.614  1.00  0.00     0.000 A 
ATOM     21  C   UNL A   1      29.864  29.644  22.120  1.00  0.00     0.014 A 
ATOM     22  C   UNL A   1      28.784  30.528  22.122  1.00  0.00     0.001 A 
ENDBRANCH  13  16
ENDBRANCH   7  12
BRANCH   9  23
ATOM     23  N   UNL A   1      32.012  25.441  25.797  1.00  0.00    -0.359 N 
ATOM     24  C   UNL A   1      31.027  24.445  26.300  1.00  0.00     0.178 C 
ATOM     25  C   UNL A   1      33.328  24.829  25.638  1.00  0.00     0.178 C 
ATOM     26  C   UNL A   1      31.212  23.005  25.651  1.00  0.00     0.284 C 
ATOM     27  C   UNL A   1      33.191  23.771  24.544  1.00  0.00     0.284 C 
ATOM     28  N   UNL A   1      32.525  22.596  25.088  1.00  0.00    -0.324 N 
ATOM     29  H   UNL A   1      32.293  21.928  24.352  1.00  0.00     0.348 HD
BRANCH  28  30
ATOM     30  C   UNL A   1      33.418  21.739  25.906  1.00  0.00     0.364 C 
BRANCH  30  31
ATOM     31  C   UNL A   1      34.698  21.210  25.261  1.00  0.00     0.279 C 
ATOM     32  O   UNL A   1      35.617  22.002  25.000  1.00  0.00    -0.268 OA
ATOM     33  N   UNL A   1      34.956  19.895  24.979  1.00  0.00    -0.321 N 
ATOM     34  H   UNL A   1      35.923  19.741  24.874  1.00  0.00     0.170 HD
BRANCH  33  35
ATOM     35  C   UNL A   1      34.232  18.695  24.794  1.00  0.00     0.041 A 
ATOM     36  C   UNL A   1      33.115  18.514  25.632  1.00  0.00     0.029 A 
ATOM     37  C   UNL A   1      34.581  17.640  23.958  1.00  0.00     0.029 A 
ATOM     38  C   UNL A   1      32.416  17.299  25.673  1.00  0.00     0.041 A 
ATOM     39  C   UNL A   1      33.926  16.398  24.038  1.00  0.00     0.041 A 
ATOM     40  C   UNL A   1      32.850  16.237  24.895  1.00  0.00     0.123 A 
ATOM     41  F   UNL A   1      32.221  15.057  24.968  1.00  0.00    -0.207 F 
ENDBRANCH  33  35
ENDBRANCH  30  31
ENDBRANCH  28  30
ENDBRANCH   9  23
ENDBRANCH   3   6
ENDBRANCH   1   2
BRANCH   1  42
ATOM     42  C   UNL A   1      35.160  32.321  27.680  1.00  0.00     0.042 C 
BRANCH  42  43
ATOM     43  C   UNL A   1      35.374  33.590  28.472  1.00  0.00     0.118 C 
BRANCH  43  44
ATOM     44  N   UNL A   1      34.164  34.142  29.087  1.00  0.00    -0.352 N 
ATOM     45  C   UNL A   1      33.891  34.238  30.448  1.00  0.00     0.251 C 
ATOM     46  H   UNL A   1      33.472  34.481  28.474  1.00  0.00     0.163 HD
ATOM     47  O   UNL A   1      32.880  34.757  30.871  1.00  0.00    -0.269 OA
BRANCH  45  48
ATOM     48  C   UNL A   1      34.965  33.790  31.367  1.00  0.00     0.039 A 
ATOM     49  C   UNL A   1      36.050  34.657  31.513  1.00  0.00     0.014 A 
ATOM     50  C   UNL A   1      35.084  32.428  31.634  1.00  0.00     0.014 A 
ATOM     51  C   UNL A   1      37.322  34.114  31.632  1.00  0.00     0.010 A 
ATOM     52  C   UNL A   1      36.355  31.885  31.641  1.00  0.00     0.010 A 
ATOM     53  C   UNL A   1      37.471  32.726  31.554  1.00  0.00    -0.014 A 
BRANCH  53  54
ATOM     54  C   UNL A   1      38.763  32.101  31.294  1.00  0.00     0.031 A 
ATOM     55  C   UNL A   1      38.801  30.853  30.515  1.00  0.00     0.074 A 
ATOM     56  C   UNL A   1      39.915  32.589  31.810  1.00  0.00     0.049 A 
ATOM     57  N   UNL A   1      39.604  29.869  30.751  1.00  0.00    -0.248 NA
ATOM     58  C   UNL A   1      37.856  30.594  29.437  1.00  0.00     0.031 C 
ATOM     59  C   UNL A   1      41.268  32.113  31.531  1.00  0.00     0.029 A 
ATOM     60  N   UNL A   1      40.078  33.455  32.891  1.00  0.00    -0.354 N 
ATOM     61  C   UNL A   1      39.503  29.011  29.681  1.00  0.00     0.074 A 
ATOM     62  C   UNL A   1      38.325  29.440  28.963  1.00  0.00     0.031 C 
ATOM     63  C   UNL A   1      42.049  32.407  32.582  1.00  0.00     0.029 A 
ATOM     64  C   UNL A   1      41.201  32.996  33.603  1.00  0.00     0.049 A 
ATOM     65  H   UNL A   1      39.520  34.235  33.112  1.00  0.00     0.167 HD
ATOM     66  C   UNL A   1      40.518  28.143  29.408  1.00  0.00     0.031 A 
ATOM     67  C   UNL A   1      41.175  32.648  34.921  1.00  0.00     0.031 A 
ATOM     68  C   UNL A   1      41.576  28.194  30.418  1.00  0.00     0.049 A 
ATOM     69  C   UNL A   1      41.616  31.222  35.168  1.00  0.00     0.074 A 
ATOM     70  C   UNL A   1      42.833  28.780  30.436  1.00  0.00     0.029 A 
ATOM     71  N   UNL A   1      41.296  27.834  31.733  1.00  0.00    -0.354 N 
ATOM     72  N   UNL A   1      41.750  30.330  34.228  1.00  0.00    -0.248 NA
ATOM     73  C   UNL A   1      41.862  30.666  36.497  1.00  0.00     0.031 C 
ATOM     74  C   UNL A   1      43.284  28.819  31.779  1.00  0.00     0.029 A 
ATOM     75  C   UNL A   1      42.311  28.241  32.576  1.00  0.00     0.049 A 
ATOM     76  H   UNL A   1      40.485  27.355  32.022  1.00  0.00     0.167 HD
ATOM     77  C   UNL A   1      42.071  29.117  34.781  1.00  0.00     0.074 A 
ATOM     78  C   UNL A   1      42.145  29.384  36.206  1.00  0.00     0.031 C 
ATOM     79  C   UNL A   1      42.233  27.999  34.013  1.00  0.00     0.031 A 
BRANCH  66  80
ATOM     80  C   UNL A   1      40.693  27.519  28.040  1.00  0.00    -0.014 A 
ATOM     81  C   UNL A   1      40.183  26.232  27.788  1.00  0.00     0.009 A 
ATOM     82  C   UNL A   1      41.415  28.103  26.985  1.00  0.00     0.009 A 
ATOM     83  C   UNL A   1      40.484  25.527  26.614  1.00  0.00     0.001 A 
ATOM     84  C   UNL A   1      41.764  27.390  25.830  1.00  0.00     0.001 A 
ATOM     85  C   UNL A   1      41.310  26.092  25.651  1.00  0.00     0.000 A 
ENDBRANCH  66  80
BRANCH  67  86
ATOM     86  C   UNL A   1      40.137  33.362  35.710  1.00  0.00    -0.014 A 
ATOM     87  C   UNL A   1      38.890  32.727  35.877  1.00  0.00     0.009 A 
ATOM     88  C   UNL A   1      40.495  34.389  36.595  1.00  0.00     0.009 A 
ATOM     89  C   UNL A   1      38.090  33.009  36.988  1.00  0.00     0.001 A 
ATOM     90  C   UNL A   1      39.680  34.676  37.696  1.00  0.00     0.001 A 
ATOM     91  C   UNL A   1      38.505  33.957  37.917  1.00  0.00     0.000 A 
ENDBRANCH  67  86
BRANCH  79  92
ATOM     92  C   UNL A   1      42.419  26.584  34.511  1.00  0.00    -0.014 A 
ATOM     93  C   UNL A   1      41.498  25.883  35.299  1.00  0.00     0.009 A 
ATOM     94  C   UNL A   1      43.552  25.856  34.079  1.00  0.00     0.009 A 
ATOM     95  C   UNL A   1      41.723  24.553  35.685  1.00  0.00     0.001 A 
ATOM     96  C   UNL A   1      43.760  24.517  34.421  1.00  0.00     0.001 A 
ATOM     97  C   UNL A   1      42.849  23.868  35.239  1.00  0.00     0.000 A 
ENDBRANCH  79  92
ENDBRANCH  53  54
ENDBRANCH  45  48
ENDBRANCH  43  44
ENDBRANCH  42  43
ENDBRANCH   1  42
TORSDOF 16
ENDMDL
MODEL 3
REMARK VINA RESULT:     -13.8      4.368     10.200
REMARK SMILES Cc1ccccc1C(=O)Nc1cc(C(=O)NCCCNC(=O)c2ccc(-c3c4nc(c(-c5ccccc5)c5ccc([nH]5)c(-c5ccccc5)c5nc(c(-c6ccccc6)c6ccc3[nH]6)C=C5)C=C4)cc2)ccc1N1CC[NH+](CC(=O)Nc2ccc(F)cc2)CC1
REMARK SMILES IDX 17 1 16 2 14 3 15 4 13 6 11 7 12 8 73 9 72 10 71 11 10 12
REMARK SMILES IDX 8 13 9 14 7 16 1 17 2 18 3 19 4 20 6 21 5 22 74 23 75 24
REMARK SMILES IDX 90 25 76 26 89 27 77 28 78 30 79 31 80 32 81 33 82 35 83 36
REMARK SMILES IDX 88 37 84 38 87 39 85 40 86 41 18 42 19 43 20 44 21 45 22 47
REMARK SMILES IDX 23 48 24 49 70 50 25 51 69 52 26 53 27 54 28 55 63 56 29 57
REMARK SMILES IDX 68 58 62 59 64 60 30 61 67 62 61 63 60 64 31 66 53 67 38 68
REMARK SMILES IDX 52 69 39 70 42 71 51 72 65 73 40 74 41 75 50 77 66 78 43 79
REMARK SMILES IDX 32 80 33 81 37 82 34 83 36 84 35 85 54 86 55 87 59 88 56 89
REMARK SMILES IDX 58 90 57 91 44 92 45 93 49 94 46 95 48 96 47 97
REMARK H PARENT 16 5 10 15 77 29 81 34 20 46 64 65 42 76
REMARK Flexibility Score: inf
ROOT
ATOM      1  C   UNL A   1      39.470  22.189  26.323  1.00  0.00     0.118 C 
ENDROOT
BRANCH   1   2
ATOM      2  N   UNL A   1      38.855  20.931  25.896  1.00  0.00    -0.352 N 
ATOM      3  C   UNL A   1      37.751  20.616  25.124  1.00  0.00     0.251 C 
ATOM      4  O   UNL A   1      37.613  19.438  24.790  1.00  0.00    -0.269 OA
ATOM      5  H   UNL A   1      39.329  20.138  26.233  1.00  0.00     0.163 HD
BRANCH   3   6
ATOM      6  C   UNL A   1      36.712  21.596  24.681  1.00  0.00     0.042 A 
ATOM      7  C   UNL A   1      34.447  22.479  24.739  1.00  0.00     0.065 A 
ATOM      8  C   UNL A   1      35.417  21.576  25.151  1.00  0.00     0.042 A 
ATOM      9  C   UNL A   1      34.716  23.481  23.773  1.00  0.00     0.061 A 
ATOM     10  C   UNL A   1      36.031  23.494  23.278  1.00  0.00     0.029 A 
ATOM     11  C   UNL A   1      37.014  22.580  23.732  1.00  0.00     0.016 A 
BRANCH   7  12
ATOM     12  N   UNL A   1      33.171  22.327  25.298  1.00  0.00    -0.320 N 
ATOM     13  C   UNL A   1      32.296  21.257  25.260  1.00  0.00     0.255 C 
ATOM     14  O   UNL A   1      31.292  21.324  25.976  1.00  0.00    -0.269 OA
ATOM     15  H   UNL A   1      32.843  23.110  25.797  1.00  0.00     0.170 HD
BRANCH  13  16
ATOM     16  C   UNL A   1      32.471  20.027  24.423  1.00  0.00     0.043 A 
ATOM     17  C   UNL A   1      31.912  20.968  22.067  1.00  0.00     0.045 C 
ATOM     18  C   UNL A   1      32.274  19.874  23.033  1.00  0.00    -0.038 A 
ATOM     19  C   UNL A   1      32.441  18.593  22.459  1.00  0.00     0.004 A 
ATOM     20  C   UNL A   1      32.886  17.509  23.213  1.00  0.00     0.000 A 
ATOM     21  C   UNL A   1      32.959  18.923  25.156  1.00  0.00     0.014 A 
ATOM     22  C   UNL A   1      33.170  17.679  24.559  1.00  0.00     0.001 A 
ENDBRANCH  13  16
ENDBRANCH   7  12
BRANCH   9  23
ATOM     23  N   UNL A   1      33.769  24.426  23.395  1.00  0.00    -0.359 N 
ATOM     24  C   UNL A   1      33.108  24.487  22.063  1.00  0.00     0.178 C 
ATOM     25  C   UNL A   1      33.764  25.739  24.033  1.00  0.00     0.178 C 
ATOM     26  C   UNL A   1      31.823  25.425  22.048  1.00  0.00     0.284 C 
ATOM     27  C   UNL A   1      32.301  26.095  24.295  1.00  0.00     0.284 C 
ATOM     28  N   UNL A   1      31.674  26.512  23.049  1.00  0.00    -0.324 N 
ATOM     29  H   UNL A   1      30.665  26.622  23.161  1.00  0.00     0.348 HD
BRANCH  28  30
ATOM     30  C   UNL A   1      32.015  27.900  22.654  1.00  0.00     0.364 C 
BRANCH  30  31
ATOM     31  C   UNL A   1      31.074  29.025  23.084  1.00  0.00     0.279 C 
ATOM     32  O   UNL A   1      30.191  29.407  22.300  1.00  0.00    -0.268 OA
ATOM     33  N   UNL A   1      31.081  29.638  24.308  1.00  0.00    -0.321 N 
ATOM     34  H   UNL A   1      30.221  30.086  24.482  1.00  0.00     0.170 HD
BRANCH  33  35
ATOM     35  C   UNL A   1      31.970  29.814  25.393  1.00  0.00     0.041 A 
ATOM     36  C   UNL A   1      31.697  30.902  26.244  1.00  0.00     0.029 A 
ATOM     37  C   UNL A   1      33.138  29.097  25.629  1.00  0.00     0.029 A 
ATOM     38  C   UNL A   1      32.593  31.292  27.250  1.00  0.00     0.041 A 
ATOM     39  C   UNL A   1      34.071  29.518  26.592  1.00  0.00     0.041 A 
ATOM     40  C   UNL A   1      33.792  30.612  27.394  1.00  0.00     0.123 A 
ATOM     41  F   UNL A   1      34.677  31.011  28.316  1.00  0.00    -0.207 F 
ENDBRANCH  33  35
ENDBRANCH  30  31
ENDBRANCH  28  30
ENDBRANCH   9  23
ENDBRANCH   3   6
ENDBRANCH   1   2
BRANCH   1  42
ATOM     42  C   UNL A   1      40.877  22.032  26.923  1.00  0.00     0.042 C 
BRANCH  42  43
ATOM     43  C   UNL A   1      41.976  22.647  26.088  1.00  0.00     0.118 C 
BRANCH  43  44
ATOM     44  N   UNL A   1      42.647  21.719  25.174  1.00  0.00    -0.352 N 
ATOM     45  C   UNL A   1      43.997  21.707  24.842  1.00  0.00     0.251 C 
ATOM     46  H   UNL A   1      42.082  21.032  24.750  1.00  0.00     0.163 HD
ATOM     47  O   UNL A   1      44.477  20.867  24.111  1.00  0.00    -0.269 OA
BRANCH  45  48
ATOM     48  C   UNL A   1      44.854  22.699  25.537  1.00  0.00     0.039 A 
ATOM     49  C   UNL A   1      45.138  22.432  26.878  1.00  0.00     0.014 A 
ATOM     50  C   UNL A   1      44.920  23.992  25.024  1.00  0.00     0.014 A 
ATOM     51  C   UNL A   1      45.191  23.497  27.769  1.00  0.00     0.010 A 
ATOM     52  C   UNL A   1      44.862  25.041  25.922  1.00  0.00     0.010 A 
ATOM     53  C   UNL A   1      44.912  24.783  27.298  1.00  0.00    -0.014 A 
BRANCH  53  54
ATOM     54  C   UNL A   1      44.579  25.880  28.198  1.00  0.00     0.031 A 
ATOM     55  C   UNL A   1      43.202  26.400  28.201  1.00  0.00     0.074 A 
ATOM     56  C   UNL A   1      45.510  26.483  28.973  1.00  0.00     0.049 A 
ATOM     57  N   UNL A   1      42.893  27.647  28.333  1.00  0.00    -0.248 NA
ATOM     58  C   UNL A   1      42.056  25.532  27.969  1.00  0.00     0.031 C 
ATOM     59  C   UNL A   1      45.274  27.512  29.984  1.00  0.00     0.029 A 
ATOM     60  N   UNL A   1      46.897  26.469  28.824  1.00  0.00    -0.354 N 
ATOM     61  C   UNL A   1      41.533  27.699  28.526  1.00  0.00     0.074 A 
ATOM     62  C   UNL A   1      41.050  26.385  28.169  1.00  0.00     0.031 C 
ATOM     63  C   UNL A   1      46.390  28.244  30.117  1.00  0.00     0.029 A 
ATOM     64  C   UNL A   1      47.344  27.768  29.131  1.00  0.00     0.049 A 
ATOM     65  H   UNL A   1      47.454  25.703  28.559  1.00  0.00     0.167 HD
ATOM     66  C   UNL A   1      40.973  28.783  29.136  1.00  0.00     0.031 A 
ATOM     67  C   UNL A   1      48.067  28.545  28.276  1.00  0.00     0.031 A 
ATOM     68  C   UNL A   1      41.957  29.829  29.415  1.00  0.00     0.049 A 
ATOM     69  C   UNL A   1      47.401  29.868  27.967  1.00  0.00     0.074 A 
ATOM     70  C   UNL A   1      42.613  30.219  30.574  1.00  0.00     0.029 A 
ATOM     71  N   UNL A   1      42.618  30.457  28.364  1.00  0.00    -0.354 N 
ATOM     72  N   UNL A   1      46.160  30.142  28.258  1.00  0.00    -0.248 NA
ATOM     73  C   UNL A   1      48.052  30.955  27.239  1.00  0.00     0.031 C 
ATOM     74  C   UNL A   1      43.706  31.043  30.206  1.00  0.00     0.029 A 
ATOM     75  C   UNL A   1      43.706  31.170  28.829  1.00  0.00     0.049 A 
ATOM     76  H   UNL A   1      42.347  30.400  27.419  1.00  0.00     0.167 HD
ATOM     77  C   UNL A   1      45.832  31.381  27.770  1.00  0.00     0.074 A 
ATOM     78  C   UNL A   1      47.057  31.856  27.153  1.00  0.00     0.031 C 
ATOM     79  C   UNL A   1      44.573  31.895  27.907  1.00  0.00     0.031 A 
BRANCH  66  80
ATOM     80  C   UNL A   1      39.606  28.721  29.784  1.00  0.00    -0.014 A 
ATOM     81  C   UNL A   1      38.475  29.167  29.075  1.00  0.00     0.009 A 
ATOM     82  C   UNL A   1      39.371  28.315  31.109  1.00  0.00     0.009 A 
ATOM     83  C   UNL A   1      37.223  29.319  29.688  1.00  0.00     0.001 A 
ATOM     84  C   UNL A   1      38.137  28.510  31.745  1.00  0.00     0.001 A 
ATOM     85  C   UNL A   1      37.064  29.028  31.036  1.00  0.00     0.000 A 
ENDBRANCH  66  80
BRANCH  67  86
ATOM     86  C   UNL A   1      48.895  27.769  27.315  1.00  0.00    -0.014 A 
ATOM     87  C   UNL A   1      50.188  27.386  27.725  1.00  0.00     0.009 A 
ATOM     88  C   UNL A   1      48.295  27.085  26.248  1.00  0.00     0.009 A 
ATOM     89  C   UNL A   1      50.801  26.254  27.182  1.00  0.00     0.001 A 
ATOM     90  C   UNL A   1      48.924  25.961  25.699  1.00  0.00     0.001 A 
ATOM     91  C   UNL A   1      50.151  25.521  26.195  1.00  0.00     0.000 A 
ENDBRANCH  67  86
BRANCH  79  92
ATOM     92  C   UNL A   1      44.045  33.162  27.274  1.00  0.00    -0.014 A 
ATOM     93  C   UNL A   1      43.707  34.327  27.973  1.00  0.00     0.009 A 
ATOM     94  C   UNL A   1      43.972  33.236  25.863  1.00  0.00     0.009 A 
ATOM     95  C   UNL A   1      43.265  35.480  27.306  1.00  0.00     0.001 A 
ATOM     96  C   UNL A   1      43.576  34.396  25.191  1.00  0.00     0.001 A 
ATOM     97  C   UNL A   1      43.207  35.517  25.917  1.00  0.00     0.000 A 
ENDBRANCH  79  92
ENDBRANCH  53  54
ENDBRANCH  45  48
ENDBRANCH  43  44
ENDBRANCH  42  43
ENDBRANCH   1  42
TORSDOF 16
ENDMDL
