MODEL 1
REMARK VINA RESULT:     -11.0      0.000      0.000
REMARK SMILES C[C@H](SCc1nc2ccccc2c(=O)[nH]1)C(=O)NCCCNC(=O)c1ccc(-c2c3nc(c(-c4ccccc4)c4ccc([nH]4)c(-c4ccccc4)c4nc(c(-c5ccccc5)c5ccc2[nH]5)C=C4)C=C3)cc1
REMARK SMILES IDX 19 1 18 2 16 3 17 4 2 6 1 7 3 8 4 9 5 10 6 11 15 12 7 13
REMARK SMILES IDX 13 14 8 16 12 17 14 18 9 19 11 20 10 21 20 22 21 23 22 24
REMARK SMILES IDX 23 25 24 27 25 28 26 29 72 30 27 31 71 32 28 33 29 34 30 35
REMARK SMILES IDX 65 36 31 37 70 38 64 39 66 40 32 41 69 42 63 43 62 44 33 46
REMARK SMILES IDX 55 47 40 48 54 49 41 50 44 51 53 52 67 53 42 54 43 55 52 57
REMARK SMILES IDX 68 58 45 59 34 60 35 61 39 62 36 63 38 64 37 65 56 66 57 67
REMARK SMILES IDX 61 68 58 69 60 70 59 71 46 72 47 73 51 74 48 75 50 76 49 77
REMARK H PARENT 18 5 15 15 22 26 66 45 44 56
REMARK Flexibility Score: inf
ROOT
ATOM      1  C   UNL A   1      36.180  20.479  24.739  1.00  0.00     0.117 C 
ENDROOT
BRANCH   1   2
ATOM      2  N   UNL A   1      35.529  20.865  25.976  1.00  0.00    -0.355 N 
ATOM      3  C   UNL A   1      34.233  21.161  26.250  1.00  0.00     0.232 C 
ATOM      4  O   UNL A   1      33.986  21.602  27.377  1.00  0.00    -0.274 OA
ATOM      5  H   UNL A   1      36.132  20.922  26.753  1.00  0.00     0.163 HD
BRANCH   3   6
ATOM      6  C   UNL A   1      33.112  20.989  25.237  1.00  0.00     0.133 C 
ATOM      7  C   UNL A   1      33.009  19.572  24.678  1.00  0.00     0.030 C 
BRANCH   6   8
ATOM      8  S   UNL A   1      33.107  22.237  23.889  1.00  0.00    -0.141 SA
BRANCH   8   9
ATOM      9  C   UNL A   1      34.133  23.585  24.561  1.00  0.00     0.145 C 
BRANCH   9  10
ATOM     10  C   UNL A   1      33.399  24.736  25.213  1.00  0.00     0.119 A 
ATOM     11  N   UNL A   1      34.048  25.837  25.438  1.00  0.00    -0.234 NA
ATOM     12  N   UNL A   1      32.084  24.574  25.537  1.00  0.00    -0.309 N 
ATOM     13  C   UNL A   1      33.361  26.893  26.059  1.00  0.00     0.078 A 
ATOM     14  C   UNL A   1      31.347  25.506  26.222  1.00  0.00     0.258 A 
ATOM     15  H   UNL A   1      31.639  23.740  25.264  1.00  0.00     0.171 HD
ATOM     16  C   UNL A   1      34.021  28.109  26.250  1.00  0.00     0.029 A 
ATOM     17  C   UNL A   1      32.040  26.775  26.498  1.00  0.00     0.065 A 
ATOM     18  O   UNL A   1      30.193  25.298  26.564  1.00  0.00    -0.269 OA
ATOM     19  C   UNL A   1      33.372  29.178  26.876  1.00  0.00     0.002 A 
ATOM     20  C   UNL A   1      31.386  27.830  27.139  1.00  0.00     0.016 A 
ATOM     21  C   UNL A   1      32.060  29.036  27.328  1.00  0.00     0.001 A 
ENDBRANCH   9  10
ENDBRANCH   8   9
ENDBRANCH   6   8
ENDBRANCH   3   6
ENDBRANCH   1   2
BRANCH   1  22
ATOM     22  C   UNL A   1      37.372  19.557  24.973  1.00  0.00     0.042 C 
BRANCH  22  23
ATOM     23  C   UNL A   1      38.623  20.272  25.465  1.00  0.00     0.118 C 
BRANCH  23  24
ATOM     24  N   UNL A   1      39.727  19.350  25.681  1.00  0.00    -0.352 N 
ATOM     25  C   UNL A   1      41.022  19.607  26.053  1.00  0.00     0.251 C 
ATOM     26  H   UNL A   1      39.513  18.400  25.539  1.00  0.00     0.163 HD
ATOM     27  O   UNL A   1      41.871  18.729  25.935  1.00  0.00    -0.269 OA
BRANCH  25  28
ATOM     28  C   UNL A   1      41.401  20.933  26.588  1.00  0.00     0.039 A 
ATOM     29  C   UNL A   1      41.241  21.177  27.954  1.00  0.00     0.014 A 
ATOM     30  C   UNL A   1      41.860  21.951  25.746  1.00  0.00     0.014 A 
ATOM     31  C   UNL A   1      41.570  22.428  28.477  1.00  0.00     0.010 A 
ATOM     32  C   UNL A   1      42.276  23.166  26.284  1.00  0.00     0.010 A 
ATOM     33  C   UNL A   1      42.108  23.428  27.651  1.00  0.00    -0.014 A 
BRANCH  33  34
ATOM     34  C   UNL A   1      42.455  24.763  28.200  1.00  0.00     0.031 A 
ATOM     35  C   UNL A   1      43.883  25.092  28.549  1.00  0.00     0.074 A 
ATOM     36  C   UNL A   1      41.485  25.674  28.404  1.00  0.00     0.049 A 
ATOM     37  N   UNL A   1      44.382  26.208  29.021  1.00  0.00    -0.248 NA
ATOM     38  C   UNL A   1      44.878  24.022  28.370  1.00  0.00     0.031 C 
ATOM     39  C   UNL A   1      40.057  25.467  28.150  1.00  0.00     0.029 A 
ATOM     40  N   UNL A   1      41.554  26.964  28.866  1.00  0.00    -0.354 N 
ATOM     41  C   UNL A   1      45.738  25.968  29.204  1.00  0.00     0.074 A 
ATOM     42  C   UNL A   1      45.974  24.586  28.853  1.00  0.00     0.031 C 
ATOM     43  C   UNL A   1      39.394  26.602  28.418  1.00  0.00     0.029 A 
ATOM     44  C   UNL A   1      40.340  27.605  28.896  1.00  0.00     0.049 A 
ATOM     45  H   UNL A   1      42.395  27.391  29.150  1.00  0.00     0.167 HD
ATOM     46  C   UNL A   1      46.709  26.826  29.602  1.00  0.00     0.031 A 
ATOM     47  C   UNL A   1      40.023  28.861  29.262  1.00  0.00     0.031 A 
ATOM     48  C   UNL A   1      46.477  28.204  29.944  1.00  0.00     0.049 A 
ATOM     49  C   UNL A   1      41.118  29.793  29.702  1.00  0.00     0.074 A 
ATOM     50  C   UNL A   1      47.399  29.167  30.314  1.00  0.00     0.029 A 
ATOM     51  N   UNL A   1      45.232  28.814  29.959  1.00  0.00    -0.354 N 
ATOM     52  N   UNL A   1      42.406  29.571  29.803  1.00  0.00    -0.248 NA
ATOM     53  C   UNL A   1      40.712  31.159  30.060  1.00  0.00     0.031 C 
ATOM     54  C   UNL A   1      46.704  30.347  30.605  1.00  0.00     0.029 A 
ATOM     55  C   UNL A   1      45.358  30.136  30.351  1.00  0.00     0.049 A 
ATOM     56  H   UNL A   1      44.384  28.371  29.726  1.00  0.00     0.167 HD
ATOM     57  C   UNL A   1      42.968  30.777  30.199  1.00  0.00     0.074 A 
ATOM     58  C   UNL A   1      41.883  31.730  30.302  1.00  0.00     0.031 C 
ATOM     59  C   UNL A   1      44.268  31.072  30.452  1.00  0.00     0.031 A 
BRANCH  46  60
ATOM     60  C   UNL A   1      48.111  26.288  29.694  1.00  0.00    -0.014 A 
ATOM     61  C   UNL A   1      48.984  26.334  28.593  1.00  0.00     0.009 A 
ATOM     62  C   UNL A   1      48.577  25.752  30.904  1.00  0.00     0.009 A 
ATOM     63  C   UNL A   1      50.277  25.816  28.692  1.00  0.00     0.001 A 
ATOM     64  C   UNL A   1      49.882  25.265  31.009  1.00  0.00     0.001 A 
ATOM     65  C   UNL A   1      50.727  25.287  29.901  1.00  0.00     0.000 A 
ENDBRANCH  46  60
BRANCH  47  66
ATOM     66  C   UNL A   1      38.613  29.325  29.196  1.00  0.00    -0.014 A 
ATOM     67  C   UNL A   1      38.102  29.895  28.020  1.00  0.00     0.009 A 
ATOM     68  C   UNL A   1      37.773  29.213  30.316  1.00  0.00     0.009 A 
ATOM     69  C   UNL A   1      36.791  30.374  27.976  1.00  0.00     0.001 A 
ATOM     70  C   UNL A   1      36.451  29.663  30.257  1.00  0.00     0.001 A 
ATOM     71  C   UNL A   1      35.966  30.255  29.093  1.00  0.00     0.000 A 
ENDBRANCH  47  66
BRANCH  59  72
ATOM     72  C   UNL A   1      44.588  32.495  30.818  1.00  0.00    -0.014 A 
ATOM     73  C   UNL A   1      44.646  32.917  32.155  1.00  0.00     0.009 A 
ATOM     74  C   UNL A   1      44.845  33.428  29.800  1.00  0.00     0.009 A 
ATOM     75  C   UNL A   1      44.904  34.255  32.463  1.00  0.00     0.001 A 
ATOM     76  C   UNL A   1      45.139  34.755  30.111  1.00  0.00     0.001 A 
ATOM     77  C   UNL A   1      45.153  35.171  31.441  1.00  0.00     0.000 A 
ENDBRANCH  59  72
ENDBRANCH  33  34
ENDBRANCH  25  28
ENDBRANCH  23  24
ENDBRANCH  22  23
ENDBRANCH   1  22
TORSDOF 13
ENDMDL
MODEL 2
REMARK VINA RESULT:     -10.9      1.542      2.051
REMARK SMILES C[C@H](SCc1nc2ccccc2c(=O)[nH]1)C(=O)NCCCNC(=O)c1ccc(-c2c3nc(c(-c4ccccc4)c4ccc([nH]4)c(-c4ccccc4)c4nc(c(-c5ccccc5)c5ccc2[nH]5)C=C4)C=C3)cc1
REMARK SMILES IDX 19 1 18 2 16 3 17 4 2 6 1 7 3 8 4 9 5 10 6 11 15 12 7 13
REMARK SMILES IDX 13 14 8 16 12 17 14 18 9 19 11 20 10 21 20 22 21 23 22 24
REMARK SMILES IDX 23 25 24 27 25 28 26 29 72 30 27 31 71 32 28 33 29 34 30 35
REMARK SMILES IDX 65 36 31 37 70 38 64 39 66 40 32 41 69 42 63 43 62 44 33 46
REMARK SMILES IDX 55 47 40 48 54 49 41 50 44 51 53 52 67 53 42 54 43 55 52 57
REMARK SMILES IDX 68 58 45 59 34 60 35 61 39 62 36 63 38 64 37 65 56 66 57 67
REMARK SMILES IDX 61 68 58 69 60 70 59 71 46 72 47 73 51 74 48 75 50 76 49 77
REMARK H PARENT 18 5 15 15 22 26 66 45 44 56
REMARK Flexibility Score: inf
ROOT
ATOM      1  C   UNL A   1      36.333  20.238  24.952  1.00  0.00     0.117 C 
ENDROOT
BRANCH   1   2
ATOM      2  N   UNL A   1      35.146  19.406  24.905  1.00  0.00    -0.355 N 
ATOM      3  C   UNL A   1      33.830  19.728  24.839  1.00  0.00     0.232 C 
ATOM      4  O   UNL A   1      33.019  18.803  24.958  1.00  0.00    -0.274 OA
ATOM      5  H   UNL A   1      35.327  18.437  24.924  1.00  0.00     0.163 HD
BRANCH   3   6
ATOM      6  C   UNL A   1      33.334  21.154  24.647  1.00  0.00     0.133 C 
ATOM      7  C   UNL A   1      32.699  21.750  25.901  1.00  0.00     0.030 C 
BRANCH   6   8
ATOM      8  S   UNL A   1      32.257  21.393  23.179  1.00  0.00    -0.141 SA
BRANCH   8   9
ATOM      9  C   UNL A   1      31.365  22.936  23.559  1.00  0.00     0.145 C 
BRANCH   9  10
ATOM     10  C   UNL A   1      32.043  24.228  23.158  1.00  0.00     0.119 A 
ATOM     11  N   UNL A   1      32.304  25.102  24.080  1.00  0.00    -0.234 NA
ATOM     12  N   UNL A   1      32.357  24.422  21.845  1.00  0.00    -0.309 N 
ATOM     13  C   UNL A   1      32.918  26.306  23.695  1.00  0.00     0.078 A 
ATOM     14  C   UNL A   1      32.878  25.590  21.350  1.00  0.00     0.258 A 
ATOM     15  H   UNL A   1      32.201  23.681  21.217  1.00  0.00     0.171 HD
ATOM     16  C   UNL A   1      33.268  27.232  24.680  1.00  0.00     0.029 A 
ATOM     17  C   UNL A   1      33.193  26.614  22.361  1.00  0.00     0.065 A 
ATOM     18  O   UNL A   1      33.076  25.760  20.158  1.00  0.00    -0.269 OA
ATOM     19  C   UNL A   1      33.870  28.445  24.331  1.00  0.00     0.002 A 
ATOM     20  C   UNL A   1      33.779  27.829  21.998  1.00  0.00     0.016 A 
ATOM     21  C   UNL A   1      34.117  28.747  22.991  1.00  0.00     0.001 A 
ENDBRANCH   9  10
ENDBRANCH   8   9
ENDBRANCH   6   8
ENDBRANCH   3   6
ENDBRANCH   1   2
BRANCH   1  22
ATOM     22  C   UNL A   1      37.618  19.418  24.936  1.00  0.00     0.042 C 
BRANCH  22  23
ATOM     23  C   UNL A   1      38.848  20.182  25.409  1.00  0.00     0.118 C 
BRANCH  23  24
ATOM     24  N   UNL A   1      39.968  19.294  25.679  1.00  0.00    -0.352 N 
ATOM     25  C   UNL A   1      41.234  19.590  26.116  1.00  0.00     0.251 C 
ATOM     26  H   UNL A   1      39.791  18.338  25.526  1.00  0.00     0.163 HD
ATOM     27  O   UNL A   1      42.115  18.740  26.041  1.00  0.00    -0.269 OA
BRANCH  25  28
ATOM     28  C   UNL A   1      41.544  20.926  26.671  1.00  0.00     0.039 A 
ATOM     29  C   UNL A   1      41.994  21.926  25.806  1.00  0.00     0.014 A 
ATOM     30  C   UNL A   1      41.446  21.183  28.043  1.00  0.00     0.014 A 
ATOM     31  C   UNL A   1      42.315  23.186  26.310  1.00  0.00     0.010 A 
ATOM     32  C   UNL A   1      41.676  22.466  28.530  1.00  0.00     0.010 A 
ATOM     33  C   UNL A   1      42.142  23.474  27.674  1.00  0.00    -0.014 A 
BRANCH  33  34
ATOM     34  C   UNL A   1      42.487  24.811  28.219  1.00  0.00     0.031 A 
ATOM     35  C   UNL A   1      43.913  25.142  28.573  1.00  0.00     0.074 A 
ATOM     36  C   UNL A   1      41.516  25.723  28.417  1.00  0.00     0.049 A 
ATOM     37  N   UNL A   1      44.410  26.260  29.042  1.00  0.00    -0.248 NA
ATOM     38  C   UNL A   1      44.909  24.072  28.401  1.00  0.00     0.031 C 
ATOM     39  C   UNL A   1      40.089  25.513  28.158  1.00  0.00     0.029 A 
ATOM     40  N   UNL A   1      41.583  27.014  28.875  1.00  0.00    -0.354 N 
ATOM     41  C   UNL A   1      45.766  26.021  29.231  1.00  0.00     0.074 A 
ATOM     42  C   UNL A   1      46.004  24.638  28.886  1.00  0.00     0.031 C 
ATOM     43  C   UNL A   1      39.424  26.650  28.419  1.00  0.00     0.029 A 
ATOM     44  C   UNL A   1      40.368  27.654  28.897  1.00  0.00     0.049 A 
ATOM     45  H   UNL A   1      42.423  27.442  29.159  1.00  0.00     0.167 HD
ATOM     46  C   UNL A   1      46.735  26.881  29.629  1.00  0.00     0.031 A 
ATOM     47  C   UNL A   1      40.050  28.912  29.257  1.00  0.00     0.031 A 
ATOM     48  C   UNL A   1      46.502  28.260  29.966  1.00  0.00     0.049 A 
ATOM     49  C   UNL A   1      41.142  29.846  29.698  1.00  0.00     0.074 A 
ATOM     50  C   UNL A   1      47.421  29.225  30.335  1.00  0.00     0.029 A 
ATOM     51  N   UNL A   1      45.256  28.869  29.974  1.00  0.00    -0.354 N 
ATOM     52  N   UNL A   1      42.430  29.625  29.804  1.00  0.00    -0.248 NA
ATOM     53  C   UNL A   1      40.735  31.213  30.049  1.00  0.00     0.031 C 
ATOM     54  C   UNL A   1      46.725  30.406  30.619  1.00  0.00     0.029 A 
ATOM     55  C   UNL A   1      45.380  30.193  30.361  1.00  0.00     0.049 A 
ATOM     56  H   UNL A   1      44.409  28.425  29.739  1.00  0.00     0.167 HD
ATOM     57  C   UNL A   1      42.991  30.833  30.198  1.00  0.00     0.074 A 
ATOM     58  C   UNL A   1      41.904  31.786  30.293  1.00  0.00     0.031 C 
ATOM     59  C   UNL A   1      44.289  31.129  30.454  1.00  0.00     0.031 A 
BRANCH  46  60
ATOM     60  C   UNL A   1      48.137  26.344  29.728  1.00  0.00    -0.014 A 
ATOM     61  C   UNL A   1      49.031  26.435  28.648  1.00  0.00     0.009 A 
ATOM     62  C   UNL A   1      48.581  25.763  30.926  1.00  0.00     0.009 A 
ATOM     63  C   UNL A   1      50.324  25.917  28.752  1.00  0.00     0.001 A 
ATOM     64  C   UNL A   1      49.885  25.276  31.038  1.00  0.00     0.001 A 
ATOM     65  C   UNL A   1      50.752  25.343  29.949  1.00  0.00     0.000 A 
ENDBRANCH  46  60
BRANCH  47  66
ATOM     66  C   UNL A   1      38.639  29.375  29.185  1.00  0.00    -0.014 A 
ATOM     67  C   UNL A   1      37.779  29.222  30.283  1.00  0.00     0.009 A 
ATOM     68  C   UNL A   1      38.141  29.961  28.010  1.00  0.00     0.009 A 
ATOM     69  C   UNL A   1      36.441  29.615  30.195  1.00  0.00     0.001 A 
ATOM     70  C   UNL A   1      36.811  30.383  27.938  1.00  0.00     0.001 A 
ATOM     71  C   UNL A   1      35.960  30.197  29.025  1.00  0.00     0.000 A 
ENDBRANCH  47  66
BRANCH  59  72
ATOM     72  C   UNL A   1      44.607  32.554  30.816  1.00  0.00    -0.014 A 
ATOM     73  C   UNL A   1      44.882  33.519  29.835  1.00  0.00     0.009 A 
ATOM     74  C   UNL A   1      44.621  32.936  32.167  1.00  0.00     0.009 A 
ATOM     75  C   UNL A   1      45.215  34.824  30.202  1.00  0.00     0.001 A 
ATOM     76  C   UNL A   1      44.918  34.250  32.530  1.00  0.00     0.001 A 
ATOM     77  C   UNL A   1      45.229  35.189  31.549  1.00  0.00     0.000 A 
ENDBRANCH  59  72
ENDBRANCH  33  34
ENDBRANCH  25  28
ENDBRANCH  23  24
ENDBRANCH  22  23
ENDBRANCH   1  22
TORSDOF 13
ENDMDL
MODEL 3
REMARK VINA RESULT:     -10.9      1.659      6.964
REMARK SMILES C[C@H](SCc1nc2ccccc2c(=O)[nH]1)C(=O)NCCCNC(=O)c1ccc(-c2c3nc(c(-c4ccccc4)c4ccc([nH]4)c(-c4ccccc4)c4nc(c(-c5ccccc5)c5ccc2[nH]5)C=C4)C=C3)cc1
REMARK SMILES IDX 19 1 18 2 16 3 17 4 2 6 1 7 3 8 4 9 5 10 6 11 15 12 7 13
REMARK SMILES IDX 13 14 8 16 12 17 14 18 9 19 11 20 10 21 20 22 21 23 22 24
REMARK SMILES IDX 23 25 24 27 25 28 26 29 72 30 27 31 71 32 28 33 29 34 30 35
REMARK SMILES IDX 65 36 31 37 70 38 64 39 66 40 32 41 69 42 63 43 62 44 33 46
REMARK SMILES IDX 55 47 40 48 54 49 41 50 44 51 53 52 67 53 42 54 43 55 52 57
REMARK SMILES IDX 68 58 45 59 34 60 35 61 39 62 36 63 38 64 37 65 56 66 57 67
REMARK SMILES IDX 61 68 58 69 60 70 59 71 46 72 47 73 51 74 48 75 50 76 49 77
REMARK H PARENT 18 5 15 15 22 26 66 45 44 56
REMARK Flexibility Score: inf
ROOT
ATOM      1  C   UNL A   1      35.969  20.701  24.852  1.00  0.00     0.117 C 
ENDROOT
BRANCH   1   2
ATOM      2  N   UNL A   1      35.488  21.148  26.145  1.00  0.00    -0.355 N 
ATOM      3  C   UNL A   1      34.854  22.289  26.518  1.00  0.00     0.232 C 
ATOM      4  O   UNL A   1      34.687  22.467  27.729  1.00  0.00    -0.274 OA
ATOM      5  H   UNL A   1      35.651  20.514  26.882  1.00  0.00     0.163 HD
BRANCH   3   6
ATOM      6  C   UNL A   1      34.370  23.332  25.522  1.00  0.00     0.133 C 
ATOM      7  C   UNL A   1      35.387  24.440  25.261  1.00  0.00     0.030 C 
BRANCH   6   8
ATOM      8  S   UNL A   1      32.711  24.026  25.893  1.00  0.00    -0.141 SA
BRANCH   8   9
ATOM      9  C   UNL A   1      31.673  22.543  26.108  1.00  0.00     0.145 C 
BRANCH   9  10
ATOM     10  C   UNL A   1      31.950  21.380  25.180  1.00  0.00     0.119 A 
ATOM     11  N   UNL A   1      32.337  20.255  25.697  1.00  0.00    -0.234 NA
ATOM     12  N   UNL A   1      31.780  21.558  23.839  1.00  0.00    -0.309 N 
ATOM     13  C   UNL A   1      32.608  19.187  24.825  1.00  0.00     0.078 A 
ATOM     14  C   UNL A   1      32.097  20.613  22.898  1.00  0.00     0.258 A 
ATOM     15  H   UNL A   1      31.407  22.415  23.529  1.00  0.00     0.171 HD
ATOM     16  C   UNL A   1      32.962  17.948  25.364  1.00  0.00     0.029 A 
ATOM     17  C   UNL A   1      32.539  19.316  23.436  1.00  0.00     0.065 A 
ATOM     18  O   UNL A   1      32.005  20.832  21.700  1.00  0.00    -0.269 OA
ATOM     19  C   UNL A   1      33.250  16.866  24.525  1.00  0.00     0.002 A 
ATOM     20  C   UNL A   1      32.841  18.248  22.587  1.00  0.00     0.016 A 
ATOM     21  C   UNL A   1      33.198  17.018  23.139  1.00  0.00     0.001 A 
ENDBRANCH   9  10
ENDBRANCH   8   9
ENDBRANCH   6   8
ENDBRANCH   3   6
ENDBRANCH   1   2
BRANCH   1  22
ATOM     22  C   UNL A   1      37.149  19.743  24.971  1.00  0.00     0.042 C 
BRANCH  22  23
ATOM     23  C   UNL A   1      38.442  20.402  25.431  1.00  0.00     0.118 C 
BRANCH  23  24
ATOM     24  N   UNL A   1      39.494  19.427  25.670  1.00  0.00    -0.352 N 
ATOM     25  C   UNL A   1      40.799  19.622  26.044  1.00  0.00     0.251 C 
ATOM     26  H   UNL A   1      39.231  18.488  25.544  1.00  0.00     0.163 HD
ATOM     27  O   UNL A   1      41.601  18.699  25.947  1.00  0.00    -0.269 OA
BRANCH  25  28
ATOM     28  C   UNL A   1      41.245  20.936  26.557  1.00  0.00     0.039 A 
ATOM     29  C   UNL A   1      41.199  21.171  27.933  1.00  0.00     0.014 A 
ATOM     30  C   UNL A   1      41.656  21.953  25.689  1.00  0.00     0.014 A 
ATOM     31  C   UNL A   1      41.593  22.410  28.438  1.00  0.00     0.010 A 
ATOM     32  C   UNL A   1      42.136  23.155  26.201  1.00  0.00     0.010 A 
ATOM     33  C   UNL A   1      42.082  23.408  27.579  1.00  0.00    -0.014 A 
BRANCH  33  34
ATOM     34  C   UNL A   1      42.498  24.731  28.109  1.00  0.00     0.031 A 
ATOM     35  C   UNL A   1      41.478  25.822  28.311  1.00  0.00     0.074 A 
ATOM     36  C   UNL A   1      43.794  24.962  28.389  1.00  0.00     0.049 A 
ATOM     37  N   UNL A   1      41.647  27.034  28.779  1.00  0.00    -0.248 NA
ATOM     38  C   UNL A   1      40.093  25.524  27.912  1.00  0.00     0.031 C 
ATOM     39  C   UNL A   1      44.887  24.006  28.196  1.00  0.00     0.029 A 
ATOM     40  N   UNL A   1      44.413  26.072  28.905  1.00  0.00    -0.354 N 
ATOM     41  C   UNL A   1      40.398  27.640  28.720  1.00  0.00     0.074 A 
ATOM     42  C   UNL A   1      39.495  26.688  28.113  1.00  0.00     0.031 C 
ATOM     43  C   UNL A   1      46.033  24.556  28.629  1.00  0.00     0.029 A 
ATOM     44  C   UNL A   1      45.764  25.912  29.095  1.00  0.00     0.049 A 
ATOM     45  H   UNL A   1      43.934  26.905  29.120  1.00  0.00     0.167 HD
ATOM     46  C   UNL A   1      40.025  28.868  29.154  1.00  0.00     0.031 A 
ATOM     47  C   UNL A   1      46.682  26.760  29.594  1.00  0.00     0.031 A 
ATOM     48  C   UNL A   1      40.921  29.814  29.765  1.00  0.00     0.049 A 
ATOM     49  C   UNL A   1      46.244  28.118  30.068  1.00  0.00     0.074 A 
ATOM     50  C   UNL A   1      40.633  31.065  30.281  1.00  0.00     0.029 A 
ATOM     51  N   UNL A   1      42.281  29.611  29.940  1.00  0.00    -0.354 N 
ATOM     52  N   UNL A   1      45.045  28.649  30.068  1.00  0.00    -0.248 NA
ATOM     53  C   UNL A   1      47.288  28.985  30.630  1.00  0.00     0.031 C 
ATOM     54  C   UNL A   1      41.830  31.642  30.721  1.00  0.00     0.029 A 
ATOM     55  C   UNL A   1      42.851  30.722  30.540  1.00  0.00     0.049 A 
ATOM     56  H   UNL A   1      42.769  28.797  29.677  1.00  0.00     0.167 HD
ATOM     57  C   UNL A   1      45.185  29.897  30.662  1.00  0.00     0.074 A 
ATOM     58  C   UNL A   1      46.581  30.032  31.025  1.00  0.00     0.031 C 
ATOM     59  C   UNL A   1      44.242  30.844  30.891  1.00  0.00     0.031 A 
BRANCH  46  60
ATOM     60  C   UNL A   1      38.582  29.256  28.975  1.00  0.00    -0.014 A 
ATOM     61  C   UNL A   1      38.101  29.726  27.741  1.00  0.00     0.009 A 
ATOM     62  C   UNL A   1      37.685  29.128  30.046  1.00  0.00     0.009 A 
ATOM     63  C   UNL A   1      36.763  30.098  27.597  1.00  0.00     0.001 A 
ATOM     64  C   UNL A   1      36.340  29.470  29.890  1.00  0.00     0.001 A 
ATOM     65  C   UNL A   1      35.882  29.965  28.670  1.00  0.00     0.000 A 
ENDBRANCH  46  60
BRANCH  47  66
ATOM     66  C   UNL A   1      48.104  26.340  29.705  1.00  0.00    -0.014 A 
ATOM     67  C   UNL A   1      48.580  25.731  30.876  1.00  0.00     0.009 A 
ATOM     68  C   UNL A   1      48.997  26.559  28.644  1.00  0.00     0.009 A 
ATOM     69  C   UNL A   1      49.926  25.381  30.997  1.00  0.00     0.001 A 
ATOM     70  C   UNL A   1      50.336  26.177  28.756  1.00  0.00     0.001 A 
ATOM     71  C   UNL A   1      50.802  25.602  29.936  1.00  0.00     0.000 A 
ENDBRANCH  47  66
BRANCH  59  72
ATOM     72  C   UNL A   1      44.684  32.090  31.609  1.00  0.00    -0.014 A 
ATOM     73  C   UNL A   1      44.660  32.181  33.009  1.00  0.00     0.009 A 
ATOM     74  C   UNL A   1      45.143  33.189  30.865  1.00  0.00     0.009 A 
ATOM     75  C   UNL A   1      45.037  33.366  33.646  1.00  0.00     0.001 A 
ATOM     76  C   UNL A   1      45.554  34.358  31.505  1.00  0.00     0.001 A 
ATOM     77  C   UNL A   1      45.487  34.451  32.893  1.00  0.00     0.000 A 
ENDBRANCH  59  72
ENDBRANCH  33  34
ENDBRANCH  25  28
ENDBRANCH  23  24
ENDBRANCH  22  23
ENDBRANCH   1  22
TORSDOF 13
ENDMDL
