MODEL 1
REMARK VINA RESULT:     -12.7      0.000      0.000
REMARK SMILES Cc1ccc(C(=O)N2CCC3(CCC(=O)N(CC(=O)NCCCNC(=O)c4ccc(-c5c6nc(c(-c7ccccc7)c7ccc([nH]7)c(-c7ccccc7)c7nc(c(-c8ccccc8)c8ccc5[nH]8)C=C7)C=C6)cc4)C3)CC2)cc1O
REMARK SMILES IDX 21 1 20 2 18 3 19 4 17 6 16 7 6 8 7 9 8 10 9 11 77 12 10 13
REMARK SMILES IDX 76 14 11 15 12 16 75 17 13 18 14 19 15 20 5 21 1 22 2 23
REMARK SMILES IDX 3 24 79 25 4 26 78 27 80 28 22 30 23 31 24 32 25 33 26 35
REMARK SMILES IDX 27 36 28 37 74 38 29 39 73 40 30 41 31 42 32 43 67 44 33 45
REMARK SMILES IDX 72 46 66 47 68 48 34 49 71 50 65 51 64 52 35 54 57 55 42 56
REMARK SMILES IDX 56 57 43 58 46 59 55 60 69 61 44 62 45 63 54 65 70 66 47 67
REMARK SMILES IDX 36 68 37 69 41 70 38 71 40 72 39 73 58 74 59 75 63 76 60 77
REMARK SMILES IDX 62 78 61 79 48 80 49 81 53 82 50 83 52 84 51 85
REMARK H PARENT 20 5 80 29 24 34 68 53 46 64
REMARK Flexibility Score: inf
ROOT
ATOM      1  C   UNL A   1      38.130  22.958  26.315  1.00  0.00     0.117 C 
ENDROOT
BRANCH   1   2
ATOM      2  N   UNL A   1      37.718  22.982  24.932  1.00  0.00    -0.354 N 
ATOM      3  C   UNL A   1      36.868  22.145  24.273  1.00  0.00     0.239 C 
ATOM      4  O   UNL A   1      36.500  22.488  23.146  1.00  0.00    -0.273 OA
ATOM      5  H   UNL A   1      38.106  23.706  24.389  1.00  0.00     0.163 HD
BRANCH   3   6
ATOM      6  C   UNL A   1      36.254  20.934  24.985  1.00  0.00     0.219 C 
BRANCH   6   7
ATOM      7  N   UNL A   1      34.857  21.020  25.422  1.00  0.00    -0.333 N 
ATOM      8  C   UNL A   1      32.188  26.818  24.567  1.00  0.00     0.253 C 
ATOM      9  O   UNL A   1      31.924  27.175  23.419  1.00  0.00    -0.269 OA
ATOM     10  N   UNL A   1      32.205  25.472  24.922  1.00  0.00    -0.339 N 
ATOM     11  C   UNL A   1      32.504  24.501  23.884  1.00  0.00     0.120 C 
ATOM     12  C   UNL A   1      31.712  24.916  26.178  1.00  0.00     0.120 C 
ATOM     13  C   UNL A   1      33.587  23.561  24.398  1.00  0.00     0.030 C 
ATOM     14  C   UNL A   1      32.699  23.896  26.754  1.00  0.00     0.030 C 
ATOM     15  C   UNL A   1      33.185  22.846  25.715  1.00  0.00    -0.008 C 
ATOM     16  C   UNL A   1      32.096  21.774  25.518  1.00  0.00     0.019 C 
ATOM     17  C   UNL A   1      34.417  22.116  26.275  1.00  0.00     0.127 C 
ATOM     18  C   UNL A   1      32.549  20.626  24.631  1.00  0.00     0.101 C 
ATOM     19  C   UNL A   1      33.963  20.124  24.862  1.00  0.00     0.223 C 
ATOM     20  O   UNL A   1      34.314  19.034  24.416  1.00  0.00    -0.275 OA
BRANCH   8  21
ATOM     21  C   UNL A   1      32.660  27.854  25.536  1.00  0.00     0.043 A 
ATOM     22  C   UNL A   1      34.213  31.180  27.832  1.00  0.00     0.048 C 
ATOM     23  C   UNL A   1      33.639  30.031  27.056  1.00  0.00    -0.009 A 
ATOM     24  C   UNL A   1      34.395  28.863  26.908  1.00  0.00     0.008 A 
ATOM     25  C   UNL A   1      32.390  30.092  26.428  1.00  0.00     0.119 A 
ATOM     26  C   UNL A   1      33.920  27.799  26.137  1.00  0.00     0.014 A 
ATOM     27  C   UNL A   1      31.896  29.016  25.690  1.00  0.00     0.060 A 
BRANCH  25  28
ATOM     28  O   UNL A   1      31.599  31.206  26.470  1.00  0.00    -0.508 OA
ATOM     29  H   UNL A   1      31.073  31.435  25.729  1.00  0.00     0.293 HD
ENDBRANCH  25  28
ENDBRANCH   8  21
ENDBRANCH   6   7
ENDBRANCH   3   6
ENDBRANCH   1   2
BRANCH   1  30
ATOM     30  C   UNL A   1      39.567  22.485  26.477  1.00  0.00     0.042 C 
BRANCH  30  31
ATOM     31  C   UNL A   1      40.504  23.548  27.037  1.00  0.00     0.118 C 
BRANCH  31  32
ATOM     32  N   UNL A   1      41.200  24.289  25.993  1.00  0.00    -0.352 N 
ATOM     33  C   UNL A   1      41.431  25.633  25.862  1.00  0.00     0.251 C 
ATOM     34  H   UNL A   1      41.561  23.735  25.264  1.00  0.00     0.163 HD
ATOM     35  O   UNL A   1      41.865  26.073  24.798  1.00  0.00    -0.269 OA
BRANCH  33  36
ATOM     36  C   UNL A   1      41.147  26.559  26.977  1.00  0.00     0.039 A 
ATOM     37  C   UNL A   1      40.250  26.163  27.972  1.00  0.00     0.014 A 
ATOM     38  C   UNL A   1      41.737  27.826  27.032  1.00  0.00     0.014 A 
ATOM     39  C   UNL A   1      39.996  27.007  29.054  1.00  0.00     0.010 A 
ATOM     40  C   UNL A   1      41.550  28.629  28.153  1.00  0.00     0.010 A 
ATOM     41  C   UNL A   1      40.674  28.231  29.173  1.00  0.00    -0.014 A 
BRANCH  41  42
ATOM     42  C   UNL A   1      40.482  29.106  30.355  1.00  0.00     0.031 A 
ATOM     43  C   UNL A   1      39.413  30.164  30.353  1.00  0.00     0.074 A 
ATOM     44  C   UNL A   1      41.310  28.987  31.411  1.00  0.00     0.049 A 
ATOM     45  N   UNL A   1      39.129  31.053  31.272  1.00  0.00    -0.248 NA
ATOM     46  C   UNL A   1      38.568  30.251  29.152  1.00  0.00     0.031 C 
ATOM     47  C   UNL A   1      42.407  28.023  31.524  1.00  0.00     0.029 A 
ATOM     48  N   UNL A   1      41.362  29.687  32.590  1.00  0.00    -0.354 N 
ATOM     49  C   UNL A   1      38.085  31.809  30.755  1.00  0.00     0.074 A 
ATOM     50  C   UNL A   1      37.823  31.313  29.422  1.00  0.00     0.031 C 
ATOM     51  C   UNL A   1      42.998  28.168  32.721  1.00  0.00     0.029 A 
ATOM     52  C   UNL A   1      42.356  29.265  33.437  1.00  0.00     0.049 A 
ATOM     53  H   UNL A   1      40.743  30.421  32.808  1.00  0.00     0.167 HD
ATOM     54  C   UNL A   1      37.391  32.812  31.343  1.00  0.00     0.031 A 
ATOM     55  C   UNL A   1      42.717  29.714  34.655  1.00  0.00     0.031 A 
ATOM     56  C   UNL A   1      37.654  33.310  32.667  1.00  0.00     0.049 A 
ATOM     57  C   UNL A   1      41.958  30.856  35.270  1.00  0.00     0.074 A 
ATOM     58  C   UNL A   1      36.981  34.293  33.369  1.00  0.00     0.029 A 
ATOM     59  N   UNL A   1      38.680  32.865  33.487  1.00  0.00    -0.354 N 
ATOM     60  N   UNL A   1      40.931  31.518  34.794  1.00  0.00    -0.248 NA
ATOM     61  C   UNL A   1      42.405  31.307  36.595  1.00  0.00     0.031 C 
ATOM     62  C   UNL A   1      37.635  34.485  34.591  1.00  0.00     0.029 A 
ATOM     63  C   UNL A   1      38.676  33.574  34.677  1.00  0.00     0.049 A 
ATOM     64  H   UNL A   1      39.318  32.151  33.257  1.00  0.00     0.167 HD
ATOM     65  C   UNL A   1      40.589  32.442  35.773  1.00  0.00     0.074 A 
ATOM     66  C   UNL A   1      41.508  32.242  36.875  1.00  0.00     0.031 C 
ATOM     67  C   UNL A   1      39.600  33.368  35.763  1.00  0.00     0.031 A 
BRANCH  54  68
ATOM     68  C   UNL A   1      36.285  33.447  30.543  1.00  0.00    -0.014 A 
ATOM     69  C   UNL A   1      36.537  34.040  29.294  1.00  0.00     0.009 A 
ATOM     70  C   UNL A   1      34.970  33.434  31.033  1.00  0.00     0.009 A 
ATOM     71  C   UNL A   1      35.503  34.646  28.577  1.00  0.00     0.001 A 
ATOM     72  C   UNL A   1      33.933  34.011  30.298  1.00  0.00     0.001 A 
ATOM     73  C   UNL A   1      34.202  34.627  29.077  1.00  0.00     0.000 A 
ENDBRANCH  54  68
BRANCH  55  74
ATOM     74  C   UNL A   1      43.841  29.069  35.383  1.00  0.00    -0.014 A 
ATOM     75  C   UNL A   1      43.598  28.001  36.260  1.00  0.00     0.009 A 
ATOM     76  C   UNL A   1      45.159  29.518  35.209  1.00  0.00     0.009 A 
ATOM     77  C   UNL A   1      44.649  27.413  36.969  1.00  0.00     0.001 A 
ATOM     78  C   UNL A   1      46.212  28.908  35.895  1.00  0.00     0.001 A 
ATOM     79  C   UNL A   1      45.954  27.864  36.782  1.00  0.00     0.000 A 
ENDBRANCH  55  74
BRANCH  67  80
ATOM     80  C   UNL A   1      39.434  34.212  36.997  1.00  0.00    -0.014 A 
ATOM     81  C   UNL A   1      39.923  35.526  37.056  1.00  0.00     0.009 A 
ATOM     82  C   UNL A   1      38.745  33.693  38.105  1.00  0.00     0.009 A 
ATOM     83  C   UNL A   1      39.755  36.289  38.214  1.00  0.00     0.001 A 
ATOM     84  C   UNL A   1      38.550  34.469  39.247  1.00  0.00     0.001 A 
ATOM     85  C   UNL A   1      39.064  35.763  39.305  1.00  0.00     0.000 A 
ENDBRANCH  67  80
ENDBRANCH  41  42
ENDBRANCH  33  36
ENDBRANCH  31  32
ENDBRANCH  30  31
ENDBRANCH   1  30
TORSDOF 13
ENDMDL
MODEL 2
REMARK VINA RESULT:     -12.6      2.714      6.581
REMARK SMILES Cc1ccc(C(=O)N2CCC3(CCC(=O)N(CC(=O)NCCCNC(=O)c4ccc(-c5c6nc(c(-c7ccccc7)c7ccc([nH]7)c(-c7ccccc7)c7nc(c(-c8ccccc8)c8ccc5[nH]8)C=C7)C=C6)cc4)C3)CC2)cc1O
REMARK SMILES IDX 21 1 20 2 18 3 19 4 17 6 16 7 6 8 7 9 8 10 9 11 77 12 10 13
REMARK SMILES IDX 76 14 11 15 12 16 75 17 13 18 14 19 15 20 5 21 1 22 2 23
REMARK SMILES IDX 3 24 79 25 4 26 78 27 80 28 22 30 23 31 24 32 25 33 26 35
REMARK SMILES IDX 27 36 28 37 74 38 29 39 73 40 30 41 31 42 32 43 67 44 33 45
REMARK SMILES IDX 72 46 66 47 68 48 34 49 71 50 65 51 64 52 35 54 57 55 42 56
REMARK SMILES IDX 56 57 43 58 46 59 55 60 69 61 44 62 45 63 54 65 70 66 47 67
REMARK SMILES IDX 36 68 37 69 41 70 38 71 40 72 39 73 58 74 59 75 63 76 60 77
REMARK SMILES IDX 62 78 61 79 48 80 49 81 53 82 50 83 52 84 51 85
REMARK H PARENT 20 5 80 29 24 34 68 53 46 64
REMARK Flexibility Score: inf
ROOT
ATOM      1  C   UNL A   1      35.894  22.480  26.389  1.00  0.00     0.117 C 
ENDROOT
BRANCH   1   2
ATOM      2  N   UNL A   1      34.772  22.678  27.276  1.00  0.00    -0.354 N 
ATOM      3  C   UNL A   1      33.595  21.994  27.340  1.00  0.00     0.239 C 
ATOM      4  O   UNL A   1      32.874  22.203  28.319  1.00  0.00    -0.273 OA
ATOM      5  H   UNL A   1      34.872  23.412  27.926  1.00  0.00     0.163 HD
BRANCH   3   6
ATOM      6  C   UNL A   1      33.284  20.878  26.337  1.00  0.00     0.219 C 
BRANCH   6   7
ATOM      7  N   UNL A   1      32.345  21.164  25.247  1.00  0.00    -0.333 N 
ATOM      8  C   UNL A   1      33.155  26.946  22.530  1.00  0.00     0.253 C 
ATOM      9  O   UNL A   1      34.143  27.122  21.817  1.00  0.00    -0.269 OA
ATOM     10  N   UNL A   1      32.583  25.685  22.677  1.00  0.00    -0.339 N 
ATOM     11  C   UNL A   1      33.442  24.526  22.508  1.00  0.00     0.120 C 
ATOM     12  C   UNL A   1      31.153  25.401  22.744  1.00  0.00     0.120 C 
ATOM     13  C   UNL A   1      33.239  23.595  23.696  1.00  0.00     0.030 C 
ATOM     14  C   UNL A   1      30.840  24.411  23.870  1.00  0.00     0.030 C 
ATOM     15  C   UNL A   1      31.760  23.158  23.869  1.00  0.00    -0.008 C 
ATOM     16  C   UNL A   1      31.287  22.170  22.784  1.00  0.00     0.019 C 
ATOM     17  C   UNL A   1      31.616  22.426  25.213  1.00  0.00     0.127 C 
ATOM     18  C   UNL A   1      32.040  20.850  22.815  1.00  0.00     0.101 C 
ATOM     19  C   UNL A   1      32.308  20.270  24.192  1.00  0.00     0.223 C 
ATOM     20  O   UNL A   1      32.637  19.092  24.313  1.00  0.00    -0.275 OA
BRANCH   8  21
ATOM     21  C   UNL A   1      32.681  28.086  23.373  1.00  0.00     0.043 A 
ATOM     22  C   UNL A   1      31.263  30.961  26.282  1.00  0.00     0.048 C 
ATOM     23  C   UNL A   1      31.786  29.989  25.267  1.00  0.00    -0.009 A 
ATOM     24  C   UNL A   1      30.904  29.442  24.329  1.00  0.00     0.008 A 
ATOM     25  C   UNL A   1      33.120  29.566  25.243  1.00  0.00     0.119 A 
ATOM     26  C   UNL A   1      31.342  28.484  23.411  1.00  0.00     0.014 A 
ATOM     27  C   UNL A   1      33.569  28.638  24.302  1.00  0.00     0.060 A 
BRANCH  25  28
ATOM     28  O   UNL A   1      34.046  30.002  26.147  1.00  0.00    -0.508 OA
ATOM     29  H   UNL A   1      34.702  30.618  25.886  1.00  0.00     0.293 HD
ENDBRANCH  25  28
ENDBRANCH   8  21
ENDBRANCH   6   7
ENDBRANCH   3   6
ENDBRANCH   1   2
BRANCH   1  30
ATOM     30  C   UNL A   1      36.140  23.688  25.498  1.00  0.00     0.042 C 
BRANCH  30  31
ATOM     31  C   UNL A   1      37.460  23.631  24.738  1.00  0.00     0.118 C 
BRANCH  31  32
ATOM     32  N   UNL A   1      38.394  22.668  25.308  1.00  0.00    -0.352 N 
ATOM     33  C   UNL A   1      39.462  22.858  26.145  1.00  0.00     0.251 C 
ATOM     34  H   UNL A   1      38.232  21.732  25.050  1.00  0.00     0.163 HD
ATOM     35  O   UNL A   1      40.247  21.930  26.346  1.00  0.00    -0.269 OA
BRANCH  33  36
ATOM     36  C   UNL A   1      39.693  24.165  26.790  1.00  0.00     0.039 A 
ATOM     37  C   UNL A   1      39.186  24.383  28.074  1.00  0.00     0.014 A 
ATOM     38  C   UNL A   1      40.380  25.187  26.129  1.00  0.00     0.014 A 
ATOM     39  C   UNL A   1      39.425  25.598  28.719  1.00  0.00     0.010 A 
ATOM     40  C   UNL A   1      40.691  26.364  26.804  1.00  0.00     0.010 A 
ATOM     41  C   UNL A   1      40.213  26.584  28.103  1.00  0.00    -0.014 A 
BRANCH  41  42
ATOM     42  C   UNL A   1      40.549  27.849  28.803  1.00  0.00     0.031 A 
ATOM     43  C   UNL A   1      41.891  28.022  29.457  1.00  0.00     0.074 A 
ATOM     44  C   UNL A   1      39.621  28.821  28.899  1.00  0.00     0.049 A 
ATOM     45  N   UNL A   1      42.345  29.034  30.154  1.00  0.00    -0.248 NA
ATOM     46  C   UNL A   1      42.840  26.904  29.332  1.00  0.00     0.031 C 
ATOM     47  C   UNL A   1      38.270  28.763  28.336  1.00  0.00     0.029 A 
ATOM     48  N   UNL A   1      39.672  30.047  29.511  1.00  0.00    -0.354 N 
ATOM     49  C   UNL A   1      43.622  28.668  30.560  1.00  0.00     0.074 A 
ATOM     50  C   UNL A   1      43.850  27.323  30.081  1.00  0.00     0.031 C 
ATOM     51  C   UNL A   1      37.635  29.917  28.597  1.00  0.00     0.029 A 
ATOM     52  C   UNL A   1      38.513  30.773  29.386  1.00  0.00     0.049 A 
ATOM     53  H   UNL A   1      40.465  30.377  29.993  1.00  0.00     0.167 HD
ATOM     54  C   UNL A   1      44.534  29.393  31.252  1.00  0.00     0.031 A 
ATOM     55  C   UNL A   1      38.190  31.992  29.859  1.00  0.00     0.031 A 
ATOM     56  C   UNL A   1      44.306  30.730  31.734  1.00  0.00     0.049 A 
ATOM     57  C   UNL A   1      39.203  32.761  30.660  1.00  0.00     0.074 A 
ATOM     58  C   UNL A   1      45.180  31.565  32.406  1.00  0.00     0.029 A 
ATOM     59  N   UNL A   1      43.113  31.425  31.599  1.00  0.00    -0.354 N 
ATOM     60  N   UNL A   1      40.430  32.427  30.980  1.00  0.00    -0.248 NA
ATOM     61  C   UNL A   1      38.787  34.080  31.156  1.00  0.00     0.031 C 
ATOM     62  C   UNL A   1      44.497  32.743  32.731  1.00  0.00     0.029 A 
ATOM     63  C   UNL A   1      43.218  32.667  32.201  1.00  0.00     0.049 A 
ATOM     64  H   UNL A   1      42.309  31.084  31.143  1.00  0.00     0.167 HD
ATOM     65  C   UNL A   1      40.944  33.506  31.688  1.00  0.00     0.074 A 
ATOM     66  C   UNL A   1      39.900  34.510  31.735  1.00  0.00     0.031 C 
ATOM     67  C   UNL A   1      42.170  33.654  32.244  1.00  0.00     0.031 A 
BRANCH  54  68
ATOM     68  C   UNL A   1      45.860  28.741  31.539  1.00  0.00    -0.014 A 
ATOM     69  C   UNL A   1      46.064  27.990  32.708  1.00  0.00     0.009 A 
ATOM     70  C   UNL A   1      46.912  28.862  30.619  1.00  0.00     0.009 A 
ATOM     71  C   UNL A   1      47.309  27.413  32.970  1.00  0.00     0.001 A 
ATOM     72  C   UNL A   1      48.145  28.255  30.868  1.00  0.00     0.001 A 
ATOM     73  C   UNL A   1      48.346  27.542  32.048  1.00  0.00     0.000 A 
ENDBRANCH  54  68
BRANCH  55  74
ATOM     74  C   UNL A   1      36.851  32.570  29.573  1.00  0.00    -0.014 A 
ATOM     75  C   UNL A   1      35.777  32.339  30.446  1.00  0.00     0.009 A 
ATOM     76  C   UNL A   1      36.637  33.352  28.427  1.00  0.00     0.009 A 
ATOM     77  C   UNL A   1      34.510  32.857  30.164  1.00  0.00     0.001 A 
ATOM     78  C   UNL A   1      35.377  33.894  28.163  1.00  0.00     0.001 A 
ATOM     79  C   UNL A   1      34.313  33.637  29.026  1.00  0.00     0.000 A 
ENDBRANCH  55  74
BRANCH  67  80
ATOM     80  C   UNL A   1      42.466  34.965  32.920  1.00  0.00    -0.014 A 
ATOM     81  C   UNL A   1      42.055  35.219  34.238  1.00  0.00     0.009 A 
ATOM     82  C   UNL A   1      43.200  35.947  32.236  1.00  0.00     0.009 A 
ATOM     83  C   UNL A   1      42.343  36.445  34.842  1.00  0.00     0.001 A 
ATOM     84  C   UNL A   1      43.516  37.157  32.854  1.00  0.00     0.001 A 
ATOM     85  C   UNL A   1      43.078  37.410  34.153  1.00  0.00     0.000 A 
ENDBRANCH  67  80
ENDBRANCH  41  42
ENDBRANCH  33  36
ENDBRANCH  31  32
ENDBRANCH  30  31
ENDBRANCH   1  30
TORSDOF 13
ENDMDL
MODEL 3
REMARK VINA RESULT:     -12.6      4.527     10.295
REMARK SMILES Cc1ccc(C(=O)N2CCC3(CCC(=O)N(CC(=O)NCCCNC(=O)c4ccc(-c5c6nc(c(-c7ccccc7)c7ccc([nH]7)c(-c7ccccc7)c7nc(c(-c8ccccc8)c8ccc5[nH]8)C=C7)C=C6)cc4)C3)CC2)cc1O
REMARK SMILES IDX 21 1 20 2 18 3 19 4 17 6 16 7 6 8 7 9 8 10 9 11 77 12 10 13
REMARK SMILES IDX 76 14 11 15 12 16 75 17 13 18 14 19 15 20 5 21 1 22 2 23
REMARK SMILES IDX 3 24 79 25 4 26 78 27 80 28 22 30 23 31 24 32 25 33 26 35
REMARK SMILES IDX 27 36 28 37 74 38 29 39 73 40 30 41 31 42 32 43 67 44 33 45
REMARK SMILES IDX 72 46 66 47 68 48 34 49 71 50 65 51 64 52 35 54 57 55 42 56
REMARK SMILES IDX 56 57 43 58 46 59 55 60 69 61 44 62 45 63 54 65 70 66 47 67
REMARK SMILES IDX 36 68 37 69 41 70 38 71 40 72 39 73 58 74 59 75 63 76 60 77
REMARK SMILES IDX 62 78 61 79 48 80 49 81 53 82 50 83 52 84 51 85
REMARK H PARENT 20 5 80 29 24 34 68 53 46 64
REMARK Flexibility Score: inf
ROOT
ATOM      1  C   UNL A   1      34.516  29.672  27.154  1.00  0.00     0.117 C 
ENDROOT
BRANCH   1   2
ATOM      2  N   UNL A   1      33.308  28.992  27.558  1.00  0.00    -0.354 N 
ATOM      3  C   UNL A   1      32.082  28.991  26.963  1.00  0.00     0.239 C 
ATOM      4  O   UNL A   1      31.259  28.166  27.370  1.00  0.00    -0.273 OA
ATOM      5  H   UNL A   1      33.381  28.454  28.380  1.00  0.00     0.163 HD
BRANCH   3   6
ATOM      6  C   UNL A   1      31.816  29.846  25.719  1.00  0.00     0.219 C 
BRANCH   6   7
ATOM      7  N   UNL A   1      31.750  29.176  24.417  1.00  0.00    -0.333 N 
ATOM      8  C   UNL A   1      33.257  22.917  24.603  1.00  0.00     0.253 C 
ATOM      9  O   UNL A   1      32.456  22.139  25.121  1.00  0.00    -0.269 OA
ATOM     10  N   UNL A   1      32.835  24.100  24.003  1.00  0.00    -0.339 N 
ATOM     11  C   UNL A   1      31.606  24.704  24.487  1.00  0.00     0.120 C 
ATOM     12  C   UNL A   1      33.371  24.669  22.771  1.00  0.00     0.120 C 
ATOM     13  C   UNL A   1      31.868  26.179  24.766  1.00  0.00     0.030 C 
ATOM     14  C   UNL A   1      33.609  26.175  22.917  1.00  0.00     0.030 C 
ATOM     15  C   UNL A   1      32.398  26.940  23.522  1.00  0.00    -0.008 C 
ATOM     16  C   UNL A   1      31.326  27.151  22.436  1.00  0.00     0.019 C 
ATOM     17  C   UNL A   1      32.855  28.341  23.960  1.00  0.00     0.127 C 
ATOM     18  C   UNL A   1      30.172  28.024  22.904  1.00  0.00     0.101 C 
ATOM     19  C   UNL A   1      30.550  29.238  23.732  1.00  0.00     0.223 C 
ATOM     20  O   UNL A   1      29.740  30.147  23.902  1.00  0.00    -0.275 OA
BRANCH   8  21
ATOM     21  C   UNL A   1      34.717  22.648  24.782  1.00  0.00     0.043 A 
ATOM     22  C   UNL A   1      38.789  21.674  25.883  1.00  0.00     0.048 C 
ATOM     23  C   UNL A   1      37.382  21.988  25.468  1.00  0.00    -0.009 A 
ATOM     24  C   UNL A   1      36.939  23.314  25.511  1.00  0.00     0.008 A 
ATOM     25  C   UNL A   1      36.470  21.000  25.081  1.00  0.00     0.119 A 
ATOM     26  C   UNL A   1      35.616  23.635  25.195  1.00  0.00     0.014 A 
ATOM     27  C   UNL A   1      35.159  21.322  24.728  1.00  0.00     0.060 A 
BRANCH  25  28
ATOM     28  O   UNL A   1      36.790  19.672  25.057  1.00  0.00    -0.508 OA
ATOM     29  H   UNL A   1      37.533  19.378  24.568  1.00  0.00     0.293 HD
ENDBRANCH  25  28
ENDBRANCH   8  21
ENDBRANCH   6   7
ENDBRANCH   3   6
ENDBRANCH   1   2
BRANCH   1  30
ATOM     30  C   UNL A   1      34.591  31.086  27.709  1.00  0.00     0.042 C 
BRANCH  30  31
ATOM     31  C   UNL A   1      35.841  31.354  28.539  1.00  0.00     0.118 C 
BRANCH  31  32
ATOM     32  N   UNL A   1      35.690  30.945  29.930  1.00  0.00    -0.352 N 
ATOM     33  C   UNL A   1      36.455  30.105  30.695  1.00  0.00     0.251 C 
ATOM     34  H   UNL A   1      34.913  31.334  30.392  1.00  0.00     0.163 HD
ATOM     35  O   UNL A   1      36.036  29.734  31.792  1.00  0.00    -0.269 OA
BRANCH  33  36
ATOM     36  C   UNL A   1      37.765  29.625  30.211  1.00  0.00     0.039 A 
ATOM     37  C   UNL A   1      38.053  29.713  28.847  1.00  0.00     0.014 A 
ATOM     38  C   UNL A   1      38.698  29.064  31.088  1.00  0.00     0.014 A 
ATOM     39  C   UNL A   1      39.300  29.301  28.372  1.00  0.00     0.010 A 
ATOM     40  C   UNL A   1      39.969  28.734  30.629  1.00  0.00     0.010 A 
ATOM     41  C   UNL A   1      40.282  28.844  29.266  1.00  0.00    -0.014 A 
BRANCH  41  42
ATOM     42  C   UNL A   1      41.641  28.479  28.795  1.00  0.00     0.031 A 
ATOM     43  C   UNL A   1      41.943  27.071  28.362  1.00  0.00     0.074 A 
ATOM     44  C   UNL A   1      42.621  29.403  28.815  1.00  0.00     0.049 A 
ATOM     45  N   UNL A   1      43.080  26.555  27.968  1.00  0.00    -0.248 NA
ATOM     46  C   UNL A   1      40.827  26.112  28.396  1.00  0.00     0.031 C 
ATOM     47  C   UNL A   1      42.466  30.795  29.244  1.00  0.00     0.029 A 
ATOM     48  N   UNL A   1      43.945  29.309  28.468  1.00  0.00    -0.354 N 
ATOM     49  C   UNL A   1      42.819  25.213  27.722  1.00  0.00     0.074 A 
ATOM     50  C   UNL A   1      41.433  24.982  28.064  1.00  0.00     0.031 C 
ATOM     51  C   UNL A   1      43.639  31.432  29.100  1.00  0.00     0.029 A 
ATOM     52  C   UNL A   1      44.638  30.485  28.618  1.00  0.00     0.049 A 
ATOM     53  H   UNL A   1      44.360  28.477  28.143  1.00  0.00     0.167 HD
ATOM     54  C   UNL A   1      43.651  24.261  27.236  1.00  0.00     0.031 A 
ATOM     55  C   UNL A   1      45.936  30.769  28.397  1.00  0.00     0.031 A 
ATOM     56  C   UNL A   1      45.032  24.488  26.900  1.00  0.00     0.049 A 
ATOM     57  C   UNL A   1      46.850  29.686  27.897  1.00  0.00     0.074 A 
ATOM     58  C   UNL A   1      45.946  23.602  26.361  1.00  0.00     0.029 A 
ATOM     59  N   UNL A   1      45.699  25.690  27.080  1.00  0.00    -0.354 N 
ATOM     60  N   UNL A   1      46.571  28.438  27.607  1.00  0.00    -0.248 NA
ATOM     61  C   UNL A   1      48.255  30.056  27.684  1.00  0.00     0.031 C 
ATOM     62  C   UNL A   1      47.183  24.250  26.269  1.00  0.00     0.029 A 
ATOM     63  C   UNL A   1      47.021  25.561  26.689  1.00  0.00     0.049 A 
ATOM     64  H   UNL A   1      45.293  26.515  27.435  1.00  0.00     0.167 HD
ATOM     65  C   UNL A   1      47.759  27.881  27.150  1.00  0.00     0.074 A 
ATOM     66  C   UNL A   1      48.754  28.934  27.185  1.00  0.00     0.031 C 
ATOM     67  C   UNL A   1      48.001  26.615  26.733  1.00  0.00     0.031 A 
BRANCH  54  68
ATOM     68  C   UNL A   1      43.084  22.878  27.052  1.00  0.00    -0.014 A 
ATOM     69  C   UNL A   1      42.539  22.165  28.132  1.00  0.00     0.009 A 
ATOM     70  C   UNL A   1      43.077  22.289  25.779  1.00  0.00     0.009 A 
ATOM     71  C   UNL A   1      42.041  20.873  27.948  1.00  0.00     0.001 A 
ATOM     72  C   UNL A   1      42.546  21.010  25.592  1.00  0.00     0.001 A 
ATOM     73  C   UNL A   1      42.040  20.299  26.678  1.00  0.00     0.000 A 
ENDBRANCH  54  68
BRANCH  55  74
ATOM     74  C   UNL A   1      46.446  32.146  28.630  1.00  0.00    -0.014 A 
ATOM     75  C   UNL A   1      46.420  33.096  27.598  1.00  0.00     0.009 A 
ATOM     76  C   UNL A   1      46.963  32.517  29.881  1.00  0.00     0.009 A 
ATOM     77  C   UNL A   1      46.927  34.382  27.804  1.00  0.00     0.001 A 
ATOM     78  C   UNL A   1      47.440  33.813  30.094  1.00  0.00     0.001 A 
ATOM     79  C   UNL A   1      47.431  34.740  29.053  1.00  0.00     0.000 A 
ENDBRANCH  55  74
BRANCH  67  80
ATOM     80  C   UNL A   1      49.390  26.306  26.244  1.00  0.00    -0.014 A 
ATOM     81  C   UNL A   1      49.815  26.682  24.960  1.00  0.00     0.009 A 
ATOM     82  C   UNL A   1      50.297  25.658  27.097  1.00  0.00     0.009 A 
ATOM     83  C   UNL A   1      51.110  26.383  24.531  1.00  0.00     0.001 A 
ATOM     84  C   UNL A   1      51.600  25.391  26.678  1.00  0.00     0.001 A 
ATOM     85  C   UNL A   1      52.003  25.744  25.391  1.00  0.00     0.000 A 
ENDBRANCH  67  80
ENDBRANCH  41  42
ENDBRANCH  33  36
ENDBRANCH  31  32
ENDBRANCH  30  31
ENDBRANCH   1  30
TORSDOF 13
ENDMDL
