MODEL 1
REMARK VINA RESULT:     -12.5      0.000      0.000
REMARK SMILES COc1ccc(-n2ccnc2C[N@@H+]2CCn3nc(C(=O)NCCCNC(=O)c4ccc(-c5c6nc(c(-c7ccccc7)c7ccc([nH]7)c(-c7ccccc7)c7nc(c(-c8ccccc8)c8ccc5[nH]8)C=C7)C=C6)cc4)cc3C2)cc1
REMARK SMILES IDX 22 1 21 2 19 3 20 4 18 6 13 7 14 8 78 9 15 11 77 12 16 13
REMARK SMILES IDX 76 14 17 15 12 16 11 17 7 18 8 19 9 20 10 21 6 22 3 23 4 24
REMARK SMILES IDX 80 25 5 26 79 27 2 28 1 29 23 30 24 31 25 32 26 33 27 35
REMARK SMILES IDX 28 36 29 37 75 38 30 39 74 40 31 41 32 42 33 43 68 44 34 45
REMARK SMILES IDX 73 46 67 47 69 48 35 49 72 50 66 51 65 52 36 54 58 55 43 56
REMARK SMILES IDX 57 57 44 58 47 59 56 60 70 61 45 62 46 63 55 65 71 66 48 67
REMARK SMILES IDX 37 68 38 69 42 70 39 71 41 72 40 73 59 74 60 75 64 76 61 77
REMARK SMILES IDX 63 78 62 79 49 80 50 81 54 82 51 83 53 84 52 85
REMARK H PARENT 21 5 13 10 25 34 69 53 47 64
REMARK Flexibility Score: inf
ROOT
ATOM      1  C   UNL A   1      33.948  28.218  26.202  1.00  0.00     0.118 C 
ENDROOT
BRANCH   1   2
ATOM      2  N   UNL A   1      33.204  27.092  26.720  1.00  0.00    -0.351 N 
ATOM      3  C   UNL A   1      32.169  26.424  26.122  1.00  0.00     0.271 C 
ATOM      4  O   UNL A   1      31.393  25.832  26.879  1.00  0.00    -0.267 OA
ATOM      5  H   UNL A   1      33.476  26.766  27.609  1.00  0.00     0.163 HD
BRANCH   3   6
ATOM      6  C   UNL A   1      32.040  26.288  24.649  1.00  0.00     0.150 A 
ATOM      7  N   UNL A   1      31.778  22.519  23.564  1.00  0.00    -0.322 N 
ATOM      8  C   UNL A   1      32.905  22.659  22.634  1.00  0.00     0.286 C 
ATOM      9  C   UNL A   1      30.698  23.460  23.127  1.00  0.00     0.319 C 
ATOM     10  H   UNL A   1      31.481  21.544  23.521  1.00  0.00     0.348 HD
ATOM     11  C   UNL A   1      33.330  24.101  22.262  1.00  0.00     0.206 C 
ATOM     12  C   UNL A   1      31.209  24.858  23.246  1.00  0.00     0.094 A 
ATOM     13  N   UNL A   1      32.526  25.103  22.951  1.00  0.00    -0.257 N 
ATOM     14  C   UNL A   1      30.800  25.902  24.047  1.00  0.00     0.065 A 
ATOM     15  N   UNL A   1      33.069  26.002  23.815  1.00  0.00    -0.167 NA
BRANCH   7  16
ATOM     16  C   UNL A   1      32.106  22.743  25.002  1.00  0.00     0.339 C 
BRANCH  16  17
ATOM     17  C   UNL A   1      33.476  22.457  25.586  1.00  0.00     0.168 A 
ATOM     18  N   UNL A   1      34.281  21.320  25.407  1.00  0.00    -0.299 N 
ATOM     19  C   UNL A   1      35.573  21.701  25.701  1.00  0.00     0.113 A 
ATOM     20  C   UNL A   1      35.503  23.002  26.112  1.00  0.00     0.132 A 
ATOM     21  N   UNL A   1      34.214  23.443  26.085  1.00  0.00    -0.236 NA
BRANCH  18  22
ATOM     22  C   UNL A   1      34.003  19.994  25.001  1.00  0.00     0.047 A 
ATOM     23  C   UNL A   1      33.506  17.291  24.478  1.00  0.00     0.119 A 
ATOM     24  C   UNL A   1      34.792  17.801  24.340  1.00  0.00     0.048 A 
ATOM     25  C   UNL A   1      32.491  18.089  24.997  1.00  0.00     0.048 A 
ATOM     26  C   UNL A   1      35.047  19.149  24.626  1.00  0.00     0.030 A 
ATOM     27  C   UNL A   1      32.742  19.443  25.270  1.00  0.00     0.030 A 
BRANCH  23  28
ATOM     28  O   UNL A   1      33.273  15.977  24.181  1.00  0.00    -0.497 OA
ATOM     29  C   UNL A   1      33.159  15.198  25.376  1.00  0.00     0.278 C 
ENDBRANCH  23  28
ENDBRANCH  18  22
ENDBRANCH  16  17
ENDBRANCH   7  16
ENDBRANCH   3   6
ENDBRANCH   1   2
BRANCH   1  30
ATOM     30  C   UNL A   1      33.923  29.353  27.225  1.00  0.00     0.042 C 
BRANCH  30  31
ATOM     31  C   UNL A   1      35.325  29.839  27.568  1.00  0.00     0.118 C 
BRANCH  31  32
ATOM     32  N   UNL A   1      35.458  30.239  28.966  1.00  0.00    -0.352 N 
ATOM     33  C   UNL A   1      36.391  29.771  29.881  1.00  0.00     0.251 C 
ATOM     34  H   UNL A   1      34.817  30.911  29.295  1.00  0.00     0.163 HD
ATOM     35  O   UNL A   1      36.231  29.878  31.073  1.00  0.00    -0.269 OA
BRANCH  33  36
ATOM     36  C   UNL A   1      37.598  29.126  29.327  1.00  0.00     0.039 A 
ATOM     37  C   UNL A   1      38.218  29.629  28.184  1.00  0.00     0.014 A 
ATOM     38  C   UNL A   1      38.155  28.074  30.050  1.00  0.00     0.014 A 
ATOM     39  C   UNL A   1      39.468  29.127  27.828  1.00  0.00     0.010 A 
ATOM     40  C   UNL A   1      39.439  27.671  29.768  1.00  0.00     0.010 A 
ATOM     41  C   UNL A   1      40.095  28.170  28.644  1.00  0.00    -0.014 A 
BRANCH  41  42
ATOM     42  C   UNL A   1      41.478  27.772  28.379  1.00  0.00     0.031 A 
ATOM     43  C   UNL A   1      41.669  26.495  27.636  1.00  0.00     0.074 A 
ATOM     44  C   UNL A   1      42.550  28.559  28.608  1.00  0.00     0.049 A 
ATOM     45  N   UNL A   1      42.184  25.401  28.093  1.00  0.00    -0.248 NA
ATOM     46  C   UNL A   1      41.174  26.389  26.256  1.00  0.00     0.031 C 
ATOM     47  C   UNL A   1      42.589  29.953  29.061  1.00  0.00     0.029 A 
ATOM     48  N   UNL A   1      43.861  28.289  28.355  1.00  0.00    -0.354 N 
ATOM     49  C   UNL A   1      42.244  24.514  27.023  1.00  0.00     0.074 A 
ATOM     50  C   UNL A   1      41.490  25.127  25.955  1.00  0.00     0.031 C 
ATOM     51  C   UNL A   1      43.809  30.475  28.808  1.00  0.00     0.029 A 
ATOM     52  C   UNL A   1      44.681  29.407  28.358  1.00  0.00     0.049 A 
ATOM     53  H   UNL A   1      44.197  27.379  28.187  1.00  0.00     0.167 HD
ATOM     54  C   UNL A   1      43.083  23.439  27.033  1.00  0.00     0.031 A 
ATOM     55  C   UNL A   1      45.985  29.459  28.003  1.00  0.00     0.031 A 
ATOM     56  C   UNL A   1      43.619  23.188  28.348  1.00  0.00     0.049 A 
ATOM     57  C   UNL A   1      46.537  28.093  28.134  1.00  0.00     0.074 A 
ATOM     58  C   UNL A   1      43.074  22.932  29.591  1.00  0.00     0.029 A 
ATOM     59  N   UNL A   1      44.917  23.573  28.586  1.00  0.00    -0.354 N 
ATOM     60  N   UNL A   1      46.691  27.497  29.282  1.00  0.00    -0.248 NA
ATOM     61  C   UNL A   1      46.523  27.215  26.976  1.00  0.00     0.031 C 
ATOM     62  C   UNL A   1      43.890  23.667  30.503  1.00  0.00     0.029 A 
ATOM     63  C   UNL A   1      44.917  24.265  29.769  1.00  0.00     0.049 A 
ATOM     64  H   UNL A   1      45.698  23.387  28.016  1.00  0.00     0.167 HD
ATOM     65  C   UNL A   1      46.323  26.181  29.046  1.00  0.00     0.074 A 
ATOM     66  C   UNL A   1      46.361  26.039  27.591  1.00  0.00     0.031 C 
ATOM     67  C   UNL A   1      45.745  25.422  30.025  1.00  0.00     0.031 A 
BRANCH  54  68
ATOM     68  C   UNL A   1      43.728  22.850  25.802  1.00  0.00    -0.014 A 
ATOM     69  C   UNL A   1      43.761  21.448  25.660  1.00  0.00     0.009 A 
ATOM     70  C   UNL A   1      44.552  23.592  24.936  1.00  0.00     0.009 A 
ATOM     71  C   UNL A   1      44.635  20.824  24.762  1.00  0.00     0.001 A 
ATOM     72  C   UNL A   1      45.393  22.972  24.006  1.00  0.00     0.001 A 
ATOM     73  C   UNL A   1      45.459  21.588  23.942  1.00  0.00     0.000 A 
ENDBRANCH  54  68
BRANCH  55  74
ATOM     74  C   UNL A   1      46.725  30.573  27.379  1.00  0.00    -0.014 A 
ATOM     75  C   UNL A   1      46.041  31.653  26.802  1.00  0.00     0.009 A 
ATOM     76  C   UNL A   1      48.111  30.706  27.584  1.00  0.00     0.009 A 
ATOM     77  C   UNL A   1      46.713  32.841  26.489  1.00  0.00     0.001 A 
ATOM     78  C   UNL A   1      48.782  31.889  27.265  1.00  0.00     0.001 A 
ATOM     79  C   UNL A   1      48.079  32.964  26.736  1.00  0.00     0.000 A 
ENDBRANCH  55  74
BRANCH  67  80
ATOM     80  C   UNL A   1      45.728  25.974  31.433  1.00  0.00    -0.014 A 
ATOM     81  C   UNL A   1      44.708  26.813  31.916  1.00  0.00     0.009 A 
ATOM     82  C   UNL A   1      46.698  25.529  32.343  1.00  0.00     0.009 A 
ATOM     83  C   UNL A   1      44.690  27.237  33.248  1.00  0.00     0.001 A 
ATOM     84  C   UNL A   1      46.667  25.932  33.681  1.00  0.00     0.001 A 
ATOM     85  C   UNL A   1      45.670  26.794  34.130  1.00  0.00     0.000 A 
ENDBRANCH  67  80
ENDBRANCH  41  42
ENDBRANCH  33  36
ENDBRANCH  31  32
ENDBRANCH  30  31
ENDBRANCH   1  30
TORSDOF 14
ENDMDL
MODEL 2
REMARK VINA RESULT:     -12.4      2.263      6.164
REMARK SMILES COc1ccc(-n2ccnc2C[N@@H+]2CCn3nc(C(=O)NCCCNC(=O)c4ccc(-c5c6nc(c(-c7ccccc7)c7ccc([nH]7)c(-c7ccccc7)c7nc(c(-c8ccccc8)c8ccc5[nH]8)C=C7)C=C6)cc4)cc3C2)cc1
REMARK SMILES IDX 22 1 21 2 19 3 20 4 18 6 13 7 14 8 78 9 15 11 77 12 16 13
REMARK SMILES IDX 76 14 17 15 12 16 11 17 7 18 8 19 9 20 10 21 6 22 3 23 4 24
REMARK SMILES IDX 80 25 5 26 79 27 2 28 1 29 23 30 24 31 25 32 26 33 27 35
REMARK SMILES IDX 28 36 29 37 75 38 30 39 74 40 31 41 32 42 33 43 68 44 34 45
REMARK SMILES IDX 73 46 67 47 69 48 35 49 72 50 66 51 65 52 36 54 58 55 43 56
REMARK SMILES IDX 57 57 44 58 47 59 56 60 70 61 45 62 46 63 55 65 71 66 48 67
REMARK SMILES IDX 37 68 38 69 42 70 39 71 41 72 40 73 59 74 60 75 64 76 61 77
REMARK SMILES IDX 63 78 62 79 49 80 50 81 54 82 51 83 53 84 52 85
REMARK H PARENT 21 5 13 10 25 34 69 53 47 64
REMARK Flexibility Score: inf
ROOT
ATOM      1  C   UNL A   1      33.504  30.772  27.607  1.00  0.00     0.118 C 
ENDROOT
BRANCH   1   2
ATOM      2  N   UNL A   1      32.954  29.435  27.603  1.00  0.00    -0.351 N 
ATOM      3  C   UNL A   1      32.100  28.882  26.686  1.00  0.00     0.271 C 
ATOM      4  O   UNL A   1      31.404  27.944  27.086  1.00  0.00    -0.267 OA
ATOM      5  H   UNL A   1      33.226  28.853  28.350  1.00  0.00     0.163 HD
BRANCH   3   6
ATOM      6  C   UNL A   1      32.090  29.275  25.254  1.00  0.00     0.150 A 
ATOM      7  N   UNL A   1      32.111  26.132  22.893  1.00  0.00    -0.322 N 
ATOM      8  C   UNL A   1      33.296  26.620  22.177  1.00  0.00     0.286 C 
ATOM      9  C   UNL A   1      31.019  27.142  22.721  1.00  0.00     0.319 C 
ATOM     10  H   UNL A   1      31.871  25.229  22.484  1.00  0.00     0.348 HD
ATOM     11  C   UNL A   1      33.669  28.110  22.374  1.00  0.00     0.206 C 
ATOM     12  C   UNL A   1      31.443  28.418  23.369  1.00  0.00     0.094 A 
ATOM     13  N   UNL A   1      32.764  28.782  23.298  1.00  0.00    -0.257 N 
ATOM     14  C   UNL A   1      30.920  29.099  24.447  1.00  0.00     0.065 A 
ATOM     15  N   UNL A   1      33.192  29.328  24.468  1.00  0.00    -0.167 NA
BRANCH   7  16
ATOM     16  C   UNL A   1      32.318  25.839  24.342  1.00  0.00     0.339 C 
BRANCH  16  17
ATOM     17  C   UNL A   1      31.546  24.763  25.080  1.00  0.00     0.168 A 
ATOM     18  N   UNL A   1      32.024  23.557  25.618  1.00  0.00    -0.299 N 
ATOM     19  C   UNL A   1      31.116  23.166  26.579  1.00  0.00     0.113 A 
ATOM     20  C   UNL A   1      30.102  24.080  26.541  1.00  0.00     0.132 A 
ATOM     21  N   UNL A   1      30.347  25.026  25.591  1.00  0.00    -0.236 NA
BRANCH  18  22
ATOM     22  C   UNL A   1      33.177  22.778  25.365  1.00  0.00     0.047 A 
ATOM     23  C   UNL A   1      35.427  21.130  25.140  1.00  0.00     0.119 A 
ATOM     24  C   UNL A   1      35.561  22.429  25.618  1.00  0.00     0.048 A 
ATOM     25  C   UNL A   1      34.162  20.605  24.894  1.00  0.00     0.048 A 
ATOM     26  C   UNL A   1      34.431  23.247  25.755  1.00  0.00     0.030 A 
ATOM     27  C   UNL A   1      33.031  21.428  25.017  1.00  0.00     0.030 A 
BRANCH  23  28
ATOM     28  O   UNL A   1      36.542  20.352  25.000  1.00  0.00    -0.497 OA
ATOM     29  C   UNL A   1      37.728  21.152  25.036  1.00  0.00     0.278 C 
ENDBRANCH  23  28
ENDBRANCH  18  22
ENDBRANCH  16  17
ENDBRANCH   7  16
ENDBRANCH   3   6
ENDBRANCH   1   2
BRANCH   1  30
ATOM     30  C   UNL A   1      35.029  30.689  27.627  1.00  0.00     0.042 C 
BRANCH  30  31
ATOM     31  C   UNL A   1      35.665  32.022  28.004  1.00  0.00     0.118 C 
BRANCH  31  32
ATOM     32  N   UNL A   1      35.067  32.615  29.198  1.00  0.00    -0.352 N 
ATOM     33  C   UNL A   1      35.238  32.195  30.509  1.00  0.00     0.251 C 
ATOM     34  H   UNL A   1      34.481  33.393  29.057  1.00  0.00     0.163 HD
ATOM     35  O   UNL A   1      34.465  32.499  31.386  1.00  0.00    -0.269 OA
BRANCH  33  36
ATOM     36  C   UNL A   1      36.413  31.347  30.789  1.00  0.00     0.039 A 
ATOM     37  C   UNL A   1      36.279  29.968  30.953  1.00  0.00     0.014 A 
ATOM     38  C   UNL A   1      37.665  31.955  30.769  1.00  0.00     0.014 A 
ATOM     39  C   UNL A   1      37.431  29.187  30.995  1.00  0.00     0.010 A 
ATOM     40  C   UNL A   1      38.792  31.170  30.685  1.00  0.00     0.010 A 
ATOM     41  C   UNL A   1      38.690  29.787  30.824  1.00  0.00    -0.014 A 
BRANCH  41  42
ATOM     42  C   UNL A   1      39.886  28.956  30.687  1.00  0.00     0.031 A 
ATOM     43  C   UNL A   1      40.646  28.676  31.937  1.00  0.00     0.074 A 
ATOM     44  C   UNL A   1      40.232  28.307  29.555  1.00  0.00     0.049 A 
ATOM     45  N   UNL A   1      41.829  29.097  32.238  1.00  0.00    -0.248 NA
ATOM     46  C   UNL A   1      40.000  27.901  33.006  1.00  0.00     0.031 C 
ATOM     47  C   UNL A   1      39.494  28.201  28.292  1.00  0.00     0.029 A 
ATOM     48  N   UNL A   1      41.298  27.485  29.349  1.00  0.00    -0.354 N 
ATOM     49  C   UNL A   1      42.163  28.509  33.454  1.00  0.00     0.074 A 
ATOM     50  C   UNL A   1      40.953  27.892  33.943  1.00  0.00     0.031 C 
ATOM     51  C   UNL A   1      39.993  27.180  27.564  1.00  0.00     0.029 A 
ATOM     52  C   UNL A   1      41.193  26.692  28.217  1.00  0.00     0.049 A 
ATOM     53  H   UNL A   1      42.077  27.458  29.951  1.00  0.00     0.167 HD
ATOM     54  C   UNL A   1      43.460  28.400  33.862  1.00  0.00     0.031 A 
ATOM     55  C   UNL A   1      42.024  25.693  27.844  1.00  0.00     0.031 A 
ATOM     56  C   UNL A   1      44.344  29.215  33.065  1.00  0.00     0.049 A 
ATOM     57  C   UNL A   1      43.325  25.926  28.508  1.00  0.00     0.074 A 
ATOM     58  C   UNL A   1      44.423  30.560  32.760  1.00  0.00     0.029 A 
ATOM     59  N   UNL A   1      45.112  28.576  32.120  1.00  0.00    -0.354 N 
ATOM     60  N   UNL A   1      44.106  26.924  28.210  1.00  0.00    -0.248 NA
ATOM     61  C   UNL A   1      43.577  25.306  29.799  1.00  0.00     0.031 C 
ATOM     62  C   UNL A   1      44.786  30.597  31.381  1.00  0.00     0.029 A 
ATOM     63  C   UNL A   1      44.973  29.282  30.953  1.00  0.00     0.049 A 
ATOM     64  H   UNL A   1      45.657  27.768  32.255  1.00  0.00     0.167 HD
ATOM     65  C   UNL A   1      44.608  27.353  29.429  1.00  0.00     0.074 A 
ATOM     66  C   UNL A   1      44.357  26.243  30.347  1.00  0.00     0.031 C 
ATOM     67  C   UNL A   1      44.914  28.669  29.644  1.00  0.00     0.031 A 
BRANCH  54  68
ATOM     68  C   UNL A   1      43.992  27.277  34.717  1.00  0.00    -0.014 A 
ATOM     69  C   UNL A   1      44.099  25.989  34.153  1.00  0.00     0.009 A 
ATOM     70  C   UNL A   1      44.113  27.365  36.115  1.00  0.00     0.009 A 
ATOM     71  C   UNL A   1      44.231  24.848  34.954  1.00  0.00     0.001 A 
ATOM     72  C   UNL A   1      44.289  26.231  36.914  1.00  0.00     0.001 A 
ATOM     73  C   UNL A   1      44.315  24.970  36.336  1.00  0.00     0.000 A 
ENDBRANCH  54  68
BRANCH  55  74
ATOM     74  C   UNL A   1      41.703  24.455  27.107  1.00  0.00    -0.014 A 
ATOM     75  C   UNL A   1      42.567  23.967  26.116  1.00  0.00     0.009 A 
ATOM     76  C   UNL A   1      40.676  23.607  27.561  1.00  0.00     0.009 A 
ATOM     77  C   UNL A   1      42.438  22.659  25.635  1.00  0.00     0.001 A 
ATOM     78  C   UNL A   1      40.543  22.304  27.076  1.00  0.00     0.001 A 
ATOM     79  C   UNL A   1      41.436  21.823  26.126  1.00  0.00     0.000 A 
ENDBRANCH  55  74
BRANCH  67  80
ATOM     80  C   UNL A   1      44.909  29.603  28.455  1.00  0.00    -0.014 A 
ATOM     81  C   UNL A   1      43.739  30.199  27.952  1.00  0.00     0.009 A 
ATOM     82  C   UNL A   1      46.137  29.999  27.905  1.00  0.00     0.009 A 
ATOM     83  C   UNL A   1      43.789  31.117  26.899  1.00  0.00     0.001 A 
ATOM     84  C   UNL A   1      46.191  30.936  26.869  1.00  0.00     0.001 A 
ATOM     85  C   UNL A   1      45.018  31.486  26.359  1.00  0.00     0.000 A 
ENDBRANCH  67  80
ENDBRANCH  41  42
ENDBRANCH  33  36
ENDBRANCH  31  32
ENDBRANCH  30  31
ENDBRANCH   1  30
TORSDOF 14
ENDMDL
MODEL 3
REMARK VINA RESULT:     -12.3      2.921      8.099
REMARK SMILES COc1ccc(-n2ccnc2C[N@@H+]2CCn3nc(C(=O)NCCCNC(=O)c4ccc(-c5c6nc(c(-c7ccccc7)c7ccc([nH]7)c(-c7ccccc7)c7nc(c(-c8ccccc8)c8ccc5[nH]8)C=C7)C=C6)cc4)cc3C2)cc1
REMARK SMILES IDX 22 1 21 2 19 3 20 4 18 6 13 7 14 8 78 9 15 11 77 12 16 13
REMARK SMILES IDX 76 14 17 15 12 16 11 17 7 18 8 19 9 20 10 21 6 22 3 23 4 24
REMARK SMILES IDX 80 25 5 26 79 27 2 28 1 29 23 30 24 31 25 32 26 33 27 35
REMARK SMILES IDX 28 36 29 37 75 38 30 39 74 40 31 41 32 42 33 43 68 44 34 45
REMARK SMILES IDX 73 46 67 47 69 48 35 49 72 50 66 51 65 52 36 54 58 55 43 56
REMARK SMILES IDX 57 57 44 58 47 59 56 60 70 61 45 62 46 63 55 65 71 66 48 67
REMARK SMILES IDX 37 68 38 69 42 70 39 71 41 72 40 73 59 74 60 75 64 76 61 77
REMARK SMILES IDX 63 78 62 79 49 80 50 81 54 82 51 83 53 84 52 85
REMARK H PARENT 21 5 13 10 25 34 69 53 47 64
REMARK Flexibility Score: inf
ROOT
ATOM      1  C   UNL A   1      38.264  22.796  26.121  1.00  0.00     0.118 C 
ENDROOT
BRANCH   1   2
ATOM      2  N   UNL A   1      37.467  23.135  24.964  1.00  0.00    -0.351 N 
ATOM      3  C   UNL A   1      36.421  22.429  24.430  1.00  0.00     0.271 C 
ATOM      4  O   UNL A   1      36.189  22.621  23.233  1.00  0.00    -0.267 OA
ATOM      5  H   UNL A   1      37.703  23.974  24.505  1.00  0.00     0.163 HD
BRANCH   3   6
ATOM      6  C   UNL A   1      35.518  21.581  25.249  1.00  0.00     0.150 A 
ATOM      7  N   UNL A   1      31.887  23.078  25.414  1.00  0.00    -0.322 N 
ATOM      8  C   UNL A   1      31.897  23.064  26.881  1.00  0.00     0.286 C 
ATOM      9  C   UNL A   1      32.053  21.669  24.937  1.00  0.00     0.319 C 
ATOM     10  H   UNL A   1      30.993  23.480  25.130  1.00  0.00     0.348 HD
ATOM     11  C   UNL A   1      32.991  22.208  27.566  1.00  0.00     0.206 C 
ATOM     12  C   UNL A   1      33.392  21.172  25.373  1.00  0.00     0.094 A 
ATOM     13  N   UNL A   1      33.872  21.569  26.595  1.00  0.00    -0.257 N 
ATOM     14  C   UNL A   1      34.493  20.788  24.640  1.00  0.00     0.065 A 
ATOM     15  N   UNL A   1      35.206  21.827  26.545  1.00  0.00    -0.167 NA
BRANCH   7  16
ATOM     16  C   UNL A   1      32.909  23.961  24.778  1.00  0.00     0.339 C 
BRANCH  16  17
ATOM     17  C   UNL A   1      32.642  24.739  23.505  1.00  0.00     0.168 A 
ATOM     18  N   UNL A   1      32.594  26.132  23.325  1.00  0.00    -0.299 N 
ATOM     19  C   UNL A   1      32.812  26.365  21.985  1.00  0.00     0.113 A 
ATOM     20  C   UNL A   1      32.905  25.138  21.393  1.00  0.00     0.132 A 
ATOM     21  N   UNL A   1      32.753  24.149  22.318  1.00  0.00    -0.236 NA
BRANCH  18  22
ATOM     22  C   UNL A   1      32.396  27.213  24.216  1.00  0.00     0.047 A 
ATOM     23  C   UNL A   1      32.163  29.515  25.789  1.00  0.00     0.119 A 
ATOM     24  C   UNL A   1      33.229  28.643  25.985  1.00  0.00     0.048 A 
ATOM     25  C   UNL A   1      31.284  29.313  24.730  1.00  0.00     0.048 A 
ATOM     26  C   UNL A   1      33.360  27.503  25.181  1.00  0.00     0.030 A 
ATOM     27  C   UNL A   1      31.406  28.164  23.933  1.00  0.00     0.030 A 
BRANCH  23  28
ATOM     28  O   UNL A   1      32.044  30.615  26.592  1.00  0.00    -0.497 OA
ATOM     29  C   UNL A   1      33.282  30.900  27.251  1.00  0.00     0.278 C 
ENDBRANCH  23  28
ENDBRANCH  18  22
ENDBRANCH  16  17
ENDBRANCH   7  16
ENDBRANCH   3   6
ENDBRANCH   1   2
BRANCH   1  30
ATOM     30  C   UNL A   1      39.120  21.570  25.802  1.00  0.00     0.042 C 
BRANCH  30  31
ATOM     31  C   UNL A   1      40.343  21.481  26.706  1.00  0.00     0.118 C 
BRANCH  31  32
ATOM     32  N   UNL A   1      41.596  21.681  25.983  1.00  0.00    -0.352 N 
ATOM     33  C   UNL A   1      42.242  22.887  25.755  1.00  0.00     0.251 C 
ATOM     34  H   UNL A   1      42.026  20.874  25.616  1.00  0.00     0.163 HD
ATOM     35  O   UNL A   1      43.063  23.021  24.880  1.00  0.00    -0.269 OA
BRANCH  33  36
ATOM     36  C   UNL A   1      41.876  24.014  26.636  1.00  0.00     0.039 A 
ATOM     37  C   UNL A   1      42.471  24.166  27.889  1.00  0.00     0.014 A 
ATOM     38  C   UNL A   1      41.006  24.974  26.127  1.00  0.00     0.014 A 
ATOM     39  C   UNL A   1      42.261  25.353  28.587  1.00  0.00     0.010 A 
ATOM     40  C   UNL A   1      40.903  26.191  26.760  1.00  0.00     0.010 A 
ATOM     41  C   UNL A   1      41.503  26.382  28.004  1.00  0.00    -0.014 A 
BRANCH  41  42
ATOM     42  C   UNL A   1      41.428  27.694  28.647  1.00  0.00     0.031 A 
ATOM     43  C   UNL A   1      42.417  28.712  28.194  1.00  0.00     0.074 A 
ATOM     44  C   UNL A   1      40.433  28.075  29.476  1.00  0.00     0.049 A 
ATOM     45  N   UNL A   1      43.388  29.211  28.885  1.00  0.00    -0.248 NA
ATOM     46  C   UNL A   1      42.372  29.181  26.802  1.00  0.00     0.031 C 
ATOM     47  C   UNL A   1      39.210  27.353  29.840  1.00  0.00     0.029 A 
ATOM     48  N   UNL A   1      40.261  29.282  30.084  1.00  0.00    -0.354 N 
ATOM     49  C   UNL A   1      43.982  30.185  28.088  1.00  0.00     0.074 A 
ATOM     50  C   UNL A   1      43.403  30.031  26.774  1.00  0.00     0.031 C 
ATOM     51  C   UNL A   1      38.323  28.214  30.381  1.00  0.00     0.029 A 
ATOM     52  C   UNL A   1      38.982  29.492  30.574  1.00  0.00     0.049 A 
ATOM     53  H   UNL A   1      40.983  29.946  30.168  1.00  0.00     0.167 HD
ATOM     54  C   UNL A   1      44.751  31.174  28.624  1.00  0.00     0.031 A 
ATOM     55  C   UNL A   1      38.488  30.639  31.093  1.00  0.00     0.031 A 
ATOM     56  C   UNL A   1      45.104  30.897  29.995  1.00  0.00     0.049 A 
ATOM     57  C   UNL A   1      39.637  31.450  31.553  1.00  0.00     0.074 A 
ATOM     58  C   UNL A   1      45.756  29.868  30.646  1.00  0.00     0.029 A 
ATOM     59  N   UNL A   1      44.424  31.582  30.974  1.00  0.00    -0.354 N 
ATOM     60  N   UNL A   1      40.388  31.109  32.561  1.00  0.00    -0.248 NA
ATOM     61  C   UNL A   1      40.225  32.417  30.641  1.00  0.00     0.031 C 
ATOM     62  C   UNL A   1      45.022  29.684  31.856  1.00  0.00     0.029 A 
ATOM     63  C   UNL A   1      44.019  30.655  31.899  1.00  0.00     0.049 A 
ATOM     64  H   UNL A   1      44.259  32.552  31.005  1.00  0.00     0.167 HD
ATOM     65  C   UNL A   1      41.676  31.437  32.166  1.00  0.00     0.074 A 
ATOM     66  C   UNL A   1      41.499  32.355  31.042  1.00  0.00     0.031 C 
ATOM     67  C   UNL A   1      42.753  30.711  32.595  1.00  0.00     0.031 A 
BRANCH  54  68
ATOM     68  C   UNL A   1      44.866  32.568  28.055  1.00  0.00    -0.014 A 
ATOM     69  C   UNL A   1      43.777  33.451  28.203  1.00  0.00     0.009 A 
ATOM     70  C   UNL A   1      45.864  32.945  27.139  1.00  0.00     0.009 A 
ATOM     71  C   UNL A   1      43.655  34.600  27.413  1.00  0.00     0.001 A 
ATOM     72  C   UNL A   1      45.766  34.116  26.381  1.00  0.00     0.001 A 
ATOM     73  C   UNL A   1      44.646  34.926  26.494  1.00  0.00     0.000 A 
ENDBRANCH  54  68
BRANCH  55  74
ATOM     74  C   UNL A   1      37.106  31.154  31.039  1.00  0.00    -0.014 A 
ATOM     75  C   UNL A   1      36.416  31.479  32.216  1.00  0.00     0.009 A 
ATOM     76  C   UNL A   1      36.556  31.578  29.816  1.00  0.00     0.009 A 
ATOM     77  C   UNL A   1      35.245  32.245  32.171  1.00  0.00     0.001 A 
ATOM     78  C   UNL A   1      35.383  32.335  29.770  1.00  0.00     0.001 A 
ATOM     79  C   UNL A   1      34.738  32.686  30.950  1.00  0.00     0.000 A 
ENDBRANCH  55  74
BRANCH  67  80
ATOM     80  C   UNL A   1      42.531  29.691  33.689  1.00  0.00    -0.014 A 
ATOM     81  C   UNL A   1      42.740  29.971  35.052  1.00  0.00     0.009 A 
ATOM     82  C   UNL A   1      41.967  28.453  33.351  1.00  0.00     0.009 A 
ATOM     83  C   UNL A   1      42.448  29.023  36.037  1.00  0.00     0.001 A 
ATOM     84  C   UNL A   1      41.651  27.514  34.337  1.00  0.00     0.001 A 
ATOM     85  C   UNL A   1      41.902  27.795  35.678  1.00  0.00     0.000 A 
ENDBRANCH  67  80
ENDBRANCH  41  42
ENDBRANCH  33  36
ENDBRANCH  31  32
ENDBRANCH  30  31
ENDBRANCH   1  30
TORSDOF 14
ENDMDL
