MODEL 1
REMARK VINA RESULT:     -10.4      0.000      0.000
REMARK SMILES O=C(COCCNC(=O)Nc1cccc(F)c1)NCCCNC(=O)c1ccc(-c2c3nc(c(-c4ccccc4)c4ccc([nH]4)c(-c4ccccc4)c4nc(c(-c5ccccc5)c5ccc2[nH]5)C=C4)C=C3)cc1
REMARK SMILES IDX 1 1 2 2 18 3 3 5 4 6 5 7 6 8 7 9 8 10 9 12 10 13 11 15 12 16
REMARK SMILES IDX 17 17 13 18 15 19 14 20 16 21 19 22 20 23 21 24 22 25 23 26
REMARK SMILES IDX 24 28 25 29 26 30 72 31 27 32 71 33 28 34 29 35 30 36 65 37
REMARK SMILES IDX 31 38 70 39 64 40 66 41 32 42 69 43 63 44 62 45 33 47 55 48
REMARK SMILES IDX 40 49 54 50 41 51 44 52 53 53 67 54 42 55 43 56 52 58 68 59
REMARK SMILES IDX 45 60 34 61 35 62 39 63 36 64 38 65 37 66 56 67 57 68 61 69
REMARK SMILES IDX 58 70 60 71 59 72 46 73 47 74 51 75 48 76 50 77 49 78
REMARK H PARENT 18 4 7 11 10 14 22 27 66 46 44 57
REMARK Flexibility Score: inf
ROOT
ATOM      1  O   UNL A   1      33.923  28.831  27.106  1.00  0.00    -0.272 OA
ATOM      2  C   UNL A   1      33.421  29.042  26.007  1.00  0.00     0.245 C 
ATOM      3  N   UNL A   1      32.369  29.908  25.793  1.00  0.00    -0.354 N 
ATOM      4  H   UNL A   1      32.093  30.096  24.868  1.00  0.00     0.163 HD
ENDROOT
BRANCH   2   5
ATOM      5  C   UNL A   1      33.932  28.392  24.718  1.00  0.00     0.260 C 
BRANCH   5   6
ATOM      6  O   UNL A   1      33.751  29.162  23.537  1.00  0.00    -0.370 OA
BRANCH   6   7
ATOM      7  C   UNL A   1      33.021  28.514  22.491  1.00  0.00     0.182 C 
BRANCH   7   8
ATOM      8  C   UNL A   1      31.552  28.923  22.394  1.00  0.00     0.146 C 
BRANCH   8   9
ATOM      9  N   UNL A   1      30.587  27.854  22.646  1.00  0.00    -0.336 N 
ATOM     10  C   UNL A   1      29.348  27.812  23.176  1.00  0.00     0.319 C 
ATOM     11  H   UNL A   1      30.916  26.969  22.368  1.00  0.00     0.165 HD
ATOM     12  O   UNL A   1      28.902  26.711  23.508  1.00  0.00    -0.249 OA
ATOM     13  N   UNL A   1      28.624  28.916  23.451  1.00  0.00    -0.308 N 
ATOM     14  H   UNL A   1      27.981  28.805  24.189  1.00  0.00     0.171 HD
BRANCH  13  15
ATOM     15  C   UNL A   1      28.621  30.190  22.875  1.00  0.00     0.045 A 
ATOM     16  C   UNL A   1      28.975  31.339  23.590  1.00  0.00     0.026 A 
ATOM     17  C   UNL A   1      28.228  30.296  21.542  1.00  0.00     0.065 A 
ATOM     18  C   UNL A   1      28.778  32.603  23.029  1.00  0.00     0.005 A 
ATOM     19  C   UNL A   1      28.029  31.558  20.996  1.00  0.00     0.125 A 
ATOM     20  C   UNL A   1      28.272  32.711  21.736  1.00  0.00     0.039 A 
ATOM     21  F   UNL A   1      27.550  31.664  19.751  1.00  0.00    -0.207 F 
ENDBRANCH  13  15
ENDBRANCH   8   9
ENDBRANCH   7   8
ENDBRANCH   6   7
ENDBRANCH   5   6
ENDBRANCH   2   5
BRANCH   3  22
ATOM     22  C   UNL A   1      31.661  30.550  26.873  1.00  0.00     0.117 C 
BRANCH  22  23
ATOM     23  C   UNL A   1      31.547  32.054  26.681  1.00  0.00     0.042 C 
BRANCH  23  24
ATOM     24  C   UNL A   1      32.774  32.830  27.148  1.00  0.00     0.118 C 
BRANCH  24  25
ATOM     25  N   UNL A   1      32.458  34.170  27.625  1.00  0.00    -0.352 N 
ATOM     26  C   UNL A   1      33.022  34.894  28.646  1.00  0.00     0.251 C 
ATOM     27  H   UNL A   1      31.732  34.626  27.140  1.00  0.00     0.163 HD
ATOM     28  O   UNL A   1      32.529  35.971  28.973  1.00  0.00    -0.269 OA
BRANCH  26  29
ATOM     29  C   UNL A   1      34.198  34.372  29.375  1.00  0.00     0.039 A 
ATOM     30  C   UNL A   1      33.992  33.707  30.586  1.00  0.00     0.014 A 
ATOM     31  C   UNL A   1      35.495  34.542  28.882  1.00  0.00     0.014 A 
ATOM     32  C   UNL A   1      35.078  33.155  31.269  1.00  0.00     0.010 A 
ATOM     33  C   UNL A   1      36.567  33.928  29.525  1.00  0.00     0.010 A 
ATOM     34  C   UNL A   1      36.371  33.231  30.726  1.00  0.00    -0.014 A 
BRANCH  34  35
ATOM     35  C   UNL A   1      37.524  32.582  31.400  1.00  0.00     0.031 A 
ATOM     36  C   UNL A   1      38.212  31.405  30.765  1.00  0.00     0.074 A 
ATOM     37  C   UNL A   1      37.919  33.017  32.612  1.00  0.00     0.049 A 
ATOM     38  N   UNL A   1      39.207  30.687  31.222  1.00  0.00    -0.248 NA
ATOM     39  C   UNL A   1      37.703  30.963  29.457  1.00  0.00     0.031 C 
ATOM     40  C   UNL A   1      37.310  34.122  33.358  1.00  0.00     0.029 A 
ATOM     41  N   UNL A   1      38.926  32.578  33.434  1.00  0.00    -0.354 N 
ATOM     42  C   UNL A   1      39.431  29.702  30.268  1.00  0.00     0.074 A 
ATOM     43  C   UNL A   1      38.439  29.885  29.232  1.00  0.00     0.031 C 
ATOM     44  C   UNL A   1      37.975  34.291  34.512  1.00  0.00     0.029 A 
ATOM     45  C   UNL A   1      39.030  33.287  34.606  1.00  0.00     0.049 A 
ATOM     46  H   UNL A   1      39.519  31.825  33.205  1.00  0.00     0.167 HD
ATOM     47  C   UNL A   1      40.386  28.742  30.245  1.00  0.00     0.031 A 
ATOM     48  C   UNL A   1      39.876  33.144  35.643  1.00  0.00     0.031 A 
ATOM     49  C   UNL A   1      41.382  28.563  31.269  1.00  0.00     0.049 A 
ATOM     50  C   UNL A   1      40.923  32.068  35.597  1.00  0.00     0.074 A 
ATOM     51  C   UNL A   1      42.424  27.653  31.309  1.00  0.00     0.029 A 
ATOM     52  N   UNL A   1      41.457  29.308  32.435  1.00  0.00    -0.354 N 
ATOM     53  N   UNL A   1      41.163  31.187  34.656  1.00  0.00    -0.248 NA
ATOM     54  C   UNL A   1      41.827  31.977  36.753  1.00  0.00     0.031 C 
ATOM     55  C   UNL A   1      43.103  27.817  32.521  1.00  0.00     0.029 A 
ATOM     56  C   UNL A   1      42.516  28.865  33.211  1.00  0.00     0.049 A 
ATOM     57  H   UNL A   1      40.848  30.043  32.677  1.00  0.00     0.167 HD
ATOM     58  C   UNL A   1      42.261  30.457  35.092  1.00  0.00     0.074 A 
ATOM     59  C   UNL A   1      42.649  31.009  36.374  1.00  0.00     0.031 C 
ATOM     60  C   UNL A   1      42.891  29.423  34.484  1.00  0.00     0.031 A 
BRANCH  47  61
ATOM     61  C   UNL A   1      40.395  27.804  29.071  1.00  0.00    -0.014 A 
ATOM     62  C   UNL A   1      41.146  28.087  27.919  1.00  0.00     0.009 A 
ATOM     63  C   UNL A   1      39.668  26.605  29.128  1.00  0.00     0.009 A 
ATOM     64  C   UNL A   1      41.139  27.208  26.835  1.00  0.00     0.001 A 
ATOM     65  C   UNL A   1      39.685  25.713  28.054  1.00  0.00     0.001 A 
ATOM     66  C   UNL A   1      40.412  26.020  26.904  1.00  0.00     0.000 A 
ENDBRANCH  47  61
BRANCH  48  67
ATOM     67  C   UNL A   1      39.784  34.059  36.810  1.00  0.00    -0.014 A 
ATOM     68  C   UNL A   1      39.019  33.707  37.932  1.00  0.00     0.009 A 
ATOM     69  C   UNL A   1      40.454  35.293  36.805  1.00  0.00     0.009 A 
ATOM     70  C   UNL A   1      38.902  34.582  39.013  1.00  0.00     0.001 A 
ATOM     71  C   UNL A   1      40.359  36.154  37.901  1.00  0.00     0.001 A 
ATOM     72  C   UNL A   1      39.576  35.803  38.998  1.00  0.00     0.000 A 
ENDBRANCH  48  67
BRANCH  60  73
ATOM     73  C   UNL A   1      44.091  28.846  35.182  1.00  0.00    -0.014 A 
ATOM     74  C   UNL A   1      43.978  27.740  36.038  1.00  0.00     0.009 A 
ATOM     75  C   UNL A   1      45.359  29.406  34.956  1.00  0.00     0.009 A 
ATOM     76  C   UNL A   1      45.106  27.229  36.682  1.00  0.00     0.001 A 
ATOM     77  C   UNL A   1      46.488  28.874  35.579  1.00  0.00     0.001 A 
ATOM     78  C   UNL A   1      46.361  27.793  36.449  1.00  0.00     0.000 A 
ENDBRANCH  60  73
ENDBRANCH  34  35
ENDBRANCH  26  29
ENDBRANCH  24  25
ENDBRANCH  23  24
ENDBRANCH  22  23
ENDBRANCH   3  22
TORSDOF 15
ENDMDL
MODEL 2
REMARK VINA RESULT:     -10.4      4.962      9.589
REMARK SMILES O=C(COCCNC(=O)Nc1cccc(F)c1)NCCCNC(=O)c1ccc(-c2c3nc(c(-c4ccccc4)c4ccc([nH]4)c(-c4ccccc4)c4nc(c(-c5ccccc5)c5ccc2[nH]5)C=C4)C=C3)cc1
REMARK SMILES IDX 1 1 2 2 18 3 3 5 4 6 5 7 6 8 7 9 8 10 9 12 10 13 11 15 12 16
REMARK SMILES IDX 17 17 13 18 15 19 14 20 16 21 19 22 20 23 21 24 22 25 23 26
REMARK SMILES IDX 24 28 25 29 26 30 72 31 27 32 71 33 28 34 29 35 30 36 65 37
REMARK SMILES IDX 31 38 70 39 64 40 66 41 32 42 69 43 63 44 62 45 33 47 55 48
REMARK SMILES IDX 40 49 54 50 41 51 44 52 53 53 67 54 42 55 43 56 52 58 68 59
REMARK SMILES IDX 45 60 34 61 35 62 39 63 36 64 38 65 37 66 56 67 57 68 61 69
REMARK SMILES IDX 58 70 60 71 59 72 46 73 47 74 51 75 48 76 50 77 49 78
REMARK H PARENT 18 4 7 11 10 14 22 27 66 46 44 57
REMARK Flexibility Score: inf
ROOT
ATOM      1  O   UNL A   1      35.030  23.321  22.779  1.00  0.00    -0.272 OA
ATOM      2  C   UNL A   1      34.731  22.719  23.805  1.00  0.00     0.245 C 
ATOM      3  N   UNL A   1      35.641  22.059  24.604  1.00  0.00    -0.354 N 
ATOM      4  H   UNL A   1      35.335  21.688  25.462  1.00  0.00     0.163 HD
ENDROOT
BRANCH   2   5
ATOM      5  C   UNL A   1      33.302  22.659  24.351  1.00  0.00     0.260 C 
BRANCH   5   6
ATOM      6  O   UNL A   1      32.700  23.920  24.616  1.00  0.00    -0.370 OA
BRANCH   6   7
ATOM      7  C   UNL A   1      31.310  24.013  24.294  1.00  0.00     0.182 C 
BRANCH   7   8
ATOM      8  C   UNL A   1      30.989  24.947  23.128  1.00  0.00     0.146 C 
BRANCH   8   9
ATOM      9  N   UNL A   1      31.881  24.836  21.974  1.00  0.00    -0.336 N 
ATOM     10  C   UNL A   1      32.608  25.719  21.260  1.00  0.00     0.319 C 
ATOM     11  H   UNL A   1      31.971  23.912  21.648  1.00  0.00     0.165 HD
ATOM     12  O   UNL A   1      33.045  25.352  20.167  1.00  0.00    -0.249 OA
ATOM     13  N   UNL A   1      32.790  27.002  21.635  1.00  0.00    -0.308 N 
ATOM     14  H   UNL A   1      32.937  27.625  20.888  1.00  0.00     0.171 HD
BRANCH  13  15
ATOM     15  C   UNL A   1      32.808  27.605  22.896  1.00  0.00     0.045 A 
ATOM     16  C   UNL A   1      33.764  27.288  23.867  1.00  0.00     0.026 A 
ATOM     17  C   UNL A   1      31.814  28.539  23.180  1.00  0.00     0.065 A 
ATOM     18  C   UNL A   1      33.630  27.775  25.169  1.00  0.00     0.005 A 
ATOM     19  C   UNL A   1      31.685  29.013  24.480  1.00  0.00     0.125 A 
ATOM     20  C   UNL A   1      32.566  28.618  25.483  1.00  0.00     0.039 A 
ATOM     21  F   UNL A   1      30.667  29.828  24.782  1.00  0.00    -0.207 F 
ENDBRANCH  13  15
ENDBRANCH   8   9
ENDBRANCH   7   8
ENDBRANCH   6   7
ENDBRANCH   5   6
ENDBRANCH   2   5
BRANCH   3  22
ATOM     22  C   UNL A   1      37.025  21.893  24.231  1.00  0.00     0.117 C 
BRANCH  22  23
ATOM     23  C   UNL A   1      37.573  20.531  24.626  1.00  0.00     0.042 C 
BRANCH  23  24
ATOM     24  C   UNL A   1      38.508  20.566  25.830  1.00  0.00     0.118 C 
BRANCH  24  25
ATOM     25  N   UNL A   1      39.589  19.594  25.747  1.00  0.00    -0.352 N 
ATOM     26  C   UNL A   1      40.928  19.745  26.008  1.00  0.00     0.251 C 
ATOM     27  H   UNL A   1      39.318  18.691  25.462  1.00  0.00     0.163 HD
ATOM     28  O   UNL A   1      41.705  18.826  25.760  1.00  0.00    -0.269 OA
BRANCH  26  29
ATOM     29  C   UNL A   1      41.446  21.017  26.556  1.00  0.00     0.039 A 
ATOM     30  C   UNL A   1      41.942  21.975  25.667  1.00  0.00     0.014 A 
ATOM     31  C   UNL A   1      41.458  21.267  27.931  1.00  0.00     0.014 A 
ATOM     32  C   UNL A   1      42.386  23.208  26.151  1.00  0.00     0.010 A 
ATOM     33  C   UNL A   1      41.832  22.522  28.405  1.00  0.00     0.010 A 
ATOM     34  C   UNL A   1      42.302  23.505  27.521  1.00  0.00    -0.014 A 
BRANCH  34  35
ATOM     35  C   UNL A   1      42.697  24.838  28.041  1.00  0.00     0.031 A 
ATOM     36  C   UNL A   1      41.660  25.904  28.269  1.00  0.00     0.074 A 
ATOM     37  C   UNL A   1      43.998  25.111  28.257  1.00  0.00     0.049 A 
ATOM     38  N   UNL A   1      41.821  27.137  28.679  1.00  0.00    -0.248 NA
ATOM     39  C   UNL A   1      40.263  25.545  27.977  1.00  0.00     0.031 C 
ATOM     40  C   UNL A   1      45.109  24.181  28.036  1.00  0.00     0.029 A 
ATOM     41  N   UNL A   1      44.608  26.255  28.707  1.00  0.00    -0.354 N 
ATOM     42  C   UNL A   1      40.552  27.703  28.679  1.00  0.00     0.074 A 
ATOM     43  C   UNL A   1      39.640  26.696  28.182  1.00  0.00     0.031 C 
ATOM     44  C   UNL A   1      46.259  24.782  28.380  1.00  0.00     0.029 A 
ATOM     45  C   UNL A   1      45.974  26.148  28.808  1.00  0.00     0.049 A 
ATOM     46  H   UNL A   1      44.113  27.074  28.938  1.00  0.00     0.167 HD
ATOM     47  C   UNL A   1      40.175  28.943  29.072  1.00  0.00     0.031 A 
ATOM     48  C   UNL A   1      46.896  27.048  29.197  1.00  0.00     0.031 A 
ATOM     49  C   UNL A   1      41.077  29.945  29.576  1.00  0.00     0.049 A 
ATOM     50  C   UNL A   1      46.453  28.419  29.624  1.00  0.00     0.074 A 
ATOM     51  C   UNL A   1      40.782  31.210  30.050  1.00  0.00     0.029 A 
ATOM     52  N   UNL A   1      42.451  29.793  29.671  1.00  0.00    -0.354 N 
ATOM     53  N   UNL A   1      45.241  28.916  29.680  1.00  0.00    -0.248 NA
ATOM     54  C   UNL A   1      47.507  29.349  30.055  1.00  0.00     0.031 C 
ATOM     55  C   UNL A   1      41.983  31.843  30.388  1.00  0.00     0.029 A 
ATOM     56  C   UNL A   1      43.021  30.950  30.175  1.00  0.00     0.049 A 
ATOM     57  H   UNL A   1      42.949  28.982  29.415  1.00  0.00     0.167 HD
ATOM     58  C   UNL A   1      45.383  30.204  30.179  1.00  0.00     0.074 A 
ATOM     59  C   UNL A   1      46.797  30.406  30.424  1.00  0.00     0.031 C 
ATOM     60  C   UNL A   1      44.428  31.137  30.414  1.00  0.00     0.031 A 
BRANCH  47  61
ATOM     61  C   UNL A   1      38.716  29.287  28.966  1.00  0.00    -0.014 A 
ATOM     62  C   UNL A   1      38.158  29.728  27.754  1.00  0.00     0.009 A 
ATOM     63  C   UNL A   1      37.878  29.139  30.082  1.00  0.00     0.009 A 
ATOM     64  C   UNL A   1      36.802  30.049  27.674  1.00  0.00     0.001 A 
ATOM     65  C   UNL A   1      36.517  29.434  29.992  1.00  0.00     0.001 A 
ATOM     66  C   UNL A   1      35.982  29.898  28.791  1.00  0.00     0.000 A 
ENDBRANCH  47  61
BRANCH  48  67
ATOM     67  C   UNL A   1      48.334  26.677  29.224  1.00  0.00    -0.014 A 
ATOM     68  C   UNL A   1      49.185  27.050  28.172  1.00  0.00     0.009 A 
ATOM     69  C   UNL A   1      48.863  25.941  30.296  1.00  0.00     0.009 A 
ATOM     70  C   UNL A   1      50.528  26.670  28.179  1.00  0.00     0.001 A 
ATOM     71  C   UNL A   1      50.213  25.586  30.313  1.00  0.00     0.001 A 
ATOM     72  C   UNL A   1      51.042  25.942  29.251  1.00  0.00     0.000 A 
ENDBRANCH  48  67
BRANCH  60  73
ATOM     73  C   UNL A   1      44.878  32.446  31.000  1.00  0.00    -0.014 A 
ATOM     74  C   UNL A   1      45.119  32.586  32.376  1.00  0.00     0.009 A 
ATOM     75  C   UNL A   1      45.087  33.548  30.156  1.00  0.00     0.009 A 
ATOM     76  C   UNL A   1      45.527  33.815  32.897  1.00  0.00     0.001 A 
ATOM     77  C   UNL A   1      45.522  34.766  30.677  1.00  0.00     0.001 A 
ATOM     78  C   UNL A   1      45.732  34.903  32.048  1.00  0.00     0.000 A 
ENDBRANCH  60  73
ENDBRANCH  34  35
ENDBRANCH  26  29
ENDBRANCH  24  25
ENDBRANCH  23  24
ENDBRANCH  22  23
ENDBRANCH   3  22
TORSDOF 15
ENDMDL
MODEL 3
REMARK VINA RESULT:     -10.4      5.748     10.252
REMARK SMILES O=C(COCCNC(=O)Nc1cccc(F)c1)NCCCNC(=O)c1ccc(-c2c3nc(c(-c4ccccc4)c4ccc([nH]4)c(-c4ccccc4)c4nc(c(-c5ccccc5)c5ccc2[nH]5)C=C4)C=C3)cc1
REMARK SMILES IDX 1 1 2 2 18 3 3 5 4 6 5 7 6 8 7 9 8 10 9 12 10 13 11 15 12 16
REMARK SMILES IDX 17 17 13 18 15 19 14 20 16 21 19 22 20 23 21 24 22 25 23 26
REMARK SMILES IDX 24 28 25 29 26 30 72 31 27 32 71 33 28 34 29 35 30 36 65 37
REMARK SMILES IDX 31 38 70 39 64 40 66 41 32 42 69 43 63 44 62 45 33 47 55 48
REMARK SMILES IDX 40 49 54 50 41 51 44 52 53 53 67 54 42 55 43 56 52 58 68 59
REMARK SMILES IDX 45 60 34 61 35 62 39 63 36 64 38 65 37 66 56 67 57 68 61 69
REMARK SMILES IDX 58 70 60 71 59 72 46 73 47 74 51 75 48 76 50 77 49 78
REMARK H PARENT 18 4 7 11 10 14 22 27 66 46 44 57
REMARK Flexibility Score: inf
ROOT
ATOM      1  O   UNL A   1      34.264  17.834  24.190  1.00  0.00    -0.272 OA
ATOM      2  C   UNL A   1      34.196  18.945  24.703  1.00  0.00     0.245 C 
ATOM      3  N   UNL A   1      35.295  19.717  25.019  1.00  0.00    -0.354 N 
ATOM      4  H   UNL A   1      35.151  20.637  25.335  1.00  0.00     0.163 HD
ENDROOT
BRANCH   2   5
ATOM      5  C   UNL A   1      32.868  19.636  25.024  1.00  0.00     0.260 C 
BRANCH   5   6
ATOM      6  O   UNL A   1      32.843  21.039  24.796  1.00  0.00    -0.370 OA
BRANCH   6   7
ATOM      7  C   UNL A   1      31.720  21.728  25.353  1.00  0.00     0.182 C 
BRANCH   7   8
ATOM      8  C   UNL A   1      32.047  22.599  26.565  1.00  0.00     0.146 C 
BRANCH   8   9
ATOM      9  N   UNL A   1      31.321  23.866  26.639  1.00  0.00    -0.336 N 
ATOM     10  C   UNL A   1      31.659  25.157  26.437  1.00  0.00     0.319 C 
ATOM     11  H   UNL A   1      30.377  23.752  26.891  1.00  0.00     0.165 HD
ATOM     12  O   UNL A   1      30.886  26.024  26.849  1.00  0.00    -0.249 OA
ATOM     13  N   UNL A   1      32.838  25.537  25.905  1.00  0.00    -0.308 N 
ATOM     14  H   UNL A   1      33.146  26.426  26.196  1.00  0.00     0.171 HD
BRANCH  13  15
ATOM     15  C   UNL A   1      33.702  24.896  25.012  1.00  0.00     0.045 A 
ATOM     16  C   UNL A   1      33.317  24.549  23.712  1.00  0.00     0.026 A 
ATOM     17  C   UNL A   1      34.983  24.584  25.462  1.00  0.00     0.065 A 
ATOM     18  C   UNL A   1      34.146  23.747  22.925  1.00  0.00     0.005 A 
ATOM     19  C   UNL A   1      35.798  23.780  24.674  1.00  0.00     0.125 A 
ATOM     20  C   UNL A   1      35.380  23.336  23.423  1.00  0.00     0.039 A 
ATOM     21  F   UNL A   1      36.987  23.390  25.148  1.00  0.00    -0.207 F 
ENDBRANCH  13  15
ENDBRANCH   8   9
ENDBRANCH   7   8
ENDBRANCH   6   7
ENDBRANCH   5   6
ENDBRANCH   2   5
BRANCH   3  22
ATOM     22  C   UNL A   1      36.647  19.227  24.903  1.00  0.00     0.117 C 
BRANCH  22  23
ATOM     23  C   UNL A   1      37.645  20.339  24.622  1.00  0.00     0.042 C 
BRANCH  23  24
ATOM     24  C   UNL A   1      38.668  20.547  25.733  1.00  0.00     0.118 C 
BRANCH  24  25
ATOM     25  N   UNL A   1      39.737  19.558  25.722  1.00  0.00    -0.352 N 
ATOM     26  C   UNL A   1      41.064  19.695  26.049  1.00  0.00     0.251 C 
ATOM     27  H   UNL A   1      39.468  18.654  25.438  1.00  0.00     0.163 HD
ATOM     28  O   UNL A   1      41.838  18.762  25.855  1.00  0.00    -0.269 OA
BRANCH  26  29
ATOM     29  C   UNL A   1      41.571  20.970  26.601  1.00  0.00     0.039 A 
ATOM     30  C   UNL A   1      42.079  21.926  25.718  1.00  0.00     0.014 A 
ATOM     31  C   UNL A   1      41.562  21.222  27.976  1.00  0.00     0.014 A 
ATOM     32  C   UNL A   1      42.514  23.161  26.205  1.00  0.00     0.010 A 
ATOM     33  C   UNL A   1      41.927  22.479  28.453  1.00  0.00     0.010 A 
ATOM     34  C   UNL A   1      42.409  23.460  27.573  1.00  0.00    -0.014 A 
BRANCH  34  35
ATOM     35  C   UNL A   1      42.794  24.795  28.096  1.00  0.00     0.031 A 
ATOM     36  C   UNL A   1      41.752  25.858  28.311  1.00  0.00     0.074 A 
ATOM     37  C   UNL A   1      44.092  25.072  28.328  1.00  0.00     0.049 A 
ATOM     38  N   UNL A   1      41.905  27.092  28.722  1.00  0.00    -0.248 NA
ATOM     39  C   UNL A   1      40.360  25.495  28.003  1.00  0.00     0.031 C 
ATOM     40  C   UNL A   1      45.208  24.145  28.121  1.00  0.00     0.029 A 
ATOM     41  N   UNL A   1      44.694  26.218  28.784  1.00  0.00    -0.354 N 
ATOM     42  C   UNL A   1      40.635  27.656  28.706  1.00  0.00     0.074 A 
ATOM     43  C   UNL A   1      39.731  26.645  28.199  1.00  0.00     0.031 C 
ATOM     44  C   UNL A   1      46.352  24.749  28.478  1.00  0.00     0.029 A 
ATOM     45  C   UNL A   1      46.059  26.115  28.900  1.00  0.00     0.049 A 
ATOM     46  H   UNL A   1      44.194  27.036  29.007  1.00  0.00     0.167 HD
ATOM     47  C   UNL A   1      40.249  28.895  29.093  1.00  0.00     0.031 A 
ATOM     48  C   UNL A   1      46.973  27.018  29.300  1.00  0.00     0.031 A 
ATOM     49  C   UNL A   1      41.143  29.899  29.607  1.00  0.00     0.049 A 
ATOM     50  C   UNL A   1      46.522  28.388  29.719  1.00  0.00     0.074 A 
ATOM     51  C   UNL A   1      40.839  31.165  30.076  1.00  0.00     0.029 A 
ATOM     52  N   UNL A   1      42.516  29.751  29.717  1.00  0.00    -0.354 N 
ATOM     53  N   UNL A   1      45.308  28.882  29.761  1.00  0.00    -0.248 NA
ATOM     54  C   UNL A   1      47.568  29.321  30.162  1.00  0.00     0.031 C 
ATOM     55  C   UNL A   1      42.035  31.801  30.427  1.00  0.00     0.029 A 
ATOM     56  C   UNL A   1      43.077  30.911  30.227  1.00  0.00     0.049 A 
ATOM     57  H   UNL A   1      43.020  28.942  29.469  1.00  0.00     0.167 HD
ATOM     58  C   UNL A   1      45.441  30.171  30.259  1.00  0.00     0.074 A 
ATOM     59  C   UNL A   1      46.851  30.377  30.521  1.00  0.00     0.031 C 
ATOM     60  C   UNL A   1      44.481  31.101  30.482  1.00  0.00     0.031 A 
BRANCH  47  61
ATOM     61  C   UNL A   1      38.791  29.235  28.969  1.00  0.00    -0.014 A 
ATOM     62  C   UNL A   1      38.253  29.704  27.759  1.00  0.00     0.009 A 
ATOM     63  C   UNL A   1      37.934  29.054  30.066  1.00  0.00     0.009 A 
ATOM     64  C   UNL A   1      36.897  30.021  27.663  1.00  0.00     0.001 A 
ATOM     65  C   UNL A   1      36.573  29.344  29.958  1.00  0.00     0.001 A 
ATOM     66  C   UNL A   1      36.057  29.837  28.760  1.00  0.00     0.000 A 
ENDBRANCH  47  61
BRANCH  48  67
ATOM     67  C   UNL A   1      48.412  26.651  29.344  1.00  0.00    -0.014 A 
ATOM     68  C   UNL A   1      48.944  25.995  30.465  1.00  0.00     0.009 A 
ATOM     69  C   UNL A   1      49.263  26.961  28.271  1.00  0.00     0.009 A 
ATOM     70  C   UNL A   1      50.304  25.682  30.523  1.00  0.00     0.001 A 
ATOM     71  C   UNL A   1      50.617  26.621  28.321  1.00  0.00     0.001 A 
ATOM     72  C   UNL A   1      51.137  25.992  29.450  1.00  0.00     0.000 A 
ENDBRANCH  48  67
BRANCH  60  73
ATOM     73  C   UNL A   1      44.920  32.412  31.072  1.00  0.00    -0.014 A 
ATOM     74  C   UNL A   1      45.280  33.496  30.258  1.00  0.00     0.009 A 
ATOM     75  C   UNL A   1      44.948  32.569  32.468  1.00  0.00     0.009 A 
ATOM     76  C   UNL A   1      45.694  34.701  30.830  1.00  0.00     0.001 A 
ATOM     77  C   UNL A   1      45.334  33.783  33.035  1.00  0.00     0.001 A 
ATOM     78  C   UNL A   1      45.717  34.845  32.218  1.00  0.00     0.000 A 
ENDBRANCH  60  73
ENDBRANCH  34  35
ENDBRANCH  26  29
ENDBRANCH  24  25
ENDBRANCH  23  24
ENDBRANCH  22  23
ENDBRANCH   3  22
TORSDOF 15
ENDMDL
