MODEL 1
REMARK VINA RESULT:     -10.6      0.000      0.000
REMARK SMILES CC(C)C[C@H](NC(=O)CNC(=O)[C@@H](NC(=O)OCc1ccccc1)C(C)C)C(=O)N[C@@H](C)C(=O)NCCCNC(=O)c1ccc(-c2c3nc(c(-c4ccccc4)c4ccc([nH]4)c(-c4ccccc4)c4nc(c(-c5ccccc5)c5ccc2[nH]5)C=C4)C=C3)cc1
REMARK SMILES IDX 28 1 29 2 30 3 5 5 4 6 2 7 1 8 3 9 6 10 7 11 8 13 9 14 10 15
REMARK SMILES IDX 11 16 12 18 13 19 14 20 15 21 16 23 17 24 18 25 19 26 20 27
REMARK SMILES IDX 24 28 21 29 23 30 22 31 25 32 26 33 27 34 31 35 32 36 33 37
REMARK SMILES IDX 34 38 35 39 36 41 37 42 38 43 39 44 40 45 41 47 42 48 43 49
REMARK SMILES IDX 89 50 44 51 88 52 45 53 46 54 47 55 82 56 48 57 87 58 81 59
REMARK SMILES IDX 83 60 49 61 86 62 80 63 79 64 50 66 72 67 57 68 71 69 58 70
REMARK SMILES IDX 61 71 70 72 84 73 59 74 60 75 69 77 85 78 62 79 51 80 52 81
REMARK SMILES IDX 56 82 53 83 55 84 54 85 73 86 74 87 78 88 75 89 77 90 76 91
REMARK SMILES IDX 63 92 64 93 68 94 65 95 67 96 66 97
REMARK H PARENT 30 4 6 12 10 17 14 22 35 40 39 46 83 65 61 76
REMARK Flexibility Score: inf
ROOT
ATOM      1  C   UNL A   1      32.207  28.696  23.465  1.00  0.00     0.243 C 
ATOM      2  O   UNL A   1      32.737  28.922  22.368  1.00  0.00    -0.273 OA
ATOM      3  N   UNL A   1      33.035  28.325  24.473  1.00  0.00    -0.343 N 
ATOM      4  H   UNL A   1      33.929  28.021  24.190  1.00  0.00     0.164 HD
ENDROOT
BRANCH   1   5
ATOM      5  C   UNL A   1      30.667  28.713  23.592  1.00  0.00     0.171 C 
BRANCH   5   6
ATOM      6  C   UNL A   1      29.895  30.019  23.842  1.00  0.00     0.038 C 
BRANCH   6   7
ATOM      7  C   UNL A   1      28.639  30.216  22.942  1.00  0.00    -0.015 C 
ATOM      8  C   UNL A   1      27.712  28.990  22.870  1.00  0.00     0.007 C 
ATOM      9  C   UNL A   1      27.771  31.348  23.493  1.00  0.00     0.007 C 
ENDBRANCH   6   7
ENDBRANCH   5   6
BRANCH   5  10
ATOM     10  N   UNL A   1      30.257  27.645  24.504  1.00  0.00    -0.343 N 
ATOM     11  C   UNL A   1      30.239  26.293  24.355  1.00  0.00     0.240 C 
ATOM     12  H   UNL A   1      29.938  27.960  25.381  1.00  0.00     0.164 HD
ATOM     13  O   UNL A   1      29.884  25.631  25.338  1.00  0.00    -0.273 OA
BRANCH  11  14
ATOM     14  C   UNL A   1      30.636  25.553  23.055  1.00  0.00     0.216 C 
BRANCH  14  15
ATOM     15  N   UNL A   1      32.032  25.365  22.719  1.00  0.00    -0.345 N 
ATOM     16  C   UNL A   1      33.015  24.566  23.229  1.00  0.00     0.243 C 
ATOM     17  H   UNL A   1      32.334  25.929  21.971  1.00  0.00     0.164 HD
ATOM     18  O   UNL A   1      34.178  24.777  22.863  1.00  0.00    -0.273 OA
BRANCH  16  19
ATOM     19  C   UNL A   1      32.741  23.357  24.121  1.00  0.00     0.177 C 
BRANCH  19  20
ATOM     20  N   UNL A   1      32.179  23.806  25.396  1.00  0.00    -0.309 N 
ATOM     21  C   UNL A   1      32.124  23.218  26.613  1.00  0.00     0.408 C 
ATOM     22  H   UNL A   1      31.767  24.698  25.362  1.00  0.00     0.167 HD
ATOM     23  O   UNL A   1      31.433  23.674  27.515  1.00  0.00    -0.225 OA
BRANCH  21  24
ATOM     24  O   UNL A   1      32.953  22.164  26.715  1.00  0.00    -0.445 OA
BRANCH  24  25
ATOM     25  C   UNL A   1      34.210  22.413  27.342  1.00  0.00     0.270 C 
BRANCH  25  26
ATOM     26  C   UNL A   1      35.358  22.387  26.354  1.00  0.00    -0.011 A 
ATOM     27  C   UNL A   1      35.790  21.211  25.714  1.00  0.00     0.007 A 
ATOM     28  C   UNL A   1      35.990  23.589  26.019  1.00  0.00     0.007 A 
ATOM     29  C   UNL A   1      36.818  21.230  24.775  1.00  0.00     0.000 A 
ATOM     30  C   UNL A   1      37.020  23.611  25.076  1.00  0.00     0.000 A 
ATOM     31  C   UNL A   1      37.432  22.433  24.454  1.00  0.00     0.000 A 
ENDBRANCH  25  26
ENDBRANCH  24  25
ENDBRANCH  21  24
ENDBRANCH  19  20
BRANCH  19  32
ATOM     32  C   UNL A   1      32.056  22.276  23.250  1.00  0.00     0.015 C 
ATOM     33  C   UNL A   1      32.584  22.325  21.797  1.00  0.00     0.010 C 
ATOM     34  C   UNL A   1      32.306  20.862  23.768  1.00  0.00     0.010 C 
ENDBRANCH  19  32
ENDBRANCH  16  19
ENDBRANCH  14  15
ENDBRANCH  11  14
ENDBRANCH   5  10
ENDBRANCH   1   5
BRANCH   3  35
ATOM     35  C   UNL A   1      32.804  28.308  25.908  1.00  0.00     0.168 C 
ATOM     36  C   UNL A   1      33.074  26.944  26.531  1.00  0.00     0.041 C 
BRANCH  35  37
ATOM     37  C   UNL A   1      33.641  29.427  26.556  1.00  0.00     0.242 C 
ATOM     38  O   UNL A   1      34.837  29.250  26.801  1.00  0.00    -0.273 OA
ATOM     39  N   UNL A   1      33.115  30.651  26.847  1.00  0.00    -0.354 N 
ATOM     40  H   UNL A   1      33.735  31.255  27.317  1.00  0.00     0.163 HD
BRANCH  39  41
ATOM     41  C   UNL A   1      31.806  31.227  26.589  1.00  0.00     0.117 C 
BRANCH  41  42
ATOM     42  C   UNL A   1      31.662  32.639  27.143  1.00  0.00     0.042 C 
BRANCH  42  43
ATOM     43  C   UNL A   1      32.983  33.383  27.310  1.00  0.00     0.118 C 
BRANCH  43  44
ATOM     44  N   UNL A   1      32.893  34.464  28.283  1.00  0.00    -0.352 N 
ATOM     45  C   UNL A   1      33.552  34.657  29.470  1.00  0.00     0.251 C 
ATOM     46  H   UNL A   1      32.254  35.175  28.049  1.00  0.00     0.163 HD
ATOM     47  O   UNL A   1      33.146  35.512  30.251  1.00  0.00    -0.269 OA
BRANCH  45  48
ATOM     48  C   UNL A   1      34.738  33.847  29.818  1.00  0.00     0.039 A 
ATOM     49  C   UNL A   1      35.963  34.159  29.223  1.00  0.00     0.014 A 
ATOM     50  C   UNL A   1      34.643  32.757  30.688  1.00  0.00     0.014 A 
ATOM     51  C   UNL A   1      37.099  33.418  29.546  1.00  0.00     0.010 A 
ATOM     52  C   UNL A   1      35.791  32.078  31.080  1.00  0.00     0.010 A 
ATOM     53  C   UNL A   1      37.031  32.396  30.509  1.00  0.00    -0.014 A 
BRANCH  53  54
ATOM     54  C   UNL A   1      38.254  31.674  30.938  1.00  0.00     0.031 A 
ATOM     55  C   UNL A   1      38.986  32.078  32.188  1.00  0.00     0.074 A 
ATOM     56  C   UNL A   1      38.727  30.674  30.170  1.00  0.00     0.049 A 
ATOM     57  N   UNL A   1      40.067  31.556  32.713  1.00  0.00    -0.248 NA
ATOM     58  C   UNL A   1      38.452  33.228  32.934  1.00  0.00     0.031 C 
ATOM     59  C   UNL A   1      38.132  30.220  28.909  1.00  0.00     0.029 A 
ATOM     60  N   UNL A   1      39.814  29.854  30.337  1.00  0.00    -0.354 N 
ATOM     61  C   UNL A   1      40.345  32.318  33.841  1.00  0.00     0.074 A 
ATOM     62  C   UNL A   1      39.354  33.371  33.894  1.00  0.00     0.031 C 
ATOM     63  C   UNL A   1      38.834  29.175  28.444  1.00  0.00     0.029 A 
ATOM     64  C   UNL A   1      39.953  28.916  29.341  1.00  0.00     0.049 A 
ATOM     65  H   UNL A   1      40.434  29.928  31.098  1.00  0.00     0.167 HD
ATOM     66  C   UNL A   1      41.323  32.145  34.762  1.00  0.00     0.031 A 
ATOM     67  C   UNL A   1      40.881  27.957  29.169  1.00  0.00     0.031 A 
ATOM     68  C   UNL A   1      42.310  31.099  34.704  1.00  0.00     0.049 A 
ATOM     69  C   UNL A   1      41.971  27.805  30.191  1.00  0.00     0.074 A 
ATOM     70  C   UNL A   1      43.311  30.806  35.615  1.00  0.00     0.029 A 
ATOM     71  N   UNL A   1      42.428  30.181  33.671  1.00  0.00    -0.354 N 
ATOM     72  N   UNL A   1      42.170  28.482  31.295  1.00  0.00    -0.248 NA
ATOM     73  C   UNL A   1      42.958  26.745  29.946  1.00  0.00     0.031 C 
ATOM     74  C   UNL A   1      44.075  29.754  35.100  1.00  0.00     0.029 A 
ATOM     75  C   UNL A   1      43.507  29.343  33.905  1.00  0.00     0.049 A 
ATOM     76  H   UNL A   1      41.834  30.132  32.888  1.00  0.00     0.167 HD
ATOM     77  C   UNL A   1      43.290  27.915  31.890  1.00  0.00     0.074 A 
ATOM     78  C   UNL A   1      43.707  26.821  31.036  1.00  0.00     0.031 C 
ATOM     79  C   UNL A   1      43.919  28.268  33.039  1.00  0.00     0.031 A 
BRANCH  66  80
ATOM     80  C   UNL A   1      41.380  33.120  35.908  1.00  0.00    -0.014 A 
ATOM     81  C   UNL A   1      40.695  32.877  37.110  1.00  0.00     0.009 A 
ATOM     82  C   UNL A   1      42.162  34.281  35.799  1.00  0.00     0.009 A 
ATOM     83  C   UNL A   1      40.761  33.793  38.162  1.00  0.00     0.001 A 
ATOM     84  C   UNL A   1      42.252  35.178  36.864  1.00  0.00     0.001 A 
ATOM     85  C   UNL A   1      41.544  34.940  38.040  1.00  0.00     0.000 A 
ENDBRANCH  66  80
BRANCH  67  86
ATOM     86  C   UNL A   1      40.814  27.058  27.987  1.00  0.00    -0.014 A 
ATOM     87  C   UNL A   1      40.068  25.869  28.035  1.00  0.00     0.009 A 
ATOM     88  C   UNL A   1      41.502  27.377  26.806  1.00  0.00     0.009 A 
ATOM     89  C   UNL A   1      40.041  25.005  26.937  1.00  0.00     0.001 A 
ATOM     90  C   UNL A   1      41.446  26.529  25.699  1.00  0.00     0.001 A 
ATOM     91  C   UNL A   1      40.726  25.338  25.768  1.00  0.00     0.000 A 
ENDBRANCH  67  86
BRANCH  79  92
ATOM     92  C   UNL A   1      45.107  27.443  33.448  1.00  0.00    -0.014 A 
ATOM     93  C   UNL A   1      44.963  26.294  34.243  1.00  0.00     0.009 A 
ATOM     94  C   UNL A   1      46.391  27.811  33.016  1.00  0.00     0.009 A 
ATOM     95  C   UNL A   1      46.085  25.560  34.635  1.00  0.00     0.001 A 
ATOM     96  C   UNL A   1      47.507  27.055  33.379  1.00  0.00     0.001 A 
ATOM     97  C   UNL A   1      47.354  25.938  34.200  1.00  0.00     0.000 A 
ENDBRANCH  79  92
ENDBRANCH  53  54
ENDBRANCH  45  48
ENDBRANCH  43  44
ENDBRANCH  42  43
ENDBRANCH  41  42
ENDBRANCH  39  41
ENDBRANCH  35  37
ENDBRANCH   3  35
TORSDOF 23
ENDMDL
MODEL 2
REMARK VINA RESULT:     -10.3      1.669      2.642
REMARK SMILES CC(C)C[C@H](NC(=O)CNC(=O)[C@@H](NC(=O)OCc1ccccc1)C(C)C)C(=O)N[C@@H](C)C(=O)NCCCNC(=O)c1ccc(-c2c3nc(c(-c4ccccc4)c4ccc([nH]4)c(-c4ccccc4)c4nc(c(-c5ccccc5)c5ccc2[nH]5)C=C4)C=C3)cc1
REMARK SMILES IDX 28 1 29 2 30 3 5 5 4 6 2 7 1 8 3 9 6 10 7 11 8 13 9 14 10 15
REMARK SMILES IDX 11 16 12 18 13 19 14 20 15 21 16 23 17 24 18 25 19 26 20 27
REMARK SMILES IDX 24 28 21 29 23 30 22 31 25 32 26 33 27 34 31 35 32 36 33 37
REMARK SMILES IDX 34 38 35 39 36 41 37 42 38 43 39 44 40 45 41 47 42 48 43 49
REMARK SMILES IDX 89 50 44 51 88 52 45 53 46 54 47 55 82 56 48 57 87 58 81 59
REMARK SMILES IDX 83 60 49 61 86 62 80 63 79 64 50 66 72 67 57 68 71 69 58 70
REMARK SMILES IDX 61 71 70 72 84 73 59 74 60 75 69 77 85 78 62 79 51 80 52 81
REMARK SMILES IDX 56 82 53 83 55 84 54 85 73 86 74 87 78 88 75 89 77 90 76 91
REMARK SMILES IDX 63 92 64 93 68 94 65 95 67 96 66 97
REMARK H PARENT 30 4 6 12 10 17 14 22 35 40 39 46 83 65 61 76
REMARK Flexibility Score: inf
ROOT
ATOM      1  C   UNL A   1      32.750  28.550  23.467  1.00  0.00     0.243 C 
ATOM      2  O   UNL A   1      33.028  29.263  22.492  1.00  0.00    -0.273 OA
ATOM      3  N   UNL A   1      33.692  28.461  24.439  1.00  0.00    -0.343 N 
ATOM      4  H   UNL A   1      34.596  28.751  24.174  1.00  0.00     0.164 HD
ENDROOT
BRANCH   1   5
ATOM      5  C   UNL A   1      31.449  27.719  23.464  1.00  0.00     0.171 C 
BRANCH   5   6
ATOM      6  C   UNL A   1      30.307  28.015  22.478  1.00  0.00     0.038 C 
BRANCH   6   7
ATOM      7  C   UNL A   1      29.422  29.240  22.857  1.00  0.00    -0.015 C 
ATOM      8  C   UNL A   1      29.471  30.396  21.842  1.00  0.00     0.007 C 
ATOM      9  C   UNL A   1      27.952  28.824  22.926  1.00  0.00     0.007 C 
ENDBRANCH   6   7
ENDBRANCH   5   6
BRANCH   5  10
ATOM     10  N   UNL A   1      30.970  27.587  24.841  1.00  0.00    -0.343 N 
ATOM     11  C   UNL A   1      30.553  26.502  25.548  1.00  0.00     0.240 C 
ATOM     12  H   UNL A   1      30.945  28.433  25.345  1.00  0.00     0.164 HD
ATOM     13  O   UNL A   1      30.252  26.695  26.732  1.00  0.00    -0.273 OA
BRANCH  11  14
ATOM     14  C   UNL A   1      30.445  25.072  24.968  1.00  0.00     0.216 C 
BRANCH  14  15
ATOM     15  N   UNL A   1      30.053  23.967  25.818  1.00  0.00    -0.345 N 
ATOM     16  C   UNL A   1      30.526  22.695  25.973  1.00  0.00     0.243 C 
ATOM     17  H   UNL A   1      29.288  24.175  26.403  1.00  0.00     0.164 HD
ATOM     18  O   UNL A   1      29.846  21.904  26.639  1.00  0.00    -0.273 OA
BRANCH  16  19
ATOM     19  C   UNL A   1      31.896  22.239  25.476  1.00  0.00     0.177 C 
BRANCH  19  20
ATOM     20  N   UNL A   1      31.891  22.171  24.014  1.00  0.00    -0.309 N 
ATOM     21  C   UNL A   1      32.215  21.176  23.158  1.00  0.00     0.408 C 
ATOM     22  H   UNL A   1      31.597  23.000  23.574  1.00  0.00     0.167 HD
ATOM     23  O   UNL A   1      32.334  21.378  21.955  1.00  0.00    -0.225 OA
BRANCH  21  24
ATOM     24  O   UNL A   1      32.305  19.980  23.766  1.00  0.00    -0.445 OA
BRANCH  24  25
ATOM     25  C   UNL A   1      33.619  19.555  24.123  1.00  0.00     0.270 C 
BRANCH  25  26
ATOM     26  C   UNL A   1      33.655  18.104  24.555  1.00  0.00    -0.011 A 
ATOM     27  C   UNL A   1      34.828  17.328  24.535  1.00  0.00     0.007 A 
ATOM     28  C   UNL A   1      32.485  17.515  25.047  1.00  0.00     0.007 A 
ATOM     29  C   UNL A   1      34.836  16.011  24.984  1.00  0.00     0.000 A 
ATOM     30  C   UNL A   1      32.491  16.194  25.500  1.00  0.00     0.000 A 
ATOM     31  C   UNL A   1      33.666  15.443  25.470  1.00  0.00     0.000 A 
ENDBRANCH  25  26
ENDBRANCH  24  25
ENDBRANCH  21  24
ENDBRANCH  19  20
BRANCH  19  32
ATOM     32  C   UNL A   1      32.968  23.032  26.264  1.00  0.00     0.015 C 
ATOM     33  C   UNL A   1      32.925  22.671  27.767  1.00  0.00     0.010 C 
ATOM     34  C   UNL A   1      34.386  22.742  25.776  1.00  0.00     0.010 C 
ENDBRANCH  19  32
ENDBRANCH  16  19
ENDBRANCH  14  15
ENDBRANCH  11  14
ENDBRANCH   5  10
ENDBRANCH   1   5
BRANCH   3  35
ATOM     35  C   UNL A   1      33.569  28.002  25.813  1.00  0.00     0.168 C 
ATOM     36  C   UNL A   1      34.270  26.670  26.053  1.00  0.00     0.041 C 
BRANCH  35  37
ATOM     37  C   UNL A   1      34.079  29.112  26.751  1.00  0.00     0.242 C 
ATOM     38  O   UNL A   1      35.261  29.138  27.104  1.00  0.00    -0.273 OA
ATOM     39  N   UNL A   1      33.270  30.117  27.194  1.00  0.00    -0.354 N 
ATOM     40  H   UNL A   1      33.700  30.725  27.839  1.00  0.00     0.163 HD
BRANCH  39  41
ATOM     41  C   UNL A   1      31.890  30.452  26.887  1.00  0.00     0.117 C 
BRANCH  41  42
ATOM     42  C   UNL A   1      31.603  31.944  27.014  1.00  0.00     0.042 C 
BRANCH  42  43
ATOM     43  C   UNL A   1      32.851  32.817  27.089  1.00  0.00     0.118 C 
BRANCH  43  44
ATOM     44  N   UNL A   1      32.614  34.065  27.803  1.00  0.00    -0.352 N 
ATOM     45  C   UNL A   1      33.234  34.597  28.905  1.00  0.00     0.251 C 
ATOM     46  H   UNL A   1      31.889  34.619  27.434  1.00  0.00     0.163 HD
ATOM     47  O   UNL A   1      32.714  35.543  29.489  1.00  0.00    -0.269 OA
BRANCH  45  48
ATOM     48  C   UNL A   1      34.512  34.042  29.396  1.00  0.00     0.039 A 
ATOM     49  C   UNL A   1      34.500  33.235  30.536  1.00  0.00     0.014 A 
ATOM     50  C   UNL A   1      35.724  34.349  28.771  1.00  0.00     0.014 A 
ATOM     51  C   UNL A   1      35.693  32.688  31.011  1.00  0.00     0.010 A 
ATOM     52  C   UNL A   1      36.898  33.731  29.189  1.00  0.00     0.010 A 
ATOM     53  C   UNL A   1      36.897  32.899  30.317  1.00  0.00    -0.014 A 
BRANCH  53  54
ATOM     54  C   UNL A   1      38.150  32.236  30.752  1.00  0.00     0.031 A 
ATOM     55  C   UNL A   1      38.986  32.821  31.857  1.00  0.00     0.074 A 
ATOM     56  C   UNL A   1      38.556  31.120  30.116  1.00  0.00     0.049 A 
ATOM     57  N   UNL A   1      40.106  32.373  32.368  1.00  0.00    -0.248 NA
ATOM     58  C   UNL A   1      38.518  34.083  32.453  1.00  0.00     0.031 C 
ATOM     59  C   UNL A   1      37.857  30.482  28.997  1.00  0.00     0.029 A 
ATOM     60  N   UNL A   1      39.652  30.321  30.322  1.00  0.00    -0.354 N 
ATOM     61  C   UNL A   1      40.478  33.300  33.333  1.00  0.00     0.074 A 
ATOM     62  C   UNL A   1      39.498  34.362  33.300  1.00  0.00     0.031 C 
ATOM     63  C   UNL A   1      38.515  29.366  28.647  1.00  0.00     0.029 A 
ATOM     64  C   UNL A   1      39.706  29.236  29.479  1.00  0.00     0.049 A 
ATOM     65  H   UNL A   1      40.334  30.505  31.007  1.00  0.00     0.167 HD
ATOM     66  C   UNL A   1      41.530  33.260  34.186  1.00  0.00     0.031 A 
ATOM     67  C   UNL A   1      40.614  28.248  29.385  1.00  0.00     0.031 A 
ATOM     68  C   UNL A   1      42.507  32.204  34.214  1.00  0.00     0.049 A 
ATOM     69  C   UNL A   1      41.786  28.243  30.325  1.00  0.00     0.074 A 
ATOM     70  C   UNL A   1      43.580  32.043  35.074  1.00  0.00     0.029 A 
ATOM     71  N   UNL A   1      42.537  31.132  33.334  1.00  0.00    -0.354 N 
ATOM     72  N   UNL A   1      42.078  29.083  31.287  1.00  0.00    -0.248 NA
ATOM     73  C   UNL A   1      42.748  27.143  30.170  1.00  0.00     0.031 C 
ATOM     74  C   UNL A   1      44.297  30.912  34.672  1.00  0.00     0.029 A 
ATOM     75  C   UNL A   1      43.630  30.326  33.608  1.00  0.00     0.049 A 
ATOM     76  H   UNL A   1      41.879  30.969  32.620  1.00  0.00     0.167 HD
ATOM     77  C   UNL A   1      43.243  28.601  31.870  1.00  0.00     0.074 A 
ATOM     78  C   UNL A   1      43.586  27.380  31.169  1.00  0.00     0.031 C 
ATOM     79  C   UNL A   1      43.966  29.121  32.892  1.00  0.00     0.031 A 
BRANCH  66  80
ATOM     80  C   UNL A   1      41.684  34.403  35.154  1.00  0.00    -0.014 A 
ATOM     81  C   UNL A   1      42.794  35.263  35.100  1.00  0.00     0.009 A 
ATOM     82  C   UNL A   1      40.686  34.648  36.110  1.00  0.00     0.009 A 
ATOM     83  C   UNL A   1      42.918  36.319  36.006  1.00  0.00     0.001 A 
ATOM     84  C   UNL A   1      40.796  35.724  36.993  1.00  0.00     0.001 A 
ATOM     85  C   UNL A   1      41.917  36.552  36.948  1.00  0.00     0.000 A 
ENDBRANCH  66  80
BRANCH  67  86
ATOM     86  C   UNL A   1      40.447  27.174  28.370  1.00  0.00    -0.014 A 
ATOM     87  C   UNL A   1      39.735  26.003  28.679  1.00  0.00     0.009 A 
ATOM     88  C   UNL A   1      41.006  27.308  27.090  1.00  0.00     0.009 A 
ATOM     89  C   UNL A   1      39.616  24.978  27.738  1.00  0.00     0.001 A 
ATOM     90  C   UNL A   1      40.855  26.296  26.140  1.00  0.00     0.001 A 
ATOM     91  C   UNL A   1      40.171  25.127  26.467  1.00  0.00     0.000 A 
ENDBRANCH  67  86
BRANCH  79  92
ATOM     92  C   UNL A   1      45.184  28.354  33.327  1.00  0.00    -0.014 A 
ATOM     93  C   UNL A   1      45.089  27.274  34.220  1.00  0.00     0.009 A 
ATOM     94  C   UNL A   1      46.446  28.706  32.823  1.00  0.00     0.009 A 
ATOM     95  C   UNL A   1      46.237  26.595  34.634  1.00  0.00     0.001 A 
ATOM     96  C   UNL A   1      47.587  28.002  33.209  1.00  0.00     0.001 A 
ATOM     97  C   UNL A   1      47.483  26.956  34.125  1.00  0.00     0.000 A 
ENDBRANCH  79  92
ENDBRANCH  53  54
ENDBRANCH  45  48
ENDBRANCH  43  44
ENDBRANCH  42  43
ENDBRANCH  41  42
ENDBRANCH  39  41
ENDBRANCH  35  37
ENDBRANCH   3  35
TORSDOF 23
ENDMDL
MODEL 3
REMARK VINA RESULT:     -10.2      1.694      6.052
REMARK SMILES CC(C)C[C@H](NC(=O)CNC(=O)[C@@H](NC(=O)OCc1ccccc1)C(C)C)C(=O)N[C@@H](C)C(=O)NCCCNC(=O)c1ccc(-c2c3nc(c(-c4ccccc4)c4ccc([nH]4)c(-c4ccccc4)c4nc(c(-c5ccccc5)c5ccc2[nH]5)C=C4)C=C3)cc1
REMARK SMILES IDX 28 1 29 2 30 3 5 5 4 6 2 7 1 8 3 9 6 10 7 11 8 13 9 14 10 15
REMARK SMILES IDX 11 16 12 18 13 19 14 20 15 21 16 23 17 24 18 25 19 26 20 27
REMARK SMILES IDX 24 28 21 29 23 30 22 31 25 32 26 33 27 34 31 35 32 36 33 37
REMARK SMILES IDX 34 38 35 39 36 41 37 42 38 43 39 44 40 45 41 47 42 48 43 49
REMARK SMILES IDX 89 50 44 51 88 52 45 53 46 54 47 55 82 56 48 57 87 58 81 59
REMARK SMILES IDX 83 60 49 61 86 62 80 63 79 64 50 66 72 67 57 68 71 69 58 70
REMARK SMILES IDX 61 71 70 72 84 73 59 74 60 75 69 77 85 78 62 79 51 80 52 81
REMARK SMILES IDX 56 82 53 83 55 84 54 85 73 86 74 87 78 88 75 89 77 90 76 91
REMARK SMILES IDX 63 92 64 93 68 94 65 95 67 96 66 97
REMARK H PARENT 30 4 6 12 10 17 14 22 35 40 39 46 83 65 61 76
REMARK Flexibility Score: inf
ROOT
ATOM      1  C   UNL A   1      32.778  28.678  23.505  1.00  0.00     0.243 C 
ATOM      2  O   UNL A   1      33.014  29.309  22.464  1.00  0.00    -0.273 OA
ATOM      3  N   UNL A   1      33.792  28.591  24.402  1.00  0.00    -0.343 N 
ATOM      4  H   UNL A   1      34.685  28.805  24.046  1.00  0.00     0.164 HD
ENDROOT
BRANCH   1   5
ATOM      5  C   UNL A   1      31.435  27.933  23.663  1.00  0.00     0.171 C 
BRANCH   5   6
ATOM      6  C   UNL A   1      30.256  28.188  22.710  1.00  0.00     0.038 C 
BRANCH   6   7
ATOM      7  C   UNL A   1      29.195  29.197  23.244  1.00  0.00    -0.015 C 
ATOM      8  C   UNL A   1      29.146  30.530  22.477  1.00  0.00     0.007 C 
ATOM      9  C   UNL A   1      27.793  28.602  23.112  1.00  0.00     0.007 C 
ENDBRANCH   6   7
ENDBRANCH   5   6
BRANCH   5  10
ATOM     10  N   UNL A   1      31.030  27.983  25.069  1.00  0.00    -0.343 N 
ATOM     11  C   UNL A   1      30.743  26.993  25.958  1.00  0.00     0.240 C 
ATOM     12  H   UNL A   1      30.952  28.893  25.437  1.00  0.00     0.164 HD
ATOM     13  O   UNL A   1      30.479  27.347  27.113  1.00  0.00    -0.273 OA
BRANCH  11  14
ATOM     14  C   UNL A   1      30.737  25.485  25.612  1.00  0.00     0.216 C 
BRANCH  14  15
ATOM     15  N   UNL A   1      30.244  24.519  26.571  1.00  0.00    -0.345 N 
ATOM     16  C   UNL A   1      30.506  23.195  26.781  1.00  0.00     0.243 C 
ATOM     17  H   UNL A   1      29.584  24.892  27.200  1.00  0.00     0.164 HD
ATOM     18  O   UNL A   1      29.767  22.577  27.557  1.00  0.00    -0.273 OA
BRANCH  16  19
ATOM     19  C   UNL A   1      31.727  22.477  26.210  1.00  0.00     0.177 C 
BRANCH  19  20
ATOM     20  N   UNL A   1      31.796  22.699  24.765  1.00  0.00    -0.309 N 
ATOM     21  C   UNL A   1      32.047  21.859  23.735  1.00  0.00     0.408 C 
ATOM     22  H   UNL A   1      31.628  23.629  24.493  1.00  0.00     0.167 HD
ATOM     23  O   UNL A   1      32.256  22.277  22.603  1.00  0.00    -0.225 OA
BRANCH  21  24
ATOM     24  O   UNL A   1      31.959  20.565  24.092  1.00  0.00    -0.445 OA
BRANCH  24  25
ATOM     25  C   UNL A   1      32.518  19.623  23.178  1.00  0.00     0.270 C 
BRANCH  25  26
ATOM     26  C   UNL A   1      32.931  18.336  23.861  1.00  0.00    -0.011 A 
ATOM     27  C   UNL A   1      32.536  18.004  25.169  1.00  0.00     0.007 A 
ATOM     28  C   UNL A   1      33.696  17.406  23.148  1.00  0.00     0.007 A 
ATOM     29  C   UNL A   1      32.894  16.791  25.751  1.00  0.00     0.000 A 
ATOM     30  C   UNL A   1      34.054  16.188  23.728  1.00  0.00     0.000 A 
ATOM     31  C   UNL A   1      33.652  15.880  25.028  1.00  0.00     0.000 A 
ENDBRANCH  25  26
ENDBRANCH  24  25
ENDBRANCH  21  24
ENDBRANCH  19  20
BRANCH  19  32
ATOM     32  C   UNL A   1      32.923  22.765  27.150  1.00  0.00     0.015 C 
ATOM     33  C   UNL A   1      33.647  21.454  27.537  1.00  0.00     0.010 C 
ATOM     34  C   UNL A   1      33.966  23.677  26.507  1.00  0.00     0.010 C 
ENDBRANCH  19  32
ENDBRANCH  16  19
ENDBRANCH  14  15
ENDBRANCH  11  14
ENDBRANCH   5  10
ENDBRANCH   1   5
BRANCH   3  35
ATOM     35  C   UNL A   1      33.759  28.229  25.809  1.00  0.00     0.168 C 
ATOM     36  C   UNL A   1      34.506  26.932  26.100  1.00  0.00     0.041 C 
BRANCH  35  37
ATOM     37  C   UNL A   1      34.294  29.413  26.636  1.00  0.00     0.242 C 
ATOM     38  O   UNL A   1      35.499  29.514  26.876  1.00  0.00    -0.273 OA
ATOM     39  N   UNL A   1      33.477  30.403  27.098  1.00  0.00    -0.354 N 
ATOM     40  H   UNL A   1      33.930  31.067  27.667  1.00  0.00     0.163 HD
BRANCH  39  41
ATOM     41  C   UNL A   1      32.059  30.656  26.903  1.00  0.00     0.117 C 
BRANCH  41  42
ATOM     42  C   UNL A   1      31.720  32.142  26.893  1.00  0.00     0.042 C 
BRANCH  42  43
ATOM     43  C   UNL A   1      32.935  33.060  26.964  1.00  0.00     0.118 C 
BRANCH  43  44
ATOM     44  N   UNL A   1      32.638  34.325  27.626  1.00  0.00    -0.352 N 
ATOM     45  C   UNL A   1      33.095  34.843  28.811  1.00  0.00     0.251 C 
ATOM     46  H   UNL A   1      32.005  34.903  27.142  1.00  0.00     0.163 HD
ATOM     47  O   UNL A   1      32.527  35.815  29.300  1.00  0.00    -0.269 OA
BRANCH  45  48
ATOM     48  C   UNL A   1      34.254  34.244  29.503  1.00  0.00     0.039 A 
ATOM     49  C   UNL A   1      34.023  33.393  30.587  1.00  0.00     0.014 A 
ATOM     50  C   UNL A   1      35.564  34.549  29.122  1.00  0.00     0.014 A 
ATOM     51  C   UNL A   1      35.101  32.804  31.247  1.00  0.00     0.010 A 
ATOM     52  C   UNL A   1      36.633  33.891  29.721  1.00  0.00     0.010 A 
ATOM     53  C   UNL A   1      36.415  33.017  30.794  1.00  0.00    -0.014 A 
BRANCH  53  54
ATOM     54  C   UNL A   1      37.558  32.311  31.422  1.00  0.00     0.031 A 
ATOM     55  C   UNL A   1      38.235  31.166  30.720  1.00  0.00     0.074 A 
ATOM     56  C   UNL A   1      37.960  32.682  32.653  1.00  0.00     0.049 A 
ATOM     57  N   UNL A   1      39.250  30.440  31.119  1.00  0.00    -0.248 NA
ATOM     58  C   UNL A   1      37.692  30.769  29.411  1.00  0.00     0.031 C 
ATOM     59  C   UNL A   1      37.353  33.746  33.457  1.00  0.00     0.029 A 
ATOM     60  N   UNL A   1      38.977  32.209  33.443  1.00  0.00    -0.354 N 
ATOM     61  C   UNL A   1      39.458  29.499  30.118  1.00  0.00     0.074 A 
ATOM     62  C   UNL A   1      38.431  29.709  29.121  1.00  0.00     0.031 C 
ATOM     63  C   UNL A   1      38.038  33.875  34.604  1.00  0.00     0.029 A 
ATOM     64  C   UNL A   1      39.098  32.874  34.640  1.00  0.00     0.049 A 
ATOM     65  H   UNL A   1      39.565  31.465  33.179  1.00  0.00     0.167 HD
ATOM     66  C   UNL A   1      40.428  28.558  30.026  1.00  0.00     0.031 A 
ATOM     67  C   UNL A   1      39.964  32.697  35.654  1.00  0.00     0.031 A 
ATOM     68  C   UNL A   1      41.445  28.349  31.023  1.00  0.00     0.049 A 
ATOM     69  C   UNL A   1      41.013  31.628  35.539  1.00  0.00     0.074 A 
ATOM     70  C   UNL A   1      42.505  27.458  31.000  1.00  0.00     0.029 A 
ATOM     71  N   UNL A   1      41.523  29.031  32.228  1.00  0.00    -0.354 N 
ATOM     72  N   UNL A   1      41.247  30.802  34.549  1.00  0.00    -0.248 NA
ATOM     73  C   UNL A   1      41.925  31.477  36.680  1.00  0.00     0.031 C 
ATOM     74  C   UNL A   1      43.183  27.554  32.219  1.00  0.00     0.029 A 
ATOM     75  C   UNL A   1      42.591  28.556  32.972  1.00  0.00     0.049 A 
ATOM     76  H   UNL A   1      40.910  29.747  32.513  1.00  0.00     0.167 HD
ATOM     77  C   UNL A   1      42.349  30.050  34.935  1.00  0.00     0.074 A 
ATOM     78  C   UNL A   1      42.750  30.539  36.239  1.00  0.00     0.031 C 
ATOM     79  C   UNL A   1      42.971  29.043  34.274  1.00  0.00     0.031 A 
BRANCH  66  80
ATOM     80  C   UNL A   1      40.428  27.675  28.808  1.00  0.00    -0.014 A 
ATOM     81  C   UNL A   1      39.725  26.458  28.786  1.00  0.00     0.009 A 
ATOM     82  C   UNL A   1      41.107  28.083  27.649  1.00  0.00     0.009 A 
ATOM     83  C   UNL A   1      39.735  25.653  27.645  1.00  0.00     0.001 A 
ATOM     84  C   UNL A   1      41.089  27.292  26.499  1.00  0.00     0.001 A 
ATOM     85  C   UNL A   1      40.412  26.073  26.501  1.00  0.00     0.000 A 
ENDBRANCH  66  80
BRANCH  67  86
ATOM     86  C   UNL A   1      39.883  33.558  36.864  1.00  0.00    -0.014 A 
ATOM     87  C   UNL A   1      39.011  33.233  37.916  1.00  0.00     0.009 A 
ATOM     88  C   UNL A   1      40.670  34.715  36.971  1.00  0.00     0.009 A 
ATOM     89  C   UNL A   1      38.907  34.066  39.032  1.00  0.00     0.001 A 
ATOM     90  C   UNL A   1      40.588  35.528  38.103  1.00  0.00     0.001 A 
ATOM     91  C   UNL A   1      39.699  35.210  39.128  1.00  0.00     0.000 A 
ENDBRANCH  67  86
BRANCH  79  92
ATOM     92  C   UNL A   1      44.169  28.426  34.941  1.00  0.00    -0.014 A 
ATOM     93  C   UNL A   1      44.036  27.350  35.835  1.00  0.00     0.009 A 
ATOM     94  C   UNL A   1      45.453  28.917  34.659  1.00  0.00     0.009 A 
ATOM     95  C   UNL A   1      45.160  26.812  36.466  1.00  0.00     0.001 A 
ATOM     96  C   UNL A   1      46.577  28.353  35.262  1.00  0.00     0.001 A 
ATOM     97  C   UNL A   1      46.429  27.311  36.176  1.00  0.00     0.000 A 
ENDBRANCH  79  92
ENDBRANCH  53  54
ENDBRANCH  45  48
ENDBRANCH  43  44
ENDBRANCH  42  43
ENDBRANCH  41  42
ENDBRANCH  39  41
ENDBRANCH  35  37
ENDBRANCH   3  35
TORSDOF 23
ENDMDL
