MODEL 1
REMARK VINA RESULT:     -13.6      0.000      0.000
REMARK SMILES Cc1cccc(OC2(C(=O)NCCCNC(=O)c3ccc(-c4c5nc(c(-c6ccccc6)c6ccc([nH]6)c(-c6ccccc6)c6nc(c(-c7ccccc7)c7ccc4[nH]7)C=C6)C=C5)cc3)CCN(C(=O)c3cnc[nH]c3=O)CC2)c1
REMARK SMILES IDX 13 1 12 2 11 3 9 4 10 5 8 7 66 8 79 9 67 10 78 11 68 12
REMARK SMILES IDX 69 13 70 14 7 15 6 16 1 17 2 18 3 19 80 20 4 21 5 22 71 23
REMARK SMILES IDX 72 24 76 25 73 26 75 27 77 28 74 29 14 31 15 32 16 33 17 35
REMARK SMILES IDX 18 36 19 37 65 38 20 39 64 40 21 41 22 42 23 43 58 44 24 45
REMARK SMILES IDX 63 46 57 47 59 48 25 49 62 50 56 51 55 52 26 54 48 55 33 56
REMARK SMILES IDX 47 57 34 58 37 59 46 60 60 61 35 62 36 63 45 65 61 66 38 67
REMARK SMILES IDX 27 68 28 69 32 70 29 71 31 72 30 73 49 74 50 75 54 76 51 77
REMARK SMILES IDX 53 78 52 79 39 80 40 81 44 82 41 83 43 84 42 85
REMARK H PARENT 11 6 75 30 15 34 59 53 37 64
REMARK Flexibility Score: inf
ROOT
ATOM      1  C   UNL A   1      33.122  30.013  27.636  1.00  0.00     0.042 C 
ENDROOT
BRANCH   1   2
ATOM      2  C   UNL A   1      33.461  28.607  27.132  1.00  0.00     0.118 C 
BRANCH   2   3
ATOM      3  N   UNL A   1      32.349  27.662  27.254  1.00  0.00    -0.353 N 
ATOM      4  C   UNL A   1      31.485  27.069  26.371  1.00  0.00     0.264 C 
ATOM      5  O   UNL A   1      30.757  26.207  26.883  1.00  0.00    -0.270 OA
ATOM      6  H   UNL A   1      32.184  27.389  28.185  1.00  0.00     0.163 HD
BRANCH   4   7
ATOM      7  C   UNL A   1      31.405  27.385  24.834  1.00  0.00     0.190 C 
ATOM      8  C   UNL A   1      30.234  26.650  24.182  1.00  0.00     0.080 C 
ATOM      9  C   UNL A   1      31.230  28.920  24.649  1.00  0.00     0.080 C 
ATOM     10  C   UNL A   1      29.921  27.090  22.768  1.00  0.00     0.124 C 
ATOM     11  C   UNL A   1      30.912  29.280  23.189  1.00  0.00     0.124 C 
ATOM     12  N   UNL A   1      29.737  28.525  22.766  1.00  0.00    -0.338 N 
ATOM     13  C   UNL A   1      28.453  29.038  22.828  1.00  0.00     0.261 C 
ATOM     14  O   UNL A   1      27.506  28.430  23.320  1.00  0.00    -0.269 OA
BRANCH   7  15
ATOM     15  O   UNL A   1      32.728  27.150  24.305  1.00  0.00    -0.477 OA
BRANCH  15  16
ATOM     16  C   UNL A   1      33.501  26.044  24.207  1.00  0.00     0.121 A 
ATOM     17  C   UNL A   1      35.728  23.557  26.036  1.00  0.00     0.044 C 
ATOM     18  C   UNL A   1      34.929  24.209  24.945  1.00  0.00    -0.047 A 
ATOM     19  C   UNL A   1      34.737  23.552  23.730  1.00  0.00     0.003 A 
ATOM     20  C   UNL A   1      34.343  25.472  25.151  1.00  0.00     0.049 A 
ATOM     21  C   UNL A   1      33.954  24.141  22.743  1.00  0.00     0.004 A 
ATOM     22  C   UNL A   1      33.334  25.369  22.990  1.00  0.00     0.046 A 
ENDBRANCH  15  16
ENDBRANCH   7  15
BRANCH  13  23
ATOM     23  C   UNL A   1      28.269  30.366  22.221  1.00  0.00     0.123 A 
ATOM     24  C   UNL A   1      27.958  30.480  20.923  1.00  0.00     0.132 A 
ATOM     25  C   UNL A   1      28.488  31.611  22.980  1.00  0.00     0.263 A 
ATOM     26  N   UNL A   1      27.775  31.669  20.258  1.00  0.00    -0.246 NA
ATOM     27  N   UNL A   1      28.309  32.760  22.263  1.00  0.00    -0.312 N 
ATOM     28  O   UNL A   1      28.821  31.638  24.158  1.00  0.00    -0.269 OA
ATOM     29  C   UNL A   1      27.963  32.746  20.945  1.00  0.00     0.199 A 
ATOM     30  H   UNL A   1      28.434  33.627  22.713  1.00  0.00     0.171 HD
ENDBRANCH  13  23
ENDBRANCH   4   7
ENDBRANCH   2   3
ENDBRANCH   1   2
BRANCH   1  31
ATOM     31  C   UNL A   1      34.212  31.054  27.448  1.00  0.00     0.118 C 
BRANCH  31  32
ATOM     32  N   UNL A   1      34.646  31.656  28.710  1.00  0.00    -0.352 N 
ATOM     33  C   UNL A   1      35.721  31.288  29.506  1.00  0.00     0.251 C 
ATOM     34  H   UNL A   1      34.110  32.415  29.034  1.00  0.00     0.163 HD
ATOM     35  O   UNL A   1      36.091  31.959  30.452  1.00  0.00    -0.269 OA
BRANCH  33  36
ATOM     36  C   UNL A   1      36.459  30.075  29.103  1.00  0.00     0.039 A 
ATOM     37  C   UNL A   1      36.834  29.197  30.121  1.00  0.00     0.014 A 
ATOM     38  C   UNL A   1      37.086  30.068  27.855  1.00  0.00     0.014 A 
ATOM     39  C   UNL A   1      38.017  28.485  29.979  1.00  0.00     0.010 A 
ATOM     40  C   UNL A   1      38.291  29.394  27.738  1.00  0.00     0.010 A 
ATOM     41  C   UNL A   1      38.799  28.688  28.837  1.00  0.00    -0.014 A 
BRANCH  41  42
ATOM     42  C   UNL A   1      40.225  28.370  28.832  1.00  0.00     0.031 A 
ATOM     43  C   UNL A   1      40.718  27.106  28.261  1.00  0.00     0.074 A 
ATOM     44  C   UNL A   1      41.119  29.198  29.421  1.00  0.00     0.049 A 
ATOM     45  N   UNL A   1      41.731  26.459  28.738  1.00  0.00    -0.248 NA
ATOM     46  C   UNL A   1      40.078  26.445  27.131  1.00  0.00     0.031 C 
ATOM     47  C   UNL A   1      42.577  29.100  29.379  1.00  0.00     0.029 A 
ATOM     48  N   UNL A   1      40.865  30.173  30.389  1.00  0.00    -0.354 N 
ATOM     49  C   UNL A   1      42.043  25.476  27.836  1.00  0.00     0.074 A 
ATOM     50  C   UNL A   1      40.942  25.452  26.896  1.00  0.00     0.031 C 
ATOM     51  C   UNL A   1      43.083  29.750  30.438  1.00  0.00     0.029 A 
ATOM     52  C   UNL A   1      41.972  30.194  31.261  1.00  0.00     0.049 A 
ATOM     53  H   UNL A   1      40.062  30.739  30.451  1.00  0.00     0.167 HD
ATOM     54  C   UNL A   1      43.258  24.865  27.880  1.00  0.00     0.031 A 
ATOM     55  C   UNL A   1      41.831  29.962  32.597  1.00  0.00     0.031 A 
ATOM     56  C   UNL A   1      44.118  25.366  28.947  1.00  0.00     0.049 A 
ATOM     57  C   UNL A   1      42.575  28.744  33.110  1.00  0.00     0.074 A 
ATOM     58  C   UNL A   1      45.220  26.206  28.986  1.00  0.00     0.029 A 
ATOM     59  N   UNL A   1      43.717  25.206  30.262  1.00  0.00    -0.354 N 
ATOM     60  N   UNL A   1      43.306  27.953  32.375  1.00  0.00    -0.248 NA
ATOM     61  C   UNL A   1      42.444  28.257  34.485  1.00  0.00     0.031 C 
ATOM     62  C   UNL A   1      45.497  26.519  30.346  1.00  0.00     0.029 A 
ATOM     63  C   UNL A   1      44.566  25.867  31.129  1.00  0.00     0.049 A 
ATOM     64  H   UNL A   1      42.928  24.689  30.543  1.00  0.00     0.167 HD
ATOM     65  C   UNL A   1      43.654  26.845  33.107  1.00  0.00     0.074 A 
ATOM     66  C   UNL A   1      43.104  27.089  34.427  1.00  0.00     0.031 C 
ATOM     67  C   UNL A   1      44.309  25.782  32.556  1.00  0.00     0.031 A 
BRANCH  54  68
ATOM     68  C   UNL A   1      43.736  23.977  26.766  1.00  0.00    -0.014 A 
ATOM     69  C   UNL A   1      44.397  24.530  25.658  1.00  0.00     0.009 A 
ATOM     70  C   UNL A   1      43.529  22.587  26.744  1.00  0.00     0.009 A 
ATOM     71  C   UNL A   1      44.735  23.760  24.539  1.00  0.00     0.001 A 
ATOM     72  C   UNL A   1      43.824  21.817  25.612  1.00  0.00     0.001 A 
ATOM     73  C   UNL A   1      44.416  22.408  24.503  1.00  0.00     0.000 A 
ENDBRANCH  54  68
BRANCH  55  74
ATOM     74  C   UNL A   1      40.545  30.459  33.153  1.00  0.00    -0.014 A 
ATOM     75  C   UNL A   1      40.332  31.849  33.220  1.00  0.00     0.009 A 
ATOM     76  C   UNL A   1      39.446  29.602  33.307  1.00  0.00     0.009 A 
ATOM     77  C   UNL A   1      39.040  32.369  33.337  1.00  0.00     0.001 A 
ATOM     78  C   UNL A   1      38.156  30.128  33.434  1.00  0.00     0.001 A 
ATOM     79  C   UNL A   1      37.950  31.508  33.415  1.00  0.00     0.000 A 
ENDBRANCH  55  74
BRANCH  67  80
ATOM     80  C   UNL A   1      44.720  24.534  33.298  1.00  0.00    -0.014 A 
ATOM     81  C   UNL A   1      43.901  23.405  33.433  1.00  0.00     0.009 A 
ATOM     82  C   UNL A   1      45.945  24.510  34.002  1.00  0.00     0.009 A 
ATOM     83  C   UNL A   1      44.320  22.283  34.163  1.00  0.00     0.001 A 
ATOM     84  C   UNL A   1      46.358  23.406  34.750  1.00  0.00     0.001 A 
ATOM     85  C   UNL A   1      45.548  22.282  34.818  1.00  0.00     0.000 A 
ENDBRANCH  67  80
ENDBRANCH  41  42
ENDBRANCH  33  36
ENDBRANCH  31  32
ENDBRANCH   1  31
TORSDOF 13
ENDMDL
MODEL 2
REMARK VINA RESULT:     -13.2      3.753      8.500
REMARK SMILES Cc1cccc(OC2(C(=O)NCCCNC(=O)c3ccc(-c4c5nc(c(-c6ccccc6)c6ccc([nH]6)c(-c6ccccc6)c6nc(c(-c7ccccc7)c7ccc4[nH]7)C=C6)C=C5)cc3)CCN(C(=O)c3cnc[nH]c3=O)CC2)c1
REMARK SMILES IDX 13 1 12 2 11 3 9 4 10 5 8 7 66 8 79 9 67 10 78 11 68 12
REMARK SMILES IDX 69 13 70 14 7 15 6 16 1 17 2 18 3 19 80 20 4 21 5 22 71 23
REMARK SMILES IDX 72 24 76 25 73 26 75 27 77 28 74 29 14 31 15 32 16 33 17 35
REMARK SMILES IDX 18 36 19 37 65 38 20 39 64 40 21 41 22 42 23 43 58 44 24 45
REMARK SMILES IDX 63 46 57 47 59 48 25 49 62 50 56 51 55 52 26 54 48 55 33 56
REMARK SMILES IDX 47 57 34 58 37 59 46 60 60 61 35 62 36 63 45 65 61 66 38 67
REMARK SMILES IDX 27 68 28 69 32 70 29 71 31 72 30 73 49 74 50 75 54 76 51 77
REMARK SMILES IDX 53 78 52 79 39 80 40 81 44 82 41 83 43 84 42 85
REMARK H PARENT 11 6 75 30 15 34 59 53 37 64
REMARK Flexibility Score: inf
ROOT
ATOM      1  C   UNL A   1      38.245  21.690  25.354  1.00  0.00     0.042 C 
ENDROOT
BRANCH   1   2
ATOM      2  C   UNL A   1      36.765  22.015  25.127  1.00  0.00     0.118 C 
BRANCH   2   3
ATOM      3  N   UNL A   1      35.945  21.864  26.330  1.00  0.00    -0.353 N 
ATOM      4  C   UNL A   1      34.600  21.872  26.588  1.00  0.00     0.264 C 
ATOM      5  O   UNL A   1      34.310  21.569  27.754  1.00  0.00    -0.270 OA
ATOM      6  H   UNL A   1      36.485  21.724  27.141  1.00  0.00     0.163 HD
BRANCH   4   7
ATOM      7  C   UNL A   1      33.479  22.192  25.534  1.00  0.00     0.190 C 
ATOM      8  C   UNL A   1      32.087  22.047  26.151  1.00  0.00     0.080 C 
ATOM      9  C   UNL A   1      33.677  23.648  25.023  1.00  0.00     0.080 C 
ATOM     10  C   UNL A   1      30.958  22.580  25.295  1.00  0.00     0.124 C 
ATOM     11  C   UNL A   1      32.487  24.111  24.166  1.00  0.00     0.124 C 
ATOM     12  N   UNL A   1      31.262  23.950  24.941  1.00  0.00    -0.338 N 
ATOM     13  C   UNL A   1      30.704  24.975  25.685  1.00  0.00     0.261 C 
ATOM     14  O   UNL A   1      30.346  24.845  26.853  1.00  0.00    -0.269 OA
BRANCH   7  15
ATOM     15  O   UNL A   1      33.785  21.400  24.367  1.00  0.00    -0.477 OA
BRANCH  15  16
ATOM     16  C   UNL A   1      33.677  20.080  24.092  1.00  0.00     0.121 A 
ATOM     17  C   UNL A   1      34.845  16.555  24.934  1.00  0.00     0.044 C 
ATOM     18  C   UNL A   1      34.072  17.682  24.313  1.00  0.00    -0.047 A 
ATOM     19  C   UNL A   1      32.958  17.411  23.517  1.00  0.00     0.003 A 
ATOM     20  C   UNL A   1      34.444  19.018  24.553  1.00  0.00     0.049 A 
ATOM     21  C   UNL A   1      32.218  18.462  22.986  1.00  0.00     0.004 A 
ATOM     22  C   UNL A   1      32.571  19.780  23.285  1.00  0.00     0.046 A 
ENDBRANCH  15  16
ENDBRANCH   7  15
BRANCH  13  23
ATOM     23  C   UNL A   1      30.517  26.249  24.972  1.00  0.00     0.123 A 
ATOM     24  C   UNL A   1      29.574  26.364  24.028  1.00  0.00     0.132 A 
ATOM     25  C   UNL A   1      31.391  27.413  25.206  1.00  0.00     0.263 A 
ATOM     26  N   UNL A   1      29.325  27.503  23.298  1.00  0.00    -0.246 NA
ATOM     27  N   UNL A   1      31.108  28.508  24.440  1.00  0.00    -0.312 N 
ATOM     28  O   UNL A   1      32.318  27.415  26.008  1.00  0.00    -0.269 OA
ATOM     29  C   UNL A   1      30.097  28.512  23.526  1.00  0.00     0.199 A 
ATOM     30  H   UNL A   1      31.652  29.321  24.552  1.00  0.00     0.171 HD
ENDBRANCH  13  23
ENDBRANCH   4   7
ENDBRANCH   2   3
ENDBRANCH   1   2
BRANCH   1  31
ATOM     31  C   UNL A   1      38.902  22.416  26.515  1.00  0.00     0.118 C 
BRANCH  31  32
ATOM     32  N   UNL A   1      40.324  22.683  26.286  1.00  0.00    -0.352 N 
ATOM     33  C   UNL A   1      41.013  23.869  26.488  1.00  0.00     0.251 C 
ATOM     34  H   UNL A   1      40.855  21.927  25.947  1.00  0.00     0.163 HD
ATOM     35  O   UNL A   1      42.227  23.936  26.421  1.00  0.00    -0.269 OA
BRANCH  33  36
ATOM     36  C   UNL A   1      40.209  25.045  26.875  1.00  0.00     0.039 A 
ATOM     37  C   UNL A   1      40.558  26.265  26.296  1.00  0.00     0.014 A 
ATOM     38  C   UNL A   1      39.459  24.974  28.051  1.00  0.00     0.014 A 
ATOM     39  C   UNL A   1      40.380  27.426  27.037  1.00  0.00     0.010 A 
ATOM     40  C   UNL A   1      39.328  26.128  28.807  1.00  0.00     0.010 A 
ATOM     41  C   UNL A   1      39.879  27.329  28.339  1.00  0.00    -0.014 A 
BRANCH  41  42
ATOM     42  C   UNL A   1      40.109  28.389  29.318  1.00  0.00     0.031 A 
ATOM     43  C   UNL A   1      39.084  29.412  29.582  1.00  0.00     0.074 A 
ATOM     44  C   UNL A   1      41.302  28.500  29.949  1.00  0.00     0.049 A 
ATOM     45  N   UNL A   1      39.365  30.641  29.867  1.00  0.00    -0.248 NA
ATOM     46  C   UNL A   1      37.655  29.139  29.501  1.00  0.00     0.031 C 
ATOM     47  C   UNL A   1      41.642  29.404  31.046  1.00  0.00     0.029 A 
ATOM     48  N   UNL A   1      42.529  27.965  29.547  1.00  0.00    -0.354 N 
ATOM     49  C   UNL A   1      38.201  31.238  30.273  1.00  0.00     0.074 A 
ATOM     50  C   UNL A   1      37.151  30.293  29.952  1.00  0.00     0.031 C 
ATOM     51  C   UNL A   1      42.971  29.583  31.061  1.00  0.00     0.029 A 
ATOM     52  C   UNL A   1      43.526  28.893  29.910  1.00  0.00     0.049 A 
ATOM     53  H   UNL A   1      42.670  27.103  29.095  1.00  0.00     0.167 HD
ATOM     54  C   UNL A   1      38.234  32.409  30.966  1.00  0.00     0.031 A 
ATOM     55  C   UNL A   1      44.359  29.441  28.982  1.00  0.00     0.031 A 
ATOM     56  C   UNL A   1      39.588  32.906  31.194  1.00  0.00     0.049 A 
ATOM     57  C   UNL A   1      44.256  30.949  28.850  1.00  0.00     0.074 A 
ATOM     58  C   UNL A   1      40.431  32.939  32.294  1.00  0.00     0.029 A 
ATOM     59  N   UNL A   1      40.371  33.243  30.105  1.00  0.00    -0.354 N 
ATOM     60  N   UNL A   1      43.453  31.704  29.545  1.00  0.00    -0.248 NA
ATOM     61  C   UNL A   1      44.973  31.705  27.820  1.00  0.00     0.031 C 
ATOM     62  C   UNL A   1      41.725  33.336  31.853  1.00  0.00     0.029 A 
ATOM     63  C   UNL A   1      41.662  33.547  30.490  1.00  0.00     0.049 A 
ATOM     64  H   UNL A   1      40.049  33.264  29.174  1.00  0.00     0.167 HD
ATOM     65  C   UNL A   1      43.462  32.975  29.028  1.00  0.00     0.074 A 
ATOM     66  C   UNL A   1      44.441  32.931  27.960  1.00  0.00     0.031 C 
ATOM     67  C   UNL A   1      42.617  33.951  29.472  1.00  0.00     0.031 A 
BRANCH  54  68
ATOM     68  C   UNL A   1      37.013  32.959  31.647  1.00  0.00    -0.014 A 
ATOM     69  C   UNL A   1      36.764  32.657  32.996  1.00  0.00     0.009 A 
ATOM     70  C   UNL A   1      36.056  33.755  30.994  1.00  0.00     0.009 A 
ATOM     71  C   UNL A   1      35.573  33.034  33.628  1.00  0.00     0.001 A 
ATOM     72  C   UNL A   1      34.844  34.098  31.605  1.00  0.00     0.001 A 
ATOM     73  C   UNL A   1      34.597  33.724  32.921  1.00  0.00     0.000 A 
ENDBRANCH  54  68
BRANCH  55  74
ATOM     74  C   UNL A   1      44.692  28.520  27.863  1.00  0.00    -0.014 A 
ATOM     75  C   UNL A   1      45.491  27.392  28.134  1.00  0.00     0.009 A 
ATOM     76  C   UNL A   1      43.986  28.567  26.653  1.00  0.00     0.009 A 
ATOM     77  C   UNL A   1      45.503  26.299  27.265  1.00  0.00     0.001 A 
ATOM     78  C   UNL A   1      44.009  27.474  25.781  1.00  0.00     0.001 A 
ATOM     79  C   UNL A   1      44.739  26.329  26.101  1.00  0.00     0.000 A 
ENDBRANCH  55  74
BRANCH  67  80
ATOM     80  C   UNL A   1      42.570  35.366  28.950  1.00  0.00    -0.014 A 
ATOM     81  C   UNL A   1      41.863  35.747  27.803  1.00  0.00     0.009 A 
ATOM     82  C   UNL A   1      43.361  36.364  29.563  1.00  0.00     0.009 A 
ATOM     83  C   UNL A   1      41.881  37.072  27.342  1.00  0.00     0.001 A 
ATOM     84  C   UNL A   1      43.403  37.678  29.095  1.00  0.00     0.001 A 
ATOM     85  C   UNL A   1      42.648  38.037  27.989  1.00  0.00     0.000 A 
ENDBRANCH  67  80
ENDBRANCH  41  42
ENDBRANCH  33  36
ENDBRANCH  31  32
ENDBRANCH   1  31
TORSDOF 13
ENDMDL
MODEL 3
REMARK VINA RESULT:     -13.2      1.826      4.590
REMARK SMILES Cc1cccc(OC2(C(=O)NCCCNC(=O)c3ccc(-c4c5nc(c(-c6ccccc6)c6ccc([nH]6)c(-c6ccccc6)c6nc(c(-c7ccccc7)c7ccc4[nH]7)C=C6)C=C5)cc3)CCN(C(=O)c3cnc[nH]c3=O)CC2)c1
REMARK SMILES IDX 13 1 12 2 11 3 9 4 10 5 8 7 66 8 79 9 67 10 78 11 68 12
REMARK SMILES IDX 69 13 70 14 7 15 6 16 1 17 2 18 3 19 80 20 4 21 5 22 71 23
REMARK SMILES IDX 72 24 76 25 73 26 75 27 77 28 74 29 14 31 15 32 16 33 17 35
REMARK SMILES IDX 18 36 19 37 65 38 20 39 64 40 21 41 22 42 23 43 58 44 24 45
REMARK SMILES IDX 63 46 57 47 59 48 25 49 62 50 56 51 55 52 26 54 48 55 33 56
REMARK SMILES IDX 47 57 34 58 37 59 46 60 60 61 35 62 36 63 45 65 61 66 38 67
REMARK SMILES IDX 27 68 28 69 32 70 29 71 31 72 30 73 49 74 50 75 54 76 51 77
REMARK SMILES IDX 53 78 52 79 39 80 40 81 44 82 41 83 43 84 42 85
REMARK H PARENT 11 6 75 30 15 34 59 53 37 64
REMARK Flexibility Score: inf
ROOT
ATOM      1  C   UNL A   1      33.439  30.864  26.836  1.00  0.00     0.042 C 
ENDROOT
BRANCH   1   2
ATOM      2  C   UNL A   1      32.675  29.917  25.904  1.00  0.00     0.118 C 
BRANCH   2   3
ATOM      3  N   UNL A   1      33.338  29.708  24.617  1.00  0.00    -0.353 N 
ATOM      4  C   UNL A   1      33.206  28.800  23.599  1.00  0.00     0.264 C 
ATOM      5  O   UNL A   1      33.891  29.062  22.600  1.00  0.00    -0.270 OA
ATOM      6  H   UNL A   1      34.042  30.373  24.440  1.00  0.00     0.163 HD
BRANCH   4   7
ATOM      7  C   UNL A   1      32.261  27.545  23.624  1.00  0.00     0.190 C 
ATOM      8  C   UNL A   1      32.178  26.892  22.244  1.00  0.00     0.080 C 
ATOM      9  C   UNL A   1      32.818  26.523  24.656  1.00  0.00     0.080 C 
ATOM     10  C   UNL A   1      31.503  25.536  22.227  1.00  0.00     0.124 C 
ATOM     11  C   UNL A   1      32.082  25.176  24.570  1.00  0.00     0.124 C 
ATOM     12  N   UNL A   1      32.159  24.688  23.197  1.00  0.00    -0.338 N 
ATOM     13  C   UNL A   1      33.137  23.808  22.768  1.00  0.00     0.261 C 
ATOM     14  O   UNL A   1      33.802  23.981  21.749  1.00  0.00    -0.269 OA
BRANCH   7  15
ATOM     15  O   UNL A   1      31.030  27.980  24.239  1.00  0.00    -0.477 OA
BRANCH  15  16
ATOM     16  C   UNL A   1      29.977  28.702  23.792  1.00  0.00     0.121 A 
ATOM     17  C   UNL A   1      28.751  32.078  22.528  1.00  0.00     0.044 C 
ATOM     18  C   UNL A   1      28.767  30.623  22.899  1.00  0.00    -0.047 A 
ATOM     19  C   UNL A   1      27.682  29.807  22.574  1.00  0.00     0.003 A 
ATOM     20  C   UNL A   1      29.885  30.065  23.546  1.00  0.00     0.049 A 
ATOM     21  C   UNL A   1      27.726  28.450  22.877  1.00  0.00     0.004 A 
ATOM     22  C   UNL A   1      28.870  27.907  23.467  1.00  0.00     0.046 A 
ENDBRANCH  15  16
ENDBRANCH   7  15
BRANCH  13  23
ATOM     23  C   UNL A   1      33.314  22.601  23.592  1.00  0.00     0.123 A 
ATOM     24  C   UNL A   1      32.364  21.657  23.622  1.00  0.00     0.132 A 
ATOM     25  C   UNL A   1      34.487  22.415  24.466  1.00  0.00     0.263 A 
ATOM     26  N   UNL A   1      32.427  20.501  24.364  1.00  0.00    -0.246 NA
ATOM     27  N   UNL A   1      34.485  21.258  25.192  1.00  0.00    -0.312 N 
ATOM     28  O   UNL A   1      35.398  23.229  24.562  1.00  0.00    -0.269 OA
ATOM     29  C   UNL A   1      33.467  20.355  25.115  1.00  0.00     0.199 A 
ATOM     30  H   UNL A   1      35.243  21.070  25.791  1.00  0.00     0.171 HD
ENDBRANCH  13  23
ENDBRANCH   4   7
ENDBRANCH   2   3
ENDBRANCH   1   2
BRANCH   1  31
ATOM     31  C   UNL A   1      34.042  30.218  28.071  1.00  0.00     0.118 C 
BRANCH  31  32
ATOM     32  N   UNL A   1      34.785  31.167  28.903  1.00  0.00    -0.352 N 
ATOM     33  C   UNL A   1      36.130  31.139  29.236  1.00  0.00     0.251 C 
ATOM     34  H   UNL A   1      34.265  31.918  29.270  1.00  0.00     0.163 HD
ATOM     35  O   UNL A   1      36.682  32.067  29.800  1.00  0.00    -0.269 OA
BRANCH  33  36
ATOM     36  C   UNL A   1      36.896  29.955  28.802  1.00  0.00     0.039 A 
ATOM     37  C   UNL A   1      37.190  29.000  29.776  1.00  0.00     0.014 A 
ATOM     38  C   UNL A   1      37.618  30.037  27.609  1.00  0.00     0.014 A 
ATOM     39  C   UNL A   1      38.381  28.293  29.674  1.00  0.00     0.010 A 
ATOM     40  C   UNL A   1      38.828  29.365  27.535  1.00  0.00     0.010 A 
ATOM     41  C   UNL A   1      39.248  28.575  28.613  1.00  0.00    -0.014 A 
BRANCH  41  42
ATOM     42  C   UNL A   1      40.671  28.249  28.695  1.00  0.00     0.031 A 
ATOM     43  C   UNL A   1      41.194  26.995  28.128  1.00  0.00     0.074 A 
ATOM     44  C   UNL A   1      41.528  29.058  29.360  1.00  0.00     0.049 A 
ATOM     45  N   UNL A   1      42.170  26.332  28.655  1.00  0.00    -0.248 NA
ATOM     46  C   UNL A   1      40.626  26.364  26.944  1.00  0.00     0.031 C 
ATOM     47  C   UNL A   1      42.984  28.952  29.411  1.00  0.00     0.029 A 
ATOM     48  N   UNL A   1      41.215  30.013  30.331  1.00  0.00    -0.354 N 
ATOM     49  C   UNL A   1      42.536  25.367  27.754  1.00  0.00     0.074 A 
ATOM     50  C   UNL A   1      41.499  25.371  26.743  1.00  0.00     0.031 C 
ATOM     51  C   UNL A   1      43.423  29.574  30.516  1.00  0.00     0.029 A 
ATOM     52  C   UNL A   1      42.263  30.006  31.273  1.00  0.00     0.049 A 
ATOM     53  H   UNL A   1      40.413  30.582  30.353  1.00  0.00     0.167 HD
ATOM     54  C   UNL A   1      43.743  24.748  27.863  1.00  0.00     0.031 A 
ATOM     55  C   UNL A   1      42.033  29.745  32.592  1.00  0.00     0.031 A 
ATOM     56  C   UNL A   1      44.534  25.220  28.996  1.00  0.00     0.049 A 
ATOM     57  C   UNL A   1      42.737  28.512  33.125  1.00  0.00     0.074 A 
ATOM     58  C   UNL A   1      45.635  26.051  29.125  1.00  0.00     0.029 A 
ATOM     59  N   UNL A   1      44.047  25.032  30.277  1.00  0.00    -0.354 N 
ATOM     60  N   UNL A   1      43.510  27.733  32.421  1.00  0.00    -0.248 NA
ATOM     61  C   UNL A   1      42.513  27.995  34.477  1.00  0.00     0.031 C 
ATOM     62  C   UNL A   1      45.823  26.332  30.508  1.00  0.00     0.029 A 
ATOM     63  C   UNL A   1      44.839  25.668  31.213  1.00  0.00     0.049 A 
ATOM     64  H   UNL A   1      43.238  24.513  30.494  1.00  0.00     0.167 HD
ATOM     65  C   UNL A   1      43.804  26.607  33.149  1.00  0.00     0.074 A 
ATOM     66  C   UNL A   1      43.170  26.824  34.435  1.00  0.00     0.031 C 
ATOM     67  C   UNL A   1      44.489  25.552  32.618  1.00  0.00     0.031 A 
BRANCH  54  68
ATOM     68  C   UNL A   1      44.289  23.882  26.763  1.00  0.00    -0.014 A 
ATOM     69  C   UNL A   1      45.215  24.407  25.847  1.00  0.00     0.009 A 
ATOM     70  C   UNL A   1      43.895  22.547  26.563  1.00  0.00     0.009 A 
ATOM     71  C   UNL A   1      45.642  23.679  24.730  1.00  0.00     0.001 A 
ATOM     72  C   UNL A   1      44.284  21.828  25.426  1.00  0.00     0.001 A 
ATOM     73  C   UNL A   1      45.148  22.401  24.501  1.00  0.00     0.000 A 
ENDBRANCH  54  68
BRANCH  55  74
ATOM     74  C   UNL A   1      40.715  30.237  33.074  1.00  0.00    -0.014 A 
ATOM     75  C   UNL A   1      40.529  31.625  33.227  1.00  0.00     0.009 A 
ATOM     76  C   UNL A   1      39.588  29.404  33.070  1.00  0.00     0.009 A 
ATOM     77  C   UNL A   1      39.244  32.172  33.274  1.00  0.00     0.001 A 
ATOM     78  C   UNL A   1      38.304  29.957  33.127  1.00  0.00     0.001 A 
ATOM     79  C   UNL A   1      38.132  31.339  33.195  1.00  0.00     0.000 A 
ENDBRANCH  55  74
BRANCH  67  80
ATOM     80  C   UNL A   1      44.844  24.285  33.356  1.00  0.00    -0.014 A 
ATOM     81  C   UNL A   1      43.931  23.256  33.616  1.00  0.00     0.009 A 
ATOM     82  C   UNL A   1      46.130  24.147  33.928  1.00  0.00     0.009 A 
ATOM     83  C   UNL A   1      44.307  22.113  34.337  1.00  0.00     0.001 A 
ATOM     84  C   UNL A   1      46.502  23.023  34.667  1.00  0.00     0.001 A 
ATOM     85  C   UNL A   1      45.592  21.995  34.859  1.00  0.00     0.000 A 
ENDBRANCH  67  80
ENDBRANCH  41  42
ENDBRANCH  33  36
ENDBRANCH  31  32
ENDBRANCH   1  31
TORSDOF 13
ENDMDL
