MODEL 1
REMARK VINA RESULT:     -13.1      0.000      0.000
REMARK SMILES O=C(NCCCNC(=O)[C@@H](Cc1ccccc1)/N=C1\C(=O)c2ccccc2C(=O)[C@H]1Cl)c1ccc(-c2c3nc(c(-c4ccccc4)c4ccc([nH]4)c(-c4ccccc4)c4nc(c(-c5ccccc5)c5ccc2[nH]5)C=C4)C=C3)cc1
REMARK SMILES IDX 5 1 4 2 3 3 1 4 2 5 32 7 33 8 79 9 34 10 78 11 35 12 36 13
REMARK SMILES IDX 37 14 72 15 38 16 77 17 71 18 73 19 39 20 76 21 70 22 69 23
REMARK SMILES IDX 40 25 62 26 47 27 61 28 48 29 51 30 60 31 74 32 49 33 50 34
REMARK SMILES IDX 59 36 75 37 52 38 41 39 42 40 46 41 43 42 45 43 44 44 63 45
REMARK SMILES IDX 64 46 68 47 65 48 67 49 66 50 53 51 54 52 58 53 55 54 57 55
REMARK SMILES IDX 56 56 6 57 7 58 8 59 9 61 10 62 11 63 12 64 13 65 17 66
REMARK SMILES IDX 14 67 16 68 15 69 18 70 19 71 20 72 30 73 21 74 22 75 28 76
REMARK SMILES IDX 31 77 23 78 27 79 29 80 24 81 26 82 25 83
REMARK H PARENT 3 6 73 24 51 35 7 60
REMARK Flexibility Score: inf
ROOT
ATOM      1  C   UNL A   1      33.420  28.571  27.256  1.00  0.00     0.042 C 
ENDROOT
BRANCH   1   2
ATOM      2  C   UNL A   1      33.806  29.999  26.890  1.00  0.00     0.118 C 
BRANCH   2   3
ATOM      3  N   UNL A   1      34.042  30.867  28.036  1.00  0.00    -0.352 N 
ATOM      4  O   UNL A   1      34.873  31.827  29.861  1.00  0.00    -0.269 OA
ATOM      5  C   UNL A   1      35.073  31.044  28.928  1.00  0.00     0.251 C 
ATOM      6  H   UNL A   1      33.284  31.471  28.214  1.00  0.00     0.163 HD
BRANCH   5   7
ATOM      7  C   UNL A   1      36.387  30.341  28.872  1.00  0.00     0.039 A 
ATOM      8  C   UNL A   1      37.236  30.369  27.772  1.00  0.00     0.014 A 
ATOM      9  C   UNL A   1      36.840  29.685  30.033  1.00  0.00     0.014 A 
ATOM     10  C   UNL A   1      38.429  29.649  27.770  1.00  0.00     0.010 A 
ATOM     11  C   UNL A   1      38.100  29.063  30.077  1.00  0.00     0.010 A 
ATOM     12  C   UNL A   1      38.903  29.023  28.933  1.00  0.00    -0.014 A 
BRANCH  12  13
ATOM     13  C   UNL A   1      40.284  28.469  28.920  1.00  0.00     0.031 A 
ATOM     14  C   UNL A   1      40.573  27.058  28.496  1.00  0.00     0.074 A 
ATOM     15  C   UNL A   1      41.304  29.300  29.221  1.00  0.00     0.049 A 
ATOM     16  N   UNL A   1      41.733  26.494  28.264  1.00  0.00    -0.248 NA
ATOM     17  C   UNL A   1      39.424  26.157  28.320  1.00  0.00     0.031 C 
ATOM     18  C   UNL A   1      41.153  30.684  29.683  1.00  0.00     0.029 A 
ATOM     19  N   UNL A   1      42.663  29.132  29.129  1.00  0.00    -0.354 N 
ATOM     20  C   UNL A   1      41.458  25.173  27.933  1.00  0.00     0.074 A 
ATOM     21  C   UNL A   1      40.021  25.013  28.017  1.00  0.00     0.031 C 
ATOM     22  C   UNL A   1      42.358  31.267  29.731  1.00  0.00     0.029 A 
ATOM     23  C   UNL A   1      43.373  30.285  29.371  1.00  0.00     0.049 A 
ATOM     24  H   UNL A   1      43.088  28.270  28.911  1.00  0.00     0.167 HD
ATOM     25  C   UNL A   1      42.322  24.188  27.588  1.00  0.00     0.031 A 
ATOM     26  C   UNL A   1      44.693  30.536  29.300  1.00  0.00     0.031 A 
ATOM     27  C   UNL A   1      43.752  24.350  27.503  1.00  0.00     0.049 A 
ATOM     28  C   UNL A   1      45.623  29.431  28.900  1.00  0.00     0.074 A 
ATOM     29  C   UNL A   1      44.705  23.418  27.127  1.00  0.00     0.029 A 
ATOM     30  N   UNL A   1      44.435  25.519  27.803  1.00  0.00    -0.354 N 
ATOM     31  N   UNL A   1      45.338  28.205  28.537  1.00  0.00    -0.248 NA
ATOM     32  C   UNL A   1      47.058  29.747  28.899  1.00  0.00     0.031 C 
ATOM     33  C   UNL A   1      45.968  24.009  27.246  1.00  0.00     0.029 A 
ATOM     34  C   UNL A   1      45.798  25.325  27.642  1.00  0.00     0.049 A 
ATOM     35  H   UNL A   1      44.014  26.362  28.087  1.00  0.00     0.167 HD
ATOM     36  C   UNL A   1      46.556  27.604  28.252  1.00  0.00     0.074 A 
ATOM     37  C   UNL A   1      47.578  28.611  28.458  1.00  0.00     0.031 C 
ATOM     38  C   UNL A   1      46.804  26.332  27.859  1.00  0.00     0.031 A 
BRANCH  25  39
ATOM     39  C   UNL A   1      41.746  22.827  27.302  1.00  0.00    -0.014 A 
ATOM     40  C   UNL A   1      41.844  21.781  28.233  1.00  0.00     0.009 A 
ATOM     41  C   UNL A   1      41.055  22.604  26.101  1.00  0.00     0.009 A 
ATOM     42  C   UNL A   1      41.290  20.529  27.951  1.00  0.00     0.001 A 
ATOM     43  C   UNL A   1      40.480  21.360  25.833  1.00  0.00     0.001 A 
ATOM     44  C   UNL A   1      40.606  20.321  26.754  1.00  0.00     0.000 A 
ENDBRANCH  25  39
BRANCH  26  45
ATOM     45  C   UNL A   1      45.207  31.897  29.602  1.00  0.00    -0.014 A 
ATOM     46  C   UNL A   1      45.652  32.223  30.893  1.00  0.00     0.009 A 
ATOM     47  C   UNL A   1      45.269  32.874  28.596  1.00  0.00     0.009 A 
ATOM     48  C   UNL A   1      46.129  33.506  31.173  1.00  0.00     0.001 A 
ATOM     49  C   UNL A   1      45.776  34.146  28.872  1.00  0.00     0.001 A 
ATOM     50  C   UNL A   1      46.197  34.463  30.161  1.00  0.00     0.000 A 
ENDBRANCH  26  45
BRANCH  38  51
ATOM     51  C   UNL A   1      48.239  25.972  27.601  1.00  0.00    -0.014 A 
ATOM     52  C   UNL A   1      48.826  26.175  26.342  1.00  0.00     0.009 A 
ATOM     53  C   UNL A   1      49.016  25.430  28.637  1.00  0.00     0.009 A 
ATOM     54  C   UNL A   1      50.153  25.803  26.114  1.00  0.00     0.001 A 
ATOM     55  C   UNL A   1      50.351  25.086  28.414  1.00  0.00     0.001 A 
ATOM     56  C   UNL A   1      50.913  25.263  27.151  1.00  0.00     0.000 A 
ENDBRANCH  38  51
ENDBRANCH  12  13
ENDBRANCH   5   7
ENDBRANCH   2   3
ENDBRANCH   1   2
BRANCH   1  57
ATOM     57  C   UNL A   1      31.908  28.308  27.234  1.00  0.00     0.117 C 
BRANCH  57  58
ATOM     58  N   UNL A   1      31.586  26.888  27.164  1.00  0.00    -0.354 N 
ATOM     59  C   UNL A   1      31.767  25.823  26.364  1.00  0.00     0.245 C 
ATOM     60  H   UNL A   1      31.069  26.624  27.959  1.00  0.00     0.163 HD
ATOM     61  O   UNL A   1      31.176  24.819  26.817  1.00  0.00    -0.273 OA
BRANCH  59  62
ATOM     62  C   UNL A   1      32.482  25.655  25.004  1.00  0.00     0.199 C 
BRANCH  62  63
ATOM     63  C   UNL A   1      32.078  26.599  23.846  1.00  0.00     0.073 C 
BRANCH  63  64
ATOM     64  C   UNL A   1      30.657  27.087  23.735  1.00  0.00    -0.045 A 
ATOM     65  C   UNL A   1      30.391  28.394  23.307  1.00  0.00     0.004 A 
ATOM     66  C   UNL A   1      29.582  26.234  24.031  1.00  0.00     0.004 A 
ATOM     67  C   UNL A   1      29.077  28.816  23.102  1.00  0.00     0.000 A 
ATOM     68  C   UNL A   1      28.268  26.656  23.816  1.00  0.00     0.000 A 
ATOM     69  C   UNL A   1      28.017  27.941  23.339  1.00  0.00     0.000 A 
ENDBRANCH  63  64
ENDBRANCH  62  63
BRANCH  62  70
ATOM     70  N   UNL A   1      33.750  24.901  24.872  1.00  0.00    -0.270 NA
ATOM     71  C   UNL A   1      33.940  23.648  24.665  1.00  0.00     0.109 C 
ATOM     72  C   UNL A   1      32.888  22.659  24.306  1.00  0.00     0.209 C 
ATOM     73  C   UNL A   1      35.324  23.070  24.798  1.00  0.00     0.205 C 
ATOM     74  O   UNL A   1      31.736  23.032  24.168  1.00  0.00    -0.287 OA
ATOM     75  C   UNL A   1      33.188  21.245  24.153  1.00  0.00     0.035 A 
ATOM     76  C   UNL A   1      35.342  21.641  25.300  1.00  0.00     0.187 C 
ATOM     77  Cl  UNL A   1      36.101  23.107  23.193  1.00  0.00    -0.107 Cl
ATOM     78  C   UNL A   1      32.263  20.419  23.508  1.00  0.00     0.013 A 
ATOM     79  C   UNL A   1      34.333  20.719  24.733  1.00  0.00     0.031 A 
ATOM     80  O   UNL A   1      36.170  21.217  26.099  1.00  0.00    -0.292 OA
ATOM     81  C   UNL A   1      32.467  19.045  23.485  1.00  0.00     0.001 A 
ATOM     82  C   UNL A   1      34.512  19.334  24.756  1.00  0.00     0.012 A 
ATOM     83  C   UNL A   1      33.575  18.502  24.133  1.00  0.00     0.001 A 
ENDBRANCH  62  70
ENDBRANCH  59  62
ENDBRANCH  57  58
ENDBRANCH   1  57
TORSDOF 13
ENDMDL
MODEL 2
REMARK VINA RESULT:     -13.0      1.524      2.095
REMARK SMILES O=C(NCCCNC(=O)[C@@H](Cc1ccccc1)/N=C1\C(=O)c2ccccc2C(=O)[C@H]1Cl)c1ccc(-c2c3nc(c(-c4ccccc4)c4ccc([nH]4)c(-c4ccccc4)c4nc(c(-c5ccccc5)c5ccc2[nH]5)C=C4)C=C3)cc1
REMARK SMILES IDX 5 1 4 2 3 3 1 4 2 5 32 7 33 8 79 9 34 10 78 11 35 12 36 13
REMARK SMILES IDX 37 14 72 15 38 16 77 17 71 18 73 19 39 20 76 21 70 22 69 23
REMARK SMILES IDX 40 25 62 26 47 27 61 28 48 29 51 30 60 31 74 32 49 33 50 34
REMARK SMILES IDX 59 36 75 37 52 38 41 39 42 40 46 41 43 42 45 43 44 44 63 45
REMARK SMILES IDX 64 46 68 47 65 48 67 49 66 50 53 51 54 52 58 53 55 54 57 55
REMARK SMILES IDX 56 56 6 57 7 58 8 59 9 61 10 62 11 63 12 64 13 65 17 66
REMARK SMILES IDX 14 67 16 68 15 69 18 70 19 71 20 72 30 73 21 74 22 75 28 76
REMARK SMILES IDX 31 77 23 78 27 79 29 80 24 81 26 82 25 83
REMARK H PARENT 3 6 73 24 51 35 7 60
REMARK Flexibility Score: inf
ROOT
ATOM      1  C   UNL A   1      32.071  29.098  26.985  1.00  0.00     0.042 C 
ENDROOT
BRANCH   1   2
ATOM      2  C   UNL A   1      33.560  29.405  27.095  1.00  0.00     0.118 C 
BRANCH   2   3
ATOM      3  N   UNL A   1      33.879  30.504  27.997  1.00  0.00    -0.352 N 
ATOM      4  O   UNL A   1      34.850  31.843  29.484  1.00  0.00    -0.269 OA
ATOM      5  C   UNL A   1      34.982  30.876  28.729  1.00  0.00     0.251 C 
ATOM      6  H   UNL A   1      33.126  31.130  28.110  1.00  0.00     0.163 HD
BRANCH   5   7
ATOM      7  C   UNL A   1      36.301  30.181  28.703  1.00  0.00     0.039 A 
ATOM      8  C   UNL A   1      37.153  30.171  27.605  1.00  0.00     0.014 A 
ATOM      9  C   UNL A   1      36.757  29.576  29.891  1.00  0.00     0.014 A 
ATOM     10  C   UNL A   1      38.352  29.461  27.635  1.00  0.00     0.010 A 
ATOM     11  C   UNL A   1      38.022  28.966  29.963  1.00  0.00     0.010 A 
ATOM     12  C   UNL A   1      38.828  28.887  28.823  1.00  0.00    -0.014 A 
BRANCH  12  13
ATOM     13  C   UNL A   1      40.213  28.344  28.835  1.00  0.00     0.031 A 
ATOM     14  C   UNL A   1      40.520  26.934  28.420  1.00  0.00     0.074 A 
ATOM     15  C   UNL A   1      41.221  29.183  29.153  1.00  0.00     0.049 A 
ATOM     16  N   UNL A   1      41.689  26.379  28.210  1.00  0.00    -0.248 NA
ATOM     17  C   UNL A   1      39.382  26.024  28.227  1.00  0.00     0.031 C 
ATOM     18  C   UNL A   1      41.051  30.567  29.608  1.00  0.00     0.029 A 
ATOM     19  N   UNL A   1      42.583  29.026  29.084  1.00  0.00    -0.354 N 
ATOM     20  C   UNL A   1      41.430  25.055  27.877  1.00  0.00     0.074 A 
ATOM     21  C   UNL A   1      39.994  24.883  27.937  1.00  0.00     0.031 C 
ATOM     22  C   UNL A   1      42.251  31.160  29.675  1.00  0.00     0.029 A 
ATOM     23  C   UNL A   1      43.279  30.185  29.335  1.00  0.00     0.049 A 
ATOM     24  H   UNL A   1      43.018  28.167  28.876  1.00  0.00     0.167 HD
ATOM     25  C   UNL A   1      42.308  24.076  27.550  1.00  0.00     0.031 A 
ATOM     26  C   UNL A   1      44.598  30.447  29.287  1.00  0.00     0.031 A 
ATOM     27  C   UNL A   1      43.737  24.249  27.490  1.00  0.00     0.049 A 
ATOM     28  C   UNL A   1      45.544  29.348  28.906  1.00  0.00     0.074 A 
ATOM     29  C   UNL A   1      44.704  23.323  27.133  1.00  0.00     0.029 A 
ATOM     30  N   UNL A   1      44.406  25.424  27.799  1.00  0.00    -0.354 N 
ATOM     31  N   UNL A   1      45.275  28.119  28.542  1.00  0.00    -0.248 NA
ATOM     32  C   UNL A   1      46.976  29.675  28.929  1.00  0.00     0.031 C 
ATOM     33  C   UNL A   1      45.960  23.925  27.272  1.00  0.00     0.029 A 
ATOM     34  C   UNL A   1      45.773  25.241  27.662  1.00  0.00     0.049 A 
ATOM     35  H   UNL A   1      43.973  26.264  28.073  1.00  0.00     0.167 HD
ATOM     36  C   UNL A   1      46.502  27.527  28.279  1.00  0.00     0.074 A 
ATOM     37  C   UNL A   1      47.513  28.542  28.500  1.00  0.00     0.031 C 
ATOM     38  C   UNL A   1      46.767  26.256  27.894  1.00  0.00     0.031 A 
BRANCH  25  39
ATOM     39  C   UNL A   1      41.748  22.710  27.258  1.00  0.00    -0.014 A 
ATOM     40  C   UNL A   1      40.838  22.502  26.210  1.00  0.00     0.009 A 
ATOM     41  C   UNL A   1      42.173  21.608  28.016  1.00  0.00     0.009 A 
ATOM     42  C   UNL A   1      40.340  21.222  25.949  1.00  0.00     0.001 A 
ATOM     43  C   UNL A   1      41.694  20.326  27.737  1.00  0.00     0.001 A 
ATOM     44  C   UNL A   1      40.771  20.135  26.710  1.00  0.00     0.000 A 
ENDBRANCH  25  39
BRANCH  26  45
ATOM     45  C   UNL A   1      45.097  31.812  29.595  1.00  0.00    -0.014 A 
ATOM     46  C   UNL A   1      45.443  32.168  30.907  1.00  0.00     0.009 A 
ATOM     47  C   UNL A   1      45.242  32.764  28.573  1.00  0.00     0.009 A 
ATOM     48  C   UNL A   1      45.905  33.456  31.192  1.00  0.00     0.001 A 
ATOM     49  C   UNL A   1      45.734  34.040  28.855  1.00  0.00     0.001 A 
ATOM     50  C   UNL A   1      46.057  34.387  30.165  1.00  0.00     0.000 A 
ENDBRANCH  26  45
BRANCH  38  51
ATOM     51  C   UNL A   1      48.209  25.906  27.662  1.00  0.00    -0.014 A 
ATOM     52  C   UNL A   1      48.993  25.337  28.678  1.00  0.00     0.009 A 
ATOM     53  C   UNL A   1      48.788  26.141  26.406  1.00  0.00     0.009 A 
ATOM     54  C   UNL A   1      50.341  25.048  28.452  1.00  0.00     0.001 A 
ATOM     55  C   UNL A   1      50.128  25.826  26.173  1.00  0.00     0.001 A 
ATOM     56  C   UNL A   1      50.905  25.290  27.200  1.00  0.00     0.000 A 
ENDBRANCH  38  51
ENDBRANCH  12  13
ENDBRANCH   5   7
ENDBRANCH   2   3
ENDBRANCH   1   2
BRANCH   1  57
ATOM     57  C   UNL A   1      31.411  29.656  25.717  1.00  0.00     0.117 C 
BRANCH  57  58
ATOM     58  N   UNL A   1      32.305  29.637  24.566  1.00  0.00    -0.354 N 
ATOM     59  C   UNL A   1      32.620  28.867  23.510  1.00  0.00     0.245 C 
ATOM     60  H   UNL A   1      32.855  30.454  24.558  1.00  0.00     0.163 HD
ATOM     61  O   UNL A   1      33.563  29.367  22.859  1.00  0.00    -0.273 OA
BRANCH  59  62
ATOM     62  C   UNL A   1      32.094  27.495  23.032  1.00  0.00     0.199 C 
BRANCH  62  63
ATOM     63  C   UNL A   1      30.689  27.436  22.385  1.00  0.00     0.073 C 
BRANCH  63  64
ATOM     64  C   UNL A   1      29.754  28.609  22.512  1.00  0.00    -0.045 A 
ATOM     65  C   UNL A   1      30.066  29.830  21.900  1.00  0.00     0.004 A 
ATOM     66  C   UNL A   1      28.547  28.490  23.220  1.00  0.00     0.004 A 
ATOM     67  C   UNL A   1      29.154  30.886  21.926  1.00  0.00     0.000 A 
ATOM     68  C   UNL A   1      27.632  29.545  23.236  1.00  0.00     0.000 A 
ATOM     69  C   UNL A   1      27.931  30.737  22.578  1.00  0.00     0.000 A 
ENDBRANCH  63  64
ENDBRANCH  62  63
BRANCH  62  70
ATOM     70  N   UNL A   1      32.994  26.333  22.840  1.00  0.00    -0.270 NA
ATOM     71  C   UNL A   1      33.278  25.376  23.647  1.00  0.00     0.109 C 
ATOM     72  C   UNL A   1      32.595  25.099  24.940  1.00  0.00     0.209 C 
ATOM     73  C   UNL A   1      34.400  24.427  23.316  1.00  0.00     0.205 C 
ATOM     74  O   UNL A   1      31.668  25.807  25.292  1.00  0.00    -0.287 OA
ATOM     75  C   UNL A   1      33.029  24.026  25.819  1.00  0.00     0.035 A 
ATOM     76  C   UNL A   1      35.136  23.906  24.534  1.00  0.00     0.187 C 
ATOM     77  Cl  UNL A   1      33.715  23.034  22.440  1.00  0.00    -0.107 Cl
ATOM     78  C   UNL A   1      32.177  23.598  26.842  1.00  0.00     0.013 A 
ATOM     79  C   UNL A   1      34.312  23.515  25.698  1.00  0.00     0.031 A 
ATOM     80  O   UNL A   1      36.353  23.754  24.572  1.00  0.00    -0.292 OA
ATOM     81  C   UNL A   1      32.634  22.680  27.779  1.00  0.00     0.001 A 
ATOM     82  C   UNL A   1      34.791  22.632  26.669  1.00  0.00     0.012 A 
ATOM     83  C   UNL A   1      33.949  22.220  27.709  1.00  0.00     0.001 A 
ENDBRANCH  62  70
ENDBRANCH  59  62
ENDBRANCH  57  58
ENDBRANCH   1  57
TORSDOF 13
ENDMDL
MODEL 3
REMARK VINA RESULT:     -12.9      4.030      9.076
REMARK SMILES O=C(NCCCNC(=O)[C@@H](Cc1ccccc1)/N=C1\C(=O)c2ccccc2C(=O)[C@H]1Cl)c1ccc(-c2c3nc(c(-c4ccccc4)c4ccc([nH]4)c(-c4ccccc4)c4nc(c(-c5ccccc5)c5ccc2[nH]5)C=C4)C=C3)cc1
REMARK SMILES IDX 5 1 4 2 3 3 1 4 2 5 32 7 33 8 79 9 34 10 78 11 35 12 36 13
REMARK SMILES IDX 37 14 72 15 38 16 77 17 71 18 73 19 39 20 76 21 70 22 69 23
REMARK SMILES IDX 40 25 62 26 47 27 61 28 48 29 51 30 60 31 74 32 49 33 50 34
REMARK SMILES IDX 59 36 75 37 52 38 41 39 42 40 46 41 43 42 45 43 44 44 63 45
REMARK SMILES IDX 64 46 68 47 65 48 67 49 66 50 53 51 54 52 58 53 55 54 57 55
REMARK SMILES IDX 56 56 6 57 7 58 8 59 9 61 10 62 11 63 12 64 13 65 17 66
REMARK SMILES IDX 14 67 16 68 15 69 18 70 19 71 20 72 30 73 21 74 22 75 28 76
REMARK SMILES IDX 31 77 23 78 27 79 29 80 24 81 26 82 25 83
REMARK H PARENT 3 6 73 24 51 35 7 60
REMARK Flexibility Score: inf
ROOT
ATOM      1  C   UNL A   1      36.724  22.468  24.262  1.00  0.00     0.042 C 
ENDROOT
BRANCH   1   2
ATOM      2  C   UNL A   1      37.391  23.159  25.444  1.00  0.00     0.118 C 
BRANCH   2   3
ATOM      3  N   UNL A   1      38.791  22.802  25.635  1.00  0.00    -0.352 N 
ATOM      4  O   UNL A   1      40.960  22.825  26.121  1.00  0.00    -0.269 OA
ATOM      5  C   UNL A   1      39.870  23.386  26.256  1.00  0.00     0.251 C 
ATOM      6  H   UNL A   1      39.019  21.938  25.220  1.00  0.00     0.163 HD
BRANCH   5   7
ATOM      7  C   UNL A   1      39.824  24.653  27.042  1.00  0.00     0.039 A 
ATOM      8  C   UNL A   1      39.233  24.769  28.294  1.00  0.00     0.014 A 
ATOM      9  C   UNL A   1      40.502  25.777  26.530  1.00  0.00     0.014 A 
ATOM     10  C   UNL A   1      39.186  25.997  28.952  1.00  0.00     0.010 A 
ATOM     11  C   UNL A   1      40.565  26.983  27.249  1.00  0.00     0.010 A 
ATOM     12  C   UNL A   1      39.888  27.110  28.466  1.00  0.00    -0.014 A 
BRANCH  12  13
ATOM     13  C   UNL A   1      39.979  28.316  29.332  1.00  0.00     0.031 A 
ATOM     14  C   UNL A   1      38.937  29.397  29.306  1.00  0.00     0.074 A 
ATOM     15  C   UNL A   1      40.992  28.384  30.221  1.00  0.00     0.049 A 
ATOM     16  N   UNL A   1      38.789  30.412  30.124  1.00  0.00    -0.248 NA
ATOM     17  C   UNL A   1      37.941  29.349  28.226  1.00  0.00     0.031 C 
ATOM     18  C   UNL A   1      42.089  27.416  30.320  1.00  0.00     0.029 A 
ATOM     19  N   UNL A   1      41.237  29.263  31.246  1.00  0.00    -0.354 N 
ATOM     20  C   UNL A   1      37.699  31.130  29.649  1.00  0.00     0.074 A 
ATOM     21  C   UNL A   1      37.237  30.449  28.458  1.00  0.00     0.031 C 
ATOM     22  C   UNL A   1      42.824  27.691  31.407  1.00  0.00     0.029 A 
ATOM     23  C   UNL A   1      42.295  28.891  32.043  1.00  0.00     0.049 A 
ATOM     24  H   UNL A   1      40.708  30.080  31.396  1.00  0.00     0.167 HD
ATOM     25  C   UNL A   1      37.135  32.251  30.161  1.00  0.00     0.031 A 
ATOM     26  C   UNL A   1      42.784  29.441  33.169  1.00  0.00     0.031 A 
ATOM     27  C   UNL A   1      37.595  32.926  31.349  1.00  0.00     0.049 A 
ATOM     28  C   UNL A   1      42.129  30.672  33.721  1.00  0.00     0.074 A 
ATOM     29  C   UNL A   1      37.064  34.048  31.963  1.00  0.00     0.029 A 
ATOM     30  N   UNL A   1      38.698  32.546  32.098  1.00  0.00    -0.354 N 
ATOM     31  N   UNL A   1      41.066  31.303  33.289  1.00  0.00    -0.248 NA
ATOM     32  C   UNL A   1      42.743  31.263  34.917  1.00  0.00     0.031 C 
ATOM     33  C   UNL A   1      37.875  34.375  33.057  1.00  0.00     0.029 A 
ATOM     34  C   UNL A   1      38.878  33.425  33.155  1.00  0.00     0.049 A 
ATOM     35  H   UNL A   1      39.268  31.768  31.907  1.00  0.00     0.167 HD
ATOM     36  C   UNL A   1      40.874  32.361  34.167  1.00  0.00     0.074 A 
ATOM     37  C   UNL A   1      41.915  32.267  35.171  1.00  0.00     0.031 C 
ATOM     38  C   UNL A   1      39.922  33.324  34.141  1.00  0.00     0.031 A 
BRANCH  25  39
ATOM     39  C   UNL A   1      35.965  32.840  29.420  1.00  0.00    -0.014 A 
ATOM     40  C   UNL A   1      36.080  34.047  28.714  1.00  0.00     0.009 A 
ATOM     41  C   UNL A   1      34.742  32.152  29.393  1.00  0.00     0.009 A 
ATOM     42  C   UNL A   1      34.984  34.570  28.021  1.00  0.00     0.001 A 
ATOM     43  C   UNL A   1      33.656  32.663  28.679  1.00  0.00     0.001 A 
ATOM     44  C   UNL A   1      33.775  33.876  28.002  1.00  0.00     0.000 A 
ENDBRANCH  25  39
BRANCH  26  45
ATOM     45  C   UNL A   1      43.948  28.822  33.854  1.00  0.00    -0.014 A 
ATOM     46  C   UNL A   1      43.759  27.838  34.837  1.00  0.00     0.009 A 
ATOM     47  C   UNL A   1      45.257  29.202  33.518  1.00  0.00     0.009 A 
ATOM     48  C   UNL A   1      44.858  27.264  35.483  1.00  0.00     0.001 A 
ATOM     49  C   UNL A   1      46.353  28.604  34.142  1.00  0.00     0.001 A 
ATOM     50  C   UNL A   1      46.152  27.642  35.129  1.00  0.00     0.000 A 
ENDBRANCH  26  45
BRANCH  38  51
ATOM     51  C   UNL A   1      39.954  34.336  35.250  1.00  0.00    -0.014 A 
ATOM     52  C   UNL A   1      40.672  35.536  35.121  1.00  0.00     0.009 A 
ATOM     53  C   UNL A   1      39.247  34.089  36.436  1.00  0.00     0.009 A 
ATOM     54  C   UNL A   1      40.715  36.450  36.176  1.00  0.00     0.001 A 
ATOM     55  C   UNL A   1      39.269  35.017  37.479  1.00  0.00     0.001 A 
ATOM     56  C   UNL A   1      40.011  36.190  37.352  1.00  0.00     0.000 A 
ENDBRANCH  38  51
ENDBRANCH  12  13
ENDBRANCH   5   7
ENDBRANCH   2   3
ENDBRANCH   1   2
BRANCH   1  57
ATOM     57  C   UNL A   1      35.996  21.167  24.629  1.00  0.00     0.117 C 
BRANCH  57  58
ATOM     58  N   UNL A   1      35.391  21.219  25.954  1.00  0.00    -0.354 N 
ATOM     59  C   UNL A   1      34.232  21.545  26.553  1.00  0.00     0.245 C 
ATOM     60  H   UNL A   1      36.041  20.917  26.629  1.00  0.00     0.163 HD
ATOM     61  O   UNL A   1      34.327  21.439  27.795  1.00  0.00    -0.273 OA
BRANCH  59  62
ATOM     62  C   UNL A   1      32.892  22.080  25.999  1.00  0.00     0.199 C 
BRANCH  62  63
ATOM     63  C   UNL A   1      31.915  21.071  25.349  1.00  0.00     0.073 C 
BRANCH  63  64
ATOM     64  C   UNL A   1      32.439  19.781  24.778  1.00  0.00    -0.045 A 
ATOM     65  C   UNL A   1      32.811  18.731  25.628  1.00  0.00     0.004 A 
ATOM     66  C   UNL A   1      32.537  19.599  23.388  1.00  0.00     0.004 A 
ATOM     67  C   UNL A   1      33.196  17.497  25.101  1.00  0.00     0.000 A 
ATOM     68  C   UNL A   1      32.914  18.361  22.864  1.00  0.00     0.000 A 
ATOM     69  C   UNL A   1      33.229  17.308  23.720  1.00  0.00     0.000 A 
ENDBRANCH  63  64
ENDBRANCH  62  63
BRANCH  62  70
ATOM     70  N   UNL A   1      32.362  23.411  26.379  1.00  0.00    -0.270 NA
ATOM     71  C   UNL A   1      32.498  24.544  25.793  1.00  0.00     0.109 C 
ATOM     72  C   UNL A   1      33.083  24.758  24.441  1.00  0.00     0.209 C 
ATOM     73  C   UNL A   1      32.059  25.805  26.491  1.00  0.00     0.205 C 
ATOM     74  O   UNL A   1      33.460  23.797  23.793  1.00  0.00    -0.287 OA
ATOM     75  C   UNL A   1      33.254  26.089  23.884  1.00  0.00     0.035 A 
ATOM     76  C   UNL A   1      32.902  27.016  26.147  1.00  0.00     0.187 C 
ATOM     77  Cl  UNL A   1      30.374  26.146  26.021  1.00  0.00    -0.107 Cl
ATOM     78  C   UNL A   1      33.495  26.227  22.513  1.00  0.00     0.013 A 
ATOM     79  C   UNL A   1      33.279  27.189  24.727  1.00  0.00     0.031 A 
ATOM     80  O   UNL A   1      33.232  27.864  26.971  1.00  0.00    -0.292 OA
ATOM     81  C   UNL A   1      33.807  27.476  21.992  1.00  0.00     0.001 A 
ATOM     82  C   UNL A   1      33.643  28.435  24.213  1.00  0.00     0.012 A 
ATOM     83  C   UNL A   1      33.909  28.573  22.846  1.00  0.00     0.001 A 
ENDBRANCH  62  70
ENDBRANCH  59  62
ENDBRANCH  57  58
ENDBRANCH   1  57
TORSDOF 13
ENDMDL
