MODEL 1
REMARK VINA RESULT:     -11.4      0.000      0.000
REMARK SMILES CC(C)[NH2+][C@]1(C(=O)NCCCNC(=O)c2ccc(-c3c4nc(c(-c5ccccc5)c5ccc([nH]5)c(-c5ccccc5)c5nc(c(-c6ccccc6)c6ccc3[nH]6)C=C5)C=C4)cc2)CC[C@H]([NH+]2CCC(C)(C)CC2)C1
REMARK SMILES IDX 10 1 9 2 8 3 6 4 7 5 5 7 63 8 74 9 64 10 65 11 4 12 2 15
REMARK SMILES IDX 1 16 3 17 66 18 67 19 73 20 68 22 72 23 69 24 70 25 71 26
REMARK SMILES IDX 11 27 12 28 13 29 14 31 15 32 16 33 62 34 17 35 61 36 18 37
REMARK SMILES IDX 19 38 20 39 55 40 21 41 60 42 54 43 56 44 22 45 59 46 53 47
REMARK SMILES IDX 52 48 23 50 45 51 30 52 44 53 31 54 34 55 43 56 57 57 32 58
REMARK SMILES IDX 33 59 42 61 58 62 35 63 24 64 25 65 29 66 26 67 28 68 27 69
REMARK SMILES IDX 46 70 47 71 51 72 48 73 50 74 49 75 36 76 37 77 41 78 38 79
REMARK SMILES IDX 40 80 39 81
REMARK H PARENT 8 6 4 13 4 14 66 21 12 30 56 49 34 60
REMARK Flexibility Score: inf
ROOT
ATOM      1  C   UNL A   1      33.768  28.523  25.872  1.00  0.00     0.042 C 
ENDROOT
BRANCH   1   2
ATOM      2  C   UNL A   1      32.652  27.897  25.045  1.00  0.00     0.118 C 
BRANCH   2   3
ATOM      3  N   UNL A   1      31.799  26.956  25.768  1.00  0.00    -0.351 N 
ATOM      4  C   UNL A   1      31.833  25.614  26.028  1.00  0.00     0.281 C 
ATOM      5  O   UNL A   1      31.001  25.213  26.853  1.00  0.00    -0.268 OA
ATOM      6  H   UNL A   1      31.011  27.394  26.164  1.00  0.00     0.163 HD
BRANCH   4   7
ATOM      7  C   UNL A   1      32.740  24.598  25.275  1.00  0.00     0.181 C 
ATOM      8  C   UNL A   1      34.232  24.820  25.520  1.00  0.00     0.085 C 
ATOM      9  C   UNL A   1      32.565  23.180  25.909  1.00  0.00     0.144 C 
ATOM     10  C   UNL A   1      34.951  23.491  25.466  1.00  0.00     0.072 C 
ATOM     11  C   UNL A   1      33.898  22.410  25.739  1.00  0.00     0.191 C 
BRANCH   7  12
ATOM     12  N   UNL A   1      32.320  24.438  23.859  1.00  0.00    -0.331 N 
ATOM     13  H   UNL A   1      31.997  23.476  23.757  1.00  0.00     0.347 HD
ATOM     14  H   UNL A   1      31.637  25.184  23.735  1.00  0.00     0.347 HD
BRANCH  12  15
ATOM     15  C   UNL A   1      33.267  24.677  22.774  1.00  0.00     0.176 C 
ATOM     16  C   UNL A   1      33.302  23.401  21.924  1.00  0.00     0.075 C 
ATOM     17  C   UNL A   1      32.857  25.842  21.862  1.00  0.00     0.075 C 
ENDBRANCH  12  15
ENDBRANCH   7  12
BRANCH  11  18
ATOM     18  N   UNL A   1      33.956  21.273  24.783  1.00  0.00    -0.332 N 
ATOM     19  C   UNL A   1      32.584  20.837  24.454  1.00  0.00     0.263 C 
ATOM     20  C   UNL A   1      34.845  20.190  25.233  1.00  0.00     0.263 C 
ATOM     21  H   UNL A   1      34.391  21.591  23.917  1.00  0.00     0.348 HD
ATOM     22  C   UNL A   1      32.482  19.526  23.674  1.00  0.00     0.068 C 
ATOM     23  C   UNL A   1      34.726  18.877  24.455  1.00  0.00     0.068 C 
ATOM     24  C   UNL A   1      33.274  18.388  24.339  1.00  0.00    -0.025 C 
ATOM     25  C   UNL A   1      33.220  17.133  23.454  1.00  0.00     0.011 C 
ATOM     26  C   UNL A   1      32.688  18.015  25.717  1.00  0.00     0.011 C 
ENDBRANCH  11  18
ENDBRANCH   4   7
ENDBRANCH   2   3
ENDBRANCH   1   2
BRANCH   1  27
ATOM     27  C   UNL A   1      33.378  28.779  27.319  1.00  0.00     0.118 C 
BRANCH  27  28
ATOM     28  N   UNL A   1      33.541  30.183  27.668  1.00  0.00    -0.352 N 
ATOM     29  C   UNL A   1      34.559  30.815  28.332  1.00  0.00     0.251 C 
ATOM     30  H   UNL A   1      32.804  30.770  27.383  1.00  0.00     0.163 HD
ATOM     31  O   UNL A   1      34.359  31.933  28.810  1.00  0.00    -0.269 OA
BRANCH  29  32
ATOM     32  C   UNL A   1      35.893  30.190  28.466  1.00  0.00     0.039 A 
ATOM     33  C   UNL A   1      36.247  29.606  29.687  1.00  0.00     0.014 A 
ATOM     34  C   UNL A   1      36.833  30.268  27.436  1.00  0.00     0.014 A 
ATOM     35  C   UNL A   1      37.533  29.092  29.868  1.00  0.00     0.010 A 
ATOM     36  C   UNL A   1      38.083  29.675  27.585  1.00  0.00     0.010 A 
ATOM     37  C   UNL A   1      38.460  29.120  28.815  1.00  0.00    -0.014 A 
BRANCH  37  38
ATOM     38  C   UNL A   1      39.860  28.665  29.003  1.00  0.00     0.031 A 
ATOM     39  C   UNL A   1      40.877  29.612  29.587  1.00  0.00     0.074 A 
ATOM     40  C   UNL A   1      40.230  27.433  28.610  1.00  0.00     0.049 A 
ATOM     41  N   UNL A   1      42.163  29.442  29.761  1.00  0.00    -0.248 NA
ATOM     42  C   UNL A   1      40.387  30.939  29.999  1.00  0.00     0.031 C 
ATOM     43  C   UNL A   1      39.351  26.433  28.002  1.00  0.00     0.029 A 
ATOM     44  N   UNL A   1      41.453  26.814  28.663  1.00  0.00    -0.354 N 
ATOM     45  C   UNL A   1      42.637  30.647  30.266  1.00  0.00     0.074 A 
ATOM     46  C   UNL A   1      41.513  31.555  30.327  1.00  0.00     0.031 C 
ATOM     47  C   UNL A   1      40.057  25.316  27.764  1.00  0.00     0.029 A 
ATOM     48  C   UNL A   1      41.442  25.532  28.172  1.00  0.00     0.049 A 
ATOM     49  H   UNL A   1      42.263  27.248  29.018  1.00  0.00     0.167 HD
ATOM     50  C   UNL A   1      43.889  30.967  30.667  1.00  0.00     0.031 A 
ATOM     51  C   UNL A   1      42.437  24.632  28.067  1.00  0.00     0.031 A 
ATOM     52  C   UNL A   1      44.999  30.054  30.647  1.00  0.00     0.049 A 
ATOM     53  C   UNL A   1      43.812  24.997  28.550  1.00  0.00     0.074 A 
ATOM     54  C   UNL A   1      46.298  30.260  31.080  1.00  0.00     0.029 A 
ATOM     55  N   UNL A   1      44.934  28.751  30.176  1.00  0.00    -0.354 N 
ATOM     56  N   UNL A   1      44.234  26.125  29.066  1.00  0.00    -0.248 NA
ATOM     57  C   UNL A   1      44.844  23.956  28.450  1.00  0.00     0.031 C 
ATOM     58  C   UNL A   1      47.026  29.089  30.845  1.00  0.00     0.029 A 
ATOM     59  C   UNL A   1      46.169  28.142  30.306  1.00  0.00     0.049 A 
ATOM     60  H   UNL A   1      44.129  28.324  29.805  1.00  0.00     0.167 HD
ATOM     61  C   UNL A   1      45.570  25.919  29.385  1.00  0.00     0.074 A 
ATOM     62  C   UNL A   1      45.885  24.555  29.012  1.00  0.00     0.031 C 
ATOM     63  C   UNL A   1      46.457  26.780  29.940  1.00  0.00     0.031 A 
BRANCH  50  64
ATOM     64  C   UNL A   1      44.118  32.366  31.166  1.00  0.00    -0.014 A 
ATOM     65  C   UNL A   1      43.970  32.687  32.525  1.00  0.00     0.009 A 
ATOM     66  C   UNL A   1      44.500  33.375  30.268  1.00  0.00     0.009 A 
ATOM     67  C   UNL A   1      44.159  33.999  32.967  1.00  0.00     0.001 A 
ATOM     68  C   UNL A   1      44.715  34.679  30.718  1.00  0.00     0.001 A 
ATOM     69  C   UNL A   1      44.534  34.993  32.063  1.00  0.00     0.000 A 
ENDBRANCH  50  64
BRANCH  51  70
ATOM     70  C   UNL A   1      42.160  23.280  27.517  1.00  0.00    -0.014 A 
ATOM     71  C   UNL A   1      41.571  22.295  28.325  1.00  0.00     0.009 A 
ATOM     72  C   UNL A   1      42.482  22.966  26.188  1.00  0.00     0.009 A 
ATOM     73  C   UNL A   1      41.335  21.014  27.820  1.00  0.00     0.001 A 
ATOM     74  C   UNL A   1      42.221  21.692  25.678  1.00  0.00     0.001 A 
ATOM     75  C   UNL A   1      41.657  20.715  26.497  1.00  0.00     0.000 A 
ENDBRANCH  51  70
BRANCH  63  76
ATOM     76  C   UNL A   1      47.834  26.256  30.223  1.00  0.00    -0.014 A 
ATOM     77  C   UNL A   1      48.817  26.210  29.224  1.00  0.00     0.009 A 
ATOM     78  C   UNL A   1      48.161  25.840  31.523  1.00  0.00     0.009 A 
ATOM     79  C   UNL A   1      50.093  25.724  29.513  1.00  0.00     0.001 A 
ATOM     80  C   UNL A   1      49.444  25.378  31.816  1.00  0.00     0.001 A 
ATOM     81  C   UNL A   1      50.406  25.312  30.810  1.00  0.00     0.000 A 
ENDBRANCH  63  76
ENDBRANCH  37  38
ENDBRANCH  29  32
ENDBRANCH  27  28
ENDBRANCH   1  27
TORSDOF 13
ENDMDL
MODEL 2
REMARK VINA RESULT:     -11.0      2.085      7.522
REMARK SMILES CC(C)[NH2+][C@]1(C(=O)NCCCNC(=O)c2ccc(-c3c4nc(c(-c5ccccc5)c5ccc([nH]5)c(-c5ccccc5)c5nc(c(-c6ccccc6)c6ccc3[nH]6)C=C5)C=C4)cc2)CC[C@H]([NH+]2CCC(C)(C)CC2)C1
REMARK SMILES IDX 10 1 9 2 8 3 6 4 7 5 5 7 63 8 74 9 64 10 65 11 4 12 2 15
REMARK SMILES IDX 1 16 3 17 66 18 67 19 73 20 68 22 72 23 69 24 70 25 71 26
REMARK SMILES IDX 11 27 12 28 13 29 14 31 15 32 16 33 62 34 17 35 61 36 18 37
REMARK SMILES IDX 19 38 20 39 55 40 21 41 60 42 54 43 56 44 22 45 59 46 53 47
REMARK SMILES IDX 52 48 23 50 45 51 30 52 44 53 31 54 34 55 43 56 57 57 32 58
REMARK SMILES IDX 33 59 42 61 58 62 35 63 24 64 25 65 29 66 26 67 28 68 27 69
REMARK SMILES IDX 46 70 47 71 51 72 48 73 50 74 49 75 36 76 37 77 41 78 38 79
REMARK SMILES IDX 40 80 39 81
REMARK H PARENT 8 6 4 13 4 14 66 21 12 30 56 49 34 60
REMARK Flexibility Score: inf
ROOT
ATOM      1  C   UNL A   1      37.271  19.725  24.965  1.00  0.00     0.042 C 
ENDROOT
BRANCH   1   2
ATOM      2  C   UNL A   1      36.043  20.625  25.008  1.00  0.00     0.118 C 
BRANCH   2   3
ATOM      3  N   UNL A   1      34.799  19.957  25.388  1.00  0.00    -0.351 N 
ATOM      4  C   UNL A   1      33.473  20.291  25.374  1.00  0.00     0.281 C 
ATOM      5  O   UNL A   1      32.690  19.361  25.611  1.00  0.00    -0.268 OA
ATOM      6  H   UNL A   1      34.953  19.050  25.737  1.00  0.00     0.163 HD
BRANCH   4   7
ATOM      7  C   UNL A   1      32.936  21.742  25.208  1.00  0.00     0.181 C 
ATOM      8  C   UNL A   1      31.454  21.883  25.553  1.00  0.00     0.085 C 
ATOM      9  C   UNL A   1      33.563  22.654  26.312  1.00  0.00     0.144 C 
ATOM     10  C   UNL A   1      31.201  23.262  26.120  1.00  0.00     0.072 C 
ATOM     11  C   UNL A   1      32.548  23.776  26.641  1.00  0.00     0.191 C 
BRANCH   7  12
ATOM     12  N   UNL A   1      33.374  22.342  23.922  1.00  0.00    -0.331 N 
ATOM     13  H   UNL A   1      33.731  23.272  24.139  1.00  0.00     0.347 HD
ATOM     14  H   UNL A   1      34.032  21.654  23.558  1.00  0.00     0.347 HD
BRANCH  12  15
ATOM     15  C   UNL A   1      32.430  22.505  22.820  1.00  0.00     0.176 C 
ATOM     16  C   UNL A   1      33.131  23.356  21.755  1.00  0.00     0.075 C 
ATOM     17  C   UNL A   1      32.025  21.174  22.172  1.00  0.00     0.075 C 
ENDBRANCH  12  15
ENDBRANCH   7  12
BRANCH  11  18
ATOM     18  N   UNL A   1      32.852  25.169  26.220  1.00  0.00    -0.332 N 
ATOM     19  C   UNL A   1      31.594  25.934  26.109  1.00  0.00     0.263 C 
ATOM     20  C   UNL A   1      33.708  25.234  25.024  1.00  0.00     0.263 C 
ATOM     21  H   UNL A   1      33.419  25.617  26.940  1.00  0.00     0.348 HD
ATOM     22  C   UNL A   1      31.719  27.310  25.453  1.00  0.00     0.068 C 
ATOM     23  C   UNL A   1      33.816  26.612  24.368  1.00  0.00     0.068 C 
ATOM     24  C   UNL A   1      32.443  27.247  24.098  1.00  0.00    -0.025 C 
ATOM     25  C   UNL A   1      32.631  28.669  23.545  1.00  0.00     0.011 C 
ATOM     26  C   UNL A   1      31.638  26.442  23.057  1.00  0.00     0.011 C 
ENDBRANCH  11  18
ENDBRANCH   4   7
ENDBRANCH   2   3
ENDBRANCH   1   2
BRANCH   1  27
ATOM     27  C   UNL A   1      38.536  20.404  25.464  1.00  0.00     0.118 C 
BRANCH  27  28
ATOM     28  N   UNL A   1      39.596  19.435  25.700  1.00  0.00    -0.352 N 
ATOM     29  C   UNL A   1      40.914  19.628  26.020  1.00  0.00     0.251 C 
ATOM     30  H   UNL A   1      39.323  18.492  25.617  1.00  0.00     0.163 HD
ATOM     31  O   UNL A   1      41.712  18.703  25.858  1.00  0.00    -0.269 OA
BRANCH  29  32
ATOM     32  C   UNL A   1      41.389  20.915  26.573  1.00  0.00     0.039 A 
ATOM     33  C   UNL A   1      41.241  21.160  27.943  1.00  0.00     0.014 A 
ATOM     34  C   UNL A   1      41.882  21.921  25.738  1.00  0.00     0.014 A 
ATOM     35  C   UNL A   1      41.597  22.403  28.472  1.00  0.00     0.010 A 
ATOM     36  C   UNL A   1      42.322  23.124  26.279  1.00  0.00     0.010 A 
ATOM     37  C   UNL A   1      42.144  23.394  27.642  1.00  0.00    -0.014 A 
BRANCH  37  38
ATOM     38  C   UNL A   1      42.448  24.752  28.156  1.00  0.00     0.031 A 
ATOM     39  C   UNL A   1      43.859  25.095  28.561  1.00  0.00     0.074 A 
ATOM     40  C   UNL A   1      41.463  25.656  28.306  1.00  0.00     0.049 A 
ATOM     41  N   UNL A   1      44.321  26.192  29.106  1.00  0.00    -0.248 NA
ATOM     42  C   UNL A   1      44.880  24.052  28.356  1.00  0.00     0.031 C 
ATOM     43  C   UNL A   1      40.052  25.439  27.983  1.00  0.00     0.029 A 
ATOM     44  N   UNL A   1      41.503  26.944  28.777  1.00  0.00    -0.354 N 
ATOM     45  C   UNL A   1      45.671  25.956  29.339  1.00  0.00     0.074 A 
ATOM     46  C   UNL A   1      45.944  24.599  28.922  1.00  0.00     0.031 C 
ATOM     47  C   UNL A   1      39.366  26.565  28.238  1.00  0.00     0.029 A 
ATOM     48  C   UNL A   1      40.280  27.569  28.771  1.00  0.00     0.049 A 
ATOM     49  H   UNL A   1      42.330  27.379  29.090  1.00  0.00     0.167 HD
ATOM     50  C   UNL A   1      46.608  26.798  29.833  1.00  0.00     0.031 A 
ATOM     51  C   UNL A   1      39.938  28.814  29.152  1.00  0.00     0.031 A 
ATOM     52  C   UNL A   1      46.348  28.161  30.210  1.00  0.00     0.049 A 
ATOM     53  C   UNL A   1      41.002  29.743  29.666  1.00  0.00     0.074 A 
ATOM     54  C   UNL A   1      47.237  29.116  30.672  1.00  0.00     0.029 A 
ATOM     55  N   UNL A   1      45.101  28.766  30.153  1.00  0.00    -0.354 N 
ATOM     56  N   UNL A   1      42.282  29.520  29.839  1.00  0.00    -0.248 NA
ATOM     57  C   UNL A   1      40.573  31.103  30.021  1.00  0.00     0.031 C 
ATOM     58  C   UNL A   1      46.522  30.292  30.922  1.00  0.00     0.029 A 
ATOM     59  C   UNL A   1      45.197  30.080  30.573  1.00  0.00     0.049 A 
ATOM     60  H   UNL A   1      44.272  28.325  29.857  1.00  0.00     0.167 HD
ATOM     61  C   UNL A   1      42.817  30.719  30.289  1.00  0.00     0.074 A 
ATOM     62  C   UNL A   1      41.725  31.669  30.355  1.00  0.00     0.031 C 
ATOM     63  C   UNL A   1      44.099  31.010  30.618  1.00  0.00     0.031 A 
BRANCH  50  64
ATOM     64  C   UNL A   1      48.004  26.263  29.990  1.00  0.00    -0.014 A 
ATOM     65  C   UNL A   1      48.452  25.750  31.218  1.00  0.00     0.009 A 
ATOM     66  C   UNL A   1      48.878  26.257  28.892  1.00  0.00     0.009 A 
ATOM     67  C   UNL A   1      49.761  25.282  31.354  1.00  0.00     0.001 A 
ATOM     68  C   UNL A   1      50.177  25.763  29.024  1.00  0.00     0.001 A 
ATOM     69  C   UNL A   1      50.621  25.287  30.256  1.00  0.00     0.000 A 
ENDBRANCH  50  64
BRANCH  51  70
ATOM     70  C   UNL A   1      38.531  29.270  29.021  1.00  0.00    -0.014 A 
ATOM     71  C   UNL A   1      37.664  29.213  30.124  1.00  0.00     0.009 A 
ATOM     72  C   UNL A   1      38.046  29.760  27.799  1.00  0.00     0.009 A 
ATOM     73  C   UNL A   1      36.332  29.614  29.998  1.00  0.00     0.001 A 
ATOM     74  C   UNL A   1      36.720  30.184  27.683  1.00  0.00     0.001 A 
ATOM     75  C   UNL A   1      35.863  30.102  28.779  1.00  0.00     0.000 A 
ENDBRANCH  51  70
BRANCH  63  76
ATOM     76  C   UNL A   1      44.397  32.423  31.026  1.00  0.00    -0.014 A 
ATOM     77  C   UNL A   1      44.352  32.820  32.371  1.00  0.00     0.009 A 
ATOM     78  C   UNL A   1      44.768  33.361  30.050  1.00  0.00     0.009 A 
ATOM     79  C   UNL A   1      44.639  34.139  32.726  1.00  0.00     0.001 A 
ATOM     80  C   UNL A   1      45.080  34.672  30.410  1.00  0.00     0.001 A 
ATOM     81  C   UNL A   1      45.006  35.062  31.746  1.00  0.00     0.000 A 
ENDBRANCH  63  76
ENDBRANCH  37  38
ENDBRANCH  29  32
ENDBRANCH  27  28
ENDBRANCH   1  27
TORSDOF 13
ENDMDL
MODEL 3
REMARK VINA RESULT:     -11.0      2.322      7.638
REMARK SMILES CC(C)[NH2+][C@]1(C(=O)NCCCNC(=O)c2ccc(-c3c4nc(c(-c5ccccc5)c5ccc([nH]5)c(-c5ccccc5)c5nc(c(-c6ccccc6)c6ccc3[nH]6)C=C5)C=C4)cc2)CC[C@H]([NH+]2CCC(C)(C)CC2)C1
REMARK SMILES IDX 10 1 9 2 8 3 6 4 7 5 5 7 63 8 74 9 64 10 65 11 4 12 2 15
REMARK SMILES IDX 1 16 3 17 66 18 67 19 73 20 68 22 72 23 69 24 70 25 71 26
REMARK SMILES IDX 11 27 12 28 13 29 14 31 15 32 16 33 62 34 17 35 61 36 18 37
REMARK SMILES IDX 19 38 20 39 55 40 21 41 60 42 54 43 56 44 22 45 59 46 53 47
REMARK SMILES IDX 52 48 23 50 45 51 30 52 44 53 31 54 34 55 43 56 57 57 32 58
REMARK SMILES IDX 33 59 42 61 58 62 35 63 24 64 25 65 29 66 26 67 28 68 27 69
REMARK SMILES IDX 46 70 47 71 51 72 48 73 50 74 49 75 36 76 37 77 41 78 38 79
REMARK SMILES IDX 40 80 39 81
REMARK H PARENT 8 6 4 13 4 14 66 21 12 30 56 49 34 60
REMARK Flexibility Score: inf
ROOT
ATOM      1  C   UNL A   1      37.883  19.646  24.965  1.00  0.00     0.042 C 
ENDROOT
BRANCH   1   2
ATOM      2  C   UNL A   1      36.693  20.582  24.803  1.00  0.00     0.118 C 
BRANCH   2   3
ATOM      3  N   UNL A   1      35.387  19.973  25.052  1.00  0.00    -0.351 N 
ATOM      4  C   UNL A   1      34.087  20.329  24.821  1.00  0.00     0.281 C 
ATOM      5  O   UNL A   1      33.251  19.438  25.016  1.00  0.00    -0.268 OA
ATOM      6  H   UNL A   1      35.462  19.095  25.491  1.00  0.00     0.163 HD
BRANCH   4   7
ATOM      7  C   UNL A   1      33.624  21.772  24.465  1.00  0.00     0.181 C 
ATOM      8  C   UNL A   1      34.778  22.708  24.109  1.00  0.00     0.085 C 
ATOM      9  C   UNL A   1      32.860  21.747  23.101  1.00  0.00     0.144 C 
ATOM     10  C   UNL A   1      34.304  23.722  23.091  1.00  0.00     0.072 C 
ATOM     11  C   UNL A   1      33.075  23.113  22.405  1.00  0.00     0.191 C 
BRANCH   7  12
ATOM     12  N   UNL A   1      32.636  22.285  25.447  1.00  0.00    -0.331 N 
ATOM     13  H   UNL A   1      31.963  22.844  24.922  1.00  0.00     0.347 HD
ATOM     14  H   UNL A   1      32.298  21.437  25.900  1.00  0.00     0.347 HD
BRANCH  12  15
ATOM     15  C   UNL A   1      33.070  23.106  26.574  1.00  0.00     0.176 C 
ATOM     16  C   UNL A   1      31.912  24.056  26.904  1.00  0.00     0.075 C 
ATOM     17  C   UNL A   1      33.381  22.285  27.833  1.00  0.00     0.075 C 
ENDBRANCH  12  15
ENDBRANCH   7  12
BRANCH  11  18
ATOM     18  N   UNL A   1      31.930  24.056  22.299  1.00  0.00    -0.332 N 
ATOM     19  C   UNL A   1      32.430  25.395  21.929  1.00  0.00     0.263 C 
ATOM     20  C   UNL A   1      31.061  24.040  23.487  1.00  0.00     0.263 C 
ATOM     21  H   UNL A   1      31.312  23.743  21.550  1.00  0.00     0.348 HD
ATOM     22  C   UNL A   1      31.405  26.525  22.017  1.00  0.00     0.068 C 
ATOM     23  C   UNL A   1      30.048  25.183  23.573  1.00  0.00     0.068 C 
ATOM     24  C   UNL A   1      30.694  26.563  23.381  1.00  0.00    -0.025 C 
ATOM     25  C   UNL A   1      29.605  27.648  23.367  1.00  0.00     0.011 C 
ATOM     26  C   UNL A   1      31.673  26.897  24.525  1.00  0.00     0.011 C 
ENDBRANCH  11  18
ENDBRANCH   4   7
ENDBRANCH   2   3
ENDBRANCH   1   2
BRANCH   1  27
ATOM     27  C   UNL A   1      38.967  20.198  25.877  1.00  0.00     0.118 C 
BRANCH  27  28
ATOM     28  N   UNL A   1      40.147  19.347  25.869  1.00  0.00    -0.352 N 
ATOM     29  C   UNL A   1      41.473  19.673  25.978  1.00  0.00     0.251 C 
ATOM     30  H   UNL A   1      39.964  18.384  25.771  1.00  0.00     0.163 HD
ATOM     31  O   UNL A   1      42.323  18.855  25.624  1.00  0.00    -0.269 OA
BRANCH  29  32
ATOM     32  C   UNL A   1      41.899  20.978  26.528  1.00  0.00     0.039 A 
ATOM     33  C   UNL A   1      41.851  21.178  27.912  1.00  0.00     0.014 A 
ATOM     34  C   UNL A   1      42.246  22.038  25.687  1.00  0.00     0.014 A 
ATOM     35  C   UNL A   1      42.160  22.431  28.448  1.00  0.00     0.010 A 
ATOM     36  C   UNL A   1      42.642  23.258  26.225  1.00  0.00     0.010 A 
ATOM     37  C   UNL A   1      42.562  23.480  27.606  1.00  0.00    -0.014 A 
BRANCH  37  38
ATOM     38  C   UNL A   1      42.810  24.844  28.134  1.00  0.00     0.031 A 
ATOM     39  C   UNL A   1      44.206  25.242  28.537  1.00  0.00     0.074 A 
ATOM     40  C   UNL A   1      41.788  25.703  28.299  1.00  0.00     0.049 A 
ATOM     41  N   UNL A   1      44.624  26.352  29.092  1.00  0.00    -0.248 NA
ATOM     42  C   UNL A   1      45.270  24.247  28.316  1.00  0.00     0.031 C 
ATOM     43  C   UNL A   1      40.385  25.429  27.980  1.00  0.00     0.029 A 
ATOM     44  N   UNL A   1      41.774  26.986  28.784  1.00  0.00    -0.354 N 
ATOM     45  C   UNL A   1      45.984  26.172  29.317  1.00  0.00     0.074 A 
ATOM     46  C   UNL A   1      46.313  24.832  28.884  1.00  0.00     0.031 C 
ATOM     47  C   UNL A   1      39.653  26.522  28.250  1.00  0.00     0.029 A 
ATOM     48  C   UNL A   1      40.526  27.558  28.791  1.00  0.00     0.049 A 
ATOM     49  H   UNL A   1      42.583  27.453  29.099  1.00  0.00     0.167 HD
ATOM     50  C   UNL A   1      46.886  27.048  29.817  1.00  0.00     0.031 A 
ATOM     51  C   UNL A   1      40.133  28.783  29.187  1.00  0.00     0.031 A 
ATOM     52  C   UNL A   1      46.569  28.394  30.210  1.00  0.00     0.049 A 
ATOM     53  C   UNL A   1      41.158  29.751  29.708  1.00  0.00     0.074 A 
ATOM     54  C   UNL A   1      47.419  29.381  30.680  1.00  0.00     0.029 A 
ATOM     55  N   UNL A   1      45.298  28.945  30.165  1.00  0.00    -0.354 N 
ATOM     56  N   UNL A   1      42.447  29.581  29.873  1.00  0.00    -0.248 NA
ATOM     57  C   UNL A   1      40.673  31.087  30.080  1.00  0.00     0.031 C 
ATOM     58  C   UNL A   1      46.655  30.522  30.946  1.00  0.00     0.029 A 
ATOM     59  C   UNL A   1      45.339  30.258  30.600  1.00  0.00     0.049 A 
ATOM     60  H   UNL A   1      44.487  28.473  29.868  1.00  0.00     0.167 HD
ATOM     61  C   UNL A   1      42.933  30.797  30.334  1.00  0.00     0.074 A 
ATOM     62  C   UNL A   1      41.801  31.698  30.415  1.00  0.00     0.031 C 
ATOM     63  C   UNL A   1      44.203  31.139  30.661  1.00  0.00     0.031 A 
BRANCH  50  64
ATOM     64  C   UNL A   1      48.304  26.571  29.962  1.00  0.00    -0.014 A 
ATOM     65  C   UNL A   1      49.247  26.772  28.940  1.00  0.00     0.009 A 
ATOM     66  C   UNL A   1      48.707  25.925  31.140  1.00  0.00     0.009 A 
ATOM     67  C   UNL A   1      50.553  26.297  29.079  1.00  0.00     0.001 A 
ATOM     68  C   UNL A   1      50.022  25.476  31.288  1.00  0.00     0.001 A 
ATOM     69  C   UNL A   1      50.939  25.652  30.254  1.00  0.00     0.000 A 
ENDBRANCH  50  64
BRANCH  51  70
ATOM     70  C   UNL A   1      38.706  29.179  29.068  1.00  0.00    -0.014 A 
ATOM     71  C   UNL A   1      38.220  29.714  27.865  1.00  0.00     0.009 A 
ATOM     72  C   UNL A   1      37.827  29.028  30.150  1.00  0.00     0.009 A 
ATOM     73  C   UNL A   1      36.886  30.115  27.758  1.00  0.00     0.001 A 
ATOM     74  C   UNL A   1      36.488  29.406  30.032  1.00  0.00     0.001 A 
ATOM     75  C   UNL A   1      36.021  29.957  28.839  1.00  0.00     0.000 A 
ENDBRANCH  51  70
BRANCH  63  76
ATOM     76  C   UNL A   1      44.442  32.559  31.083  1.00  0.00    -0.014 A 
ATOM     77  C   UNL A   1      44.739  33.559  30.146  1.00  0.00     0.009 A 
ATOM     78  C   UNL A   1      44.327  32.906  32.438  1.00  0.00     0.009 A 
ATOM     79  C   UNL A   1      44.951  34.875  30.563  1.00  0.00     0.001 A 
ATOM     80  C   UNL A   1      44.514  34.225  32.850  1.00  0.00     0.001 A 
ATOM     81  C   UNL A   1      44.835  35.207  31.914  1.00  0.00     0.000 A 
ENDBRANCH  63  76
ENDBRANCH  37  38
ENDBRANCH  29  32
ENDBRANCH  27  28
ENDBRANCH   1  27
TORSDOF 13
ENDMDL
