MODEL 1
REMARK VINA RESULT:     -10.7      0.000      0.000
REMARK SMILES O=C(NCCCNC(=O)[C@@H]1CSCN1C(=O)c1cccc(Cl)c1)c1ccc(-c2c3nc(c(-c4ccccc4)c4ccc([nH]4)c(-c4ccccc4)c4nc(c(-c5ccccc5)c5ccc2[nH]5)C=C4)C=C3)cc1
REMARK SMILES IDX 5 1 4 2 3 3 1 4 2 5 24 7 25 8 71 9 26 10 70 11 27 12 28 13
REMARK SMILES IDX 29 14 64 15 30 16 69 17 63 18 65 19 31 20 68 21 62 22 61 23
REMARK SMILES IDX 32 25 54 26 39 27 53 28 40 29 43 30 52 31 66 32 41 33 42 34
REMARK SMILES IDX 51 36 67 37 44 38 33 39 34 40 38 41 35 42 37 43 36 44 55 45
REMARK SMILES IDX 56 46 60 47 57 48 59 49 58 50 45 51 46 52 50 53 47 54 49 55
REMARK SMILES IDX 48 56 6 57 7 58 8 59 9 61 10 62 11 63 14 64 12 65 13 66
REMARK SMILES IDX 15 67 16 68 17 69 18 70 23 71 19 72 21 73 20 74 22 75
REMARK H PARENT 3 6 65 24 43 35 7 60
REMARK Flexibility Score: inf
ROOT
ATOM      1  C   UNL A   1      33.861  28.665  25.848  1.00  0.00     0.042 C 
ENDROOT
BRANCH   1   2
ATOM      2  C   UNL A   1      33.482  28.843  27.314  1.00  0.00     0.118 C 
BRANCH   2   3
ATOM      3  N   UNL A   1      33.570  30.232  27.743  1.00  0.00    -0.352 N 
ATOM      4  O   UNL A   1      34.359  32.017  28.858  1.00  0.00    -0.269 OA
ATOM      5  C   UNL A   1      34.574  30.895  28.399  1.00  0.00     0.251 C 
ATOM      6  H   UNL A   1      32.782  30.782  27.529  1.00  0.00     0.163 HD
BRANCH   5   7
ATOM      7  C   UNL A   1      35.910  30.284  28.564  1.00  0.00     0.039 A 
ATOM      8  C   UNL A   1      36.864  30.351  27.545  1.00  0.00     0.014 A 
ATOM      9  C   UNL A   1      36.244  29.707  29.794  1.00  0.00     0.014 A 
ATOM     10  C   UNL A   1      38.109  29.756  27.716  1.00  0.00     0.010 A 
ATOM     11  C   UNL A   1      37.524  29.180  29.994  1.00  0.00     0.010 A 
ATOM     12  C   UNL A   1      38.464  29.197  28.954  1.00  0.00    -0.014 A 
BRANCH  12  13
ATOM     13  C   UNL A   1      39.864  28.761  29.181  1.00  0.00     0.031 A 
ATOM     14  C   UNL A   1      40.887  29.686  29.776  1.00  0.00     0.074 A 
ATOM     15  C   UNL A   1      40.206  27.508  28.824  1.00  0.00     0.049 A 
ATOM     16  N   UNL A   1      42.153  29.458  30.018  1.00  0.00    -0.248 NA
ATOM     17  C   UNL A   1      40.441  31.040  30.140  1.00  0.00     0.031 C 
ATOM     18  C   UNL A   1      39.300  26.526  28.220  1.00  0.00     0.029 A 
ATOM     19  N   UNL A   1      41.401  26.840  28.913  1.00  0.00    -0.354 N 
ATOM     20  C   UNL A   1      42.661  30.639  30.543  1.00  0.00     0.074 A 
ATOM     21  C   UNL A   1      41.569  31.589  30.573  1.00  0.00     0.031 C 
ATOM     22  C   UNL A   1      39.963  25.378  28.017  1.00  0.00     0.029 A 
ATOM     23  C   UNL A   1      41.353  25.562  28.412  1.00  0.00     0.049 A 
ATOM     24  H   UNL A   1      42.214  27.240  29.300  1.00  0.00     0.167 HD
ATOM     25  C   UNL A   1      43.923  30.901  30.957  1.00  0.00     0.031 A 
ATOM     26  C   UNL A   1      42.326  24.647  28.253  1.00  0.00     0.031 A 
ATOM     27  C   UNL A   1      45.001  29.948  30.928  1.00  0.00     0.049 A 
ATOM     28  C   UNL A   1      43.723  24.990  28.679  1.00  0.00     0.074 A 
ATOM     29  C   UNL A   1      46.296  30.101  31.397  1.00  0.00     0.029 A 
ATOM     30  N   UNL A   1      44.920  28.675  30.386  1.00  0.00    -0.354 N 
ATOM     31  N   UNL A   1      44.164  26.083  29.251  1.00  0.00    -0.248 NA
ATOM     32  C   UNL A   1      44.758  23.976  28.431  1.00  0.00     0.031 C 
ATOM     33  C   UNL A   1      47.015  28.946  31.076  1.00  0.00     0.029 A 
ATOM     34  C   UNL A   1      46.154  28.052  30.462  1.00  0.00     0.049 A 
ATOM     35  H   UNL A   1      44.106  28.274  30.005  1.00  0.00     0.167 HD
ATOM     36  C   UNL A   1      45.525  25.886  29.439  1.00  0.00     0.074 A 
ATOM     37  C   UNL A   1      45.829  24.558  28.949  1.00  0.00     0.031 C 
ATOM     38  C   UNL A   1      46.442  26.735  29.960  1.00  0.00     0.031 A 
BRANCH  25  39
ATOM     39  C   UNL A   1      44.234  32.284  31.456  1.00  0.00    -0.014 A 
ATOM     40  C   UNL A   1      44.527  33.333  30.571  1.00  0.00     0.009 A 
ATOM     41  C   UNL A   1      44.127  32.563  32.829  1.00  0.00     0.009 A 
ATOM     42  C   UNL A   1      44.720  34.630  31.054  1.00  0.00     0.001 A 
ATOM     43  C   UNL A   1      44.299  33.864  33.305  1.00  0.00     0.001 A 
ATOM     44  C   UNL A   1      44.597  34.896  32.417  1.00  0.00     0.000 A 
ENDBRANCH  25  39
BRANCH  26  45
ATOM     45  C   UNL A   1      42.024  23.343  27.605  1.00  0.00    -0.014 A 
ATOM     46  C   UNL A   1      42.224  23.159  26.230  1.00  0.00     0.009 A 
ATOM     47  C   UNL A   1      41.515  22.277  28.366  1.00  0.00     0.009 A 
ATOM     48  C   UNL A   1      41.891  21.945  25.624  1.00  0.00     0.001 A 
ATOM     49  C   UNL A   1      41.215  21.055  27.765  1.00  0.00     0.001 A 
ATOM     50  C   UNL A   1      41.390  20.893  26.393  1.00  0.00     0.000 A 
ENDBRANCH  26  45
BRANCH  38  51
ATOM     51  C   UNL A   1      47.859  26.246  30.032  1.00  0.00    -0.014 A 
ATOM     52  C   UNL A   1      48.711  26.340  28.920  1.00  0.00     0.009 A 
ATOM     53  C   UNL A   1      48.360  25.721  31.233  1.00  0.00     0.009 A 
ATOM     54  C   UNL A   1      50.031  25.892  29.004  1.00  0.00     0.001 A 
ATOM     55  C   UNL A   1      49.687  25.302  31.322  1.00  0.00     0.001 A 
ATOM     56  C   UNL A   1      50.519  25.380  30.206  1.00  0.00     0.000 A 
ENDBRANCH  38  51
ENDBRANCH  12  13
ENDBRANCH   5   7
ENDBRANCH   2   3
ENDBRANCH   1   2
BRANCH   1  57
ATOM     57  C   UNL A   1      33.623  27.253  25.322  1.00  0.00     0.117 C 
BRANCH  57  58
ATOM     58  N   UNL A   1      32.615  26.545  26.092  1.00  0.00    -0.354 N 
ATOM     59  C   UNL A   1      32.285  25.216  26.076  1.00  0.00     0.243 C 
ATOM     60  H   UNL A   1      32.095  27.100  26.717  1.00  0.00     0.163 HD
ATOM     61  O   UNL A   1      31.363  24.838  26.804  1.00  0.00    -0.273 OA
BRANCH  59  62
ATOM     62  C   UNL A   1      32.982  24.280  25.071  1.00  0.00     0.185 C 
ATOM     63  C   UNL A   1      32.191  24.295  23.763  1.00  0.00     0.106 C 
ATOM     64  N   UNL A   1      33.071  22.911  25.583  1.00  0.00    -0.317 N 
ATOM     65  S   UNL A   1      31.747  22.579  23.391  1.00  0.00    -0.138 SA
ATOM     66  C   UNL A   1      32.045  22.028  25.081  1.00  0.00     0.190 C 
BRANCH  64  67
ATOM     67  C   UNL A   1      34.030  22.616  26.535  1.00  0.00     0.255 C 
ATOM     68  O   UNL A   1      33.773  22.477  27.727  1.00  0.00    -0.269 OA
BRANCH  67  69
ATOM     69  C   UNL A   1      35.438  22.506  26.110  1.00  0.00     0.041 A 
ATOM     70  C   UNL A   1      36.267  23.634  26.173  1.00  0.00     0.014 A 
ATOM     71  C   UNL A   1      35.943  21.266  25.718  1.00  0.00     0.034 A 
ATOM     72  C   UNL A   1      37.602  23.532  25.785  1.00  0.00     0.002 A 
ATOM     73  C   UNL A   1      37.281  21.175  25.338  1.00  0.00     0.041 A 
ATOM     74  C   UNL A   1      38.107  22.302  25.361  1.00  0.00     0.020 A 
ATOM     75  Cl  UNL A   1      37.924  19.662  24.832  1.00  0.00    -0.084 Cl
ENDBRANCH  67  69
ENDBRANCH  64  67
ENDBRANCH  59  62
ENDBRANCH  57  58
ENDBRANCH   1  57
TORSDOF 12
ENDMDL
MODEL 2
REMARK VINA RESULT:     -10.6      2.349      7.409
REMARK SMILES O=C(NCCCNC(=O)[C@@H]1CSCN1C(=O)c1cccc(Cl)c1)c1ccc(-c2c3nc(c(-c4ccccc4)c4ccc([nH]4)c(-c4ccccc4)c4nc(c(-c5ccccc5)c5ccc2[nH]5)C=C4)C=C3)cc1
REMARK SMILES IDX 5 1 4 2 3 3 1 4 2 5 24 7 25 8 71 9 26 10 70 11 27 12 28 13
REMARK SMILES IDX 29 14 64 15 30 16 69 17 63 18 65 19 31 20 68 21 62 22 61 23
REMARK SMILES IDX 32 25 54 26 39 27 53 28 40 29 43 30 52 31 66 32 41 33 42 34
REMARK SMILES IDX 51 36 67 37 44 38 33 39 34 40 38 41 35 42 37 43 36 44 55 45
REMARK SMILES IDX 56 46 60 47 57 48 59 49 58 50 45 51 46 52 50 53 47 54 49 55
REMARK SMILES IDX 48 56 6 57 7 58 8 59 9 61 10 62 11 63 14 64 12 65 13 66
REMARK SMILES IDX 15 67 16 68 17 69 18 70 23 71 19 72 21 73 20 74 22 75
REMARK H PARENT 3 6 65 24 43 35 7 60
REMARK Flexibility Score: inf
ROOT
ATOM      1  C   UNL A   1      37.922  20.007  24.672  1.00  0.00     0.042 C 
ENDROOT
BRANCH   1   2
ATOM      2  C   UNL A   1      38.845  20.232  25.864  1.00  0.00     0.118 C 
BRANCH   2   3
ATOM      3  N   UNL A   1      39.946  19.279  25.899  1.00  0.00    -0.352 N 
ATOM      4  O   UNL A   1      42.076  18.563  25.874  1.00  0.00    -0.269 OA
ATOM      5  C   UNL A   1      41.288  19.481  26.094  1.00  0.00     0.251 C 
ATOM      6  H   UNL A   1      39.685  18.340  25.761  1.00  0.00     0.163 HD
BRANCH   5   7
ATOM      7  C   UNL A   1      41.801  20.786  26.562  1.00  0.00     0.039 A 
ATOM      8  C   UNL A   1      42.164  21.786  25.655  1.00  0.00     0.014 A 
ATOM      9  C   UNL A   1      41.837  21.047  27.936  1.00  0.00     0.014 A 
ATOM     10  C   UNL A   1      42.658  23.001  26.117  1.00  0.00     0.010 A 
ATOM     11  C   UNL A   1      42.258  22.297  28.399  1.00  0.00     0.010 A 
ATOM     12  C   UNL A   1      42.676  23.282  27.493  1.00  0.00    -0.014 A 
BRANCH  12  13
ATOM     13  C   UNL A   1      43.003  24.654  27.951  1.00  0.00     0.031 A 
ATOM     14  C   UNL A   1      41.930  25.671  28.214  1.00  0.00     0.074 A 
ATOM     15  C   UNL A   1      44.301  24.978  28.114  1.00  0.00     0.049 A 
ATOM     16  N   UNL A   1      42.059  26.915  28.600  1.00  0.00    -0.248 NA
ATOM     17  C   UNL A   1      40.536  25.246  28.014  1.00  0.00     0.031 C 
ATOM     18  C   UNL A   1      45.432  24.076  27.871  1.00  0.00     0.029 A 
ATOM     19  N   UNL A   1      44.894  26.146  28.520  1.00  0.00    -0.354 N 
ATOM     20  C   UNL A   1      40.770  27.429  28.670  1.00  0.00     0.074 A 
ATOM     21  C   UNL A   1      39.871  26.366  28.275  1.00  0.00     0.031 C 
ATOM     22  C   UNL A   1      46.576  24.715  28.156  1.00  0.00     0.029 A 
ATOM     23  C   UNL A   1      46.266  26.087  28.535  1.00  0.00     0.049 A 
ATOM     24  H   UNL A   1      44.384  26.949  28.775  1.00  0.00     0.167 HD
ATOM     25  C   UNL A   1      40.381  28.674  29.030  1.00  0.00     0.031 A 
ATOM     26  C   UNL A   1      47.181  27.039  28.791  1.00  0.00     0.031 A 
ATOM     27  C   UNL A   1      41.282  29.724  29.427  1.00  0.00     0.049 A 
ATOM     28  C   UNL A   1      46.713  28.421  29.140  1.00  0.00     0.074 A 
ATOM     29  C   UNL A   1      40.973  30.996  29.881  1.00  0.00     0.029 A 
ATOM     30  N   UNL A   1      42.664  29.635  29.401  1.00  0.00    -0.354 N 
ATOM     31  N   UNL A   1      45.487  28.864  29.283  1.00  0.00    -0.248 NA
ATOM     32  C   UNL A   1      47.752  29.438  29.355  1.00  0.00     0.031 C 
ATOM     33  C   UNL A   1      42.168  31.697  30.063  1.00  0.00     0.029 A 
ATOM     34  C   UNL A   1      43.222  30.844  29.780  1.00  0.00     0.049 A 
ATOM     35  H   UNL A   1      43.174  28.831  29.151  1.00  0.00     0.167 HD
ATOM     36  C   UNL A   1      45.609  30.206  29.613  1.00  0.00     0.074 A 
ATOM     37  C   UNL A   1      47.026  30.497  29.679  1.00  0.00     0.031 C 
ATOM     38  C   UNL A   1      44.633  31.120  29.830  1.00  0.00     0.031 A 
BRANCH  25  39
ATOM     39  C   UNL A   1      38.914  28.999  28.989  1.00  0.00    -0.014 A 
ATOM     40  C   UNL A   1      38.095  28.837  30.117  1.00  0.00     0.009 A 
ATOM     41  C   UNL A   1      38.368  29.577  27.830  1.00  0.00     0.009 A 
ATOM     42  C   UNL A   1      36.757  29.236  30.081  1.00  0.00     0.001 A 
ATOM     43  C   UNL A   1      37.036  29.995  27.805  1.00  0.00     0.001 A 
ATOM     44  C   UNL A   1      36.231  29.821  28.929  1.00  0.00     0.000 A 
ENDBRANCH  25  39
BRANCH  26  45
ATOM     45  C   UNL A   1      48.631  26.734  28.665  1.00  0.00    -0.014 A 
ATOM     46  C   UNL A   1      49.287  26.849  27.432  1.00  0.00     0.009 A 
ATOM     47  C   UNL A   1      49.362  26.307  29.786  1.00  0.00     0.009 A 
ATOM     48  C   UNL A   1      50.638  26.513  27.317  1.00  0.00     0.001 A 
ATOM     49  C   UNL A   1      50.719  26.004  29.676  1.00  0.00     0.001 A 
ATOM     50  C   UNL A   1      51.353  26.094  28.439  1.00  0.00     0.000 A 
ENDBRANCH  26  45
BRANCH  38  51
ATOM     51  C   UNL A   1      45.069  32.516  30.166  1.00  0.00    -0.014 A 
ATOM     52  C   UNL A   1      45.326  32.891  31.494  1.00  0.00     0.009 A 
ATOM     53  C   UNL A   1      45.262  33.456  29.141  1.00  0.00     0.009 A 
ATOM     54  C   UNL A   1      45.741  34.190  31.791  1.00  0.00     0.001 A 
ATOM     55  C   UNL A   1      45.706  34.744  29.440  1.00  0.00     0.001 A 
ATOM     56  C   UNL A   1      45.938  35.112  30.764  1.00  0.00     0.000 A 
ENDBRANCH  38  51
ENDBRANCH  12  13
ENDBRANCH   5   7
ENDBRANCH   2   3
ENDBRANCH   1   2
BRANCH   1  57
ATOM     57  C   UNL A   1      36.442  19.985  25.039  1.00  0.00     0.117 C 
BRANCH  57  58
ATOM     58  N   UNL A   1      36.048  21.162  25.795  1.00  0.00    -0.354 N 
ATOM     59  C   UNL A   1      35.095  22.102  25.505  1.00  0.00     0.243 C 
ATOM     60  H   UNL A   1      36.537  21.304  26.638  1.00  0.00     0.163 HD
ATOM     61  O   UNL A   1      34.952  23.044  26.289  1.00  0.00    -0.273 OA
BRANCH  59  62
ATOM     62  C   UNL A   1      34.335  22.015  24.168  1.00  0.00     0.185 C 
ATOM     63  C   UNL A   1      34.842  23.127  23.249  1.00  0.00     0.106 C 
ATOM     64  N   UNL A   1      32.890  22.147  24.360  1.00  0.00    -0.317 N 
ATOM     65  S   UNL A   1      33.400  24.105  22.755  1.00  0.00    -0.138 SA
ATOM     66  C   UNL A   1      32.382  23.474  24.102  1.00  0.00     0.190 C 
BRANCH  64  67
ATOM     67  C   UNL A   1      32.179  21.064  24.842  1.00  0.00     0.255 C 
ATOM     68  O   UNL A   1      31.346  21.152  25.740  1.00  0.00    -0.269 OA
BRANCH  67  69
ATOM     69  C   UNL A   1      32.463  19.728  24.288  1.00  0.00     0.041 A 
ATOM     70  C   UNL A   1      32.199  19.471  22.936  1.00  0.00     0.014 A 
ATOM     71  C   UNL A   1      33.054  18.758  25.099  1.00  0.00     0.034 A 
ATOM     72  C   UNL A   1      32.477  18.213  22.404  1.00  0.00     0.002 A 
ATOM     73  C   UNL A   1      33.334  17.506  24.554  1.00  0.00     0.041 A 
ATOM     74  C   UNL A   1      33.040  17.228  23.217  1.00  0.00     0.020 A 
ATOM     75  Cl  UNL A   1      34.046  16.287  25.537  1.00  0.00    -0.084 Cl
ENDBRANCH  67  69
ENDBRANCH  64  67
ENDBRANCH  59  62
ENDBRANCH  57  58
ENDBRANCH   1  57
TORSDOF 12
ENDMDL
MODEL 3
REMARK VINA RESULT:     -10.5      2.192      7.396
REMARK SMILES O=C(NCCCNC(=O)[C@@H]1CSCN1C(=O)c1cccc(Cl)c1)c1ccc(-c2c3nc(c(-c4ccccc4)c4ccc([nH]4)c(-c4ccccc4)c4nc(c(-c5ccccc5)c5ccc2[nH]5)C=C4)C=C3)cc1
REMARK SMILES IDX 5 1 4 2 3 3 1 4 2 5 24 7 25 8 71 9 26 10 70 11 27 12 28 13
REMARK SMILES IDX 29 14 64 15 30 16 69 17 63 18 65 19 31 20 68 21 62 22 61 23
REMARK SMILES IDX 32 25 54 26 39 27 53 28 40 29 43 30 52 31 66 32 41 33 42 34
REMARK SMILES IDX 51 36 67 37 44 38 33 39 34 40 38 41 35 42 37 43 36 44 55 45
REMARK SMILES IDX 56 46 60 47 57 48 59 49 58 50 45 51 46 52 50 53 47 54 49 55
REMARK SMILES IDX 48 56 6 57 7 58 8 59 9 61 10 62 11 63 14 64 12 65 13 66
REMARK SMILES IDX 15 67 16 68 17 69 18 70 23 71 19 72 21 73 20 74 22 75
REMARK H PARENT 3 6 65 24 43 35 7 60
REMARK Flexibility Score: inf
ROOT
ATOM      1  C   UNL A   1      37.842  20.109  24.628  1.00  0.00     0.042 C 
ENDROOT
BRANCH   1   2
ATOM      2  C   UNL A   1      38.804  20.422  25.768  1.00  0.00     0.118 C 
BRANCH   2   3
ATOM      3  N   UNL A   1      39.896  19.464  25.850  1.00  0.00    -0.352 N 
ATOM      4  O   UNL A   1      42.022  18.735  25.927  1.00  0.00    -0.269 OA
ATOM      5  C   UNL A   1      41.228  19.656  26.115  1.00  0.00     0.251 C 
ATOM      6  H   UNL A   1      39.638  18.527  25.689  1.00  0.00     0.163 HD
BRANCH   5   7
ATOM      7  C   UNL A   1      41.723  20.953  26.622  1.00  0.00     0.039 A 
ATOM      8  C   UNL A   1      42.200  21.935  25.748  1.00  0.00     0.014 A 
ATOM      9  C   UNL A   1      41.628  21.227  27.991  1.00  0.00     0.014 A 
ATOM     10  C   UNL A   1      42.675  23.142  26.248  1.00  0.00     0.010 A 
ATOM     11  C   UNL A   1      42.030  22.472  28.484  1.00  0.00     0.010 A 
ATOM     12  C   UNL A   1      42.560  23.437  27.616  1.00  0.00    -0.014 A 
BRANCH  12  13
ATOM     13  C   UNL A   1      42.873  24.806  28.095  1.00  0.00     0.031 A 
ATOM     14  C   UNL A   1      44.268  25.202  28.484  1.00  0.00     0.074 A 
ATOM     15  C   UNL A   1      41.863  25.693  28.188  1.00  0.00     0.049 A 
ATOM     16  N   UNL A   1      44.696  26.353  28.938  1.00  0.00    -0.248 NA
ATOM     17  C   UNL A   1      45.319  24.180  28.356  1.00  0.00     0.031 C 
ATOM     18  C   UNL A   1      40.463  25.416  27.855  1.00  0.00     0.029 A 
ATOM     19  N   UNL A   1      41.851  27.005  28.590  1.00  0.00    -0.354 N 
ATOM     20  C   UNL A   1      46.056  26.192  29.169  1.00  0.00     0.074 A 
ATOM     21  C   UNL A   1      46.383  24.826  28.818  1.00  0.00     0.031 C 
ATOM     22  C   UNL A   1      39.735  26.526  28.040  1.00  0.00     0.029 A 
ATOM     23  C   UNL A   1      40.600  27.573  28.568  1.00  0.00     0.049 A 
ATOM     24  H   UNL A   1      42.661  27.492  28.865  1.00  0.00     0.167 HD
ATOM     25  C   UNL A   1      46.943  27.103  29.634  1.00  0.00     0.031 A 
ATOM     26  C   UNL A   1      40.184  28.789  28.963  1.00  0.00     0.031 A 
ATOM     27  C   UNL A   1      46.609  28.460  29.976  1.00  0.00     0.049 A 
ATOM     28  C   UNL A   1      41.188  29.756  29.519  1.00  0.00     0.074 A 
ATOM     29  C   UNL A   1      47.457  29.477  30.384  1.00  0.00     0.029 A 
ATOM     30  N   UNL A   1      45.328  28.987  29.970  1.00  0.00    -0.354 N 
ATOM     31  N   UNL A   1      42.484  29.612  29.650  1.00  0.00    -0.248 NA
ATOM     32  C   UNL A   1      40.672  31.049  29.988  1.00  0.00     0.031 C 
ATOM     33  C   UNL A   1      46.679  30.598  30.690  1.00  0.00     0.029 A 
ATOM     34  C   UNL A   1      45.355  30.297  30.416  1.00  0.00     0.049 A 
ATOM     35  H   UNL A   1      44.518  28.503  29.689  1.00  0.00     0.167 HD
ATOM     36  C   UNL A   1      42.939  30.798  30.208  1.00  0.00     0.074 A 
ATOM     37  C   UNL A   1      41.786  31.661  30.361  1.00  0.00     0.031 C 
ATOM     38  C   UNL A   1      44.198  31.138  30.572  1.00  0.00     0.031 A 
BRANCH  25  39
ATOM     39  C   UNL A   1      48.367  26.668  29.835  1.00  0.00    -0.014 A 
ATOM     40  C   UNL A   1      48.773  26.008  31.005  1.00  0.00     0.009 A 
ATOM     41  C   UNL A   1      49.293  26.829  28.790  1.00  0.00     0.009 A 
ATOM     42  C   UNL A   1      50.080  25.530  31.129  1.00  0.00     0.001 A 
ATOM     43  C   UNL A   1      50.591  26.330  28.908  1.00  0.00     0.001 A 
ATOM     44  C   UNL A   1      50.985  25.683  30.078  1.00  0.00     0.000 A 
ENDBRANCH  25  39
BRANCH  26  45
ATOM     45  C   UNL A   1      38.740  29.138  28.906  1.00  0.00    -0.014 A 
ATOM     46  C   UNL A   1      38.165  29.638  27.729  1.00  0.00     0.009 A 
ATOM     47  C   UNL A   1      37.931  28.987  30.045  1.00  0.00     0.009 A 
ATOM     48  C   UNL A   1      36.818  30.008  27.703  1.00  0.00     0.001 A 
ATOM     49  C   UNL A   1      36.579  29.326  30.007  1.00  0.00     0.001 A 
ATOM     50  C   UNL A   1      36.026  29.849  28.840  1.00  0.00     0.000 A 
ENDBRANCH  26  45
BRANCH  38  51
ATOM     51  C   UNL A   1      44.391  32.504  31.165  1.00  0.00    -0.014 A 
ATOM     52  C   UNL A   1      44.333  32.701  32.553  1.00  0.00     0.009 A 
ATOM     53  C   UNL A   1      44.672  33.596  30.330  1.00  0.00     0.009 A 
ATOM     54  C   UNL A   1      44.526  33.975  33.092  1.00  0.00     0.001 A 
ATOM     55  C   UNL A   1      44.893  34.862  30.874  1.00  0.00     0.001 A 
ATOM     56  C   UNL A   1      44.812  35.052  32.253  1.00  0.00     0.000 A 
ENDBRANCH  38  51
ENDBRANCH  12  13
ENDBRANCH   5   7
ENDBRANCH   2   3
ENDBRANCH   1   2
BRANCH   1  57
ATOM     57  C   UNL A   1      36.375  20.119  25.045  1.00  0.00     0.117 C 
BRANCH  57  58
ATOM     58  N   UNL A   1      36.011  21.343  25.739  1.00  0.00    -0.354 N 
ATOM     59  C   UNL A   1      35.074  22.284  25.405  1.00  0.00     0.243 C 
ATOM     60  H   UNL A   1      36.509  21.521  26.569  1.00  0.00     0.163 HD
ATOM     61  O   UNL A   1      34.956  23.270  26.137  1.00  0.00    -0.273 OA
BRANCH  59  62
ATOM     62  C   UNL A   1      34.301  22.139  24.081  1.00  0.00     0.185 C 
ATOM     63  C   UNL A   1      34.771  23.234  23.122  1.00  0.00     0.106 C 
ATOM     64  N   UNL A   1      32.855  22.245  24.286  1.00  0.00    -0.317 N 
ATOM     65  S   UNL A   1      33.301  24.164  22.617  1.00  0.00    -0.138 SA
ATOM     66  C   UNL A   1      32.314  23.552  23.995  1.00  0.00     0.190 C 
BRANCH  64  67
ATOM     67  C   UNL A   1      32.175  21.162  24.810  1.00  0.00     0.255 C 
ATOM     68  O   UNL A   1      31.371  21.254  25.734  1.00  0.00    -0.269 OA
BRANCH  67  69
ATOM     69  C   UNL A   1      32.457  19.820  24.268  1.00  0.00     0.041 A 
ATOM     70  C   UNL A   1      32.201  19.553  22.916  1.00  0.00     0.014 A 
ATOM     71  C   UNL A   1      33.039  18.854  25.090  1.00  0.00     0.034 A 
ATOM     72  C   UNL A   1      32.478  18.290  22.396  1.00  0.00     0.002 A 
ATOM     73  C   UNL A   1      33.317  17.597  24.558  1.00  0.00     0.041 A 
ATOM     74  C   UNL A   1      33.031  17.309  23.221  1.00  0.00     0.020 A 
ATOM     75  Cl  UNL A   1      34.017  16.383  25.555  1.00  0.00    -0.084 Cl
ENDBRANCH  67  69
ENDBRANCH  64  67
ENDBRANCH  59  62
ENDBRANCH  57  58
ENDBRANCH   1  57
TORSDOF 12
ENDMDL
