MODEL 1
REMARK VINA RESULT:     -12.2      0.000      0.000
REMARK SMILES COc1ccc(-c2cc(F)cc(C(=O)NCCCNC(=O)c3ccc(-c4c5nc(c(-c6ccccc6)c6ccc([nH]6)c(-c6ccccc6)c6nc(c(-c7ccccc7)c7ccc4[nH]7)C=C6)C=C5)cc3)c2)cc1C
REMARK SMILES IDX 17 1 16 2 15 3 13 4 14 5 12 7 7 8 8 9 70 10 9 11 10 12 11 13
REMARK SMILES IDX 6 14 3 15 4 16 72 17 5 18 71 19 73 20 2 21 1 22 18 23 19 24
REMARK SMILES IDX 20 25 21 27 22 28 23 29 69 30 24 31 68 32 25 33 26 34 27 35
REMARK SMILES IDX 62 36 28 37 67 38 61 39 63 40 29 41 66 42 60 43 59 44 30 46
REMARK SMILES IDX 52 47 37 48 51 49 38 50 41 51 50 52 64 53 39 54 40 55 49 57
REMARK SMILES IDX 65 58 42 59 31 60 32 61 36 62 33 63 35 64 34 65 53 66 54 67
REMARK SMILES IDX 58 68 55 69 57 70 56 71 43 72 44 73 48 74 45 75 47 76 46 77
REMARK H PARENT 15 6 19 26 63 45 41 56
REMARK Flexibility Score: inf
ROOT
ATOM      1  C   UNL A   1      38.646  21.369  25.560  1.00  0.00     0.042 C 
ENDROOT
BRANCH   1   2
ATOM      2  C   UNL A   1      37.203  21.207  25.076  1.00  0.00     0.118 C 
BRANCH   2   3
ATOM      3  N   UNL A   1      36.241  21.345  26.160  1.00  0.00    -0.352 N 
ATOM      4  C   UNL A   1      35.052  22.021  26.295  1.00  0.00     0.251 C 
ATOM      5  O   UNL A   1      34.450  21.856  27.358  1.00  0.00    -0.269 OA
ATOM      6  H   UNL A   1      36.497  20.847  26.971  1.00  0.00     0.163 HD
BRANCH   4   7
ATOM      7  C   UNL A   1      34.451  22.937  25.269  1.00  0.00     0.043 A 
ATOM      8  C   UNL A   1      33.598  25.203  24.794  1.00  0.00    -0.015 A 
ATOM      9  C   UNL A   1      33.397  24.826  23.462  1.00  0.00     0.048 A 
ATOM     10  C   UNL A   1      34.137  24.252  25.683  1.00  0.00     0.022 A 
ATOM     11  C   UNL A   1      33.702  23.543  23.051  1.00  0.00     0.124 A 
ATOM     12  F   UNL A   1      33.509  23.193  21.773  1.00  0.00    -0.207 F 
ATOM     13  C   UNL A   1      34.212  22.604  23.939  1.00  0.00     0.053 A 
BRANCH   8  14
ATOM     14  C   UNL A   1      33.243  26.564  25.215  1.00  0.00    -0.018 A 
ATOM     15  C   UNL A   1      32.657  29.248  25.815  1.00  0.00     0.121 A 
ATOM     16  C   UNL A   1      33.719  28.600  26.450  1.00  0.00     0.047 A 
ATOM     17  C   UNL A   1      31.880  28.580  24.865  1.00  0.00    -0.008 A 
ATOM     18  C   UNL A   1      34.005  27.264  26.159  1.00  0.00     0.012 A 
ATOM     19  C   UNL A   1      32.168  27.233  24.598  1.00  0.00     0.016 A 
ATOM     20  C   UNL A   1      30.759  29.247  24.123  1.00  0.00     0.048 C 
BRANCH  15  21
ATOM     21  O   UNL A   1      32.496  30.581  26.086  1.00  0.00    -0.496 OA
ATOM     22  C   UNL A   1      33.122  30.947  27.315  1.00  0.00     0.278 C 
ENDBRANCH  15  21
ENDBRANCH   8  14
ENDBRANCH   4   7
ENDBRANCH   2   3
ENDBRANCH   1   2
BRANCH   1  23
ATOM     23  C   UNL A   1      38.961  22.754  26.100  1.00  0.00     0.118 C 
BRANCH  23  24
ATOM     24  N   UNL A   1      40.348  22.912  26.531  1.00  0.00    -0.352 N 
ATOM     25  C   UNL A   1      40.986  24.046  27.003  1.00  0.00     0.251 C 
ATOM     26  H   UNL A   1      40.905  22.101  26.480  1.00  0.00     0.163 HD
ATOM     27  O   UNL A   1      42.164  24.015  27.322  1.00  0.00    -0.269 OA
BRANCH  25  28
ATOM     28  C   UNL A   1      40.176  25.263  27.239  1.00  0.00     0.039 A 
ATOM     29  C   UNL A   1      40.519  26.410  26.517  1.00  0.00     0.014 A 
ATOM     30  C   UNL A   1      39.303  25.335  28.322  1.00  0.00     0.014 A 
ATOM     31  C   UNL A   1      40.203  27.655  27.044  1.00  0.00     0.010 A 
ATOM     32  C   UNL A   1      39.064  26.569  28.894  1.00  0.00     0.010 A 
ATOM     33  C   UNL A   1      39.589  27.719  28.296  1.00  0.00    -0.014 A 
BRANCH  33  34
ATOM     34  C   UNL A   1      39.611  28.929  29.108  1.00  0.00     0.031 A 
ATOM     35  C   UNL A   1      38.635  30.006  28.881  1.00  0.00     0.074 A 
ATOM     36  C   UNL A   1      40.545  29.059  30.076  1.00  0.00     0.049 A 
ATOM     37  N   UNL A   1      38.844  31.247  29.171  1.00  0.00    -0.248 NA
ATOM     38  C   UNL A   1      37.361  29.773  28.213  1.00  0.00     0.031 C 
ATOM     39  C   UNL A   1      40.614  30.071  31.124  1.00  0.00     0.029 A 
ATOM     40  N   UNL A   1      41.775  28.407  30.140  1.00  0.00    -0.354 N 
ATOM     41  C   UNL A   1      37.649  31.909  29.017  1.00  0.00     0.074 A 
ATOM     42  C   UNL A   1      36.802  30.983  28.302  1.00  0.00     0.031 C 
ATOM     43  C   UNL A   1      41.881  30.154  31.561  1.00  0.00     0.029 A 
ATOM     44  C   UNL A   1      42.696  29.301  30.709  1.00  0.00     0.049 A 
ATOM     45  H   UNL A   1      41.965  27.487  29.841  1.00  0.00     0.167 HD
ATOM     46  C   UNL A   1      37.465  33.104  29.648  1.00  0.00     0.031 A 
ATOM     47  C   UNL A   1      43.788  29.719  30.008  1.00  0.00     0.031 A 
ATOM     48  C   UNL A   1      38.712  33.607  30.231  1.00  0.00     0.049 A 
ATOM     49  C   UNL A   1      43.817  31.210  29.742  1.00  0.00     0.074 A 
ATOM     50  C   UNL A   1      39.206  33.660  31.524  1.00  0.00     0.029 A 
ATOM     51  N   UNL A   1      39.782  33.900  29.391  1.00  0.00    -0.354 N 
ATOM     52  N   UNL A   1      42.797  32.007  29.900  1.00  0.00    -0.248 NA
ATOM     53  C   UNL A   1      44.990  31.905  29.212  1.00  0.00     0.031 C 
ATOM     54  C   UNL A   1      40.605  33.899  31.449  1.00  0.00     0.029 A 
ATOM     55  C   UNL A   1      40.952  34.026  30.116  1.00  0.00     0.049 A 
ATOM     56  H   UNL A   1      39.716  34.003  28.415  1.00  0.00     0.167 HD
ATOM     57  C   UNL A   1      43.127  33.264  29.466  1.00  0.00     0.074 A 
ATOM     58  C   UNL A   1      44.521  33.158  29.079  1.00  0.00     0.031 C 
ATOM     59  C   UNL A   1      42.214  34.279  29.430  1.00  0.00     0.031 A 
BRANCH  46  60
ATOM     60  C   UNL A   1      36.099  33.672  29.982  1.00  0.00    -0.014 A 
ATOM     61  C   UNL A   1      35.287  34.180  28.948  1.00  0.00     0.009 A 
ATOM     62  C   UNL A   1      35.586  33.828  31.281  1.00  0.00     0.009 A 
ATOM     63  C   UNL A   1      34.092  34.870  29.207  1.00  0.00     0.001 A 
ATOM     64  C   UNL A   1      34.404  34.533  31.552  1.00  0.00     0.001 A 
ATOM     65  C   UNL A   1      33.662  35.066  30.513  1.00  0.00     0.000 A 
ENDBRANCH  46  60
BRANCH  47  66
ATOM     66  C   UNL A   1      44.341  28.693  29.080  1.00  0.00    -0.014 A 
ATOM     67  C   UNL A   1      45.049  27.603  29.627  1.00  0.00     0.009 A 
ATOM     68  C   UNL A   1      43.905  28.607  27.751  1.00  0.00     0.009 A 
ATOM     69  C   UNL A   1      45.223  26.423  28.898  1.00  0.00     0.001 A 
ATOM     70  C   UNL A   1      44.091  27.425  27.021  1.00  0.00     0.001 A 
ATOM     71  C   UNL A   1      44.719  26.325  27.605  1.00  0.00     0.000 A 
ENDBRANCH  47  66
BRANCH  59  72
ATOM     72  C   UNL A   1      42.422  35.627  28.781  1.00  0.00    -0.014 A 
ATOM     73  C   UNL A   1      41.841  36.021  27.568  1.00  0.00     0.009 A 
ATOM     74  C   UNL A   1      43.141  36.617  29.489  1.00  0.00     0.009 A 
ATOM     75  C   UNL A   1      42.013  37.318  27.062  1.00  0.00     0.001 A 
ATOM     76  C   UNL A   1      43.274  37.924  29.011  1.00  0.00     0.001 A 
ATOM     77  C   UNL A   1      42.721  38.270  27.787  1.00  0.00     0.000 A 
ENDBRANCH  59  72
ENDBRANCH  33  34
ENDBRANCH  25  28
ENDBRANCH  23  24
ENDBRANCH   1  23
TORSDOF 12
ENDMDL
MODEL 2
REMARK VINA RESULT:     -12.0      3.276      8.996
REMARK SMILES COc1ccc(-c2cc(F)cc(C(=O)NCCCNC(=O)c3ccc(-c4c5nc(c(-c6ccccc6)c6ccc([nH]6)c(-c6ccccc6)c6nc(c(-c7ccccc7)c7ccc4[nH]7)C=C6)C=C5)cc3)c2)cc1C
REMARK SMILES IDX 17 1 16 2 15 3 13 4 14 5 12 7 7 8 8 9 70 10 9 11 10 12 11 13
REMARK SMILES IDX 6 14 3 15 4 16 72 17 5 18 71 19 73 20 2 21 1 22 18 23 19 24
REMARK SMILES IDX 20 25 21 27 22 28 23 29 69 30 24 31 68 32 25 33 26 34 27 35
REMARK SMILES IDX 62 36 28 37 67 38 61 39 63 40 29 41 66 42 60 43 59 44 30 46
REMARK SMILES IDX 52 47 37 48 51 49 38 50 41 51 50 52 64 53 39 54 40 55 49 57
REMARK SMILES IDX 65 58 42 59 31 60 32 61 36 62 33 63 35 64 34 65 53 66 54 67
REMARK SMILES IDX 58 68 55 69 57 70 56 71 43 72 44 73 48 74 45 75 47 76 46 77
REMARK H PARENT 15 6 19 26 63 45 41 56
REMARK Flexibility Score: inf
ROOT
ATOM      1  C   UNL A   1      32.537  31.355  27.270  1.00  0.00     0.042 C 
ENDROOT
BRANCH   1   2
ATOM      2  C   UNL A   1      31.853  30.427  26.263  1.00  0.00     0.118 C 
BRANCH   2   3
ATOM      3  N   UNL A   1      32.728  30.075  25.156  1.00  0.00    -0.352 N 
ATOM      4  C   UNL A   1      32.992  28.902  24.488  1.00  0.00     0.251 C 
ATOM      5  O   UNL A   1      33.760  28.984  23.527  1.00  0.00    -0.269 OA
ATOM      6  H   UNL A   1      33.241  30.841  24.809  1.00  0.00     0.163 HD
BRANCH   4   7
ATOM      7  C   UNL A   1      32.437  27.555  24.844  1.00  0.00     0.043 A 
ATOM      8  C   UNL A   1      32.953  25.206  25.398  1.00  0.00    -0.015 A 
ATOM      9  C   UNL A   1      31.588  24.975  25.602  1.00  0.00     0.048 A 
ATOM     10  C   UNL A   1      33.363  26.503  25.032  1.00  0.00     0.022 A 
ATOM     11  C   UNL A   1      30.677  25.999  25.420  1.00  0.00     0.124 A 
ATOM     12  F   UNL A   1      29.374  25.768  25.620  1.00  0.00    -0.207 F 
ATOM     13  C   UNL A   1      31.088  27.268  25.037  1.00  0.00     0.053 A 
BRANCH   8  14
ATOM     14  C   UNL A   1      33.901  24.098  25.573  1.00  0.00    -0.018 A 
ATOM     15  C   UNL A   1      35.774  22.004  25.676  1.00  0.00     0.121 A 
ATOM     16  C   UNL A   1      34.407  21.724  25.646  1.00  0.00     0.047 A 
ATOM     17  C   UNL A   1      36.233  23.324  25.643  1.00  0.00    -0.008 A 
ATOM     18  C   UNL A   1      33.474  22.764  25.603  1.00  0.00     0.012 A 
ATOM     19  C   UNL A   1      35.284  24.357  25.620  1.00  0.00     0.016 A 
ATOM     20  C   UNL A   1      37.692  23.673  25.627  1.00  0.00     0.048 C 
BRANCH  15  21
ATOM     21  O   UNL A   1      36.625  20.932  25.626  1.00  0.00    -0.496 OA
ATOM     22  C   UNL A   1      36.055  19.842  24.905  1.00  0.00     0.278 C 
ENDBRANCH  15  21
ENDBRANCH   8  14
ENDBRANCH   4   7
ENDBRANCH   2   3
ENDBRANCH   1   2
BRANCH   1  23
ATOM     23  C   UNL A   1      33.960  30.945  27.615  1.00  0.00     0.118 C 
BRANCH  23  24
ATOM     24  N   UNL A   1      34.529  31.694  28.733  1.00  0.00    -0.352 N 
ATOM     25  C   UNL A   1      35.641  31.394  29.500  1.00  0.00     0.251 C 
ATOM     26  H   UNL A   1      34.058  32.525  28.972  1.00  0.00     0.163 HD
ATOM     27  O   UNL A   1      35.988  32.129  30.412  1.00  0.00    -0.269 OA
BRANCH  25  28
ATOM     28  C   UNL A   1      36.477  30.237  29.108  1.00  0.00     0.039 A 
ATOM     29  C   UNL A   1      36.779  29.301  30.101  1.00  0.00     0.014 A 
ATOM     30  C   UNL A   1      37.153  30.231  27.889  1.00  0.00     0.014 A 
ATOM     31  C   UNL A   1      37.934  28.538  29.976  1.00  0.00     0.010 A 
ATOM     32  C   UNL A   1      38.346  29.541  27.802  1.00  0.00     0.010 A 
ATOM     33  C   UNL A   1      38.772  28.763  28.883  1.00  0.00    -0.014 A 
BRANCH  33  34
ATOM     34  C   UNL A   1      40.170  28.351  28.883  1.00  0.00     0.031 A 
ATOM     35  C   UNL A   1      40.564  27.023  28.385  1.00  0.00     0.074 A 
ATOM     36  C   UNL A   1      41.111  29.200  29.352  1.00  0.00     0.049 A 
ATOM     37  N   UNL A   1      41.623  26.391  28.765  1.00  0.00    -0.248 NA
ATOM     38  C   UNL A   1      39.727  26.257  27.470  1.00  0.00     0.031 C 
ATOM     39  C   UNL A   1      42.561  29.077  29.249  1.00  0.00     0.029 A 
ATOM     40  N   UNL A   1      40.913  30.251  30.246  1.00  0.00    -0.354 N 
ATOM     41  C   UNL A   1      41.766  25.300  27.941  1.00  0.00     0.074 A 
ATOM     42  C   UNL A   1      40.503  25.193  27.247  1.00  0.00     0.031 C 
ATOM     43  C   UNL A   1      43.127  29.823  30.211  1.00  0.00     0.029 A 
ATOM     44  C   UNL A   1      42.058  30.335  31.055  1.00  0.00     0.049 A 
ATOM     45  H   UNL A   1      40.117  30.830  30.301  1.00  0.00     0.167 HD
ATOM     46  C   UNL A   1      42.989  24.708  27.828  1.00  0.00     0.031 A 
ATOM     47  C   UNL A   1      41.974  30.149  32.404  1.00  0.00     0.031 A 
ATOM     48  C   UNL A   1      43.935  25.224  28.820  1.00  0.00     0.049 A 
ATOM     49  C   UNL A   1      42.759  28.957  32.911  1.00  0.00     0.074 A 
ATOM     50  C   UNL A   1      45.001  26.107  28.752  1.00  0.00     0.029 A 
ATOM     51  N   UNL A   1      43.664  25.043  30.173  1.00  0.00    -0.354 N 
ATOM     52  N   UNL A   1      43.247  28.017  32.150  1.00  0.00    -0.248 NA
ATOM     53  C   UNL A   1      42.996  28.702  34.331  1.00  0.00     0.031 C 
ATOM     54  C   UNL A   1      45.310  26.525  30.075  1.00  0.00     0.029 A 
ATOM     55  C   UNL A   1      44.458  25.870  30.946  1.00  0.00     0.049 A 
ATOM     56  H   UNL A   1      43.000  24.412  30.530  1.00  0.00     0.167 HD
ATOM     57  C   UNL A   1      43.800  27.036  32.930  1.00  0.00     0.074 A 
ATOM     58  C   UNL A   1      43.650  27.528  34.288  1.00  0.00     0.031 C 
ATOM     59  C   UNL A   1      44.303  25.884  32.396  1.00  0.00     0.031 A 
BRANCH  46  60
ATOM     60  C   UNL A   1      43.406  23.871  26.633  1.00  0.00    -0.014 A 
ATOM     61  C   UNL A   1      43.240  22.473  26.674  1.00  0.00     0.009 A 
ATOM     62  C   UNL A   1      44.048  24.367  25.486  1.00  0.00     0.009 A 
ATOM     63  C   UNL A   1      43.758  21.629  25.678  1.00  0.00     0.001 A 
ATOM     64  C   UNL A   1      44.587  23.533  24.496  1.00  0.00     0.001 A 
ATOM     65  C   UNL A   1      44.453  22.159  24.599  1.00  0.00     0.000 A 
ENDBRANCH  46  60
BRANCH  47  66
ATOM     66  C   UNL A   1      40.697  30.626  33.003  1.00  0.00    -0.014 A 
ATOM     67  C   UNL A   1      40.500  32.014  33.151  1.00  0.00     0.009 A 
ATOM     68  C   UNL A   1      39.587  29.779  33.112  1.00  0.00     0.009 A 
ATOM     69  C   UNL A   1      39.215  32.545  33.299  1.00  0.00     0.001 A 
ATOM     70  C   UNL A   1      38.301  30.314  33.270  1.00  0.00     0.001 A 
ATOM     71  C   UNL A   1      38.113  31.695  33.331  1.00  0.00     0.000 A 
ENDBRANCH  47  66
BRANCH  59  72
ATOM     72  C   UNL A   1      44.737  24.668  33.179  1.00  0.00    -0.014 A 
ATOM     73  C   UNL A   1      46.042  24.444  33.638  1.00  0.00     0.009 A 
ATOM     74  C   UNL A   1      43.753  23.744  33.597  1.00  0.00     0.009 A 
ATOM     75  C   UNL A   1      46.359  23.329  34.428  1.00  0.00     0.001 A 
ATOM     76  C   UNL A   1      44.056  22.658  34.424  1.00  0.00     0.001 A 
ATOM     77  C   UNL A   1      45.364  22.443  34.828  1.00  0.00     0.000 A 
ENDBRANCH  59  72
ENDBRANCH  33  34
ENDBRANCH  25  28
ENDBRANCH  23  24
ENDBRANCH   1  23
TORSDOF 12
ENDMDL
MODEL 3
REMARK VINA RESULT:     -11.7      0.948      1.482
REMARK SMILES COc1ccc(-c2cc(F)cc(C(=O)NCCCNC(=O)c3ccc(-c4c5nc(c(-c6ccccc6)c6ccc([nH]6)c(-c6ccccc6)c6nc(c(-c7ccccc7)c7ccc4[nH]7)C=C6)C=C5)cc3)c2)cc1C
REMARK SMILES IDX 17 1 16 2 15 3 13 4 14 5 12 7 7 8 8 9 70 10 9 11 10 12 11 13
REMARK SMILES IDX 6 14 3 15 4 16 72 17 5 18 71 19 73 20 2 21 1 22 18 23 19 24
REMARK SMILES IDX 20 25 21 27 22 28 23 29 69 30 24 31 68 32 25 33 26 34 27 35
REMARK SMILES IDX 62 36 28 37 67 38 61 39 63 40 29 41 66 42 60 43 59 44 30 46
REMARK SMILES IDX 52 47 37 48 51 49 38 50 41 51 50 52 64 53 39 54 40 55 49 57
REMARK SMILES IDX 65 58 42 59 31 60 32 61 36 62 33 63 35 64 34 65 53 66 54 67
REMARK SMILES IDX 58 68 55 69 57 70 56 71 43 72 44 73 48 74 45 75 47 76 46 77
REMARK H PARENT 15 6 19 26 63 45 41 56
REMARK Flexibility Score: inf
ROOT
ATOM      1  C   UNL A   1      37.969  22.143  25.014  1.00  0.00     0.042 C 
ENDROOT
BRANCH   1   2
ATOM      2  C   UNL A   1      36.949  21.003  25.073  1.00  0.00     0.118 C 
BRANCH   2   3
ATOM      3  N   UNL A   1      35.961  21.203  26.123  1.00  0.00    -0.352 N 
ATOM      4  C   UNL A   1      34.765  21.878  26.187  1.00  0.00     0.251 C 
ATOM      5  O   UNL A   1      34.139  21.777  27.244  1.00  0.00    -0.269 OA
ATOM      6  H   UNL A   1      36.201  20.759  26.970  1.00  0.00     0.163 HD
BRANCH   4   7
ATOM      7  C   UNL A   1      34.184  22.723  25.092  1.00  0.00     0.043 A 
ATOM      8  C   UNL A   1      33.567  25.000  24.368  1.00  0.00    -0.015 A 
ATOM      9  C   UNL A   1      33.197  24.482  23.122  1.00  0.00     0.048 A 
ATOM     10  C   UNL A   1      34.070  24.110  25.338  1.00  0.00     0.022 A 
ATOM     11  C   UNL A   1      33.306  23.127  22.875  1.00  0.00     0.124 A 
ATOM     12  F   UNL A   1      32.951  22.642  21.679  1.00  0.00    -0.207 F 
ATOM     13  C   UNL A   1      33.781  22.254  23.845  1.00  0.00     0.053 A 
BRANCH   8  14
ATOM     14  C   UNL A   1      33.420  26.440  24.618  1.00  0.00    -0.018 A 
ATOM     15  C   UNL A   1      32.998  29.139  25.281  1.00  0.00     0.121 A 
ATOM     16  C   UNL A   1      32.352  28.575  24.179  1.00  0.00     0.047 A 
ATOM     17  C   UNL A   1      33.851  28.370  26.077  1.00  0.00    -0.008 A 
ATOM     18  C   UNL A   1      32.568  27.237  23.843  1.00  0.00     0.012 A 
ATOM     19  C   UNL A   1      34.073  27.033  25.715  1.00  0.00     0.016 A 
ATOM     20  C   UNL A   1      34.531  28.918  27.297  1.00  0.00     0.048 C 
BRANCH  15  21
ATOM     21  O   UNL A   1      32.666  30.429  25.598  1.00  0.00    -0.496 OA
ATOM     22  C   UNL A   1      31.660  30.481  26.607  1.00  0.00     0.278 C 
ENDBRANCH  15  21
ENDBRANCH   8  14
ENDBRANCH   4   7
ENDBRANCH   2   3
ENDBRANCH   1   2
BRANCH   1  23
ATOM     23  C   UNL A   1      38.624  22.452  26.350  1.00  0.00     0.118 C 
BRANCH  23  24
ATOM     24  N   UNL A   1      40.078  22.582  26.272  1.00  0.00    -0.352 N 
ATOM     25  C   UNL A   1      40.856  23.714  26.437  1.00  0.00     0.251 C 
ATOM     26  H   UNL A   1      40.570  21.752  26.075  1.00  0.00     0.163 HD
ATOM     27  O   UNL A   1      42.072  23.657  26.335  1.00  0.00    -0.269 OA
BRANCH  25  28
ATOM     28  C   UNL A   1      40.197  24.966  26.873  1.00  0.00     0.039 A 
ATOM     29  C   UNL A   1      40.577  26.146  26.229  1.00  0.00     0.014 A 
ATOM     30  C   UNL A   1      39.448  25.001  28.048  1.00  0.00     0.014 A 
ATOM     31  C   UNL A   1      40.437  27.354  26.902  1.00  0.00     0.010 A 
ATOM     32  C   UNL A   1      39.389  26.185  28.755  1.00  0.00     0.010 A 
ATOM     33  C   UNL A   1      39.961  27.341  28.213  1.00  0.00    -0.014 A 
BRANCH  33  34
ATOM     34  C   UNL A   1      40.182  28.454  29.128  1.00  0.00     0.031 A 
ATOM     35  C   UNL A   1      39.170  29.510  29.287  1.00  0.00     0.074 A 
ATOM     36  C   UNL A   1      41.334  28.514  29.831  1.00  0.00     0.049 A 
ATOM     37  N   UNL A   1      39.435  30.718  29.656  1.00  0.00    -0.248 NA
ATOM     38  C   UNL A   1      37.768  29.301  28.947  1.00  0.00     0.031 C 
ATOM     39  C   UNL A   1      41.664  29.406  30.937  1.00  0.00     0.029 A 
ATOM     40  N   UNL A   1      42.545  27.907  29.499  1.00  0.00    -0.354 N 
ATOM     41  C   UNL A   1      38.235  31.346  29.894  1.00  0.00     0.074 A 
ATOM     42  C   UNL A   1      37.240  30.470  29.318  1.00  0.00     0.031 C 
ATOM     43  C   UNL A   1      43.000  29.490  31.040  1.00  0.00     0.029 A 
ATOM     44  C   UNL A   1      43.573  28.769  29.913  1.00  0.00     0.049 A 
ATOM     45  H   UNL A   1      42.660  27.034  29.057  1.00  0.00     0.167 HD
ATOM     46  C   UNL A   1      38.210  32.455  30.686  1.00  0.00     0.031 A 
ATOM     47  C   UNL A   1      44.441  29.305  29.007  1.00  0.00     0.031 A 
ATOM     48  C   UNL A   1      39.560  32.940  30.983  1.00  0.00     0.049 A 
ATOM     49  C   UNL A   1      44.386  30.816  28.919  1.00  0.00     0.074 A 
ATOM     50  C   UNL A   1      40.374  32.870  32.102  1.00  0.00     0.029 A 
ATOM     51  N   UNL A   1      40.373  33.366  29.936  1.00  0.00    -0.354 N 
ATOM     52  N   UNL A   1      43.434  31.550  29.426  1.00  0.00    -0.248 NA
ATOM     53  C   UNL A   1      45.373  31.611  28.190  1.00  0.00     0.031 C 
ATOM     54  C   UNL A   1      41.703  33.171  31.698  1.00  0.00     0.029 A 
ATOM     55  C   UNL A   1      41.690  33.458  30.345  1.00  0.00     0.049 A 
ATOM     56  H   UNL A   1      40.053  33.573  29.029  1.00  0.00     0.167 HD
ATOM     57  C   UNL A   1      43.627  32.859  29.073  1.00  0.00     0.074 A 
ATOM     58  C   UNL A   1      44.874  32.852  28.329  1.00  0.00     0.031 C 
ATOM     59  C   UNL A   1      42.727  33.835  29.392  1.00  0.00     0.031 A 
BRANCH  46  60
ATOM     60  C   UNL A   1      36.972  32.928  31.424  1.00  0.00    -0.014 A 
ATOM     61  C   UNL A   1      36.713  32.448  32.723  1.00  0.00     0.009 A 
ATOM     62  C   UNL A   1      35.977  33.759  30.881  1.00  0.00     0.009 A 
ATOM     63  C   UNL A   1      35.507  32.712  33.391  1.00  0.00     0.001 A 
ATOM     64  C   UNL A   1      34.760  34.012  31.530  1.00  0.00     0.001 A 
ATOM     65  C   UNL A   1      34.519  33.476  32.784  1.00  0.00     0.000 A 
ENDBRANCH  46  60
BRANCH  47  66
ATOM     66  C   UNL A   1      44.744  28.410  27.856  1.00  0.00    -0.014 A 
ATOM     67  C   UNL A   1      45.478  27.231  28.095  1.00  0.00     0.009 A 
ATOM     68  C   UNL A   1      44.056  28.535  26.641  1.00  0.00     0.009 A 
ATOM     69  C   UNL A   1      45.438  26.166  27.190  1.00  0.00     0.001 A 
ATOM     70  C   UNL A   1      44.027  27.468  25.732  1.00  0.00     0.001 A 
ATOM     71  C   UNL A   1      44.690  26.276  26.022  1.00  0.00     0.000 A 
ENDBRANCH  47  66
BRANCH  59  72
ATOM     72  C   UNL A   1      42.746  35.254  28.873  1.00  0.00    -0.014 A 
ATOM     73  C   UNL A   1      41.975  35.715  27.797  1.00  0.00     0.009 A 
ATOM     74  C   UNL A   1      43.484  36.227  29.584  1.00  0.00     0.009 A 
ATOM     75  C   UNL A   1      41.981  37.066  27.419  1.00  0.00     0.001 A 
ATOM     76  C   UNL A   1      43.456  37.581  29.240  1.00  0.00     0.001 A 
ATOM     77  C   UNL A   1      42.714  37.998  28.145  1.00  0.00     0.000 A 
ENDBRANCH  59  72
ENDBRANCH  33  34
ENDBRANCH  25  28
ENDBRANCH  23  24
ENDBRANCH   1  23
TORSDOF 12
ENDMDL
