MODEL 1
REMARK VINA RESULT:     -11.0      0.000      0.000
REMARK SMILES CC[C@H]1CC[C@@](C(=O)NCCCNC(=O)c2ccc(-c3c4nc(c(-c5ccccc5)c5ccc([nH]5)c(-c5ccccc5)c5nc(c(-c6ccccc6)c6ccc3[nH]6)C=C5)C=C4)cc2)(C2CCCC2)C1
REMARK SMILES IDX 11 1 10 2 9 3 7 4 8 5 6 7 3 8 4 9 69 10 5 11 2 12 1 13 64 14
REMARK SMILES IDX 65 15 68 16 66 17 67 18 12 19 13 20 14 21 15 23 16 24 17 25
REMARK SMILES IDX 63 26 18 27 62 28 19 29 20 30 21 31 56 32 22 33 61 34 55 35
REMARK SMILES IDX 57 36 23 37 60 38 54 39 53 40 24 42 46 43 31 44 45 45 32 46
REMARK SMILES IDX 35 47 44 48 58 49 33 50 34 51 43 53 59 54 36 55 25 56 26 57
REMARK SMILES IDX 30 58 27 59 29 60 28 61 47 62 48 63 52 64 49 65 51 66 50 67
REMARK SMILES IDX 37 68 38 69 42 70 39 71 41 72 40 73
REMARK H PARENT 9 6 13 22 57 41 35 52
REMARK Flexibility Score: inf
ROOT
ATOM      1  C   UNL A   1      32.079  28.030  27.325  1.00  0.00     0.042 C 
ENDROOT
BRANCH   1   2
ATOM      2  C   UNL A   1      31.838  27.006  26.223  1.00  0.00     0.117 C 
BRANCH   2   3
ATOM      3  N   UNL A   1      31.184  25.812  26.721  1.00  0.00    -0.356 N 
ATOM      4  C   UNL A   1      31.407  24.485  26.534  1.00  0.00     0.226 C 
ATOM      5  O   UNL A   1      30.681  23.746  27.207  1.00  0.00    -0.274 OA
ATOM      6  H   UNL A   1      30.422  26.002  27.315  1.00  0.00     0.163 HD
BRANCH   4   7
ATOM      7  C   UNL A   1      32.524  23.920  25.610  1.00  0.00     0.052 C 
ATOM      8  C   UNL A   1      34.859  24.721  25.202  1.00  0.00    -0.010 C 
ATOM      9  C   UNL A   1      33.979  25.207  24.048  1.00  0.00     0.005 C 
ATOM     10  C   UNL A   1      33.892  24.210  26.275  1.00  0.00     0.020 C 
ATOM     11  C   UNL A   1      32.579  24.619  24.237  1.00  0.00     0.017 C 
BRANCH   8  12
ATOM     12  C   UNL A   1      35.946  23.746  24.717  1.00  0.00     0.000 C 
ATOM     13  C   UNL A   1      35.663  23.075  23.380  1.00  0.00     0.004 C 
ENDBRANCH   8  12
BRANCH   7  14
ATOM     14  C   UNL A   1      32.310  22.366  25.476  1.00  0.00     0.004 C 
ATOM     15  C   UNL A   1      32.299  21.801  24.047  1.00  0.00     0.005 C 
ATOM     16  C   UNL A   1      33.364  21.473  26.140  1.00  0.00     0.005 C 
ATOM     17  C   UNL A   1      32.403  20.292  24.241  1.00  0.00     0.000 C 
ATOM     18  C   UNL A   1      33.173  20.087  25.538  1.00  0.00     0.000 C 
ENDBRANCH   7  14
ENDBRANCH   4   7
ENDBRANCH   2   3
ENDBRANCH   1   2
BRANCH   1  19
ATOM     19  C   UNL A   1      33.499  28.580  27.344  1.00  0.00     0.118 C 
BRANCH  19  20
ATOM     20  N   UNL A   1      33.546  29.998  27.673  1.00  0.00    -0.352 N 
ATOM     21  C   UNL A   1      34.540  30.740  28.263  1.00  0.00     0.251 C 
ATOM     22  H   UNL A   1      32.737  30.506  27.435  1.00  0.00     0.163 HD
ATOM     23  O   UNL A   1      34.305  31.884  28.639  1.00  0.00    -0.269 OA
BRANCH  21  24
ATOM     24  C   UNL A   1      35.885  30.160  28.465  1.00  0.00     0.039 A 
ATOM     25  C   UNL A   1      36.805  30.203  27.413  1.00  0.00     0.014 A 
ATOM     26  C   UNL A   1      36.235  29.559  29.676  1.00  0.00     0.014 A 
ATOM     27  C   UNL A   1      38.096  29.706  27.602  1.00  0.00     0.010 A 
ATOM     28  C   UNL A   1      37.546  29.150  29.892  1.00  0.00     0.010 A 
ATOM     29  C   UNL A   1      38.489  29.213  28.856  1.00  0.00    -0.014 A 
BRANCH  29  30
ATOM     30  C   UNL A   1      39.881  28.757  29.105  1.00  0.00     0.031 A 
ATOM     31  C   UNL A   1      40.889  29.696  29.709  1.00  0.00     0.074 A 
ATOM     32  C   UNL A   1      40.256  27.522  28.720  1.00  0.00     0.049 A 
ATOM     33  N   UNL A   1      42.163  29.502  29.942  1.00  0.00    -0.248 NA
ATOM     34  C   UNL A   1      40.411  31.040  30.073  1.00  0.00     0.031 C 
ATOM     35  C   UNL A   1      39.387  26.533  28.079  1.00  0.00     0.029 A 
ATOM     36  N   UNL A   1      41.472  26.891  28.804  1.00  0.00    -0.354 N 
ATOM     37  C   UNL A   1      42.640  30.702  30.455  1.00  0.00     0.074 A 
ATOM     38  C   UNL A   1      41.534  31.633  30.451  1.00  0.00     0.031 C 
ATOM     39  C   UNL A   1      40.091  25.412  27.851  1.00  0.00     0.029 A 
ATOM     40  C   UNL A   1      41.467  25.618  28.289  1.00  0.00     0.049 A 
ATOM     41  H   UNL A   1      42.271  27.311  29.197  1.00  0.00     0.167 HD
ATOM     42  C   UNL A   1      43.882  30.998  30.906  1.00  0.00     0.031 A 
ATOM     43  C   UNL A   1      42.462  24.718  28.170  1.00  0.00     0.031 A 
ATOM     44  C   UNL A   1      44.978  30.067  30.920  1.00  0.00     0.049 A 
ATOM     45  C   UNL A   1      43.834  25.071  28.673  1.00  0.00     0.074 A 
ATOM     46  C   UNL A   1      46.256  30.248  31.420  1.00  0.00     0.029 A 
ATOM     47  N   UNL A   1      44.928  28.782  30.403  1.00  0.00    -0.354 N 
ATOM     48  N   UNL A   1      44.249  26.183  29.231  1.00  0.00    -0.248 NA
ATOM     49  C   UNL A   1      44.873  24.040  28.541  1.00  0.00     0.031 C 
ATOM     50  C   UNL A   1      46.997  29.093  31.151  1.00  0.00     0.029 A 
ATOM     51  C   UNL A   1      46.162  28.168  30.543  1.00  0.00     0.049 A 
ATOM     52  H   UNL A   1      44.134  28.366  29.997  1.00  0.00     0.167 HD
ATOM     53  C   UNL A   1      45.587  25.976  29.541  1.00  0.00     0.074 A 
ATOM     54  C   UNL A   1      45.908  24.626  29.124  1.00  0.00     0.031 C 
ATOM     55  C   UNL A   1      46.469  26.827  30.119  1.00  0.00     0.031 A 
BRANCH  42  56
ATOM     56  C   UNL A   1      44.121  32.395  31.410  1.00  0.00    -0.014 A 
ATOM     57  C   UNL A   1      43.925  32.731  32.760  1.00  0.00     0.009 A 
ATOM     58  C   UNL A   1      44.577  33.386  30.526  1.00  0.00     0.009 A 
ATOM     59  C   UNL A   1      44.137  34.038  33.203  1.00  0.00     0.001 A 
ATOM     60  C   UNL A   1      44.820  34.684  30.978  1.00  0.00     0.001 A 
ATOM     61  C   UNL A   1      44.588  35.012  32.313  1.00  0.00     0.000 A 
ENDBRANCH  42  56
BRANCH  43  62
ATOM     62  C   UNL A   1      42.195  23.392  27.555  1.00  0.00    -0.014 A 
ATOM     63  C   UNL A   1      41.657  22.345  28.321  1.00  0.00     0.009 A 
ATOM     64  C   UNL A   1      42.472  23.166  26.198  1.00  0.00     0.009 A 
ATOM     65  C   UNL A   1      41.429  21.092  27.745  1.00  0.00     0.001 A 
ATOM     66  C   UNL A   1      42.214  21.922  25.618  1.00  0.00     0.001 A 
ATOM     67  C   UNL A   1      41.702  20.884  26.394  1.00  0.00     0.000 A 
ENDBRANCH  43  62
BRANCH  55  68
ATOM     68  C   UNL A   1      47.860  26.312  30.367  1.00  0.00    -0.014 A 
ATOM     69  C   UNL A   1      48.232  25.779  31.612  1.00  0.00     0.009 A 
ATOM     70  C   UNL A   1      48.799  26.321  29.324  1.00  0.00     0.009 A 
ATOM     71  C   UNL A   1      49.527  25.299  31.815  1.00  0.00     0.001 A 
ATOM     72  C   UNL A   1      50.083  25.812  29.520  1.00  0.00     0.001 A 
ATOM     73  C   UNL A   1      50.449  25.311  30.768  1.00  0.00     0.000 A 
ENDBRANCH  55  68
ENDBRANCH  29  30
ENDBRANCH  21  24
ENDBRANCH  19  20
ENDBRANCH   1  19
TORSDOF 12
ENDMDL
MODEL 2
REMARK VINA RESULT:     -10.8      1.121      2.113
REMARK SMILES CC[C@H]1CC[C@@](C(=O)NCCCNC(=O)c2ccc(-c3c4nc(c(-c5ccccc5)c5ccc([nH]5)c(-c5ccccc5)c5nc(c(-c6ccccc6)c6ccc3[nH]6)C=C5)C=C4)cc2)(C2CCCC2)C1
REMARK SMILES IDX 11 1 10 2 9 3 7 4 8 5 6 7 3 8 4 9 69 10 5 11 2 12 1 13 64 14
REMARK SMILES IDX 65 15 68 16 66 17 67 18 12 19 13 20 14 21 15 23 16 24 17 25
REMARK SMILES IDX 63 26 18 27 62 28 19 29 20 30 21 31 56 32 22 33 61 34 55 35
REMARK SMILES IDX 57 36 23 37 60 38 54 39 53 40 24 42 46 43 31 44 45 45 32 46
REMARK SMILES IDX 35 47 44 48 58 49 33 50 34 51 43 53 59 54 36 55 25 56 26 57
REMARK SMILES IDX 30 58 27 59 29 60 28 61 47 62 48 63 52 64 49 65 51 66 50 67
REMARK SMILES IDX 37 68 38 69 42 70 39 71 41 72 40 73
REMARK H PARENT 9 6 13 22 57 41 35 52
REMARK Flexibility Score: inf
ROOT
ATOM      1  C   UNL A   1      33.888  28.389  25.797  1.00  0.00     0.042 C 
ENDROOT
BRANCH   1   2
ATOM      2  C   UNL A   1      32.891  27.506  25.058  1.00  0.00     0.117 C 
BRANCH   2   3
ATOM      3  N   UNL A   1      33.298  27.250  23.690  1.00  0.00    -0.356 N 
ATOM      4  C   UNL A   1      33.539  26.110  22.992  1.00  0.00     0.226 C 
ATOM      5  O   UNL A   1      33.789  26.289  21.795  1.00  0.00    -0.274 OA
ATOM      6  H   UNL A   1      33.426  28.070  23.160  1.00  0.00     0.163 HD
BRANCH   4   7
ATOM      7  C   UNL A   1      33.448  24.685  23.609  1.00  0.00     0.052 C 
ATOM      8  C   UNL A   1      32.168  22.668  22.865  1.00  0.00    -0.010 C 
ATOM      9  C   UNL A   1      31.385  23.342  23.995  1.00  0.00     0.005 C 
ATOM     10  C   UNL A   1      33.250  23.673  22.455  1.00  0.00     0.020 C 
ATOM     11  C   UNL A   1      32.224  24.505  24.529  1.00  0.00     0.017 C 
BRANCH   8  12
ATOM     12  C   UNL A   1      32.635  21.257  23.259  1.00  0.00     0.000 C 
ATOM     13  C   UNL A   1      32.414  20.886  24.719  1.00  0.00     0.004 C 
ENDBRANCH   8  12
BRANCH   7  14
ATOM     14  C   UNL A   1      34.801  24.388  24.358  1.00  0.00     0.004 C 
ATOM     15  C   UNL A   1      34.681  23.808  25.776  1.00  0.00     0.005 C 
ATOM     16  C   UNL A   1      35.735  23.367  23.699  1.00  0.00     0.005 C 
ATOM     17  C   UNL A   1      36.092  23.332  26.106  1.00  0.00     0.000 C 
ATOM     18  C   UNL A   1      36.731  22.958  24.776  1.00  0.00     0.000 C 
ENDBRANCH   7  14
ENDBRANCH   4   7
ENDBRANCH   2   3
ENDBRANCH   1   2
BRANCH   1  19
ATOM     19  C   UNL A   1      33.514  28.642  27.252  1.00  0.00     0.118 C 
BRANCH  19  20
ATOM     20  N   UNL A   1      33.566  30.054  27.606  1.00  0.00    -0.352 N 
ATOM     21  C   UNL A   1      34.558  30.779  28.221  1.00  0.00     0.251 C 
ATOM     22  H   UNL A   1      32.763  30.571  27.367  1.00  0.00     0.163 HD
ATOM     23  O   UNL A   1      34.325  31.917  28.614  1.00  0.00    -0.269 OA
BRANCH  21  24
ATOM     24  C   UNL A   1      35.896  30.186  28.430  1.00  0.00     0.039 A 
ATOM     25  C   UNL A   1      36.819  30.215  27.381  1.00  0.00     0.014 A 
ATOM     26  C   UNL A   1      36.236  29.587  29.645  1.00  0.00     0.014 A 
ATOM     27  C   UNL A   1      38.104  29.706  27.576  1.00  0.00     0.010 A 
ATOM     28  C   UNL A   1      37.543  29.166  29.867  1.00  0.00     0.010 A 
ATOM     29  C   UNL A   1      38.489  29.215  28.834  1.00  0.00    -0.014 A 
BRANCH  29  30
ATOM     30  C   UNL A   1      39.875  28.746  29.089  1.00  0.00     0.031 A 
ATOM     31  C   UNL A   1      40.891  29.678  29.691  1.00  0.00     0.074 A 
ATOM     32  C   UNL A   1      40.239  27.505  28.710  1.00  0.00     0.049 A 
ATOM     33  N   UNL A   1      42.162  29.472  29.929  1.00  0.00    -0.248 NA
ATOM     34  C   UNL A   1      40.426  31.028  30.048  1.00  0.00     0.031 C 
ATOM     35  C   UNL A   1      39.362  26.522  28.071  1.00  0.00     0.029 A 
ATOM     36  N   UNL A   1      41.448  26.863  28.801  1.00  0.00    -0.354 N 
ATOM     37  C   UNL A   1      42.650  30.670  30.438  1.00  0.00     0.074 A 
ATOM     38  C   UNL A   1      41.553  31.611  30.426  1.00  0.00     0.031 C 
ATOM     39  C   UNL A   1      40.056  25.393  27.851  1.00  0.00     0.029 A 
ATOM     40  C   UNL A   1      41.433  25.587  28.292  1.00  0.00     0.049 A 
ATOM     41  H   UNL A   1      42.250  27.276  29.194  1.00  0.00     0.167 HD
ATOM     42  C   UNL A   1      43.894  30.955  30.891  1.00  0.00     0.031 A 
ATOM     43  C   UNL A   1      42.419  24.677  28.180  1.00  0.00     0.031 A 
ATOM     44  C   UNL A   1      44.980  30.013  30.912  1.00  0.00     0.049 A 
ATOM     45  C   UNL A   1      43.793  25.019  28.685  1.00  0.00     0.074 A 
ATOM     46  C   UNL A   1      46.259  30.184  31.415  1.00  0.00     0.029 A 
ATOM     47  N   UNL A   1      44.919  28.726  30.401  1.00  0.00    -0.354 N 
ATOM     48  N   UNL A   1      44.217  26.129  29.239  1.00  0.00    -0.248 NA
ATOM     49  C   UNL A   1      44.821  23.976  28.561  1.00  0.00     0.031 C 
ATOM     50  C   UNL A   1      46.989  29.020  31.154  1.00  0.00     0.029 A 
ATOM     51  C   UNL A   1      46.146  28.101  30.548  1.00  0.00     0.049 A 
ATOM     52  H   UNL A   1      44.122  28.316  29.995  1.00  0.00     0.167 HD
ATOM     53  C   UNL A   1      45.552  25.910  29.554  1.00  0.00     0.074 A 
ATOM     54  C   UNL A   1      45.861  24.555  29.145  1.00  0.00     0.031 C 
ATOM     55  C   UNL A   1      46.441  26.754  30.131  1.00  0.00     0.031 A 
BRANCH  42  56
ATOM     56  C   UNL A   1      44.146  32.352  31.389  1.00  0.00    -0.014 A 
ATOM     57  C   UNL A   1      44.575  33.372  30.523  1.00  0.00     0.009 A 
ATOM     58  C   UNL A   1      43.924  32.661  32.740  1.00  0.00     0.009 A 
ATOM     59  C   UNL A   1      44.820  34.658  31.010  1.00  0.00     0.001 A 
ATOM     60  C   UNL A   1      44.136  33.955  33.217  1.00  0.00     0.001 A 
ATOM     61  C   UNL A   1      44.596  34.949  32.354  1.00  0.00     0.000 A 
ENDBRANCH  42  56
BRANCH  43  62
ATOM     62  C   UNL A   1      42.139  23.350  27.571  1.00  0.00    -0.014 A 
ATOM     63  C   UNL A   1      41.527  22.334  28.321  1.00  0.00     0.009 A 
ATOM     64  C   UNL A   1      42.482  23.094  26.234  1.00  0.00     0.009 A 
ATOM     65  C   UNL A   1      41.287  21.081  27.752  1.00  0.00     0.001 A 
ATOM     66  C   UNL A   1      42.213  21.850  25.658  1.00  0.00     0.001 A 
ATOM     67  C   UNL A   1      41.625  20.842  26.421  1.00  0.00     0.000 A 
ENDBRANCH  43  62
BRANCH  55  68
ATOM     68  C   UNL A   1      47.826  26.226  30.386  1.00  0.00    -0.014 A 
ATOM     69  C   UNL A   1      48.809  26.239  29.384  1.00  0.00     0.009 A 
ATOM     70  C   UNL A   1      48.161  25.748  31.662  1.00  0.00     0.009 A 
ATOM     71  C   UNL A   1      50.090  25.751  29.647  1.00  0.00     0.001 A 
ATOM     72  C   UNL A   1      49.452  25.290  31.931  1.00  0.00     0.001 A 
ATOM     73  C   UNL A   1      50.412  25.282  30.921  1.00  0.00     0.000 A 
ENDBRANCH  55  68
ENDBRANCH  29  30
ENDBRANCH  21  24
ENDBRANCH  19  20
ENDBRANCH   1  19
TORSDOF 12
ENDMDL
MODEL 3
REMARK VINA RESULT:     -10.8      0.356      6.157
REMARK SMILES CC[C@H]1CC[C@@](C(=O)NCCCNC(=O)c2ccc(-c3c4nc(c(-c5ccccc5)c5ccc([nH]5)c(-c5ccccc5)c5nc(c(-c6ccccc6)c6ccc3[nH]6)C=C5)C=C4)cc2)(C2CCCC2)C1
REMARK SMILES IDX 11 1 10 2 9 3 7 4 8 5 6 7 3 8 4 9 69 10 5 11 2 12 1 13 64 14
REMARK SMILES IDX 65 15 68 16 66 17 67 18 12 19 13 20 14 21 15 23 16 24 17 25
REMARK SMILES IDX 63 26 18 27 62 28 19 29 20 30 21 31 56 32 22 33 61 34 55 35
REMARK SMILES IDX 57 36 23 37 60 38 54 39 53 40 24 42 46 43 31 44 45 45 32 46
REMARK SMILES IDX 35 47 44 48 58 49 33 50 34 51 43 53 59 54 36 55 25 56 26 57
REMARK SMILES IDX 30 58 27 59 29 60 28 61 47 62 48 63 52 64 49 65 51 66 50 67
REMARK SMILES IDX 37 68 38 69 42 70 39 71 41 72 40 73
REMARK H PARENT 9 6 13 22 57 41 35 52
REMARK Flexibility Score: inf
ROOT
ATOM      1  C   UNL A   1      32.168  27.930  27.202  1.00  0.00     0.042 C 
ENDROOT
BRANCH   1   2
ATOM      2  C   UNL A   1      32.024  26.808  26.182  1.00  0.00     0.117 C 
BRANCH   2   3
ATOM      3  N   UNL A   1      31.402  25.629  26.752  1.00  0.00    -0.356 N 
ATOM      4  C   UNL A   1      31.633  24.298  26.610  1.00  0.00     0.226 C 
ATOM      5  O   UNL A   1      30.941  23.579  27.339  1.00  0.00    -0.274 OA
ATOM      6  H   UNL A   1      30.661  25.835  27.367  1.00  0.00     0.163 HD
BRANCH   4   7
ATOM      7  C   UNL A   1      32.720  23.707  25.666  1.00  0.00     0.052 C 
ATOM      8  C   UNL A   1      35.104  24.376  25.309  1.00  0.00    -0.010 C 
ATOM      9  C   UNL A   1      34.265  24.970  24.174  1.00  0.00     0.005 C 
ATOM     10  C   UNL A   1      34.097  23.878  26.351  1.00  0.00     0.020 C 
ATOM     11  C   UNL A   1      32.829  24.463  24.327  1.00  0.00     0.017 C 
BRANCH   8  12
ATOM     12  C   UNL A   1      36.131  23.358  24.784  1.00  0.00     0.000 C 
ATOM     13  C   UNL A   1      35.977  22.980  23.318  1.00  0.00     0.004 C 
ENDBRANCH   8  12
BRANCH   7  14
ATOM     14  C   UNL A   1      32.409  22.177  25.459  1.00  0.00     0.004 C 
ATOM     15  C   UNL A   1      32.454  21.663  24.011  1.00  0.00     0.005 C 
ATOM     16  C   UNL A   1      33.354  21.189  26.153  1.00  0.00     0.005 C 
ATOM     17  C   UNL A   1      32.442  20.145  24.153  1.00  0.00     0.000 C 
ATOM     18  C   UNL A   1      33.109  19.841  25.488  1.00  0.00     0.000 C 
ENDBRANCH   7  14
ENDBRANCH   4   7
ENDBRANCH   2   3
ENDBRANCH   1   2
BRANCH   1  19
ATOM     19  C   UNL A   1      33.568  28.530  27.252  1.00  0.00     0.118 C 
BRANCH  19  20
ATOM     20  N   UNL A   1      33.559  29.940  27.615  1.00  0.00    -0.352 N 
ATOM     21  C   UNL A   1      34.521  30.704  28.231  1.00  0.00     0.251 C 
ATOM     22  H   UNL A   1      32.734  30.424  27.383  1.00  0.00     0.163 HD
ATOM     23  O   UNL A   1      34.241  31.828  28.633  1.00  0.00    -0.269 OA
BRANCH  21  24
ATOM     24  C   UNL A   1      35.885  30.168  28.431  1.00  0.00     0.039 A 
ATOM     25  C   UNL A   1      36.801  30.243  27.378  1.00  0.00     0.014 A 
ATOM     26  C   UNL A   1      36.256  29.577  29.640  1.00  0.00     0.014 A 
ATOM     27  C   UNL A   1      38.108  29.790  27.565  1.00  0.00     0.010 A 
ATOM     28  C   UNL A   1      37.581  29.212  29.855  1.00  0.00     0.010 A 
ATOM     29  C   UNL A   1      38.520  29.308  28.818  1.00  0.00    -0.014 A 
BRANCH  29  30
ATOM     30  C   UNL A   1      39.926  28.899  29.064  1.00  0.00     0.031 A 
ATOM     31  C   UNL A   1      40.399  27.530  28.656  1.00  0.00     0.074 A 
ATOM     32  C   UNL A   1      40.757  29.731  29.721  1.00  0.00     0.049 A 
ATOM     33  N   UNL A   1      41.567  26.970  28.844  1.00  0.00    -0.248 NA
ATOM     34  C   UNL A   1      39.422  26.666  27.972  1.00  0.00     0.031 C 
ATOM     35  C   UNL A   1      40.407  31.065  30.214  1.00  0.00     0.029 A 
ATOM     36  N   UNL A   1      42.067  29.571  30.097  1.00  0.00    -0.354 N 
ATOM     37  C   UNL A   1      41.458  25.686  28.324  1.00  0.00     0.074 A 
ATOM     38  C   UNL A   1      40.096  25.531  27.862  1.00  0.00     0.031 C 
ATOM     39  C   UNL A   1      41.483  31.612  30.803  1.00  0.00     0.029 A 
ATOM     40  C   UNL A   1      42.582  30.653  30.769  1.00  0.00     0.049 A 
ATOM     41  H   UNL A   1      42.589  28.760  29.902  1.00  0.00     0.167 HD
ATOM     42  C   UNL A   1      42.409  24.727  28.225  1.00  0.00     0.031 A 
ATOM     43  C   UNL A   1      43.799  30.849  31.310  1.00  0.00     0.031 A 
ATOM     44  C   UNL A   1      43.765  24.886  28.675  1.00  0.00     0.049 A 
ATOM     45  C   UNL A   1      44.837  29.768  31.192  1.00  0.00     0.074 A 
ATOM     46  C   UNL A   1      44.822  24.000  28.557  1.00  0.00     0.029 A 
ATOM     47  N   UNL A   1      44.250  26.003  29.338  1.00  0.00    -0.354 N 
ATOM     48  N   UNL A   1      44.741  28.590  30.625  1.00  0.00    -0.248 NA
ATOM     49  C   UNL A   1      46.155  30.050  31.777  1.00  0.00     0.031 C 
ATOM     50  C   UNL A   1      45.932  24.556  29.201  1.00  0.00     0.029 A 
ATOM     51  C   UNL A   1      45.584  25.816  29.663  1.00  0.00     0.049 A 
ATOM     52  H   UNL A   1      43.726  26.809  29.546  1.00  0.00     0.167 HD
ATOM     53  C   UNL A   1      45.992  28.001  30.760  1.00  0.00     0.074 A 
ATOM     54  C   UNL A   1      46.833  28.959  31.448  1.00  0.00     0.031 C 
ATOM     55  C   UNL A   1      46.407  26.777  30.352  1.00  0.00     0.031 A 
BRANCH  42  56
ATOM     56  C   UNL A   1      42.006  23.412  27.615  1.00  0.00    -0.014 A 
ATOM     57  C   UNL A   1      42.187  23.153  26.246  1.00  0.00     0.009 A 
ATOM     58  C   UNL A   1      41.460  22.405  28.426  1.00  0.00     0.009 A 
ATOM     59  C   UNL A   1      41.790  21.932  25.697  1.00  0.00     0.001 A 
ATOM     60  C   UNL A   1      41.095  21.173  27.882  1.00  0.00     0.001 A 
ATOM     61  C   UNL A   1      41.249  20.942  26.515  1.00  0.00     0.000 A 
ENDBRANCH  42  56
BRANCH  43  62
ATOM     62  C   UNL A   1      44.106  32.126  32.006  1.00  0.00    -0.014 A 
ATOM     63  C   UNL A   1      43.874  32.262  33.384  1.00  0.00     0.009 A 
ATOM     64  C   UNL A   1      44.635  33.216  31.297  1.00  0.00     0.009 A 
ATOM     65  C   UNL A   1      44.141  33.472  34.030  1.00  0.00     0.001 A 
ATOM     66  C   UNL A   1      44.929  34.414  31.952  1.00  0.00     0.001 A 
ATOM     67  C   UNL A   1      44.673  34.543  33.316  1.00  0.00     0.000 A 
ENDBRANCH  43  62
BRANCH  55  68
ATOM     68  C   UNL A   1      47.844  26.416  30.608  1.00  0.00    -0.014 A 
ATOM     69  C   UNL A   1      48.245  25.821  31.814  1.00  0.00     0.009 A 
ATOM     70  C   UNL A   1      48.803  26.639  29.607  1.00  0.00     0.009 A 
ATOM     71  C   UNL A   1      49.585  25.488  32.024  1.00  0.00     0.001 A 
ATOM     72  C   UNL A   1      50.135  26.276  29.807  1.00  0.00     0.001 A 
ATOM     73  C   UNL A   1      50.527  25.711  31.019  1.00  0.00     0.000 A 
ENDBRANCH  55  68
ENDBRANCH  29  30
ENDBRANCH  21  24
ENDBRANCH  19  20
ENDBRANCH   1  19
TORSDOF 12
ENDMDL
