MODEL 1
REMARK VINA RESULT:     -11.7      0.000      0.000
REMARK SMILES CC[C@@H](NS(=O)(=O)c1cc(C)ccc1C)C(=O)NCCCNC(=O)c1ccc(-c2c3nc(c(-c4ccccc4)c4ccc([nH]4)c(-c4ccccc4)c4nc(c(-c5ccccc5)c5ccc2[nH]5)C=C4)C=C3)cc1
REMARK SMILES IDX 19 1 18 2 16 3 17 4 3 6 2 7 1 8 4 9 5 11 6 12 7 13 8 14 9 15
REMARK SMILES IDX 14 16 10 17 13 18 15 19 11 20 12 21 20 22 21 23 22 24 23 25
REMARK SMILES IDX 24 27 25 28 26 29 72 30 27 31 71 32 28 33 29 34 30 35 65 36
REMARK SMILES IDX 31 37 70 38 64 39 66 40 32 41 69 42 63 43 62 44 33 46 55 47
REMARK SMILES IDX 40 48 54 49 41 50 44 51 53 52 67 53 42 54 43 55 52 57 68 58
REMARK SMILES IDX 45 59 34 60 35 61 39 62 36 63 38 64 37 65 56 66 57 67 61 68
REMARK SMILES IDX 58 69 60 70 59 71 46 72 47 73 51 74 48 75 50 76 49 77
REMARK H PARENT 18 5 4 10 22 26 66 45 44 56
REMARK Flexibility Score: inf
ROOT
ATOM      1  C   UNL A   1      35.444  20.330  25.112  1.00  0.00     0.117 C 
ENDROOT
BRANCH   1   2
ATOM      2  N   UNL A   1      34.210  19.559  25.058  1.00  0.00    -0.355 N 
ATOM      3  C   UNL A   1      32.896  19.929  25.070  1.00  0.00     0.238 C 
ATOM      4  O   UNL A   1      32.062  19.032  25.231  1.00  0.00    -0.273 OA
ATOM      5  H   UNL A   1      34.350  18.586  25.001  1.00  0.00     0.163 HD
BRANCH   3   6
ATOM      6  C   UNL A   1      32.461  21.398  24.942  1.00  0.00     0.158 C 
BRANCH   6   7
ATOM      7  C   UNL A   1      32.065  21.667  23.487  1.00  0.00     0.027 C 
ATOM      8  C   UNL A   1      32.951  22.670  22.767  1.00  0.00     0.006 C 
ENDBRANCH   6   7
BRANCH   6   9
ATOM      9  N   UNL A   1      31.385  21.689  25.890  1.00  0.00    -0.199 NA
ATOM     10  H   UNL A   1      31.276  20.847  26.455  1.00  0.00     0.142 HD
BRANCH   9  11
ATOM     11  S   UNL A   1      31.428  22.962  26.974  1.00  0.00     0.241 S 
ATOM     12  O   UNL A   1      30.049  23.289  27.321  1.00  0.00    -0.207 OA
ATOM     13  O   UNL A   1      32.331  22.521  27.996  1.00  0.00    -0.207 OA
BRANCH  11  14
ATOM     14  C   UNL A   1      32.184  24.344  26.117  1.00  0.00     0.085 A 
ATOM     15  C   UNL A   1      31.308  25.233  25.453  1.00  0.00     0.025 A 
ATOM     16  C   UNL A   1      33.577  24.517  25.983  1.00  0.00    -0.031 A 
ATOM     17  C   UNL A   1      31.798  26.309  24.695  1.00  0.00    -0.050 A 
ATOM     18  C   UNL A   1      34.044  25.656  25.296  1.00  0.00     0.005 A 
ATOM     19  C   UNL A   1      34.653  23.606  26.503  1.00  0.00     0.046 C 
ATOM     20  C   UNL A   1      30.887  27.202  23.904  1.00  0.00     0.044 C 
ATOM     21  C   UNL A   1      33.172  26.540  24.666  1.00  0.00     0.004 A 
ENDBRANCH  11  14
ENDBRANCH   9  11
ENDBRANCH   6   9
ENDBRANCH   3   6
ENDBRANCH   1   2
BRANCH   1  22
ATOM     22  C   UNL A   1      36.702  19.494  24.845  1.00  0.00     0.042 C 
BRANCH  22  23
ATOM     23  C   UNL A   1      38.024  20.244  24.953  1.00  0.00     0.118 C 
BRANCH  23  24
ATOM     24  N   UNL A   1      39.130  19.403  25.421  1.00  0.00    -0.352 N 
ATOM     25  C   UNL A   1      40.421  19.643  25.851  1.00  0.00     0.251 C 
ATOM     26  H   UNL A   1      38.899  18.446  25.430  1.00  0.00     0.163 HD
ATOM     27  O   UNL A   1      41.183  18.684  25.974  1.00  0.00    -0.269 OA
BRANCH  25  28
ATOM     28  C   UNL A   1      40.924  20.997  26.176  1.00  0.00     0.039 A 
ATOM     29  C   UNL A   1      42.183  21.458  25.781  1.00  0.00     0.014 A 
ATOM     30  C   UNL A   1      40.187  21.825  26.990  1.00  0.00     0.014 A 
ATOM     31  C   UNL A   1      42.689  22.619  26.387  1.00  0.00     0.010 A 
ATOM     32  C   UNL A   1      40.484  23.145  27.108  1.00  0.00     0.010 A 
ATOM     33  C   UNL A   1      41.827  23.407  27.150  1.00  0.00    -0.014 A 
BRANCH  33  34
ATOM     34  C   UNL A   1      42.244  24.463  28.060  1.00  0.00     0.031 A 
ATOM     35  C   UNL A   1      41.382  25.654  28.093  1.00  0.00     0.074 A 
ATOM     36  C   UNL A   1      43.099  24.275  29.094  1.00  0.00     0.049 A 
ATOM     37  N   UNL A   1      41.660  26.831  27.648  1.00  0.00    -0.248 NA
ATOM     38  C   UNL A   1      40.018  25.499  28.615  1.00  0.00     0.031 C 
ATOM     39  C   UNL A   1      43.702  23.023  29.568  1.00  0.00     0.029 A 
ATOM     40  N   UNL A   1      43.504  25.181  30.034  1.00  0.00    -0.354 N 
ATOM     41  C   UNL A   1      40.563  27.613  27.974  1.00  0.00     0.074 A 
ATOM     42  C   UNL A   1      39.516  26.710  28.383  1.00  0.00     0.031 C 
ATOM     43  C   UNL A   1      44.226  23.214  30.802  1.00  0.00     0.029 A 
ATOM     44  C   UNL A   1      44.129  24.623  31.141  1.00  0.00     0.049 A 
ATOM     45  H   UNL A   1      43.364  26.150  29.934  1.00  0.00     0.167 HD
ATOM     46  C   UNL A   1      40.655  28.961  28.122  1.00  0.00     0.031 A 
ATOM     47  C   UNL A   1      44.507  25.269  32.271  1.00  0.00     0.031 A 
ATOM     48  C   UNL A   1      41.934  29.472  27.705  1.00  0.00     0.049 A 
ATOM     49  C   UNL A   1      44.544  26.721  31.978  1.00  0.00     0.074 A 
ATOM     50  C   UNL A   1      42.661  29.448  26.532  1.00  0.00     0.029 A 
ATOM     51  N   UNL A   1      42.834  29.777  28.701  1.00  0.00    -0.354 N 
ATOM     52  N   UNL A   1      45.404  27.276  31.173  1.00  0.00    -0.248 NA
ATOM     53  C   UNL A   1      43.378  27.534  32.287  1.00  0.00     0.031 C 
ATOM     54  C   UNL A   1      44.019  29.287  26.939  1.00  0.00     0.029 A 
ATOM     55  C   UNL A   1      44.049  29.253  28.334  1.00  0.00     0.049 A 
ATOM     56  H   UNL A   1      42.641  30.280  29.525  1.00  0.00     0.167 HD
ATOM     57  C   UNL A   1      44.700  28.290  30.540  1.00  0.00     0.074 A 
ATOM     58  C   UNL A   1      43.518  28.496  31.369  1.00  0.00     0.031 C 
ATOM     59  C   UNL A   1      44.995  28.658  29.257  1.00  0.00     0.031 A 
BRANCH  46  60
ATOM     60  C   UNL A   1      39.715  29.758  28.975  1.00  0.00    -0.014 A 
ATOM     61  C   UNL A   1      39.958  29.846  30.353  1.00  0.00     0.009 A 
ATOM     62  C   UNL A   1      38.480  30.247  28.507  1.00  0.00     0.009 A 
ATOM     63  C   UNL A   1      39.006  30.393  31.220  1.00  0.00     0.001 A 
ATOM     64  C   UNL A   1      37.549  30.839  29.361  1.00  0.00     0.001 A 
ATOM     65  C   UNL A   1      37.805  30.896  30.723  1.00  0.00     0.000 A 
ENDBRANCH  46  60
BRANCH  47  66
ATOM     66  C   UNL A   1      44.668  24.730  33.639  1.00  0.00    -0.014 A 
ATOM     67  C   UNL A   1      43.589  24.158  34.331  1.00  0.00     0.009 A 
ATOM     68  C   UNL A   1      45.955  24.570  34.185  1.00  0.00     0.009 A 
ATOM     69  C   UNL A   1      43.796  23.432  35.513  1.00  0.00     0.001 A 
ATOM     70  C   UNL A   1      46.161  23.850  35.366  1.00  0.00     0.001 A 
ATOM     71  C   UNL A   1      45.083  23.269  36.024  1.00  0.00     0.000 A 
ENDBRANCH  47  66
BRANCH  59  72
ATOM     72  C   UNL A   1      46.284  28.135  28.664  1.00  0.00    -0.014 A 
ATOM     73  C   UNL A   1      46.380  26.876  28.045  1.00  0.00     0.009 A 
ATOM     74  C   UNL A   1      47.399  28.984  28.609  1.00  0.00     0.009 A 
ATOM     75  C   UNL A   1      47.565  26.462  27.428  1.00  0.00     0.001 A 
ATOM     76  C   UNL A   1      48.577  28.581  27.973  1.00  0.00     0.001 A 
ATOM     77  C   UNL A   1      48.662  27.317  27.390  1.00  0.00     0.000 A 
ENDBRANCH  59  72
ENDBRANCH  33  34
ENDBRANCH  25  28
ENDBRANCH  23  24
ENDBRANCH  22  23
ENDBRANCH   1  22
TORSDOF 14
ENDMDL
MODEL 2
REMARK VINA RESULT:     -11.5      4.316      9.015
REMARK SMILES CC[C@@H](NS(=O)(=O)c1cc(C)ccc1C)C(=O)NCCCNC(=O)c1ccc(-c2c3nc(c(-c4ccccc4)c4ccc([nH]4)c(-c4ccccc4)c4nc(c(-c5ccccc5)c5ccc2[nH]5)C=C4)C=C3)cc1
REMARK SMILES IDX 19 1 18 2 16 3 17 4 3 6 2 7 1 8 4 9 5 11 6 12 7 13 8 14 9 15
REMARK SMILES IDX 14 16 10 17 13 18 15 19 11 20 12 21 20 22 21 23 22 24 23 25
REMARK SMILES IDX 24 27 25 28 26 29 72 30 27 31 71 32 28 33 29 34 30 35 65 36
REMARK SMILES IDX 31 37 70 38 64 39 66 40 32 41 69 42 63 43 62 44 33 46 55 47
REMARK SMILES IDX 40 48 54 49 41 50 44 51 53 52 67 53 42 54 43 55 52 57 68 58
REMARK SMILES IDX 45 59 34 60 35 61 39 62 36 63 38 64 37 65 56 66 57 67 61 68
REMARK SMILES IDX 58 69 60 70 59 71 46 72 47 73 51 74 48 75 50 76 49 77
REMARK H PARENT 18 5 4 10 22 26 66 45 44 56
REMARK Flexibility Score: inf
ROOT
ATOM      1  C   UNL A   1      33.680  28.775  25.135  1.00  0.00     0.117 C 
ENDROOT
BRANCH   1   2
ATOM      2  N   UNL A   1      34.033  28.856  23.725  1.00  0.00    -0.355 N 
ATOM      3  C   UNL A   1      33.756  28.045  22.662  1.00  0.00     0.238 C 
ATOM      4  O   UNL A   1      34.377  28.260  21.616  1.00  0.00    -0.273 OA
ATOM      5  H   UNL A   1      34.573  29.647  23.494  1.00  0.00     0.163 HD
BRANCH   3   6
ATOM      6  C   UNL A   1      32.758  26.880  22.762  1.00  0.00     0.158 C 
BRANCH   6   7
ATOM      7  C   UNL A   1      31.377  27.379  22.325  1.00  0.00     0.027 C 
ATOM      8  C   UNL A   1      30.288  27.221  23.373  1.00  0.00     0.006 C 
ENDBRANCH   6   7
BRANCH   6   9
ATOM      9  N   UNL A   1      33.231  25.742  21.974  1.00  0.00    -0.199 NA
ATOM     10  H   UNL A   1      34.231  25.890  21.843  1.00  0.00     0.142 HD
BRANCH   9  11
ATOM     11  S   UNL A   1      33.066  24.150  22.458  1.00  0.00     0.241 S 
ATOM     12  O   UNL A   1      31.701  23.979  22.945  1.00  0.00    -0.207 OA
ATOM     13  O   UNL A   1      33.516  23.393  21.328  1.00  0.00    -0.207 OA
BRANCH  11  14
ATOM     14  C   UNL A   1      34.227  23.896  23.802  1.00  0.00     0.085 A 
ATOM     15  C   UNL A   1      35.323  23.044  23.539  1.00  0.00     0.025 A 
ATOM     16  C   UNL A   1      34.040  24.402  25.105  1.00  0.00    -0.031 A 
ATOM     17  C   UNL A   1      36.253  22.724  24.542  1.00  0.00    -0.050 A 
ATOM     18  C   UNL A   1      35.036  24.144  26.069  1.00  0.00     0.005 A 
ATOM     19  C   UNL A   1      32.874  25.210  25.601  1.00  0.00     0.046 C 
ATOM     20  C   UNL A   1      37.365  21.743  24.307  1.00  0.00     0.044 C 
ATOM     21  C   UNL A   1      36.126  23.323  25.794  1.00  0.00     0.004 A 
ENDBRANCH  11  14
ENDBRANCH   9  11
ENDBRANCH   6   9
ENDBRANCH   3   6
ENDBRANCH   1   2
BRANCH   1  22
ATOM     22  C   UNL A   1      32.419  29.571  25.499  1.00  0.00     0.042 C 
BRANCH  22  23
ATOM     23  C   UNL A   1      32.443  30.251  26.862  1.00  0.00     0.118 C 
BRANCH  23  24
ATOM     24  N   UNL A   1      32.053  31.663  26.811  1.00  0.00    -0.352 N 
ATOM     25  C   UNL A   1      32.528  32.826  27.388  1.00  0.00     0.251 C 
ATOM     26  H   UNL A   1      31.272  31.819  26.233  1.00  0.00     0.163 HD
ATOM     27  O   UNL A   1      31.835  33.840  27.313  1.00  0.00    -0.269 OA
BRANCH  25  28
ATOM     28  C   UNL A   1      33.833  32.906  28.084  1.00  0.00     0.039 A 
ATOM     29  C   UNL A   1      34.772  33.910  27.831  1.00  0.00     0.014 A 
ATOM     30  C   UNL A   1      34.212  31.903  28.945  1.00  0.00     0.014 A 
ATOM     31  C   UNL A   1      36.082  33.732  28.303  1.00  0.00     0.010 A 
ATOM     32  C   UNL A   1      35.270  32.056  29.782  1.00  0.00     0.010 A 
ATOM     33  C   UNL A   1      36.333  32.708  29.216  1.00  0.00    -0.014 A 
BRANCH  33  34
ATOM     34  C   UNL A   1      37.653  32.215  29.580  1.00  0.00     0.031 A 
ATOM     35  C   UNL A   1      37.908  30.798  29.285  1.00  0.00     0.074 A 
ATOM     36  C   UNL A   1      38.723  33.016  29.800  1.00  0.00     0.049 A 
ATOM     37  N   UNL A   1      38.037  29.835  30.132  1.00  0.00    -0.248 NA
ATOM     38  C   UNL A   1      37.947  30.386  27.875  1.00  0.00     0.031 C 
ATOM     39  C   UNL A   1      38.825  34.472  29.648  1.00  0.00     0.029 A 
ATOM     40  N   UNL A   1      40.009  32.651  30.086  1.00  0.00    -0.354 N 
ATOM     41  C   UNL A   1      38.333  28.715  29.371  1.00  0.00     0.074 A 
ATOM     42  C   UNL A   1      38.071  29.066  27.997  1.00  0.00     0.031 C 
ATOM     43  C   UNL A   1      40.129  34.836  29.650  1.00  0.00     0.029 A 
ATOM     44  C   UNL A   1      40.942  33.670  29.948  1.00  0.00     0.049 A 
ATOM     45  H   UNL A   1      40.254  31.740  30.366  1.00  0.00     0.167 HD
ATOM     46  C   UNL A   1      39.004  27.650  29.883  1.00  0.00     0.031 A 
ATOM     47  C   UNL A   1      42.289  33.555  30.037  1.00  0.00     0.031 A 
ATOM     48  C   UNL A   1      39.171  27.742  31.309  1.00  0.00     0.049 A 
ATOM     49  C   UNL A   1      42.595  32.277  30.723  1.00  0.00     0.074 A 
ATOM     50  C   UNL A   1      38.317  27.854  32.389  1.00  0.00     0.029 A 
ATOM     51  N   UNL A   1      40.409  28.138  31.765  1.00  0.00    -0.354 N 
ATOM     52  N   UNL A   1      42.324  32.044  31.975  1.00  0.00    -0.248 NA
ATOM     53  C   UNL A   1      42.869  31.093  29.922  1.00  0.00     0.031 C 
ATOM     54  C   UNL A   1      38.977  28.735  33.296  1.00  0.00     0.029 A 
ATOM     55  C   UNL A   1      40.208  29.086  32.736  1.00  0.00     0.049 A 
ATOM     56  H   UNL A   1      41.278  27.800  31.450  1.00  0.00     0.167 HD
ATOM     57  C   UNL A   1      41.965  30.704  32.020  1.00  0.00     0.074 A 
ATOM     58  C   UNL A   1      42.462  30.142  30.769  1.00  0.00     0.031 C 
ATOM     59  C   UNL A   1      41.048  30.251  32.928  1.00  0.00     0.031 A 
BRANCH  46  60
ATOM     60  C   UNL A   1      39.814  26.709  29.042  1.00  0.00    -0.014 A 
ATOM     61  C   UNL A   1      41.083  27.111  28.604  1.00  0.00     0.009 A 
ATOM     62  C   UNL A   1      39.285  25.528  28.486  1.00  0.00     0.009 A 
ATOM     63  C   UNL A   1      41.786  26.368  27.650  1.00  0.00     0.001 A 
ATOM     64  C   UNL A   1      40.004  24.757  27.571  1.00  0.00     0.001 A 
ATOM     65  C   UNL A   1      41.249  25.188  27.140  1.00  0.00     0.000 A 
ENDBRANCH  46  60
BRANCH  47  66
ATOM     66  C   UNL A   1      43.337  34.391  29.413  1.00  0.00    -0.014 A 
ATOM     67  C   UNL A   1      43.543  34.389  28.024  1.00  0.00     0.009 A 
ATOM     68  C   UNL A   1      43.994  35.379  30.170  1.00  0.00     0.009 A 
ATOM     69  C   UNL A   1      44.356  35.355  27.416  1.00  0.00     0.001 A 
ATOM     70  C   UNL A   1      44.808  36.340  29.564  1.00  0.00     0.001 A 
ATOM     71  C   UNL A   1      44.980  36.337  28.184  1.00  0.00     0.000 A 
ENDBRANCH  47  66
BRANCH  59  72
ATOM     72  C   UNL A   1      40.666  31.185  34.054  1.00  0.00    -0.014 A 
ATOM     73  C   UNL A   1      41.284  31.147  35.317  1.00  0.00     0.009 A 
ATOM     74  C   UNL A   1      39.751  32.217  33.798  1.00  0.00     0.009 A 
ATOM     75  C   UNL A   1      40.968  32.084  36.305  1.00  0.00     0.001 A 
ATOM     76  C   UNL A   1      39.451  33.169  34.778  1.00  0.00     0.001 A 
ATOM     77  C   UNL A   1      40.052  33.097  36.033  1.00  0.00     0.000 A 
ENDBRANCH  59  72
ENDBRANCH  33  34
ENDBRANCH  25  28
ENDBRANCH  23  24
ENDBRANCH  22  23
ENDBRANCH   1  22
TORSDOF 14
ENDMDL
MODEL 3
REMARK VINA RESULT:     -11.3      2.910      6.517
REMARK SMILES CC[C@@H](NS(=O)(=O)c1cc(C)ccc1C)C(=O)NCCCNC(=O)c1ccc(-c2c3nc(c(-c4ccccc4)c4ccc([nH]4)c(-c4ccccc4)c4nc(c(-c5ccccc5)c5ccc2[nH]5)C=C4)C=C3)cc1
REMARK SMILES IDX 19 1 18 2 16 3 17 4 3 6 2 7 1 8 4 9 5 11 6 12 7 13 8 14 9 15
REMARK SMILES IDX 14 16 10 17 13 18 15 19 11 20 12 21 20 22 21 23 22 24 23 25
REMARK SMILES IDX 24 27 25 28 26 29 72 30 27 31 71 32 28 33 29 34 30 35 65 36
REMARK SMILES IDX 31 37 70 38 64 39 66 40 32 41 69 42 63 43 62 44 33 46 55 47
REMARK SMILES IDX 40 48 54 49 41 50 44 51 53 52 67 53 42 54 43 55 52 57 68 58
REMARK SMILES IDX 45 59 34 60 35 61 39 62 36 63 38 64 37 65 56 66 57 67 61 68
REMARK SMILES IDX 58 69 60 70 59 71 46 72 47 73 51 74 48 75 50 76 49 77
REMARK H PARENT 18 5 4 10 22 26 66 45 44 56
REMARK Flexibility Score: inf
ROOT
ATOM      1  C   UNL A   1      36.323  21.277  25.202  1.00  0.00     0.117 C 
ENDROOT
BRANCH   1   2
ATOM      2  N   UNL A   1      35.576  21.680  26.385  1.00  0.00    -0.355 N 
ATOM      3  C   UNL A   1      34.365  22.293  26.541  1.00  0.00     0.238 C 
ATOM      4  O   UNL A   1      34.087  22.704  27.671  1.00  0.00    -0.273 OA
ATOM      5  H   UNL A   1      36.029  21.471  27.234  1.00  0.00     0.163 HD
BRANCH   3   6
ATOM      6  C   UNL A   1      33.405  22.512  25.361  1.00  0.00     0.158 C 
BRANCH   6   7
ATOM      7  C   UNL A   1      32.433  21.330  25.293  1.00  0.00     0.027 C 
ATOM      8  C   UNL A   1      32.390  20.624  23.949  1.00  0.00     0.006 C 
ENDBRANCH   6   7
BRANCH   6   9
ATOM      9  N   UNL A   1      32.728  23.802  25.497  1.00  0.00    -0.199 NA
ATOM     10  H   UNL A   1      32.777  24.040  26.487  1.00  0.00     0.142 HD
BRANCH   9  11
ATOM     11  S   UNL A   1      33.192  25.181  24.672  1.00  0.00     0.241 S 
ATOM     12  O   UNL A   1      34.636  25.107  24.474  1.00  0.00    -0.207 OA
ATOM     13  O   UNL A   1      32.321  25.219  23.536  1.00  0.00    -0.207 OA
BRANCH  11  14
ATOM     14  C   UNL A   1      32.795  26.573  25.731  1.00  0.00     0.085 A 
ATOM     15  C   UNL A   1      33.873  27.398  26.125  1.00  0.00     0.025 A 
ATOM     16  C   UNL A   1      31.511  26.811  26.264  1.00  0.00    -0.031 A 
ATOM     17  C   UNL A   1      33.682  28.474  27.007  1.00  0.00    -0.050 A 
ATOM     18  C   UNL A   1      31.326  27.951  27.072  1.00  0.00     0.005 A 
ATOM     19  C   UNL A   1      30.281  25.970  26.065  1.00  0.00     0.046 C 
ATOM     20  C   UNL A   1      34.831  29.297  27.514  1.00  0.00     0.044 C 
ATOM     21  C   UNL A   1      32.390  28.772  27.436  1.00  0.00     0.004 A 
ENDBRANCH  11  14
ENDBRANCH   9  11
ENDBRANCH   6   9
ENDBRANCH   3   6
ENDBRANCH   1   2
BRANCH   1  22
ATOM     22  C   UNL A   1      37.446  22.252  24.823  1.00  0.00     0.042 C 
BRANCH  22  23
ATOM     23  C   UNL A   1      38.073  23.014  25.983  1.00  0.00     0.118 C 
BRANCH  23  24
ATOM     24  N   UNL A   1      39.056  22.225  26.731  1.00  0.00    -0.352 N 
ATOM     25  C   UNL A   1      40.267  22.500  27.337  1.00  0.00     0.251 C 
ATOM     26  H   UNL A   1      38.793  21.281  26.821  1.00  0.00     0.163 HD
ATOM     27  O   UNL A   1      40.963  21.554  27.704  1.00  0.00    -0.269 OA
BRANCH  25  28
ATOM     28  C   UNL A   1      40.759  23.878  27.569  1.00  0.00     0.039 A 
ATOM     29  C   UNL A   1      41.991  24.158  28.166  1.00  0.00     0.014 A 
ATOM     30  C   UNL A   1      39.944  24.950  27.291  1.00  0.00     0.014 A 
ATOM     31  C   UNL A   1      42.231  25.465  28.619  1.00  0.00     0.010 A 
ATOM     32  C   UNL A   1      40.435  26.216  27.252  1.00  0.00     0.010 A 
ATOM     33  C   UNL A   1      41.360  26.481  28.226  1.00  0.00    -0.014 A 
BRANCH  33  34
ATOM     34  C   UNL A   1      41.299  27.808  28.821  1.00  0.00     0.031 A 
ATOM     35  C   UNL A   1      42.314  28.763  28.356  1.00  0.00     0.074 A 
ATOM     36  C   UNL A   1      40.204  28.305  29.446  1.00  0.00     0.049 A 
ATOM     37  N   UNL A   1      43.313  29.228  29.025  1.00  0.00    -0.248 NA
ATOM     38  C   UNL A   1      42.258  29.195  26.953  1.00  0.00     0.031 C 
ATOM     39  C   UNL A   1      38.874  27.699  29.584  1.00  0.00     0.029 A 
ATOM     40  N   UNL A   1      40.026  29.550  29.981  1.00  0.00    -0.354 N 
ATOM     41  C   UNL A   1      43.927  30.138  28.179  1.00  0.00     0.074 A 
ATOM     42  C   UNL A   1      43.363  29.933  26.867  1.00  0.00     0.031 C 
ATOM     43  C   UNL A   1      37.988  28.643  29.983  1.00  0.00     0.029 A 
ATOM     44  C   UNL A   1      38.707  29.872  30.269  1.00  0.00     0.049 A 
ATOM     45  H   UNL A   1      40.774  30.168  30.149  1.00  0.00     0.167 HD
ATOM     46  C   UNL A   1      44.682  31.166  28.648  1.00  0.00     0.031 A 
ATOM     47  C   UNL A   1      38.235  31.075  30.677  1.00  0.00     0.031 A 
ATOM     48  C   UNL A   1      44.925  31.065  30.063  1.00  0.00     0.049 A 
ATOM     49  C   UNL A   1      39.381  31.869  31.181  1.00  0.00     0.074 A 
ATOM     50  C   UNL A   1      45.506  30.125  30.891  1.00  0.00     0.029 A 
ATOM     51  N   UNL A   1      44.168  31.872  30.881  1.00  0.00    -0.354 N 
ATOM     52  N   UNL A   1      40.047  31.575  32.261  1.00  0.00    -0.248 NA
ATOM     53  C   UNL A   1      40.049  32.797  30.281  1.00  0.00     0.031 C 
ATOM     54  C   UNL A   1      44.714  30.134  32.078  1.00  0.00     0.029 A 
ATOM     55  C   UNL A   1      43.716  31.098  31.921  1.00  0.00     0.049 A 
ATOM     56  H   UNL A   1      43.984  32.830  30.745  1.00  0.00     0.167 HD
ATOM     57  C   UNL A   1      41.361  31.916  31.975  1.00  0.00     0.074 A 
ATOM     58  C   UNL A   1      41.274  32.795  30.814  1.00  0.00     0.031 C 
ATOM     59  C   UNL A   1      42.404  31.223  32.524  1.00  0.00     0.031 A 
BRANCH  46  60
ATOM     60  C   UNL A   1      44.894  32.441  27.889  1.00  0.00    -0.014 A 
ATOM     61  C   UNL A   1      43.845  33.366  27.809  1.00  0.00     0.009 A 
ATOM     62  C   UNL A   1      46.017  32.669  27.070  1.00  0.00     0.009 A 
ATOM     63  C   UNL A   1      43.914  34.464  26.944  1.00  0.00     0.001 A 
ATOM     64  C   UNL A   1      46.112  33.789  26.243  1.00  0.00     0.001 A 
ATOM     65  C   UNL A   1      45.051  34.678  26.167  1.00  0.00     0.000 A 
ENDBRANCH  46  60
BRANCH  47  66
ATOM     66  C   UNL A   1      36.886  31.654  30.498  1.00  0.00    -0.014 A 
ATOM     67  C   UNL A   1      35.973  31.718  31.562  1.00  0.00     0.009 A 
ATOM     68  C   UNL A   1      36.572  32.360  29.323  1.00  0.00     0.009 A 
ATOM     69  C   UNL A   1      34.802  32.483  31.460  1.00  0.00     0.001 A 
ATOM     70  C   UNL A   1      35.402  33.118  29.218  1.00  0.00     0.001 A 
ATOM     71  C   UNL A   1      34.522  33.191  30.292  1.00  0.00     0.000 A 
ENDBRANCH  47  66
BRANCH  59  72
ATOM     72  C   UNL A   1      42.088  30.279  33.662  1.00  0.00    -0.014 A 
ATOM     73  C   UNL A   1      41.643  28.961  33.456  1.00  0.00     0.009 A 
ATOM     74  C   UNL A   1      42.368  30.683  34.976  1.00  0.00     0.009 A 
ATOM     75  C   UNL A   1      41.446  28.088  34.530  1.00  0.00     0.001 A 
ATOM     76  C   UNL A   1      42.194  29.804  36.049  1.00  0.00     0.001 A 
ATOM     77  C   UNL A   1      41.725  28.510  35.827  1.00  0.00     0.000 A 
ENDBRANCH  59  72
ENDBRANCH  33  34
ENDBRANCH  25  28
ENDBRANCH  23  24
ENDBRANCH  22  23
ENDBRANCH   1  22
TORSDOF 14
ENDMDL
