MODEL 1
REMARK VINA RESULT:     -12.7      0.000      0.000
REMARK SMILES Cc1ccc(-c2cc3cccnc3n2CCC(=O)NCCCNC(=O)c2ccc(-c3c4nc(c(-c5ccccc5)c5ccc([nH]5)c(-c5ccccc5)c5nc(c(-c6ccccc6)c6ccc3[nH]6)C=C5)C=C4)cc2)cn1
REMARK SMILES IDX 20 1 19 2 17 3 18 4 16 6 15 7 14 8 6 9 7 10 8 11 13 12 9 13
REMARK SMILES IDX 12 14 10 15 11 16 5 17 1 18 2 19 3 20 75 21 4 22 74 23 21 24
REMARK SMILES IDX 22 25 23 26 24 27 25 29 26 30 27 31 73 32 28 33 72 34 29 35
REMARK SMILES IDX 30 36 31 37 66 38 32 39 71 40 65 41 67 42 33 43 70 44 64 45
REMARK SMILES IDX 63 46 34 48 56 49 41 50 55 51 42 52 45 53 54 54 68 55 43 56
REMARK SMILES IDX 44 57 53 59 69 60 46 61 35 62 36 63 40 64 37 65 39 66 38 67
REMARK SMILES IDX 57 68 58 69 62 70 59 71 61 72 60 73 47 74 48 75 52 76 49 77
REMARK SMILES IDX 51 78 50 79
REMARK H PARENT 19 5 23 28 67 47 45 58
REMARK Flexibility Score: inf
ROOT
ATOM      1  C   UNL A   1      32.111  29.642  25.518  1.00  0.00     0.117 C 
ENDROOT
BRANCH   1   2
ATOM      2  N   UNL A   1      33.209  29.584  24.562  1.00  0.00    -0.356 N 
ATOM      3  C   UNL A   1      33.513  28.664  23.606  1.00  0.00     0.221 C 
ATOM      4  O   UNL A   1      34.405  28.952  22.801  1.00  0.00    -0.275 OA
ATOM      5  H   UNL A   1      33.839  30.339  24.617  1.00  0.00     0.163 HD
BRANCH   3   6
ATOM      6  C   UNL A   1      32.832  27.315  23.531  1.00  0.00     0.122 C 
BRANCH   6   7
ATOM      7  C   UNL A   1      31.764  27.186  22.428  1.00  0.00     0.134 C 
BRANCH   7   8
ATOM      8  N   UNL A   1      30.384  27.232  22.895  1.00  0.00    -0.325 N 
ATOM      9  C   UNL A   1      29.696  26.382  23.770  1.00  0.00     0.052 A 
ATOM     10  C   UNL A   1      28.406  26.929  23.865  1.00  0.00     0.039 A 
ATOM     11  C   UNL A   1      28.375  28.184  23.204  1.00  0.00     0.020 A 
ATOM     12  C   UNL A   1      29.579  28.302  22.534  1.00  0.00     0.140 A 
ATOM     13  C   UNL A   1      27.502  29.285  23.175  1.00  0.00     0.013 A 
ATOM     14  N   UNL A   1      29.977  29.342  21.769  1.00  0.00    -0.238 NA
ATOM     15  C   UNL A   1      27.895  30.406  22.441  1.00  0.00     0.021 A 
ATOM     16  C   UNL A   1      29.097  30.366  21.750  1.00  0.00     0.113 A 
BRANCH   9  17
ATOM     17  C   UNL A   1      30.237  25.302  24.643  1.00  0.00     0.017 A 
ATOM     18  C   UNL A   1      32.449  22.605  27.163  1.00  0.00     0.066 C 
ATOM     19  C   UNL A   1      31.662  23.532  26.286  1.00  0.00     0.037 A 
ATOM     20  C   UNL A   1      31.439  23.203  24.965  1.00  0.00     0.024 A 
ATOM     21  N   UNL A   1      31.166  24.666  26.829  1.00  0.00    -0.261 NA
ATOM     22  C   UNL A   1      30.716  24.087  24.166  1.00  0.00     0.014 A 
ATOM     23  C   UNL A   1      30.474  25.508  26.004  1.00  0.00     0.121 A 
ENDBRANCH   9  17
ENDBRANCH   7   8
ENDBRANCH   6   7
ENDBRANCH   3   6
ENDBRANCH   1   2
BRANCH   1  24
ATOM     24  C   UNL A   1      32.380  30.553  26.695  1.00  0.00     0.042 C 
BRANCH  24  25
ATOM     25  C   UNL A   1      33.779  30.559  27.258  1.00  0.00     0.118 C 
BRANCH  25  26
ATOM     26  N   UNL A   1      33.972  31.566  28.285  1.00  0.00    -0.352 N 
ATOM     27  C   UNL A   1      34.998  31.720  29.197  1.00  0.00     0.251 C 
ATOM     28  H   UNL A   1      33.262  32.246  28.339  1.00  0.00     0.163 HD
ATOM     29  O   UNL A   1      34.822  32.450  30.160  1.00  0.00    -0.269 OA
BRANCH  27  30
ATOM     30  C   UNL A   1      36.319  31.063  28.999  1.00  0.00     0.039 A 
ATOM     31  C   UNL A   1      36.365  29.732  28.557  1.00  0.00     0.014 A 
ATOM     32  C   UNL A   1      37.509  31.698  29.357  1.00  0.00     0.014 A 
ATOM     33  C   UNL A   1      37.571  29.037  28.620  1.00  0.00     0.010 A 
ATOM     34  C   UNL A   1      38.719  31.089  29.196  1.00  0.00     0.010 A 
ATOM     35  C   UNL A   1      38.721  29.726  29.015  1.00  0.00    -0.014 A 
BRANCH  35  36
ATOM     36  C   UNL A   1      39.987  29.076  29.269  1.00  0.00     0.031 A 
ATOM     37  C   UNL A   1      40.237  28.844  30.697  1.00  0.00     0.074 A 
ATOM     38  C   UNL A   1      40.741  28.529  28.290  1.00  0.00     0.049 A 
ATOM     39  N   UNL A   1      41.030  29.522  31.452  1.00  0.00    -0.248 NA
ATOM     40  C   UNL A   1      39.383  27.880  31.410  1.00  0.00     0.031 C 
ATOM     41  C   UNL A   1      40.428  28.378  26.859  1.00  0.00     0.029 A 
ATOM     42  N   UNL A   1      41.938  27.896  28.398  1.00  0.00    -0.354 N 
ATOM     43  C   UNL A   1      40.932  28.933  32.701  1.00  0.00     0.074 A 
ATOM     44  C   UNL A   1      39.769  28.081  32.671  1.00  0.00     0.031 C 
ATOM     45  C   UNL A   1      41.308  27.521  26.289  1.00  0.00     0.029 A 
ATOM     46  C   UNL A   1      42.336  27.200  27.263  1.00  0.00     0.049 A 
ATOM     47  H   UNL A   1      42.482  27.929  29.218  1.00  0.00     0.167 HD
ATOM     48  C   UNL A   1      41.981  28.954  33.564  1.00  0.00     0.031 A 
ATOM     49  C   UNL A   1      43.437  26.415  27.164  1.00  0.00     0.031 A 
ATOM     50  C   UNL A   1      43.045  29.796  33.086  1.00  0.00     0.049 A 
ATOM     51  C   UNL A   1      44.376  26.875  28.212  1.00  0.00     0.074 A 
ATOM     52  C   UNL A   1      43.270  31.151  32.987  1.00  0.00     0.029 A 
ATOM     53  N   UNL A   1      43.878  29.176  32.186  1.00  0.00    -0.354 N 
ATOM     54  N   UNL A   1      44.914  28.061  28.220  1.00  0.00    -0.248 NA
ATOM     55  C   UNL A   1      44.449  26.144  29.471  1.00  0.00     0.031 C 
ATOM     56  C   UNL A   1      44.088  31.330  31.830  1.00  0.00     0.029 A 
ATOM     57  C   UNL A   1      44.381  30.080  31.286  1.00  0.00     0.049 A 
ATOM     58  H   UNL A   1      44.084  28.213  32.186  1.00  0.00     0.167 HD
ATOM     59  C   UNL A   1      44.996  28.389  29.560  1.00  0.00     0.074 A 
ATOM     60  C   UNL A   1      44.867  27.125  30.275  1.00  0.00     0.031 C 
ATOM     61  C   UNL A   1      44.852  29.681  29.975  1.00  0.00     0.031 A 
BRANCH  48  62
ATOM     62  C   UNL A   1      42.225  27.862  34.561  1.00  0.00    -0.014 A 
ATOM     63  C   UNL A   1      42.763  26.641  34.132  1.00  0.00     0.009 A 
ATOM     64  C   UNL A   1      41.718  27.919  35.875  1.00  0.00     0.009 A 
ATOM     65  C   UNL A   1      42.809  25.536  34.992  1.00  0.00     0.001 A 
ATOM     66  C   UNL A   1      41.796  26.833  36.746  1.00  0.00     0.001 A 
ATOM     67  C   UNL A   1      42.334  25.635  36.299  1.00  0.00     0.000 A 
ENDBRANCH  48  62
BRANCH  49  68
ATOM     68  C   UNL A   1      43.606  25.095  26.510  1.00  0.00    -0.014 A 
ATOM     69  C   UNL A   1      42.572  24.142  26.578  1.00  0.00     0.009 A 
ATOM     70  C   UNL A   1      44.603  24.906  25.537  1.00  0.00     0.009 A 
ATOM     71  C   UNL A   1      42.487  23.096  25.649  1.00  0.00     0.001 A 
ATOM     72  C   UNL A   1      44.521  23.856  24.612  1.00  0.00     0.001 A 
ATOM     73  C   UNL A   1      43.449  22.968  24.651  1.00  0.00     0.000 A 
ENDBRANCH  49  68
BRANCH  61  74
ATOM     74  C   UNL A   1      45.029  30.763  28.945  1.00  0.00    -0.014 A 
ATOM     75  C   UNL A   1      46.269  31.338  28.618  1.00  0.00     0.009 A 
ATOM     76  C   UNL A   1      43.901  31.133  28.197  1.00  0.00     0.009 A 
ATOM     77  C   UNL A   1      46.371  32.258  27.568  1.00  0.00     0.001 A 
ATOM     78  C   UNL A   1      44.007  32.038  27.141  1.00  0.00     0.001 A 
ATOM     79  C   UNL A   1      45.241  32.600  26.825  1.00  0.00     0.000 A 
ENDBRANCH  61  74
ENDBRANCH  35  36
ENDBRANCH  27  30
ENDBRANCH  25  26
ENDBRANCH  24  25
ENDBRANCH   1  24
TORSDOF 13
ENDMDL
MODEL 2
REMARK VINA RESULT:     -12.5      4.803     10.664
REMARK SMILES Cc1ccc(-c2cc3cccnc3n2CCC(=O)NCCCNC(=O)c2ccc(-c3c4nc(c(-c5ccccc5)c5ccc([nH]5)c(-c5ccccc5)c5nc(c(-c6ccccc6)c6ccc3[nH]6)C=C5)C=C4)cc2)cn1
REMARK SMILES IDX 20 1 19 2 17 3 18 4 16 6 15 7 14 8 6 9 7 10 8 11 13 12 9 13
REMARK SMILES IDX 12 14 10 15 11 16 5 17 1 18 2 19 3 20 75 21 4 22 74 23 21 24
REMARK SMILES IDX 22 25 23 26 24 27 25 29 26 30 27 31 73 32 28 33 72 34 29 35
REMARK SMILES IDX 30 36 31 37 66 38 32 39 71 40 65 41 67 42 33 43 70 44 64 45
REMARK SMILES IDX 63 46 34 48 56 49 41 50 55 51 42 52 45 53 54 54 68 55 43 56
REMARK SMILES IDX 44 57 53 59 69 60 46 61 35 62 36 63 40 64 37 65 39 66 38 67
REMARK SMILES IDX 57 68 58 69 62 70 59 71 61 72 60 73 47 74 48 75 52 76 49 77
REMARK SMILES IDX 51 78 50 79
REMARK H PARENT 19 5 23 28 67 47 45 58
REMARK Flexibility Score: inf
ROOT
ATOM      1  C   UNL A   1      44.930  23.925  28.525  1.00  0.00     0.117 C 
ENDROOT
BRANCH   1   2
ATOM      2  N   UNL A   1      45.729  23.289  27.485  1.00  0.00    -0.356 N 
ATOM      3  C   UNL A   1      45.768  23.491  26.139  1.00  0.00     0.221 C 
ATOM      4  O   UNL A   1      46.676  22.943  25.507  1.00  0.00    -0.275 OA
ATOM      5  H   UNL A   1      46.346  22.595  27.812  1.00  0.00     0.163 HD
BRANCH   3   6
ATOM      6  C   UNL A   1      44.728  24.315  25.412  1.00  0.00     0.122 C 
BRANCH   6   7
ATOM      7  C   UNL A   1      43.527  23.516  24.871  1.00  0.00     0.134 C 
BRANCH   7   8
ATOM      8  N   UNL A   1      42.685  22.901  25.890  1.00  0.00    -0.325 N 
ATOM      9  C   UNL A   1      41.714  23.468  26.725  1.00  0.00     0.052 A 
ATOM     10  C   UNL A   1      41.217  22.396  27.482  1.00  0.00     0.039 A 
ATOM     11  C   UNL A   1      41.749  21.178  26.984  1.00  0.00     0.020 A 
ATOM     12  C   UNL A   1      42.724  21.526  26.066  1.00  0.00     0.140 A 
ATOM     13  C   UNL A   1      41.449  19.813  27.131  1.00  0.00     0.013 A 
ATOM     14  N   UNL A   1      43.493  20.678  25.348  1.00  0.00    -0.238 NA
ATOM     15  C   UNL A   1      42.182  18.902  26.369  1.00  0.00     0.021 A 
ATOM     16  C   UNL A   1      43.187  19.377  25.539  1.00  0.00     0.113 A 
BRANCH   9  17
ATOM     17  C   UNL A   1      41.111  24.830  26.666  1.00  0.00     0.017 A 
ATOM     18  C   UNL A   1      40.007  28.984  26.869  1.00  0.00     0.066 C 
ATOM     19  C   UNL A   1      40.374  27.533  26.789  1.00  0.00     0.037 A 
ATOM     20  C   UNL A   1      39.763  26.623  27.627  1.00  0.00     0.024 A 
ATOM     21  N   UNL A   1      41.286  27.149  25.868  1.00  0.00    -0.261 NA
ATOM     22  C   UNL A   1      40.131  25.281  27.543  1.00  0.00     0.014 A 
ATOM     23  C   UNL A   1      41.623  25.825  25.832  1.00  0.00     0.121 A 
ENDBRANCH   9  17
ENDBRANCH   7   8
ENDBRANCH   6   7
ENDBRANCH   3   6
ENDBRANCH   1   2
BRANCH   1  24
ATOM     24  C   UNL A   1      44.471  22.971  29.605  1.00  0.00     0.042 C 
BRANCH  24  25
ATOM     25  C   UNL A   1      43.945  23.576  30.883  1.00  0.00     0.118 C 
BRANCH  25  26
ATOM     26  N   UNL A   1      44.928  24.395  31.567  1.00  0.00    -0.352 N 
ATOM     27  C   UNL A   1      45.034  25.770  31.653  1.00  0.00     0.251 C 
ATOM     28  H   UNL A   1      45.627  23.893  32.046  1.00  0.00     0.163 HD
ATOM     29  O   UNL A   1      46.092  26.255  32.022  1.00  0.00    -0.269 OA
BRANCH  27  30
ATOM     30  C   UNL A   1      43.876  26.658  31.360  1.00  0.00     0.039 A 
ATOM     31  C   UNL A   1      43.321  26.661  30.071  1.00  0.00     0.014 A 
ATOM     32  C   UNL A   1      43.407  27.576  32.301  1.00  0.00     0.014 A 
ATOM     33  C   UNL A   1      42.421  27.665  29.722  1.00  0.00     0.010 A 
ATOM     34  C   UNL A   1      42.359  28.406  32.027  1.00  0.00     0.010 A 
ATOM     35  C   UNL A   1      42.013  28.571  30.706  1.00  0.00    -0.014 A 
BRANCH  35  36
ATOM     36  C   UNL A   1      41.212  29.741  30.423  1.00  0.00     0.031 A 
ATOM     37  C   UNL A   1      42.014  30.896  29.999  1.00  0.00     0.074 A 
ATOM     38  C   UNL A   1      39.865  29.704  30.330  1.00  0.00     0.049 A 
ATOM     39  N   UNL A   1      42.316  31.921  30.718  1.00  0.00    -0.248 NA
ATOM     40  C   UNL A   1      42.710  30.827  28.704  1.00  0.00     0.031 C 
ATOM     41  C   UNL A   1      38.968  28.538  30.378  1.00  0.00     0.029 A 
ATOM     42  N   UNL A   1      39.007  30.725  30.072  1.00  0.00    -0.354 N 
ATOM     43  C   UNL A   1      43.074  32.733  29.892  1.00  0.00     0.074 A 
ATOM     44  C   UNL A   1      43.459  31.930  28.757  1.00  0.00     0.031 C 
ATOM     45  C   UNL A   1      37.733  28.895  29.951  1.00  0.00     0.029 A 
ATOM     46  C   UNL A   1      37.709  30.334  29.764  1.00  0.00     0.049 A 
ATOM     47  H   UNL A   1      39.283  31.669  30.101  1.00  0.00     0.167 HD
ATOM     48  C   UNL A   1      43.075  34.081  30.052  1.00  0.00     0.031 A 
ATOM     49  C   UNL A   1      36.706  31.161  29.376  1.00  0.00     0.031 A 
ATOM     50  C   UNL A   1      42.379  34.474  31.249  1.00  0.00     0.049 A 
ATOM     51  C   UNL A   1      37.058  32.509  29.877  1.00  0.00     0.074 A 
ATOM     52  C   UNL A   1      42.638  34.446  32.601  1.00  0.00     0.029 A 
ATOM     53  N   UNL A   1      41.016  34.555  31.094  1.00  0.00    -0.354 N 
ATOM     54  N   UNL A   1      37.147  32.801  31.143  1.00  0.00    -0.248 NA
ATOM     55  C   UNL A   1      37.671  33.468  28.967  1.00  0.00     0.031 C 
ATOM     56  C   UNL A   1      41.372  34.269  33.239  1.00  0.00     0.029 A 
ATOM     57  C   UNL A   1      40.374  34.245  32.266  1.00  0.00     0.049 A 
ATOM     58  H   UNL A   1      40.561  34.799  30.256  1.00  0.00     0.167 HD
ATOM     59  C   UNL A   1      38.179  33.718  31.209  1.00  0.00     0.074 A 
ATOM     60  C   UNL A   1      38.338  34.218  29.849  1.00  0.00     0.031 C 
ATOM     61  C   UNL A   1      39.007  33.763  32.291  1.00  0.00     0.031 A 
BRANCH  48  62
ATOM     62  C   UNL A   1      43.272  35.028  28.907  1.00  0.00    -0.014 A 
ATOM     63  C   UNL A   1      44.502  35.681  28.753  1.00  0.00     0.009 A 
ATOM     64  C   UNL A   1      42.199  35.475  28.110  1.00  0.00     0.009 A 
ATOM     65  C   UNL A   1      44.652  36.720  27.826  1.00  0.00     0.001 A 
ATOM     66  C   UNL A   1      42.354  36.484  27.160  1.00  0.00     0.001 A 
ATOM     67  C   UNL A   1      43.581  37.114  27.025  1.00  0.00     0.000 A 
ENDBRANCH  48  62
BRANCH  49  68
ATOM     68  C   UNL A   1      35.680  30.979  28.322  1.00  0.00    -0.014 A 
ATOM     69  C   UNL A   1      35.629  29.775  27.593  1.00  0.00     0.009 A 
ATOM     70  C   UNL A   1      34.551  31.815  28.278  1.00  0.00     0.009 A 
ATOM     71  C   UNL A   1      34.462  29.379  26.926  1.00  0.00     0.001 A 
ATOM     72  C   UNL A   1      33.385  31.421  27.605  1.00  0.00     0.001 A 
ATOM     73  C   UNL A   1      33.332  30.192  26.954  1.00  0.00     0.000 A 
ENDBRANCH  49  68
BRANCH  61  74
ATOM     74  C   UNL A   1      38.529  33.109  33.558  1.00  0.00    -0.014 A 
ATOM     75  C   UNL A   1      38.769  31.763  33.884  1.00  0.00     0.009 A 
ATOM     76  C   UNL A   1      37.905  33.927  34.512  1.00  0.00     0.009 A 
ATOM     77  C   UNL A   1      38.392  31.255  35.133  1.00  0.00     0.001 A 
ATOM     78  C   UNL A   1      37.545  33.425  35.762  1.00  0.00     0.001 A 
ATOM     79  C   UNL A   1      37.788  32.089  36.074  1.00  0.00     0.000 A 
ENDBRANCH  61  74
ENDBRANCH  35  36
ENDBRANCH  27  30
ENDBRANCH  25  26
ENDBRANCH  24  25
ENDBRANCH   1  24
TORSDOF 13
ENDMDL
MODEL 3
REMARK VINA RESULT:     -12.2      4.794     10.355
REMARK SMILES Cc1ccc(-c2cc3cccnc3n2CCC(=O)NCCCNC(=O)c2ccc(-c3c4nc(c(-c5ccccc5)c5ccc([nH]5)c(-c5ccccc5)c5nc(c(-c6ccccc6)c6ccc3[nH]6)C=C5)C=C4)cc2)cn1
REMARK SMILES IDX 20 1 19 2 17 3 18 4 16 6 15 7 14 8 6 9 7 10 8 11 13 12 9 13
REMARK SMILES IDX 12 14 10 15 11 16 5 17 1 18 2 19 3 20 75 21 4 22 74 23 21 24
REMARK SMILES IDX 22 25 23 26 24 27 25 29 26 30 27 31 73 32 28 33 72 34 29 35
REMARK SMILES IDX 30 36 31 37 66 38 32 39 71 40 65 41 67 42 33 43 70 44 64 45
REMARK SMILES IDX 63 46 34 48 56 49 41 50 55 51 42 52 45 53 54 54 68 55 43 56
REMARK SMILES IDX 44 57 53 59 69 60 46 61 35 62 36 63 40 64 37 65 39 66 38 67
REMARK SMILES IDX 57 68 58 69 62 70 59 71 61 72 60 73 47 74 48 75 52 76 49 77
REMARK SMILES IDX 51 78 50 79
REMARK H PARENT 19 5 23 28 67 47 45 58
REMARK Flexibility Score: inf
ROOT
ATOM      1  C   UNL A   1      44.272  23.689  29.021  1.00  0.00     0.117 C 
ENDROOT
BRANCH   1   2
ATOM      2  N   UNL A   1      45.153  23.221  27.958  1.00  0.00    -0.356 N 
ATOM      3  C   UNL A   1      45.664  23.866  26.874  1.00  0.00     0.221 C 
ATOM      4  O   UNL A   1      46.541  23.284  26.227  1.00  0.00    -0.275 OA
ATOM      5  H   UNL A   1      45.424  22.278  28.038  1.00  0.00     0.163 HD
BRANCH   3   6
ATOM      6  C   UNL A   1      45.170  25.225  26.429  1.00  0.00     0.122 C 
BRANCH   6   7
ATOM      7  C   UNL A   1      44.141  25.198  25.282  1.00  0.00     0.134 C 
BRANCH   7   8
ATOM      8  N   UNL A   1      42.748  25.302  25.698  1.00  0.00    -0.325 N 
ATOM      9  C   UNL A   1      41.835  24.304  26.064  1.00  0.00     0.052 A 
ATOM     10  C   UNL A   1      40.657  24.994  26.388  1.00  0.00     0.039 A 
ATOM     11  C   UNL A   1      40.911  26.390  26.393  1.00  0.00     0.020 A 
ATOM     12  C   UNL A   1      42.181  26.556  25.871  1.00  0.00     0.140 A 
ATOM     13  C   UNL A   1      40.248  27.532  26.873  1.00  0.00     0.013 A 
ATOM     14  N   UNL A   1      42.830  27.727  25.688  1.00  0.00    -0.238 NA
ATOM     15  C   UNL A   1      40.903  28.760  26.754  1.00  0.00     0.021 A 
ATOM     16  C   UNL A   1      42.146  28.800  26.141  1.00  0.00     0.113 A 
BRANCH   9  17
ATOM     17  C   UNL A   1      42.089  22.860  26.336  1.00  0.00     0.017 A 
ATOM     18  C   UNL A   1      42.331  18.569  26.538  1.00  0.00     0.066 C 
ATOM     19  C   UNL A   1      42.259  20.065  26.484  1.00  0.00     0.037 A 
ATOM     20  C   UNL A   1      41.526  20.753  27.429  1.00  0.00     0.024 A 
ATOM     21  N   UNL A   1      42.945  20.709  25.512  1.00  0.00    -0.261 NA
ATOM     22  C   UNL A   1      41.463  22.142  27.350  1.00  0.00     0.014 A 
ATOM     23  C   UNL A   1      42.844  22.071  25.468  1.00  0.00     0.121 A 
ENDBRANCH   9  17
ENDBRANCH   7   8
ENDBRANCH   6   7
ENDBRANCH   3   6
ENDBRANCH   1   2
BRANCH   1  24
ATOM     24  C   UNL A   1      44.441  22.937  30.322  1.00  0.00     0.042 C 
BRANCH  24  25
ATOM     25  C   UNL A   1      44.136  23.686  31.597  1.00  0.00     0.118 C 
BRANCH  25  26
ATOM     26  N   UNL A   1      45.193  24.603  31.980  1.00  0.00    -0.352 N 
ATOM     27  C   UNL A   1      45.305  25.964  31.774  1.00  0.00     0.251 C 
ATOM     28  H   UNL A   1      45.946  24.192  32.463  1.00  0.00     0.163 HD
ATOM     29  O   UNL A   1      46.399  26.490  31.910  1.00  0.00    -0.269 OA
BRANCH  27  30
ATOM     30  C   UNL A   1      44.119  26.802  31.448  1.00  0.00     0.039 A 
ATOM     31  C   UNL A   1      43.656  26.853  30.124  1.00  0.00     0.014 A 
ATOM     32  C   UNL A   1      43.529  27.632  32.402  1.00  0.00     0.014 A 
ATOM     33  C   UNL A   1      42.723  27.823  29.768  1.00  0.00     0.010 A 
ATOM     34  C   UNL A   1      42.454  28.416  32.100  1.00  0.00     0.010 A 
ATOM     35  C   UNL A   1      42.192  28.642  30.769  1.00  0.00    -0.014 A 
BRANCH  35  36
ATOM     36  C   UNL A   1      41.343  29.780  30.496  1.00  0.00     0.031 A 
ATOM     37  C   UNL A   1      42.098  30.979  30.112  1.00  0.00     0.074 A 
ATOM     38  C   UNL A   1      40.001  29.682  30.375  1.00  0.00     0.049 A 
ATOM     39  N   UNL A   1      42.338  32.001  30.858  1.00  0.00    -0.248 NA
ATOM     40  C   UNL A   1      42.821  30.971  28.829  1.00  0.00     0.031 C 
ATOM     41  C   UNL A   1      39.159  28.475  30.381  1.00  0.00     0.029 A 
ATOM     42  N   UNL A   1      39.101  30.668  30.122  1.00  0.00    -0.354 N 
ATOM     43  C   UNL A   1      43.073  32.865  30.064  1.00  0.00     0.074 A 
ATOM     44  C   UNL A   1      43.516  32.106  28.920  1.00  0.00     0.031 C 
ATOM     45  C   UNL A   1      37.917  28.784  29.937  1.00  0.00     0.029 A 
ATOM     46  C   UNL A   1      37.829  30.225  29.781  1.00  0.00     0.049 A 
ATOM     47  H   UNL A   1      39.333  31.624  30.177  1.00  0.00     0.167 HD
ATOM     48  C   UNL A   1      43.008  34.209  30.253  1.00  0.00     0.031 A 
ATOM     49  C   UNL A   1      36.796  31.013  29.391  1.00  0.00     0.031 A 
ATOM     50  C   UNL A   1      42.273  34.542  31.444  1.00  0.00     0.049 A 
ATOM     51  C   UNL A   1      37.075  32.364  29.927  1.00  0.00     0.074 A 
ATOM     52  C   UNL A   1      42.507  34.496  32.800  1.00  0.00     0.029 A 
ATOM     53  N   UNL A   1      40.910  34.563  31.264  1.00  0.00    -0.354 N 
ATOM     54  N   UNL A   1      37.127  32.632  31.201  1.00  0.00    -0.248 NA
ATOM     55  C   UNL A   1      37.660  33.371  29.050  1.00  0.00     0.031 C 
ATOM     56  C   UNL A   1      41.240  34.247  33.409  1.00  0.00     0.029 A 
ATOM     57  C   UNL A   1      40.262  34.199  32.417  1.00  0.00     0.049 A 
ATOM     58  H   UNL A   1      40.461  34.805  30.423  1.00  0.00     0.167 HD
ATOM     59  C   UNL A   1      38.113  33.594  31.307  1.00  0.00     0.074 A 
ATOM     60  C   UNL A   1      38.274  34.130  29.960  1.00  0.00     0.031 C 
ATOM     61  C   UNL A   1      38.919  33.654  32.405  1.00  0.00     0.031 A 
BRANCH  48  62
ATOM     62  C   UNL A   1      43.182  35.188  29.133  1.00  0.00    -0.014 A 
ATOM     63  C   UNL A   1      42.083  35.530  28.334  1.00  0.00     0.009 A 
ATOM     64  C   UNL A   1      44.456  35.605  28.693  1.00  0.00     0.009 A 
ATOM     65  C   UNL A   1      42.253  36.274  27.159  1.00  0.00     0.001 A 
ATOM     66  C   UNL A   1      44.625  36.378  27.544  1.00  0.00     0.001 A 
ATOM     67  C   UNL A   1      43.521  36.704  26.771  1.00  0.00     0.000 A 
ENDBRANCH  48  62
BRANCH  49  68
ATOM     68  C   UNL A   1      35.799  30.807  28.313  1.00  0.00    -0.014 A 
ATOM     69  C   UNL A   1      35.810  29.612  27.568  1.00  0.00     0.009 A 
ATOM     70  C   UNL A   1      34.640  31.600  28.257  1.00  0.00     0.009 A 
ATOM     71  C   UNL A   1      34.672  29.182  26.871  1.00  0.00     0.001 A 
ATOM     72  C   UNL A   1      33.504  31.172  27.555  1.00  0.00     0.001 A 
ATOM     73  C   UNL A   1      33.512  29.951  26.886  1.00  0.00     0.000 A 
ENDBRANCH  49  68
BRANCH  61  74
ATOM     74  C   UNL A   1      38.449  32.950  33.649  1.00  0.00    -0.014 A 
ATOM     75  C   UNL A   1      38.743  31.609  33.950  1.00  0.00     0.009 A 
ATOM     76  C   UNL A   1      37.771  33.718  34.607  1.00  0.00     0.009 A 
ATOM     77  C   UNL A   1      38.368  31.057  35.180  1.00  0.00     0.001 A 
ATOM     78  C   UNL A   1      37.411  33.172  35.840  1.00  0.00     0.001 A 
ATOM     79  C   UNL A   1      37.710  31.842  36.127  1.00  0.00     0.000 A 
ENDBRANCH  61  74
ENDBRANCH  35  36
ENDBRANCH  27  30
ENDBRANCH  25  26
ENDBRANCH  24  25
ENDBRANCH   1  24
TORSDOF 13
ENDMDL
