MODEL 1
REMARK VINA RESULT:     -11.6      0.000      0.000
REMARK SMILES O=C(NCCCNC(=O)c1ccc(-c2c3nc(c(-c4ccccc4)c4ccc([nH]4)c(-c4ccccc4)c4nc(c(-c5ccccc5)c5ccc2[nH]5)C=C4)C=C3)cc1)C1=Cc2c(ccc(Cl)c2Sc2ccccc2)O[C@H]1C(F)(F)F
REMARK SMILES IDX 5 1 4 2 3 3 1 4 2 5 58 7 59 8 75 9 60 10 74 11 61 12 66 13
REMARK SMILES IDX 62 14 64 15 63 16 65 17 76 18 77 19 78 20 79 21 67 22 68 23
REMARK SMILES IDX 69 24 73 25 70 26 72 27 71 28 6 29 7 30 8 31 9 33 10 34
REMARK SMILES IDX 11 35 57 36 12 37 56 38 13 39 14 40 15 41 50 42 16 43 55 44
REMARK SMILES IDX 49 45 51 46 17 47 54 48 48 49 47 50 18 52 40 53 25 54 39 55
REMARK SMILES IDX 26 56 29 57 38 58 52 59 27 60 28 61 37 63 53 64 30 65 19 66
REMARK SMILES IDX 20 67 24 68 21 69 23 70 22 71 41 72 42 73 46 74 43 75 45 76
REMARK SMILES IDX 44 77 31 78 32 79 36 80 33 81 35 82 34 83
REMARK H PARENT 3 6 7 32 51 51 29 62
REMARK Flexibility Score: inf
ROOT
ATOM      1  C   UNL A   1      32.631  28.985  26.662  1.00  0.00     0.042 C 
ENDROOT
BRANCH   1   2
ATOM      2  C   UNL A   1      33.097  27.545  26.780  1.00  0.00     0.118 C 
BRANCH   2   3
ATOM      3  N   UNL A   1      33.750  27.058  25.581  1.00  0.00    -0.352 N 
ATOM      4  O   UNL A   1      34.223  25.729  23.841  1.00  0.00    -0.270 OA
ATOM      5  C   UNL A   1      33.454  26.017  24.753  1.00  0.00     0.251 C 
ATOM      6  H   UNL A   1      34.549  27.570  25.317  1.00  0.00     0.163 HD
BRANCH   5   7
ATOM      7  C   UNL A   1      32.249  25.198  24.961  1.00  0.00     0.067 C 
ATOM      8  C   UNL A   1      32.240  24.127  25.762  1.00  0.00     0.026 C 
ATOM      9  C   UNL A   1      31.071  25.416  24.075  1.00  0.00     0.314 C 
ATOM     10  C   UNL A   1      32.127  22.891  24.956  1.00  0.00     0.033 A 
ATOM     11  O   UNL A   1      30.686  24.166  23.407  1.00  0.00    -0.475 OA
ATOM     12  C   UNL A   1      31.368  23.017  23.762  1.00  0.00     0.129 A 
ATOM     13  C   UNL A   1      32.924  21.742  25.220  1.00  0.00     0.042 A 
ATOM     14  C   UNL A   1      31.391  22.007  22.812  1.00  0.00     0.049 A 
ATOM     15  C   UNL A   1      32.968  20.764  24.196  1.00  0.00     0.055 A 
ATOM     16  C   UNL A   1      32.212  20.900  23.017  1.00  0.00     0.025 A 
ATOM     17  Cl  UNL A   1      34.026  19.388  24.251  1.00  0.00    -0.083 Cl
BRANCH   9  18
ATOM     18  C   UNL A   1      29.887  26.011  24.857  1.00  0.00     0.429 C 
ATOM     19  F   UNL A   1      30.148  27.255  25.323  1.00  0.00    -0.167 F 
ATOM     20  F   UNL A   1      28.783  26.105  24.079  1.00  0.00    -0.167 F 
ATOM     21  F   UNL A   1      29.559  25.251  25.931  1.00  0.00    -0.167 F 
ENDBRANCH   9  18
BRANCH  13  22
ATOM     22  S   UNL A   1      34.042  21.544  26.650  1.00  0.00    -0.088 SA
BRANCH  22  23
ATOM     23  C   UNL A   1      35.651  22.099  26.129  1.00  0.00     0.012 A 
ATOM     24  C   UNL A   1      35.986  23.458  26.233  1.00  0.00     0.015 A 
ATOM     25  C   UNL A   1      36.628  21.177  25.739  1.00  0.00     0.015 A 
ATOM     26  C   UNL A   1      37.311  23.869  26.067  1.00  0.00     0.001 A 
ATOM     27  C   UNL A   1      37.952  21.592  25.567  1.00  0.00     0.001 A 
ATOM     28  C   UNL A   1      38.296  22.931  25.757  1.00  0.00     0.000 A 
ENDBRANCH  22  23
ENDBRANCH  13  22
ENDBRANCH   5   7
ENDBRANCH   2   3
ENDBRANCH   1   2
BRANCH   1  29
ATOM     29  C   UNL A   1      33.796  29.958  26.634  1.00  0.00     0.118 C 
BRANCH  29  30
ATOM     30  N   UNL A   1      33.792  30.932  27.725  1.00  0.00    -0.352 N 
ATOM     31  C   UNL A   1      34.732  31.188  28.699  1.00  0.00     0.251 C 
ATOM     32  H   UNL A   1      32.986  31.495  27.771  1.00  0.00     0.163 HD
ATOM     33  O   UNL A   1      34.501  32.029  29.565  1.00  0.00    -0.269 OA
BRANCH  31  34
ATOM     34  C   UNL A   1      35.993  30.416  28.745  1.00  0.00     0.039 A 
ATOM     35  C   UNL A   1      36.864  30.465  27.652  1.00  0.00     0.014 A 
ATOM     36  C   UNL A   1      36.347  29.691  29.879  1.00  0.00     0.014 A 
ATOM     37  C   UNL A   1      38.132  29.889  27.751  1.00  0.00     0.010 A 
ATOM     38  C   UNL A   1      37.654  29.254  30.032  1.00  0.00     0.010 A 
ATOM     39  C   UNL A   1      38.564  29.337  28.968  1.00  0.00    -0.014 A 
BRANCH  39  40
ATOM     40  C   UNL A   1      39.942  28.818  29.166  1.00  0.00     0.031 A 
ATOM     41  C   UNL A   1      41.007  29.730  29.719  1.00  0.00     0.074 A 
ATOM     42  C   UNL A   1      40.264  27.577  28.750  1.00  0.00     0.049 A 
ATOM     43  N   UNL A   1      42.298  29.535  29.814  1.00  0.00    -0.248 NA
ATOM     44  C   UNL A   1      40.570  31.062  30.175  1.00  0.00     0.031 C 
ATOM     45  C   UNL A   1      39.345  26.612  28.140  1.00  0.00     0.029 A 
ATOM     46  N   UNL A   1      41.468  26.916  28.767  1.00  0.00    -0.354 N 
ATOM     47  C   UNL A   1      42.823  30.730  30.289  1.00  0.00     0.074 A 
ATOM     48  C   UNL A   1      41.726  31.665  30.401  1.00  0.00     0.031 C 
ATOM     49  C   UNL A   1      40.006  25.473  27.881  1.00  0.00     0.029 A 
ATOM     50  C   UNL A   1      41.406  25.641  28.255  1.00  0.00     0.049 A 
ATOM     51  H   UNL A   1      42.298  27.317  29.113  1.00  0.00     0.167 HD
ATOM     52  C   UNL A   1      44.100  31.021  30.631  1.00  0.00     0.031 A 
ATOM     53  C   UNL A   1      42.370  24.713  28.102  1.00  0.00     0.031 A 
ATOM     54  C   UNL A   1      45.177  30.072  30.577  1.00  0.00     0.049 A 
ATOM     55  C   UNL A   1      43.772  25.043  28.530  1.00  0.00     0.074 A 
ATOM     56  C   UNL A   1      46.490  30.235  30.980  1.00  0.00     0.029 A 
ATOM     57  N   UNL A   1      45.058  28.776  30.102  1.00  0.00    -0.354 N 
ATOM     58  N   UNL A   1      44.240  26.158  29.036  1.00  0.00    -0.248 NA
ATOM     59  C   UNL A   1      44.777  23.982  28.378  1.00  0.00     0.031 C 
ATOM     60  C   UNL A   1      47.176  29.046  30.713  1.00  0.00     0.029 A 
ATOM     61  C   UNL A   1      46.277  28.129  30.192  1.00  0.00     0.049 A 
ATOM     62  H   UNL A   1      44.229  28.375  29.754  1.00  0.00     0.167 HD
ATOM     63  C   UNL A   1      45.585  25.924  29.291  1.00  0.00     0.074 A 
ATOM     64  C   UNL A   1      45.854  24.555  28.897  1.00  0.00     0.031 C 
ATOM     65  C   UNL A   1      46.516  26.763  29.804  1.00  0.00     0.031 A 
BRANCH  52  66
ATOM     66  C   UNL A   1      44.391  32.418  31.109  1.00  0.00    -0.014 A 
ATOM     67  C   UNL A   1      44.753  33.436  30.212  1.00  0.00     0.009 A 
ATOM     68  C   UNL A   1      44.282  32.725  32.474  1.00  0.00     0.009 A 
ATOM     69  C   UNL A   1      45.045  34.719  30.677  1.00  0.00     0.001 A 
ATOM     70  C   UNL A   1      44.542  34.018  32.932  1.00  0.00     0.001 A 
ATOM     71  C   UNL A   1      44.935  35.011  32.036  1.00  0.00     0.000 A 
ENDBRANCH  52  66
BRANCH  53  72
ATOM     72  C   UNL A   1      42.040  23.374  27.544  1.00  0.00    -0.014 A 
ATOM     73  C   UNL A   1      41.487  22.381  28.367  1.00  0.00     0.009 A 
ATOM     74  C   UNL A   1      42.279  23.078  26.193  1.00  0.00     0.009 A 
ATOM     75  C   UNL A   1      41.209  21.110  27.859  1.00  0.00     0.001 A 
ATOM     76  C   UNL A   1      41.973  21.816  25.680  1.00  0.00     0.001 A 
ATOM     77  C   UNL A   1      41.449  20.830  26.515  1.00  0.00     0.000 A 
ENDBRANCH  53  72
BRANCH  65  78
ATOM     78  C   UNL A   1      47.897  26.214  30.013  1.00  0.00    -0.014 A 
ATOM     79  C   UNL A   1      48.831  26.174  28.968  1.00  0.00     0.009 A 
ATOM     80  C   UNL A   1      48.282  25.782  31.292  1.00  0.00     0.009 A 
ATOM     81  C   UNL A   1      50.118  25.684  29.194  1.00  0.00     0.001 A 
ATOM     82  C   UNL A   1      49.578  25.320  31.522  1.00  0.00     0.001 A 
ATOM     83  C   UNL A   1      50.492  25.263  30.471  1.00  0.00     0.000 A 
ENDBRANCH  65  78
ENDBRANCH  39  40
ENDBRANCH  31  34
ENDBRANCH  29  30
ENDBRANCH   1  29
TORSDOF 13
ENDMDL
MODEL 2
REMARK VINA RESULT:     -11.5      2.694      7.488
REMARK SMILES O=C(NCCCNC(=O)c1ccc(-c2c3nc(c(-c4ccccc4)c4ccc([nH]4)c(-c4ccccc4)c4nc(c(-c5ccccc5)c5ccc2[nH]5)C=C4)C=C3)cc1)C1=Cc2c(ccc(Cl)c2Sc2ccccc2)O[C@H]1C(F)(F)F
REMARK SMILES IDX 5 1 4 2 3 3 1 4 2 5 58 7 59 8 75 9 60 10 74 11 61 12 66 13
REMARK SMILES IDX 62 14 64 15 63 16 65 17 76 18 77 19 78 20 79 21 67 22 68 23
REMARK SMILES IDX 69 24 73 25 70 26 72 27 71 28 6 29 7 30 8 31 9 33 10 34
REMARK SMILES IDX 11 35 57 36 12 37 56 38 13 39 14 40 15 41 50 42 16 43 55 44
REMARK SMILES IDX 49 45 51 46 17 47 54 48 48 49 47 50 18 52 40 53 25 54 39 55
REMARK SMILES IDX 26 56 29 57 38 58 52 59 27 60 28 61 37 63 53 64 30 65 19 66
REMARK SMILES IDX 20 67 24 68 21 69 23 70 22 71 41 72 42 73 46 74 43 75 45 76
REMARK SMILES IDX 44 77 31 78 32 79 36 80 33 81 35 82 34 83
REMARK H PARENT 3 6 7 32 51 51 29 62
REMARK Flexibility Score: inf
ROOT
ATOM      1  C   UNL A   1      37.838  20.157  24.857  1.00  0.00     0.042 C 
ENDROOT
BRANCH   1   2
ATOM      2  C   UNL A   1      37.033  21.392  24.496  1.00  0.00     0.118 C 
BRANCH   2   3
ATOM      3  N   UNL A   1      36.514  22.093  25.655  1.00  0.00    -0.352 N 
ATOM      4  O   UNL A   1      35.042  23.076  27.027  1.00  0.00    -0.270 OA
ATOM      5  C   UNL A   1      35.238  22.367  26.043  1.00  0.00     0.251 C 
ATOM      6  H   UNL A   1      37.206  22.428  26.270  1.00  0.00     0.163 HD
BRANCH   5   7
ATOM      7  C   UNL A   1      34.083  21.870  25.277  1.00  0.00     0.067 C 
ATOM      8  C   UNL A   1      33.568  22.541  24.241  1.00  0.00     0.026 C 
ATOM      9  C   UNL A   1      33.313  20.712  25.810  1.00  0.00     0.314 C 
ATOM     10  C   UNL A   1      32.242  23.091  24.602  1.00  0.00     0.033 A 
ATOM     11  O   UNL A   1      31.894  21.057  25.962  1.00  0.00    -0.475 OA
ATOM     12  C   UNL A   1      31.489  22.301  25.512  1.00  0.00     0.129 A 
ATOM     13  C   UNL A   1      31.859  24.421  24.269  1.00  0.00     0.042 A 
ATOM     14  C   UNL A   1      30.349  22.820  26.107  1.00  0.00     0.049 A 
ATOM     15  C   UNL A   1      30.725  24.931  24.946  1.00  0.00     0.055 A 
ATOM     16  C   UNL A   1      29.988  24.140  25.846  1.00  0.00     0.025 A 
ATOM     17  Cl  UNL A   1      30.216  26.587  24.815  1.00  0.00    -0.083 Cl
BRANCH   9  18
ATOM     18  C   UNL A   1      33.486  19.470  24.919  1.00  0.00     0.429 C 
ATOM     19  F   UNL A   1      32.813  19.574  23.749  1.00  0.00    -0.167 F 
ATOM     20  F   UNL A   1      34.788  19.267  24.609  1.00  0.00    -0.167 F 
ATOM     21  F   UNL A   1      33.037  18.345  25.530  1.00  0.00    -0.167 F 
ENDBRANCH   9  18
BRANCH  13  22
ATOM     22  S   UNL A   1      32.829  25.563  23.226  1.00  0.00    -0.088 SA
BRANCH  22  23
ATOM     23  C   UNL A   1      33.321  26.921  24.266  1.00  0.00     0.012 A 
ATOM     24  C   UNL A   1      33.146  28.240  23.819  1.00  0.00     0.015 A 
ATOM     25  C   UNL A   1      33.758  26.690  25.575  1.00  0.00     0.015 A 
ATOM     26  C   UNL A   1      33.290  29.307  24.709  1.00  0.00     0.001 A 
ATOM     27  C   UNL A   1      33.908  27.761  26.461  1.00  0.00     0.001 A 
ATOM     28  C   UNL A   1      33.649  29.064  26.035  1.00  0.00     0.000 A 
ENDBRANCH  22  23
ENDBRANCH  13  22
ENDBRANCH   5   7
ENDBRANCH   2   3
ENDBRANCH   1   2
BRANCH   1  29
ATOM     29  C   UNL A   1      39.011  20.489  25.762  1.00  0.00     0.118 C 
BRANCH  29  30
ATOM     30  N   UNL A   1      40.063  19.472  25.778  1.00  0.00    -0.352 N 
ATOM     31  C   UNL A   1      41.387  19.561  26.148  1.00  0.00     0.251 C 
ATOM     32  H   UNL A   1      39.778  18.580  25.475  1.00  0.00     0.163 HD
ATOM     33  O   UNL A   1      42.120  18.582  26.034  1.00  0.00    -0.269 OA
BRANCH  31  34
ATOM     34  C   UNL A   1      41.946  20.844  26.627  1.00  0.00     0.039 A 
ATOM     35  C   UNL A   1      42.401  21.781  25.694  1.00  0.00     0.014 A 
ATOM     36  C   UNL A   1      41.973  21.151  27.984  1.00  0.00     0.014 A 
ATOM     37  C   UNL A   1      42.765  23.061  26.119  1.00  0.00     0.010 A 
ATOM     38  C   UNL A   1      42.187  22.461  28.386  1.00  0.00     0.010 A 
ATOM     39  C   UNL A   1      42.595  23.433  27.462  1.00  0.00    -0.014 A 
BRANCH  39  40
ATOM     40  C   UNL A   1      42.853  24.814  27.947  1.00  0.00     0.031 A 
ATOM     41  C   UNL A   1      44.250  25.211  28.350  1.00  0.00     0.074 A 
ATOM     42  C   UNL A   1      41.828  25.670  28.130  1.00  0.00     0.049 A 
ATOM     43  N   UNL A   1      44.661  26.299  28.950  1.00  0.00    -0.248 NA
ATOM     44  C   UNL A   1      45.320  24.230  28.095  1.00  0.00     0.031 C 
ATOM     45  C   UNL A   1      40.418  25.392  27.839  1.00  0.00     0.029 A 
ATOM     46  N   UNL A   1      41.813  26.952  28.620  1.00  0.00    -0.354 N 
ATOM     47  C   UNL A   1      46.017  26.107  29.186  1.00  0.00     0.074 A 
ATOM     48  C   UNL A   1      46.347  24.778  28.725  1.00  0.00     0.031 C 
ATOM     49  C   UNL A   1      39.686  26.482  28.116  1.00  0.00     0.029 A 
ATOM     50  C   UNL A   1      40.561  27.518  28.653  1.00  0.00     0.049 A 
ATOM     51  H   UNL A   1      42.625  27.422  28.921  1.00  0.00     0.167 HD
ATOM     52  C   UNL A   1      46.919  26.969  29.712  1.00  0.00     0.031 A 
ATOM     53  C   UNL A   1      40.162  28.734  29.074  1.00  0.00     0.031 A 
ATOM     54  C   UNL A   1      46.602  28.311  30.113  1.00  0.00     0.049 A 
ATOM     55  C   UNL A   1      41.189  29.691  29.612  1.00  0.00     0.074 A 
ATOM     56  C   UNL A   1      47.454  29.296  30.577  1.00  0.00     0.029 A 
ATOM     57  N   UNL A   1      45.330  28.860  30.078  1.00  0.00    -0.354 N 
ATOM     58  N   UNL A   1      42.478  29.515  29.770  1.00  0.00    -0.248 NA
ATOM     59  C   UNL A   1      40.706  31.017  30.020  1.00  0.00     0.031 C 
ATOM     60  C   UNL A   1      46.690  30.432  30.861  1.00  0.00     0.029 A 
ATOM     61  C   UNL A   1      45.372  30.168  30.525  1.00  0.00     0.049 A 
ATOM     62  H   UNL A   1      44.518  28.390  29.781  1.00  0.00     0.167 HD
ATOM     63  C   UNL A   1      42.966  30.717  30.266  1.00  0.00     0.074 A 
ATOM     64  C   UNL A   1      41.836  31.618  30.368  1.00  0.00     0.031 C 
ATOM     65  C   UNL A   1      44.235  31.048  30.606  1.00  0.00     0.031 A 
BRANCH  52  66
ATOM     66  C   UNL A   1      48.335  26.484  29.866  1.00  0.00    -0.014 A 
ATOM     67  C   UNL A   1      48.757  25.820  31.029  1.00  0.00     0.009 A 
ATOM     68  C   UNL A   1      49.256  26.677  28.824  1.00  0.00     0.009 A 
ATOM     69  C   UNL A   1      50.082  25.402  31.165  1.00  0.00     0.001 A 
ATOM     70  C   UNL A   1      50.571  26.227  28.949  1.00  0.00     0.001 A 
ATOM     71  C   UNL A   1      50.987  25.601  30.124  1.00  0.00     0.000 A 
ENDBRANCH  52  66
BRANCH  53  72
ATOM     72  C   UNL A   1      38.732  29.129  28.975  1.00  0.00    -0.014 A 
ATOM     73  C   UNL A   1      37.873  28.964  30.074  1.00  0.00     0.009 A 
ATOM     74  C   UNL A   1      38.213  29.665  27.786  1.00  0.00     0.009 A 
ATOM     75  C   UNL A   1      36.521  29.300  29.976  1.00  0.00     0.001 A 
ATOM     76  C   UNL A   1      36.867  30.028  27.700  1.00  0.00     0.001 A 
ATOM     77  C   UNL A   1      36.020  29.834  28.791  1.00  0.00     0.000 A 
ENDBRANCH  53  72
BRANCH  65  78
ATOM     78  C   UNL A   1      44.477  32.453  31.076  1.00  0.00    -0.014 A 
ATOM     79  C   UNL A   1      44.445  32.782  32.438  1.00  0.00     0.009 A 
ATOM     80  C   UNL A   1      44.796  33.449  30.138  1.00  0.00     0.009 A 
ATOM     81  C   UNL A   1      44.700  34.090  32.852  1.00  0.00     0.001 A 
ATOM     82  C   UNL A   1      45.079  34.749  30.557  1.00  0.00     0.001 A 
ATOM     83  C   UNL A   1      45.022  35.071  31.912  1.00  0.00     0.000 A 
ENDBRANCH  65  78
ENDBRANCH  39  40
ENDBRANCH  31  34
ENDBRANCH  29  30
ENDBRANCH   1  29
TORSDOF 13
ENDMDL
MODEL 3
REMARK VINA RESULT:     -11.4      1.433      2.551
REMARK SMILES O=C(NCCCNC(=O)c1ccc(-c2c3nc(c(-c4ccccc4)c4ccc([nH]4)c(-c4ccccc4)c4nc(c(-c5ccccc5)c5ccc2[nH]5)C=C4)C=C3)cc1)C1=Cc2c(ccc(Cl)c2Sc2ccccc2)O[C@H]1C(F)(F)F
REMARK SMILES IDX 5 1 4 2 3 3 1 4 2 5 58 7 59 8 75 9 60 10 74 11 61 12 66 13
REMARK SMILES IDX 62 14 64 15 63 16 65 17 76 18 77 19 78 20 79 21 67 22 68 23
REMARK SMILES IDX 69 24 73 25 70 26 72 27 71 28 6 29 7 30 8 31 9 33 10 34
REMARK SMILES IDX 11 35 57 36 12 37 56 38 13 39 14 40 15 41 50 42 16 43 55 44
REMARK SMILES IDX 49 45 51 46 17 47 54 48 48 49 47 50 18 52 40 53 25 54 39 55
REMARK SMILES IDX 26 56 29 57 38 58 52 59 27 60 28 61 37 63 53 64 30 65 19 66
REMARK SMILES IDX 20 67 24 68 21 69 23 70 22 71 41 72 42 73 46 74 43 75 45 76
REMARK SMILES IDX 44 77 31 78 32 79 36 80 33 81 35 82 34 83
REMARK H PARENT 3 6 7 32 51 51 29 62
REMARK Flexibility Score: inf
ROOT
ATOM      1  C   UNL A   1      31.760  28.622  27.201  1.00  0.00     0.042 C 
ENDROOT
BRANCH   1   2
ATOM      2  C   UNL A   1      31.564  27.450  26.257  1.00  0.00     0.118 C 
BRANCH   2   3
ATOM      3  N   UNL A   1      31.343  26.194  26.948  1.00  0.00    -0.352 N 
ATOM      4  O   UNL A   1      31.041  23.996  27.264  1.00  0.00    -0.270 OA
ATOM      5  C   UNL A   1      31.367  24.906  26.505  1.00  0.00     0.251 C 
ATOM      6  H   UNL A   1      31.139  26.288  27.907  1.00  0.00     0.163 HD
BRANCH   5   7
ATOM      7  C   UNL A   1      31.731  24.584  25.116  1.00  0.00     0.067 C 
ATOM      8  C   UNL A   1      31.990  23.336  24.714  1.00  0.00     0.026 C 
ATOM      9  C   UNL A   1      32.055  25.699  24.182  1.00  0.00     0.314 C 
ATOM     10  C   UNL A   1      33.434  23.187  24.419  1.00  0.00     0.033 A 
ATOM     11  O   UNL A   1      33.392  25.519  23.602  1.00  0.00    -0.475 OA
ATOM     12  C   UNL A   1      34.067  24.352  23.910  1.00  0.00     0.129 A 
ATOM     13  C   UNL A   1      34.180  22.055  24.851  1.00  0.00     0.042 A 
ATOM     14  C   UNL A   1      35.450  24.411  23.824  1.00  0.00     0.049 A 
ATOM     15  C   UNL A   1      35.589  22.182  24.804  1.00  0.00     0.055 A 
ATOM     16  C   UNL A   1      36.207  23.341  24.298  1.00  0.00     0.025 A 
ATOM     17  Cl  UNL A   1      36.666  20.988  25.459  1.00  0.00    -0.083 Cl
BRANCH   9  18
ATOM     18  C   UNL A   1      30.989  25.832  23.080  1.00  0.00     0.429 C 
ATOM     19  F   UNL A   1      30.802  27.115  22.693  1.00  0.00    -0.167 F 
ATOM     20  F   UNL A   1      31.337  25.132  21.975  1.00  0.00    -0.167 F 
ATOM     21  F   UNL A   1      29.782  25.366  23.488  1.00  0.00    -0.167 F 
ENDBRANCH   9  18
BRANCH  13  22
ATOM     22  S   UNL A   1      33.474  20.572  25.648  1.00  0.00    -0.088 SA
BRANCH  22  23
ATOM     23  C   UNL A   1      33.536  19.260  24.447  1.00  0.00     0.012 A 
ATOM     24  C   UNL A   1      34.510  18.256  24.563  1.00  0.00     0.015 A 
ATOM     25  C   UNL A   1      32.546  19.148  23.465  1.00  0.00     0.015 A 
ATOM     26  C   UNL A   1      34.419  17.098  23.787  1.00  0.00     0.001 A 
ATOM     27  C   UNL A   1      32.462  17.991  22.685  1.00  0.00     0.001 A 
ATOM     28  C   UNL A   1      33.382  16.958  22.865  1.00  0.00     0.000 A 
ENDBRANCH  22  23
ENDBRANCH  13  22
ENDBRANCH   5   7
ENDBRANCH   2   3
ENDBRANCH   1   2
BRANCH   1  29
ATOM     29  C   UNL A   1      33.219  29.033  27.300  1.00  0.00     0.118 C 
BRANCH  29  30
ATOM     30  N   UNL A   1      33.425  30.409  27.752  1.00  0.00    -0.352 N 
ATOM     31  C   UNL A   1      34.544  31.020  28.273  1.00  0.00     0.251 C 
ATOM     32  H   UNL A   1      32.636  30.992  27.671  1.00  0.00     0.163 HD
ATOM     33  O   UNL A   1      34.485  32.190  28.642  1.00  0.00    -0.269 OA
BRANCH  31  34
ATOM     34  C   UNL A   1      35.801  30.260  28.447  1.00  0.00     0.039 A 
ATOM     35  C   UNL A   1      36.745  30.255  27.415  1.00  0.00     0.014 A 
ATOM     36  C   UNL A   1      36.079  29.600  29.641  1.00  0.00     0.014 A 
ATOM     37  C   UNL A   1      38.005  29.693  27.631  1.00  0.00     0.010 A 
ATOM     38  C   UNL A   1      37.374  29.181  29.906  1.00  0.00     0.010 A 
ATOM     39  C   UNL A   1      38.354  29.211  28.903  1.00  0.00    -0.014 A 
BRANCH  39  40
ATOM     40  C   UNL A   1      39.716  28.713  29.222  1.00  0.00     0.031 A 
ATOM     41  C   UNL A   1      40.694  29.620  29.926  1.00  0.00     0.074 A 
ATOM     42  C   UNL A   1      40.113  27.500  28.787  1.00  0.00     0.049 A 
ATOM     43  N   UNL A   1      41.972  29.448  30.148  1.00  0.00    -0.248 NA
ATOM     44  C   UNL A   1      40.176  30.919  30.393  1.00  0.00     0.031 C 
ATOM     45  C   UNL A   1      39.288  26.546  28.041  1.00  0.00     0.029 A 
ATOM     46  N   UNL A   1      41.325  26.864  28.902  1.00  0.00    -0.354 N 
ATOM     47  C   UNL A   1      42.413  30.630  30.729  1.00  0.00     0.074 A 
ATOM     48  C   UNL A   1      41.287  31.535  30.767  1.00  0.00     0.031 C 
ATOM     49  C   UNL A   1      40.002  25.435  27.802  1.00  0.00     0.029 A 
ATOM     50  C   UNL A   1      41.350  25.614  28.330  1.00  0.00     0.049 A 
ATOM     51  H   UNL A   1      42.103  27.266  29.352  1.00  0.00     0.167 HD
ATOM     52  C   UNL A   1      43.639  30.931  31.218  1.00  0.00     0.031 A 
ATOM     53  C   UNL A   1      42.349  24.716  28.237  1.00  0.00     0.031 A 
ATOM     54  C   UNL A   1      44.741  30.009  31.235  1.00  0.00     0.049 A 
ATOM     55  C   UNL A   1      43.690  25.054  28.827  1.00  0.00     0.074 A 
ATOM     56  C   UNL A   1      45.999  30.181  31.782  1.00  0.00     0.029 A 
ATOM     57  N   UNL A   1      44.705  28.734  30.693  1.00  0.00    -0.354 N 
ATOM     58  N   UNL A   1      44.073  26.154  29.429  1.00  0.00    -0.248 NA
ATOM     59  C   UNL A   1      44.732  24.023  28.734  1.00  0.00     0.031 C 
ATOM     60  C   UNL A   1      46.740  29.020  31.536  1.00  0.00     0.029 A 
ATOM     61  C   UNL A   1      45.925  28.110  30.882  1.00  0.00     0.049 A 
ATOM     62  H   UNL A   1      43.929  28.333  30.240  1.00  0.00     0.167 HD
ATOM     63  C   UNL A   1      45.389  25.936  29.814  1.00  0.00     0.074 A 
ATOM     64  C   UNL A   1      45.733  24.594  29.390  1.00  0.00     0.031 C 
ATOM     65  C   UNL A   1      46.239  26.770  30.460  1.00  0.00     0.031 A 
BRANCH  52  66
ATOM     66  C   UNL A   1      43.842  32.309  31.786  1.00  0.00    -0.014 A 
ATOM     67  C   UNL A   1      43.606  32.581  33.144  1.00  0.00     0.009 A 
ATOM     68  C   UNL A   1      44.293  33.347  30.956  1.00  0.00     0.009 A 
ATOM     69  C   UNL A   1      43.773  33.872  33.647  1.00  0.00     0.001 A 
ATOM     70  C   UNL A   1      44.492  34.630  31.470  1.00  0.00     0.001 A 
ATOM     71  C   UNL A   1      44.221  34.895  32.812  1.00  0.00     0.000 A 
ENDBRANCH  52  66
BRANCH  53  72
ATOM     72  C   UNL A   1      42.114  23.398  27.588  1.00  0.00    -0.014 A 
ATOM     73  C   UNL A   1      42.476  23.194  26.248  1.00  0.00     0.009 A 
ATOM     74  C   UNL A   1      41.523  22.341  28.298  1.00  0.00     0.009 A 
ATOM     75  C   UNL A   1      42.225  21.970  25.622  1.00  0.00     0.001 A 
ATOM     76  C   UNL A   1      41.300  21.109  27.679  1.00  0.00     0.001 A 
ATOM     77  C   UNL A   1      41.640  20.928  26.339  1.00  0.00     0.000 A 
ENDBRANCH  53  72
BRANCH  65  78
ATOM     78  C   UNL A   1      47.605  26.240  30.789  1.00  0.00    -0.014 A 
ATOM     79  C   UNL A   1      47.919  25.784  32.077  1.00  0.00     0.009 A 
ATOM     80  C   UNL A   1      48.571  26.147  29.775  1.00  0.00     0.009 A 
ATOM     81  C   UNL A   1      49.187  25.271  32.351  1.00  0.00     0.001 A 
ATOM     82  C   UNL A   1      49.828  25.606  30.045  1.00  0.00     0.001 A 
ATOM     83  C   UNL A   1      50.138  25.177  31.334  1.00  0.00     0.000 A 
ENDBRANCH  65  78
ENDBRANCH  39  40
ENDBRANCH  31  34
ENDBRANCH  29  30
ENDBRANCH   1  29
TORSDOF 13
ENDMDL
