MODEL 1
REMARK VINA RESULT:     -12.3      0.000      0.000
REMARK SMILES C[N@@H+]1CC[N@H+](Cc2ccc(C#CC(C)(C)O)s2)C[C@H]1C(=O)NCCCNC(=O)c1ccc(-c2c3nc(c(-c4ccccc4)c4ccc([nH]4)c(-c4ccccc4)c4nc(c(-c5ccccc5)c5ccc2[nH]5)C=C4)C=C3)cc1
REMARK SMILES IDX 20 1 21 2 22 3 19 5 1 6 2 7 3 8 4 10 18 11 5 12 6 14 7 15
REMARK SMILES IDX 8 16 17 17 9 18 10 19 11 20 12 21 13 22 14 23 15 24 16 25
REMARK SMILES IDX 23 27 24 28 25 29 26 30 27 31 28 33 29 34 30 35 76 36 31 37
REMARK SMILES IDX 75 38 32 39 33 40 34 41 69 42 35 43 74 44 68 45 70 46 36 47
REMARK SMILES IDX 73 48 67 49 66 50 37 52 59 53 44 54 58 55 45 56 48 57 57 58
REMARK SMILES IDX 71 59 46 60 47 61 56 63 72 64 49 65 38 66 39 67 43 68 40 69
REMARK SMILES IDX 42 70 41 71 60 72 61 73 65 74 62 75 64 76 63 77 50 78 51 79
REMARK SMILES IDX 55 80 52 81 54 82 53 83
REMARK H PARENT 22 4 2 9 5 13 16 26 26 32 70 51 48 62
REMARK Flexibility Score: inf
ROOT
ATOM      1  C   UNL A   1      34.787  21.671  26.376  1.00  0.00     0.284 C 
ATOM      2  O   UNL A   1      34.357  21.655  27.533  1.00  0.00    -0.268 OA
ATOM      3  N   UNL A   1      36.038  21.165  26.141  1.00  0.00    -0.351 N 
ATOM      4  H   UNL A   1      36.516  20.822  26.930  1.00  0.00     0.163 HD
ENDROOT
BRANCH   1   5
ATOM      5  C   UNL A   1      33.952  22.234  25.213  1.00  0.00     0.329 C 
ATOM      6  C   UNL A   1      32.718  20.187  24.761  1.00  0.00     0.333 C 
ATOM      7  N   UNL A   1      32.611  21.584  25.204  1.00  0.00    -0.318 N 
ATOM      8  C   UNL A   1      31.656  22.312  24.363  1.00  0.00     0.325 C 
ATOM      9  H   UNL A   1      32.257  21.603  26.160  1.00  0.00     0.348 HD
ATOM     10  C   UNL A   1      31.664  23.848  24.546  1.00  0.00     0.324 C 
ATOM     11  C   UNL A   1      33.979  23.793  25.300  1.00  0.00     0.339 C 
ATOM     12  N   UNL A   1      32.964  24.526  24.527  1.00  0.00    -0.320 N 
ATOM     13  H   UNL A   1      32.806  25.406  25.018  1.00  0.00     0.348 HD
BRANCH  12  14
ATOM     14  C   UNL A   1      33.420  25.009  23.215  1.00  0.00     0.310 C 
BRANCH  14  15
ATOM     15  C   UNL A   1      33.023  26.417  22.916  1.00  0.00     0.060 A 
ATOM     16  C   UNL A   1      33.739  27.583  23.109  1.00  0.00     0.022 A 
ATOM     17  S   UNL A   1      31.476  26.753  22.257  1.00  0.00    -0.126 S 
ATOM     18  C   UNL A   1      32.888  28.726  23.071  1.00  0.00     0.029 A 
ATOM     19  C   UNL A   1      31.601  28.386  22.723  1.00  0.00     0.077 A 
BRANCH  19  20
ATOM     20  C   UNL A   1      30.514  29.286  22.622  1.00  0.00    -0.053 C 
ATOM     21  C   UNL A   1      29.331  29.822  22.508  1.00  0.00    -0.063 C 
BRANCH  21  22
ATOM     22  C   UNL A   1      27.952  30.448  22.375  1.00  0.00     0.120 C 
ATOM     23  C   UNL A   1      27.670  31.336  23.586  1.00  0.00     0.056 C 
ATOM     24  C   UNL A   1      27.868  31.241  21.074  1.00  0.00     0.056 C 
BRANCH  22  25
ATOM     25  O   UNL A   1      26.992  29.396  22.337  1.00  0.00    -0.378 OA
ATOM     26  H   UNL A   1      26.105  29.772  22.224  1.00  0.00     0.212 HD
ENDBRANCH  22  25
ENDBRANCH  21  22
ENDBRANCH  19  20
ENDBRANCH  14  15
ENDBRANCH  12  14
ENDBRANCH   1   5
BRANCH   3  27
ATOM     27  C   UNL A   1      36.753  21.068  24.875  1.00  0.00     0.118 C 
BRANCH  27  28
ATOM     28  C   UNL A   1      37.821  19.979  24.847  1.00  0.00     0.042 C 
BRANCH  28  29
ATOM     29  C   UNL A   1      38.996  20.322  25.732  1.00  0.00     0.118 C 
BRANCH  29  30
ATOM     30  N   UNL A   1      40.024  19.274  25.753  1.00  0.00    -0.352 N 
ATOM     31  C   UNL A   1      41.383  19.425  25.936  1.00  0.00     0.251 C 
ATOM     32  H   UNL A   1      39.706  18.352  25.618  1.00  0.00     0.163 HD
ATOM     33  O   UNL A   1      42.176  18.532  25.641  1.00  0.00    -0.269 OA
BRANCH  31  34
ATOM     34  C   UNL A   1      41.858  20.689  26.511  1.00  0.00     0.039 A 
ATOM     35  C   UNL A   1      42.348  21.734  25.726  1.00  0.00     0.014 A 
ATOM     36  C   UNL A   1      41.701  20.832  27.885  1.00  0.00     0.014 A 
ATOM     37  C   UNL A   1      42.609  22.955  26.341  1.00  0.00     0.010 A 
ATOM     38  C   UNL A   1      41.717  22.081  28.427  1.00  0.00     0.010 A 
ATOM     39  C   UNL A   1      42.272  23.118  27.694  1.00  0.00    -0.014 A 
BRANCH  39  40
ATOM     40  C   UNL A   1      42.397  24.391  28.381  1.00  0.00     0.031 A 
ATOM     41  C   UNL A   1      41.283  25.334  28.110  1.00  0.00     0.074 A 
ATOM     42  C   UNL A   1      43.300  24.576  29.371  1.00  0.00     0.049 A 
ATOM     43  N   UNL A   1      41.337  26.436  27.440  1.00  0.00    -0.248 NA
ATOM     44  C   UNL A   1      39.916  24.930  28.483  1.00  0.00     0.031 C 
ATOM     45  C   UNL A   1      44.220  23.594  29.969  1.00  0.00     0.029 A 
ATOM     46  N   UNL A   1      43.501  25.667  30.152  1.00  0.00    -0.354 N 
ATOM     47  C   UNL A   1      40.057  26.979  27.496  1.00  0.00     0.074 A 
ATOM     48  C   UNL A   1      39.194  25.924  27.962  1.00  0.00     0.031 C 
ATOM     49  C   UNL A   1      44.677  24.058  31.154  1.00  0.00     0.029 A 
ATOM     50  C   UNL A   1      44.236  25.430  31.309  1.00  0.00     0.049 A 
ATOM     51  H   UNL A   1      43.152  26.557  29.918  1.00  0.00     0.167 HD
ATOM     52  C   UNL A   1      39.865  28.326  27.421  1.00  0.00     0.031 A 
ATOM     53  C   UNL A   1      44.445  26.300  32.330  1.00  0.00     0.031 A 
ATOM     54  C   UNL A   1      41.062  28.997  26.980  1.00  0.00     0.049 A 
ATOM     55  C   UNL A   1      44.138  27.654  31.813  1.00  0.00     0.074 A 
ATOM     56  C   UNL A   1      41.842  28.951  25.842  1.00  0.00     0.029 A 
ATOM     57  N   UNL A   1      41.852  29.549  27.963  1.00  0.00    -0.354 N 
ATOM     58  N   UNL A   1      44.844  28.241  30.888  1.00  0.00    -0.248 NA
ATOM     59  C   UNL A   1      42.775  28.139  31.963  1.00  0.00     0.031 C 
ATOM     60  C   UNL A   1      43.184  29.024  26.317  1.00  0.00     0.029 A 
ATOM     61  C   UNL A   1      43.151  29.207  27.702  1.00  0.00     0.049 A 
ATOM     62  H   UNL A   1      41.537  30.093  28.720  1.00  0.00     0.167 HD
ATOM     63  C   UNL A   1      43.906  28.833  30.055  1.00  0.00     0.074 A 
ATOM     64  C   UNL A   1      42.656  28.816  30.816  1.00  0.00     0.031 C 
ATOM     65  C   UNL A   1      44.158  29.007  28.722  1.00  0.00     0.031 A 
BRANCH  52  66
ATOM     66  C   UNL A   1      38.780  29.069  28.163  1.00  0.00    -0.014 A 
ATOM     67  C   UNL A   1      38.697  28.905  29.559  1.00  0.00     0.009 A 
ATOM     68  C   UNL A   1      37.677  29.676  27.534  1.00  0.00     0.009 A 
ATOM     69  C   UNL A   1      37.537  29.241  30.266  1.00  0.00     0.001 A 
ATOM     70  C   UNL A   1      36.532  30.049  28.244  1.00  0.00     0.001 A 
ATOM     71  C   UNL A   1      36.450  29.802  29.605  1.00  0.00     0.000 A 
ENDBRANCH  52  66
BRANCH  53  72
ATOM     72  C   UNL A   1      44.610  26.028  33.776  1.00  0.00    -0.014 A 
ATOM     73  C   UNL A   1      43.691  25.226  34.473  1.00  0.00     0.009 A 
ATOM     74  C   UNL A   1      45.829  26.327  34.413  1.00  0.00     0.009 A 
ATOM     75  C   UNL A   1      43.995  24.717  35.744  1.00  0.00     0.001 A 
ATOM     76  C   UNL A   1      46.134  25.817  35.681  1.00  0.00     0.001 A 
ATOM     77  C   UNL A   1      45.222  25.000  36.342  1.00  0.00     0.000 A 
ENDBRANCH  53  72
BRANCH  65  78
ATOM     78  C   UNL A   1      45.559  28.748  28.221  1.00  0.00    -0.014 A 
ATOM     79  C   UNL A   1      46.040  27.471  27.882  1.00  0.00     0.009 A 
ATOM     80  C   UNL A   1      46.348  29.863  27.902  1.00  0.00     0.009 A 
ATOM     81  C   UNL A   1      47.280  27.319  27.249  1.00  0.00     0.001 A 
ATOM     82  C   UNL A   1      47.575  29.713  27.254  1.00  0.00     0.001 A 
ATOM     83  C   UNL A   1      48.043  28.441  26.928  1.00  0.00     0.000 A 
ENDBRANCH  65  78
ENDBRANCH  39  40
ENDBRANCH  31  34
ENDBRANCH  29  30
ENDBRANCH  28  29
ENDBRANCH  27  28
ENDBRANCH   3  27
TORSDOF 15
ENDMDL
MODEL 2
REMARK VINA RESULT:     -12.1      4.097      9.697
REMARK SMILES C[N@@H+]1CC[N@H+](Cc2ccc(C#CC(C)(C)O)s2)C[C@H]1C(=O)NCCCNC(=O)c1ccc(-c2c3nc(c(-c4ccccc4)c4ccc([nH]4)c(-c4ccccc4)c4nc(c(-c5ccccc5)c5ccc2[nH]5)C=C4)C=C3)cc1
REMARK SMILES IDX 20 1 21 2 22 3 19 5 1 6 2 7 3 8 4 10 18 11 5 12 6 14 7 15
REMARK SMILES IDX 8 16 17 17 9 18 10 19 11 20 12 21 13 22 14 23 15 24 16 25
REMARK SMILES IDX 23 27 24 28 25 29 26 30 27 31 28 33 29 34 30 35 76 36 31 37
REMARK SMILES IDX 75 38 32 39 33 40 34 41 69 42 35 43 74 44 68 45 70 46 36 47
REMARK SMILES IDX 73 48 67 49 66 50 37 52 59 53 44 54 58 55 45 56 48 57 57 58
REMARK SMILES IDX 71 59 46 60 47 61 56 63 72 64 49 65 38 66 39 67 43 68 40 69
REMARK SMILES IDX 42 70 41 71 60 72 61 73 65 74 62 75 64 76 63 77 50 78 51 79
REMARK SMILES IDX 55 80 52 81 54 82 53 83
REMARK H PARENT 22 4 2 9 5 13 16 26 26 32 70 51 48 62
REMARK Flexibility Score: inf
ROOT
ATOM      1  C   UNL A   1      33.236  28.791  23.986  1.00  0.00     0.284 C 
ATOM      2  O   UNL A   1      34.063  28.986  23.091  1.00  0.00    -0.268 OA
ATOM      3  N   UNL A   1      32.963  29.817  24.852  1.00  0.00    -0.351 N 
ATOM      4  H   UNL A   1      33.460  30.652  24.696  1.00  0.00     0.163 HD
ENDROOT
BRANCH   1   5
ATOM      5  C   UNL A   1      32.514  27.442  24.139  1.00  0.00     0.329 C 
ATOM      6  C   UNL A   1      30.458  28.117  23.028  1.00  0.00     0.333 C 
ATOM      7  N   UNL A   1      31.620  27.221  22.967  1.00  0.00    -0.318 N 
ATOM      8  C   UNL A   1      31.183  25.825  22.868  1.00  0.00     0.325 C 
ATOM      9  H   UNL A   1      32.160  27.434  22.128  1.00  0.00     0.348 HD
ATOM     10  C   UNL A   1      32.299  24.774  23.078  1.00  0.00     0.324 C 
ATOM     11  C   UNL A   1      33.586  26.343  24.425  1.00  0.00     0.339 C 
ATOM     12  N   UNL A   1      33.176  24.942  24.241  1.00  0.00    -0.320 N 
ATOM     13  H   UNL A   1      34.021  24.421  24.006  1.00  0.00     0.348 HD
BRANCH  12  14
ATOM     14  C   UNL A   1      32.753  24.257  25.472  1.00  0.00     0.310 C 
BRANCH  14  15
ATOM     15  C   UNL A   1      33.350  22.899  25.646  1.00  0.00     0.060 A 
ATOM     16  C   UNL A   1      34.612  22.553  26.087  1.00  0.00     0.022 A 
ATOM     17  S   UNL A   1      32.435  21.501  25.255  1.00  0.00    -0.126 S 
ATOM     18  C   UNL A   1      34.929  21.206  25.745  1.00  0.00     0.029 A 
ATOM     19  C   UNL A   1      33.853  20.560  25.182  1.00  0.00     0.077 A 
BRANCH  19  20
ATOM     20  C   UNL A   1      33.850  19.226  24.712  1.00  0.00    -0.053 C 
ATOM     21  C   UNL A   1      33.953  17.931  24.600  1.00  0.00    -0.063 C 
BRANCH  21  22
ATOM     22  C   UNL A   1      34.073  16.422  24.469  1.00  0.00     0.120 C 
ATOM     23  C   UNL A   1      35.322  15.938  25.202  1.00  0.00     0.056 C 
ATOM     24  C   UNL A   1      32.814  15.754  25.016  1.00  0.00     0.056 C 
BRANCH  22  25
ATOM     25  O   UNL A   1      34.196  16.108  23.084  1.00  0.00    -0.378 OA
ATOM     26  H   UNL A   1      34.478  15.185  22.986  1.00  0.00     0.212 HD
ENDBRANCH  22  25
ENDBRANCH  21  22
ENDBRANCH  19  20
ENDBRANCH  14  15
ENDBRANCH  12  14
ENDBRANCH   1   5
BRANCH   3  27
ATOM     27  C   UNL A   1      32.032  29.834  25.972  1.00  0.00     0.118 C 
BRANCH  27  28
ATOM     28  C   UNL A   1      31.596  31.233  26.397  1.00  0.00     0.042 C 
BRANCH  28  29
ATOM     29  C   UNL A   1      32.698  31.968  27.123  1.00  0.00     0.118 C 
BRANCH  29  30
ATOM     30  N   UNL A   1      32.365  33.372  27.400  1.00  0.00    -0.352 N 
ATOM     31  C   UNL A   1      32.959  34.218  28.313  1.00  0.00     0.251 C 
ATOM     32  H   UNL A   1      31.628  33.754  26.871  1.00  0.00     0.163 HD
ATOM     33  O   UNL A   1      32.418  35.263  28.671  1.00  0.00    -0.269 OA
BRANCH  31  34
ATOM     34  C   UNL A   1      34.276  33.838  28.839  1.00  0.00     0.039 A 
ATOM     35  C   UNL A   1      34.439  33.220  30.080  1.00  0.00     0.014 A 
ATOM     36  C   UNL A   1      35.355  34.038  27.985  1.00  0.00     0.014 A 
ATOM     37  C   UNL A   1      35.701  32.739  30.416  1.00  0.00     0.010 A 
ATOM     38  C   UNL A   1      36.511  33.352  28.207  1.00  0.00     0.010 A 
ATOM     39  C   UNL A   1      36.726  32.799  29.459  1.00  0.00    -0.014 A 
BRANCH  39  40
ATOM     40  C   UNL A   1      38.036  32.213  29.682  1.00  0.00     0.031 A 
ATOM     41  C   UNL A   1      38.118  30.772  29.331  1.00  0.00     0.074 A 
ATOM     42  C   UNL A   1      39.123  32.979  29.926  1.00  0.00     0.049 A 
ATOM     43  N   UNL A   1      38.260  29.777  30.140  1.00  0.00    -0.248 NA
ATOM     44  C   UNL A   1      37.849  30.374  27.938  1.00  0.00     0.031 C 
ATOM     45  C   UNL A   1      39.225  34.448  29.944  1.00  0.00     0.029 A 
ATOM     46  N   UNL A   1      40.416  32.602  30.089  1.00  0.00    -0.354 N 
ATOM     47  C   UNL A   1      38.322  28.641  29.340  1.00  0.00     0.074 A 
ATOM     48  C   UNL A   1      37.860  29.043  28.036  1.00  0.00     0.031 C 
ATOM     49  C   UNL A   1      40.522  34.817  29.853  1.00  0.00     0.029 A 
ATOM     50  C   UNL A   1      41.346  33.629  29.958  1.00  0.00     0.049 A 
ATOM     51  H   UNL A   1      40.676  31.673  30.283  1.00  0.00     0.167 HD
ATOM     52  C   UNL A   1      39.010  27.537  29.745  1.00  0.00     0.031 A 
ATOM     53  C   UNL A   1      42.696  33.501  29.917  1.00  0.00     0.031 A 
ATOM     54  C   UNL A   1      39.345  27.618  31.145  1.00  0.00     0.049 A 
ATOM     55  C   UNL A   1      43.019  32.164  30.468  1.00  0.00     0.074 A 
ATOM     56  C   UNL A   1      38.620  27.710  32.316  1.00  0.00     0.029 A 
ATOM     57  N   UNL A   1      40.615  28.052  31.446  1.00  0.00    -0.354 N 
ATOM     58  N   UNL A   1      42.814  31.836  31.712  1.00  0.00    -0.248 NA
ATOM     59  C   UNL A   1      43.100  31.052  29.532  1.00  0.00     0.031 C 
ATOM     60  C   UNL A   1      39.345  28.635  33.122  1.00  0.00     0.029 A 
ATOM     61  C   UNL A   1      40.518  28.983  32.445  1.00  0.00     0.049 A 
ATOM     62  H   UNL A   1      41.448  27.747  31.019  1.00  0.00     0.167 HD
ATOM     63  C   UNL A   1      42.297  30.549  31.654  1.00  0.00     0.074 A 
ATOM     64  C   UNL A   1      42.583  30.085  30.296  1.00  0.00     0.031 C 
ATOM     65  C   UNL A   1      41.427  30.098  32.607  1.00  0.00     0.031 A 
BRANCH  52  66
ATOM     66  C   UNL A   1      39.767  26.621  28.812  1.00  0.00    -0.014 A 
ATOM     67  C   UNL A   1      40.823  27.166  28.057  1.00  0.00     0.009 A 
ATOM     68  C   UNL A   1      39.312  25.346  28.429  1.00  0.00     0.009 A 
ATOM     69  C   UNL A   1      41.325  26.513  26.927  1.00  0.00     0.001 A 
ATOM     70  C   UNL A   1      39.839  24.673  27.323  1.00  0.00     0.001 A 
ATOM     71  C   UNL A   1      40.824  25.271  26.553  1.00  0.00     0.000 A 
ENDBRANCH  52  66
BRANCH  53  72
ATOM     72  C   UNL A   1      43.694  34.314  29.187  1.00  0.00    -0.014 A 
ATOM     73  C   UNL A   1      43.651  34.432  27.788  1.00  0.00     0.009 A 
ATOM     74  C   UNL A   1      44.525  35.206  29.890  1.00  0.00     0.009 A 
ATOM     75  C   UNL A   1      44.386  35.425  27.123  1.00  0.00     0.001 A 
ATOM     76  C   UNL A   1      45.256  36.199  29.228  1.00  0.00     0.001 A 
ATOM     77  C   UNL A   1      45.176  36.318  27.844  1.00  0.00     0.000 A 
ENDBRANCH  53  72
BRANCH  65  78
ATOM     78  C   UNL A   1      41.215  30.944  33.840  1.00  0.00    -0.014 A 
ATOM     79  C   UNL A   1      40.259  31.971  33.923  1.00  0.00     0.009 A 
ATOM     80  C   UNL A   1      41.877  30.554  35.014  1.00  0.00     0.009 A 
ATOM     81  C   UNL A   1      39.983  32.594  35.148  1.00  0.00     0.001 A 
ATOM     82  C   UNL A   1      41.588  31.161  36.237  1.00  0.00     0.001 A 
ATOM     83  C   UNL A   1      40.642  32.182  36.305  1.00  0.00     0.000 A 
ENDBRANCH  65  78
ENDBRANCH  39  40
ENDBRANCH  31  34
ENDBRANCH  29  30
ENDBRANCH  28  29
ENDBRANCH  27  28
ENDBRANCH   3  27
TORSDOF 15
ENDMDL
MODEL 3
REMARK VINA RESULT:     -11.5      2.815      8.284
REMARK SMILES C[N@@H+]1CC[N@H+](Cc2ccc(C#CC(C)(C)O)s2)C[C@H]1C(=O)NCCCNC(=O)c1ccc(-c2c3nc(c(-c4ccccc4)c4ccc([nH]4)c(-c4ccccc4)c4nc(c(-c5ccccc5)c5ccc2[nH]5)C=C4)C=C3)cc1
REMARK SMILES IDX 20 1 21 2 22 3 19 5 1 6 2 7 3 8 4 10 18 11 5 12 6 14 7 15
REMARK SMILES IDX 8 16 17 17 9 18 10 19 11 20 12 21 13 22 14 23 15 24 16 25
REMARK SMILES IDX 23 27 24 28 25 29 26 30 27 31 28 33 29 34 30 35 76 36 31 37
REMARK SMILES IDX 75 38 32 39 33 40 34 41 69 42 35 43 74 44 68 45 70 46 36 47
REMARK SMILES IDX 73 48 67 49 66 50 37 52 59 53 44 54 58 55 45 56 48 57 57 58
REMARK SMILES IDX 71 59 46 60 47 61 56 63 72 64 49 65 38 66 39 67 43 68 40 69
REMARK SMILES IDX 42 70 41 71 60 72 61 73 65 74 62 75 64 76 63 77 50 78 51 79
REMARK SMILES IDX 55 80 52 81 54 82 53 83
REMARK H PARENT 22 4 2 9 5 13 16 26 26 32 70 51 48 62
REMARK Flexibility Score: inf
ROOT
ATOM      1  C   UNL A   1      33.474  28.724  23.790  1.00  0.00     0.284 C 
ATOM      2  O   UNL A   1      34.271  28.865  22.859  1.00  0.00    -0.268 OA
ATOM      3  N   UNL A   1      33.394  29.715  24.733  1.00  0.00    -0.351 N 
ATOM      4  H   UNL A   1      33.996  30.483  24.598  1.00  0.00     0.163 HD
ENDROOT
BRANCH   1   5
ATOM      5  C   UNL A   1      32.577  27.479  23.905  1.00  0.00     0.329 C 
ATOM      6  C   UNL A   1      30.671  28.420  22.722  1.00  0.00     0.333 C 
ATOM      7  N   UNL A   1      31.708  27.380  22.697  1.00  0.00    -0.318 N 
ATOM      8  C   UNL A   1      31.098  26.054  22.571  1.00  0.00     0.325 C 
ATOM      9  H   UNL A   1      32.304  27.525  21.882  1.00  0.00     0.348 HD
ATOM     10  C   UNL A   1      32.059  24.866  22.814  1.00  0.00     0.324 C 
ATOM     11  C   UNL A   1      33.485  26.250  24.222  1.00  0.00     0.339 C 
ATOM     12  N   UNL A   1      32.905  24.914  24.011  1.00  0.00    -0.320 N 
ATOM     13  H   UNL A   1      33.684  24.289  23.804  1.00  0.00     0.348 HD
BRANCH  12  14
ATOM     14  C   UNL A   1      32.350  24.287  25.219  1.00  0.00     0.310 C 
BRANCH  14  15
ATOM     15  C   UNL A   1      32.923  22.942  25.522  1.00  0.00     0.060 A 
ATOM     16  C   UNL A   1      34.047  22.621  26.259  1.00  0.00     0.022 A 
ATOM     17  S   UNL A   1      32.175  21.527  24.904  1.00  0.00    -0.126 S 
ATOM     18  C   UNL A   1      34.478  21.288  25.992  1.00  0.00     0.029 A 
ATOM     19  C   UNL A   1      33.593  20.625  25.175  1.00  0.00     0.077 A 
BRANCH  19  20
ATOM     20  C   UNL A   1      33.745  19.299  24.706  1.00  0.00    -0.053 C 
ATOM     21  C   UNL A   1      33.878  18.005  24.610  1.00  0.00    -0.063 C 
BRANCH  21  22
ATOM     22  C   UNL A   1      34.033  16.497  24.499  1.00  0.00     0.120 C 
ATOM     23  C   UNL A   1      35.321  16.059  25.192  1.00  0.00     0.056 C 
ATOM     24  C   UNL A   1      32.814  15.806  25.103  1.00  0.00     0.056 C 
BRANCH  22  25
ATOM     25  O   UNL A   1      34.113  16.163  23.116  1.00  0.00    -0.378 OA
ATOM     26  H   UNL A   1      34.993  15.804  22.920  1.00  0.00     0.212 HD
ENDBRANCH  22  25
ENDBRANCH  21  22
ENDBRANCH  19  20
ENDBRANCH  14  15
ENDBRANCH  12  14
ENDBRANCH   1   5
BRANCH   3  27
ATOM     27  C   UNL A   1      32.535  29.782  25.908  1.00  0.00     0.118 C 
BRANCH  27  28
ATOM     28  C   UNL A   1      33.286  29.684  27.232  1.00  0.00     0.042 C 
BRANCH  28  29
ATOM     29  C   UNL A   1      34.445  30.651  27.293  1.00  0.00     0.118 C 
BRANCH  29  30
ATOM     30  N   UNL A   1      34.411  31.514  28.481  1.00  0.00    -0.352 N 
ATOM     31  C   UNL A   1      35.268  31.502  29.561  1.00  0.00     0.251 C 
ATOM     32  H   UNL A   1      33.687  32.181  28.510  1.00  0.00     0.163 HD
ATOM     33  O   UNL A   1      34.977  32.054  30.621  1.00  0.00    -0.269 OA
BRANCH  31  34
ATOM     34  C   UNL A   1      36.556  30.816  29.403  1.00  0.00     0.039 A 
ATOM     35  C   UNL A   1      37.753  31.505  29.195  1.00  0.00     0.014 A 
ATOM     36  C   UNL A   1      36.538  29.436  29.569  1.00  0.00     0.014 A 
ATOM     37  C   UNL A   1      38.943  30.784  29.232  1.00  0.00     0.010 A 
ATOM     38  C   UNL A   1      37.702  28.788  29.852  1.00  0.00     0.010 A 
ATOM     39  C   UNL A   1      38.902  29.425  29.579  1.00  0.00    -0.014 A 
BRANCH  39  40
ATOM     40  C   UNL A   1      40.103  28.629  29.759  1.00  0.00     0.031 A 
ATOM     41  C   UNL A   1      40.559  28.539  31.169  1.00  0.00     0.074 A 
ATOM     42  C   UNL A   1      40.584  27.839  28.772  1.00  0.00     0.049 A 
ATOM     43  N   UNL A   1      41.621  29.063  31.683  1.00  0.00    -0.248 NA
ATOM     44  C   UNL A   1      39.654  27.935  32.162  1.00  0.00     0.031 C 
ATOM     45  C   UNL A   1      40.007  27.576  27.443  1.00  0.00     0.029 A 
ATOM     46  N   UNL A   1      41.643  26.991  28.796  1.00  0.00    -0.354 N 
ATOM     47  C   UNL A   1      41.633  28.669  33.017  1.00  0.00     0.074 A 
ATOM     48  C   UNL A   1      40.314  28.164  33.298  1.00  0.00     0.031 C 
ATOM     49  C   UNL A   1      40.570  26.468  26.911  1.00  0.00     0.029 A 
ATOM     50  C   UNL A   1      41.665  26.055  27.766  1.00  0.00     0.049 A 
ATOM     51  H   UNL A   1      42.341  27.034  29.488  1.00  0.00     0.167 HD
ATOM     52  C   UNL A   1      42.807  28.536  33.695  1.00  0.00     0.031 A 
ATOM     53  C   UNL A   1      42.514  25.004  27.644  1.00  0.00     0.031 A 
ATOM     54  C   UNL A   1      43.898  29.136  32.968  1.00  0.00     0.049 A 
ATOM     55  C   UNL A   1      43.666  25.273  28.536  1.00  0.00     0.074 A 
ATOM     56  C   UNL A   1      44.191  30.411  32.528  1.00  0.00     0.029 A 
ATOM     57  N   UNL A   1      44.675  28.284  32.218  1.00  0.00    -0.354 N 
ATOM     58  N   UNL A   1      44.508  26.248  28.339  1.00  0.00    -0.248 NA
ATOM     59  C   UNL A   1      43.590  24.777  29.902  1.00  0.00     0.031 C 
ATOM     60  C   UNL A   1      44.753  30.228  31.231  1.00  0.00     0.029 A 
ATOM     61  C   UNL A   1      44.863  28.856  30.988  1.00  0.00     0.049 A 
ATOM     62  H   UNL A   1      45.033  27.416  32.513  1.00  0.00     0.167 HD
ATOM     63  C   UNL A   1      44.726  26.783  29.601  1.00  0.00     0.074 A 
ATOM     64  C   UNL A   1      44.209  25.780  30.533  1.00  0.00     0.031 C 
ATOM     65  C   UNL A   1      45.028  28.106  29.762  1.00  0.00     0.031 A 
BRANCH  52  66
ATOM     66  C   UNL A   1      43.056  27.494  34.759  1.00  0.00    -0.014 A 
ATOM     67  C   UNL A   1      43.003  26.138  34.387  1.00  0.00     0.009 A 
ATOM     68  C   UNL A   1      43.049  27.769  36.140  1.00  0.00     0.009 A 
ATOM     69  C   UNL A   1      42.852  25.124  35.340  1.00  0.00     0.001 A 
ATOM     70  C   UNL A   1      42.939  26.755  37.096  1.00  0.00     0.001 A 
ATOM     71  C   UNL A   1      42.809  25.435  36.694  1.00  0.00     0.000 A 
ENDBRANCH  52  66
BRANCH  53  72
ATOM     72  C   UNL A   1      42.277  23.671  27.045  1.00  0.00    -0.014 A 
ATOM     73  C   UNL A   1      43.293  22.997  26.348  1.00  0.00     0.009 A 
ATOM     74  C   UNL A   1      41.131  22.934  27.399  1.00  0.00     0.009 A 
ATOM     75  C   UNL A   1      43.181  21.631  26.048  1.00  0.00     0.001 A 
ATOM     76  C   UNL A   1      41.019  21.571  27.103  1.00  0.00     0.001 A 
ATOM     77  C   UNL A   1      42.051  20.915  26.439  1.00  0.00     0.000 A 
ENDBRANCH  53  72
BRANCH  65  78
ATOM     78  C   UNL A   1      45.338  28.923  28.530  1.00  0.00    -0.014 A 
ATOM     79  C   UNL A   1      44.383  29.699  27.850  1.00  0.00     0.009 A 
ATOM     80  C   UNL A   1      46.686  29.057  28.165  1.00  0.00     0.009 A 
ATOM     81  C   UNL A   1      44.770  30.577  26.829  1.00  0.00     0.001 A 
ATOM     82  C   UNL A   1      47.074  29.946  27.162  1.00  0.00     0.001 A 
ATOM     83  C   UNL A   1      46.116  30.706  26.492  1.00  0.00     0.000 A 
ENDBRANCH  65  78
ENDBRANCH  39  40
ENDBRANCH  31  34
ENDBRANCH  29  30
ENDBRANCH  28  29
ENDBRANCH  27  28
ENDBRANCH   3  27
TORSDOF 15
ENDMDL
