MODEL 1
REMARK VINA RESULT:     -10.2      0.000      0.000
REMARK SMILES CC[C@@H](C)Nc1cc(OC)c(C(=O)NCCCNC(=O)c2ccc(-c3c4nc(c(-c5ccccc5)c5ccc([nH]5)c(-c5ccccc5)c5nc(c(-c6ccccc6)c6ccc3[nH]6)C=C5)C=C4)cc2)cc1Cl
REMARK SMILES IDX 15 1 14 2 12 3 13 4 11 6 6 7 7 8 70 9 8 10 69 11 71 12 5 13
REMARK SMILES IDX 3 15 4 16 2 17 1 18 9 19 10 20 16 21 17 22 18 23 19 24 20 26
REMARK SMILES IDX 21 27 22 28 68 29 23 30 67 31 24 32 25 33 26 34 61 35 27 36
REMARK SMILES IDX 66 37 60 38 62 39 28 40 65 41 59 42 58 43 29 45 51 46 36 47
REMARK SMILES IDX 50 48 37 49 40 50 49 51 63 52 38 53 39 54 48 56 64 57 41 58
REMARK SMILES IDX 30 59 31 60 35 61 32 62 34 63 33 64 52 65 53 66 57 67 54 68
REMARK SMILES IDX 56 69 55 70 42 71 43 72 47 73 44 74 46 75 45 76
REMARK H PARENT 14 5 5 14 18 25 62 44 40 55
REMARK Flexibility Score: inf
ROOT
ATOM      1  C   UNL A   1      36.390  21.005  24.698  1.00  0.00     0.118 C 
ENDROOT
BRANCH   1   2
ATOM      2  N   UNL A   1      35.516  20.877  25.854  1.00  0.00    -0.352 N 
ATOM      3  C   UNL A   1      34.482  21.628  26.359  1.00  0.00     0.255 C 
ATOM      4  O   UNL A   1      34.191  21.386  27.527  1.00  0.00    -0.269 OA
ATOM      5  H   UNL A   1      35.707  20.075  26.392  1.00  0.00     0.163 HD
BRANCH   3   6
ATOM      6  C   UNL A   1      33.770  22.687  25.580  1.00  0.00     0.083 A 
ATOM      7  C   UNL A   1      32.613  24.914  24.163  1.00  0.00     0.057 A 
ATOM      8  C   UNL A   1      32.572  23.599  23.668  1.00  0.00     0.074 A 
ATOM      9  C   UNL A   1      33.218  25.080  25.411  1.00  0.00     0.065 A 
ATOM     10  C   UNL A   1      33.143  22.489  24.339  1.00  0.00     0.133 A 
ATOM     11  C   UNL A   1      33.726  23.981  26.116  1.00  0.00     0.040 A 
ATOM     12  Cl  UNL A   1      33.352  26.605  26.218  1.00  0.00    -0.082 Cl
BRANCH   7  13
ATOM     13  N   UNL A   1      32.106  25.925  23.355  1.00  0.00    -0.381 N 
ATOM     14  H   UNL A   1      32.513  26.063  22.469  1.00  0.00     0.160 HD
BRANCH  13  15
ATOM     15  C   UNL A   1      30.997  26.797  23.753  1.00  0.00     0.075 C 
ATOM     16  C   UNL A   1      29.799  25.935  24.156  1.00  0.00     0.031 C 
BRANCH  15  17
ATOM     17  C   UNL A   1      30.641  27.699  22.551  1.00  0.00     0.021 C 
ATOM     18  C   UNL A   1      29.427  28.585  22.790  1.00  0.00     0.006 C 
ENDBRANCH  15  17
ENDBRANCH  13  15
ENDBRANCH   7  13
BRANCH  10  19
ATOM     19  O   UNL A   1      33.091  21.372  23.547  1.00  0.00    -0.496 OA
ATOM     20  C   UNL A   1      32.022  21.211  22.627  1.00  0.00     0.278 C 
ENDBRANCH  10  19
ENDBRANCH   3   6
ENDBRANCH   1   2
BRANCH   1  21
ATOM     21  C   UNL A   1      37.559  20.019  24.801  1.00  0.00     0.042 C 
BRANCH  21  22
ATOM     22  C   UNL A   1      38.670  20.479  25.745  1.00  0.00     0.118 C 
BRANCH  22  23
ATOM     23  N   UNL A   1      39.753  19.511  25.821  1.00  0.00    -0.352 N 
ATOM     24  C   UNL A   1      41.086  19.708  26.084  1.00  0.00     0.251 C 
ATOM     25  H   UNL A   1      39.491  18.576  25.661  1.00  0.00     0.163 HD
ATOM     26  O   UNL A   1      41.891  18.812  25.856  1.00  0.00    -0.269 OA
BRANCH  24  27
ATOM     27  C   UNL A   1      41.556  20.997  26.637  1.00  0.00     0.039 A 
ATOM     28  C   UNL A   1      42.014  21.982  25.758  1.00  0.00     0.014 A 
ATOM     29  C   UNL A   1      41.587  21.217  28.017  1.00  0.00     0.014 A 
ATOM     30  C   UNL A   1      42.452  23.210  26.260  1.00  0.00     0.010 A 
ATOM     31  C   UNL A   1      41.962  22.464  28.512  1.00  0.00     0.010 A 
ATOM     32  C   UNL A   1      42.400  23.472  27.639  1.00  0.00    -0.014 A 
BRANCH  32  33
ATOM     33  C   UNL A   1      42.790  24.794  28.191  1.00  0.00     0.031 A 
ATOM     34  C   UNL A   1      41.751  25.855  28.421  1.00  0.00     0.074 A 
ATOM     35  C   UNL A   1      44.091  25.063  28.410  1.00  0.00     0.049 A 
ATOM     36  N   UNL A   1      41.910  27.097  28.804  1.00  0.00    -0.248 NA
ATOM     37  C   UNL A   1      40.351  25.478  28.167  1.00  0.00     0.031 C 
ATOM     38  C   UNL A   1      45.199  24.129  28.199  1.00  0.00     0.029 A 
ATOM     39  N   UNL A   1      44.704  26.210  28.849  1.00  0.00    -0.354 N 
ATOM     40  C   UNL A   1      40.637  27.653  28.815  1.00  0.00     0.074 A 
ATOM     41  C   UNL A   1      39.722  26.628  28.362  1.00  0.00     0.031 C 
ATOM     42  C   UNL A   1      46.353  24.734  28.525  1.00  0.00     0.029 A 
ATOM     43  C   UNL A   1      46.072  26.109  28.925  1.00  0.00     0.049 A 
ATOM     44  H   UNL A   1      44.210  27.028  29.087  1.00  0.00     0.167 HD
ATOM     45  C   UNL A   1      40.260  28.902  29.184  1.00  0.00     0.031 A 
ATOM     46  C   UNL A   1      46.998  27.023  29.265  1.00  0.00     0.031 A 
ATOM     47  C   UNL A   1      41.170  29.918  29.643  1.00  0.00     0.049 A 
ATOM     48  C   UNL A   1      46.558  28.410  29.644  1.00  0.00     0.074 A 
ATOM     49  C   UNL A   1      40.879  31.195  30.093  1.00  0.00     0.029 A 
ATOM     50  N   UNL A   1      42.547  29.772  29.707  1.00  0.00    -0.354 N 
ATOM     51  N   UNL A   1      45.345  28.902  29.707  1.00  0.00    -0.248 NA
ATOM     52  C   UNL A   1      47.617  29.365  30.002  1.00  0.00     0.031 C 
ATOM     53  C   UNL A   1      42.087  31.840  30.381  1.00  0.00     0.029 A 
ATOM     54  C   UNL A   1      43.123  30.946  30.163  1.00  0.00     0.049 A 
ATOM     55  H   UNL A   1      43.041  28.957  29.464  1.00  0.00     0.167 HD
ATOM     56  C   UNL A   1      45.492  30.214  30.137  1.00  0.00     0.074 A 
ATOM     57  C   UNL A   1      46.909  30.436  30.332  1.00  0.00     0.031 C 
ATOM     58  C   UNL A   1      44.536  31.151  30.351  1.00  0.00     0.031 A 
BRANCH  45  59
ATOM     59  C   UNL A   1      38.798  29.239  29.095  1.00  0.00    -0.014 A 
ATOM     60  C   UNL A   1      37.943  29.069  30.196  1.00  0.00     0.009 A 
ATOM     61  C   UNL A   1      38.274  29.769  27.905  1.00  0.00     0.009 A 
ATOM     62  C   UNL A   1      36.587  29.386  30.094  1.00  0.00     0.001 A 
ATOM     63  C   UNL A   1      36.924  30.111  27.816  1.00  0.00     0.001 A 
ATOM     64  C   UNL A   1      36.079  29.910  28.906  1.00  0.00     0.000 A 
ENDBRANCH  45  59
BRANCH  46  65
ATOM     65  C   UNL A   1      48.439  26.658  29.269  1.00  0.00    -0.014 A 
ATOM     66  C   UNL A   1      49.016  26.055  30.397  1.00  0.00     0.009 A 
ATOM     67  C   UNL A   1      49.245  26.908  28.147  1.00  0.00     0.009 A 
ATOM     68  C   UNL A   1      50.374  25.733  30.412  1.00  0.00     0.001 A 
ATOM     69  C   UNL A   1      50.597  26.559  28.154  1.00  0.00     0.001 A 
ATOM     70  C   UNL A   1      51.163  25.980  29.289  1.00  0.00     0.000 A 
ENDBRANCH  46  65
BRANCH  58  71
ATOM     71  C   UNL A   1      44.989  32.493  30.851  1.00  0.00    -0.014 A 
ATOM     72  C   UNL A   1      45.287  33.537  29.963  1.00  0.00     0.009 A 
ATOM     73  C   UNL A   1      45.069  32.729  32.232  1.00  0.00     0.009 A 
ATOM     74  C   UNL A   1      45.685  34.784  30.450  1.00  0.00     0.001 A 
ATOM     75  C   UNL A   1      45.439  33.984  32.716  1.00  0.00     0.001 A 
ATOM     76  C   UNL A   1      45.754  35.008  31.825  1.00  0.00     0.000 A 
ENDBRANCH  58  71
ENDBRANCH  32  33
ENDBRANCH  24  27
ENDBRANCH  22  23
ENDBRANCH  21  22
ENDBRANCH   1  21
TORSDOF 14
ENDMDL
MODEL 2
REMARK VINA RESULT:     -10.0      2.112      7.522
REMARK SMILES CC[C@@H](C)Nc1cc(OC)c(C(=O)NCCCNC(=O)c2ccc(-c3c4nc(c(-c5ccccc5)c5ccc([nH]5)c(-c5ccccc5)c5nc(c(-c6ccccc6)c6ccc3[nH]6)C=C5)C=C4)cc2)cc1Cl
REMARK SMILES IDX 15 1 14 2 12 3 13 4 11 6 6 7 7 8 70 9 8 10 69 11 71 12 5 13
REMARK SMILES IDX 3 15 4 16 2 17 1 18 9 19 10 20 16 21 17 22 18 23 19 24 20 26
REMARK SMILES IDX 21 27 22 28 68 29 23 30 67 31 24 32 25 33 26 34 61 35 27 36
REMARK SMILES IDX 66 37 60 38 62 39 28 40 65 41 59 42 58 43 29 45 51 46 36 47
REMARK SMILES IDX 50 48 37 49 40 50 49 51 63 52 38 53 39 54 48 56 64 57 41 58
REMARK SMILES IDX 30 59 31 60 35 61 32 62 34 63 33 64 52 65 53 66 57 67 54 68
REMARK SMILES IDX 56 69 55 70 42 71 43 72 47 73 44 74 46 75 45 76
REMARK H PARENT 14 5 5 14 18 25 62 44 40 55
REMARK Flexibility Score: inf
ROOT
ATOM      1  C   UNL A   1      32.029  28.170  25.299  1.00  0.00     0.118 C 
ENDROOT
BRANCH   1   2
ATOM      2  N   UNL A   1      31.004  27.207  24.929  1.00  0.00    -0.352 N 
ATOM      3  C   UNL A   1      31.025  25.890  24.540  1.00  0.00     0.255 C 
ATOM      4  O   UNL A   1      29.997  25.494  23.998  1.00  0.00    -0.269 OA
ATOM      5  H   UNL A   1      30.094  27.582  24.967  1.00  0.00     0.163 HD
BRANCH   3   6
ATOM      6  C   UNL A   1      32.208  24.992  24.722  1.00  0.00     0.083 A 
ATOM      7  C   UNL A   1      34.300  23.067  25.197  1.00  0.00     0.057 A 
ATOM      8  C   UNL A   1      34.267  23.883  24.053  1.00  0.00     0.074 A 
ATOM      9  C   UNL A   1      33.271  23.268  26.121  1.00  0.00     0.065 A 
ATOM     10  C   UNL A   1      33.245  24.828  23.790  1.00  0.00     0.133 A 
ATOM     11  C   UNL A   1      32.292  24.247  25.906  1.00  0.00     0.040 A 
ATOM     12  Cl  UNL A   1      33.133  22.396  27.609  1.00  0.00    -0.082 Cl
BRANCH   7  13
ATOM     13  N   UNL A   1      35.303  22.109  25.281  1.00  0.00    -0.381 N 
ATOM     14  H   UNL A   1      35.117  21.207  24.933  1.00  0.00     0.160 HD
BRANCH  13  15
ATOM     15  C   UNL A   1      36.624  22.371  25.859  1.00  0.00     0.075 C 
ATOM     16  C   UNL A   1      36.802  23.880  26.045  1.00  0.00     0.031 C 
BRANCH  15  17
ATOM     17  C   UNL A   1      37.690  21.811  24.894  1.00  0.00     0.021 C 
ATOM     18  C   UNL A   1      37.771  20.290  24.887  1.00  0.00     0.006 C 
ENDBRANCH  15  17
ENDBRANCH  13  15
ENDBRANCH   7  13
BRANCH  10  19
ATOM     19  O   UNL A   1      33.391  25.355  22.533  1.00  0.00    -0.496 OA
ATOM     20  C   UNL A   1      32.879  24.654  21.412  1.00  0.00     0.278 C 
ENDBRANCH  10  19
ENDBRANCH   3   6
ENDBRANCH   1   2
BRANCH   1  21
ATOM     21  C   UNL A   1      32.188  28.223  26.823  1.00  0.00     0.042 C 
BRANCH  21  22
ATOM     22  C   UNL A   1      33.573  28.675  27.283  1.00  0.00     0.118 C 
BRANCH  22  23
ATOM     23  N   UNL A   1      33.587  30.079  27.663  1.00  0.00    -0.352 N 
ATOM     24  C   UNL A   1      34.542  30.791  28.346  1.00  0.00     0.251 C 
ATOM     25  H   UNL A   1      32.795  30.595  27.390  1.00  0.00     0.163 HD
ATOM     26  O   UNL A   1      34.269  31.897  28.799  1.00  0.00    -0.269 OA
BRANCH  24  27
ATOM     27  C   UNL A   1      35.895  30.227  28.545  1.00  0.00     0.039 A 
ATOM     28  C   UNL A   1      36.798  30.246  27.479  1.00  0.00     0.014 A 
ATOM     29  C   UNL A   1      36.257  29.643  29.761  1.00  0.00     0.014 A 
ATOM     30  C   UNL A   1      38.084  29.729  27.649  1.00  0.00     0.010 A 
ATOM     31  C   UNL A   1      37.559  29.187  29.951  1.00  0.00     0.010 A 
ATOM     32  C   UNL A   1      38.485  29.223  28.897  1.00  0.00    -0.014 A 
BRANCH  32  33
ATOM     33  C   UNL A   1      39.868  28.735  29.127  1.00  0.00     0.031 A 
ATOM     34  C   UNL A   1      40.913  29.657  29.690  1.00  0.00     0.074 A 
ATOM     35  C   UNL A   1      40.201  27.484  28.753  1.00  0.00     0.049 A 
ATOM     36  N   UNL A   1      42.192  29.442  29.870  1.00  0.00    -0.248 NA
ATOM     37  C   UNL A   1      40.467  31.004  30.083  1.00  0.00     0.031 C 
ATOM     38  C   UNL A   1      39.286  26.502  28.167  1.00  0.00     0.029 A 
ATOM     39  N   UNL A   1      41.406  26.829  28.799  1.00  0.00    -0.354 N 
ATOM     40  C   UNL A   1      42.705  30.631  30.375  1.00  0.00     0.074 A 
ATOM     41  C   UNL A   1      41.610  31.574  30.433  1.00  0.00     0.031 C 
ATOM     42  C   UNL A   1      39.958  25.365  27.926  1.00  0.00     0.029 A 
ATOM     43  C   UNL A   1      41.357  25.551  28.297  1.00  0.00     0.049 A 
ATOM     44  H   UNL A   1      42.227  27.236  29.158  1.00  0.00     0.167 HD
ATOM     45  C   UNL A   1      43.972  30.908  30.768  1.00  0.00     0.031 A 
ATOM     46  C   UNL A   1      42.331  24.637  28.139  1.00  0.00     0.031 A 
ATOM     47  C   UNL A   1      45.058  29.966  30.718  1.00  0.00     0.049 A 
ATOM     48  C   UNL A   1      43.734  24.977  28.558  1.00  0.00     0.074 A 
ATOM     49  C   UNL A   1      46.365  30.134  31.145  1.00  0.00     0.029 A 
ATOM     50  N   UNL A   1      44.965  28.682  30.205  1.00  0.00    -0.354 N 
ATOM     51  N   UNL A   1      44.190  26.085  29.089  1.00  0.00    -0.248 NA
ATOM     52  C   UNL A   1      44.754  23.938  28.358  1.00  0.00     0.031 C 
ATOM     53  C   UNL A   1      47.075  28.967  30.844  1.00  0.00     0.029 A 
ATOM     54  C   UNL A   1      46.197  28.055  30.280  1.00  0.00     0.049 A 
ATOM     55  H   UNL A   1      44.146  28.277  29.841  1.00  0.00     0.167 HD
ATOM     56  C   UNL A   1      45.543  25.868  29.312  1.00  0.00     0.074 A 
ATOM     57  C   UNL A   1      45.830  24.518  28.871  1.00  0.00     0.031 C 
ATOM     58  C   UNL A   1      46.466  26.711  29.835  1.00  0.00     0.031 A 
BRANCH  45  59
ATOM     59  C   UNL A   1      44.251  32.294  31.280  1.00  0.00    -0.014 A 
ATOM     60  C   UNL A   1      44.637  33.327  30.411  1.00  0.00     0.009 A 
ATOM     61  C   UNL A   1      44.091  32.580  32.645  1.00  0.00     0.009 A 
ATOM     62  C   UNL A   1      44.894  34.608  30.905  1.00  0.00     0.001 A 
ATOM     63  C   UNL A   1      44.321  33.868  33.131  1.00  0.00     0.001 A 
ATOM     64  C   UNL A   1      44.732  34.879  32.263  1.00  0.00     0.000 A 
ENDBRANCH  45  59
BRANCH  46  65
ATOM     65  C   UNL A   1      42.015  23.304  27.563  1.00  0.00    -0.014 A 
ATOM     66  C   UNL A   1      41.518  22.276  28.379  1.00  0.00     0.009 A 
ATOM     67  C   UNL A   1      42.206  23.051  26.195  1.00  0.00     0.009 A 
ATOM     68  C   UNL A   1      41.243  21.016  27.844  1.00  0.00     0.001 A 
ATOM     69  C   UNL A   1      41.902  21.799  25.656  1.00  0.00     0.001 A 
ATOM     70  C   UNL A   1      41.430  20.780  26.482  1.00  0.00     0.000 A 
ENDBRANCH  46  65
BRANCH  58  71
ATOM     71  C   UNL A   1      47.866  26.189  29.989  1.00  0.00    -0.014 A 
ATOM     72  C   UNL A   1      48.772  26.211  28.918  1.00  0.00     0.009 A 
ATOM     73  C   UNL A   1      48.297  25.716  31.238  1.00  0.00     0.009 A 
ATOM     74  C   UNL A   1      50.076  25.742  29.089  1.00  0.00     0.001 A 
ATOM     75  C   UNL A   1      49.609  25.274  31.413  1.00  0.00     0.001 A 
ATOM     76  C   UNL A   1      50.494  25.280  30.337  1.00  0.00     0.000 A 
ENDBRANCH  58  71
ENDBRANCH  32  33
ENDBRANCH  24  27
ENDBRANCH  22  23
ENDBRANCH  21  22
ENDBRANCH   1  21
TORSDOF 14
ENDMDL
MODEL 3
REMARK VINA RESULT:     -10.0      2.767      7.368
REMARK SMILES CC[C@@H](C)Nc1cc(OC)c(C(=O)NCCCNC(=O)c2ccc(-c3c4nc(c(-c5ccccc5)c5ccc([nH]5)c(-c5ccccc5)c5nc(c(-c6ccccc6)c6ccc3[nH]6)C=C5)C=C4)cc2)cc1Cl
REMARK SMILES IDX 15 1 14 2 12 3 13 4 11 6 6 7 7 8 70 9 8 10 69 11 71 12 5 13
REMARK SMILES IDX 3 15 4 16 2 17 1 18 9 19 10 20 16 21 17 22 18 23 19 24 20 26
REMARK SMILES IDX 21 27 22 28 68 29 23 30 67 31 24 32 25 33 26 34 61 35 27 36
REMARK SMILES IDX 66 37 60 38 62 39 28 40 65 41 59 42 58 43 29 45 51 46 36 47
REMARK SMILES IDX 50 48 37 49 40 50 49 51 63 52 38 53 39 54 48 56 64 57 41 58
REMARK SMILES IDX 30 59 31 60 35 61 32 62 34 63 33 64 52 65 53 66 57 67 54 68
REMARK SMILES IDX 56 69 55 70 42 71 43 72 47 73 44 74 46 75 45 76
REMARK H PARENT 14 5 5 14 18 25 62 44 40 55
REMARK Flexibility Score: inf
ROOT
ATOM      1  C   UNL A   1      34.168  26.716  25.709  1.00  0.00     0.118 C 
ENDROOT
BRANCH   1   2
ATOM      2  N   UNL A   1      32.937  26.001  26.008  1.00  0.00    -0.352 N 
ATOM      3  C   UNL A   1      31.612  26.214  25.713  1.00  0.00     0.255 C 
ATOM      4  O   UNL A   1      30.821  25.578  26.404  1.00  0.00    -0.269 OA
ATOM      5  H   UNL A   1      33.087  25.186  26.539  1.00  0.00     0.163 HD
BRANCH   3   6
ATOM      6  C   UNL A   1      31.140  27.165  24.660  1.00  0.00     0.083 A 
ATOM      7  C   UNL A   1      30.407  29.201  22.756  1.00  0.00     0.057 A 
ATOM      8  C   UNL A   1      30.547  27.848  22.401  1.00  0.00     0.074 A 
ATOM      9  C   UNL A   1      30.609  29.504  24.105  1.00  0.00     0.065 A 
ATOM     10  C   UNL A   1      30.917  26.830  23.314  1.00  0.00     0.133 A 
ATOM     11  C   UNL A   1      30.909  28.496  25.032  1.00  0.00     0.040 A 
ATOM     12  Cl  UNL A   1      30.460  31.097  24.764  1.00  0.00    -0.082 Cl
BRANCH   7  13
ATOM     13  N   UNL A   1      30.141  30.112  21.740  1.00  0.00    -0.381 N 
ATOM     14  H   UNL A   1      30.883  30.390  21.157  1.00  0.00     0.160 HD
BRANCH  13  15
ATOM     15  C   UNL A   1      28.813  30.679  21.492  1.00  0.00     0.075 C 
ATOM     16  C   UNL A   1      28.863  32.193  21.709  1.00  0.00     0.031 C 
BRANCH  15  17
ATOM     17  C   UNL A   1      27.819  30.019  22.472  1.00  0.00     0.021 C 
ATOM     18  C   UNL A   1      27.267  30.976  23.520  1.00  0.00     0.006 C 
ENDBRANCH  15  17
ENDBRANCH  13  15
ENDBRANCH   7  13
BRANCH  10  19
ATOM     19  O   UNL A   1      31.129  25.648  22.655  1.00  0.00    -0.496 OA
ATOM     20  C   UNL A   1      32.449  25.145  22.518  1.00  0.00     0.278 C 
ENDBRANCH  10  19
ENDBRANCH   3   6
ENDBRANCH   1   2
BRANCH   1  21
ATOM     21  C   UNL A   1      34.011  28.208  26.029  1.00  0.00     0.042 C 
BRANCH  21  22
ATOM     22  C   UNL A   1      33.649  28.488  27.487  1.00  0.00     0.118 C 
BRANCH  22  23
ATOM     23  N   UNL A   1      33.631  29.913  27.778  1.00  0.00    -0.352 N 
ATOM     24  C   UNL A   1      34.587  30.697  28.376  1.00  0.00     0.251 C 
ATOM     25  H   UNL A   1      32.812  30.385  27.505  1.00  0.00     0.163 HD
ATOM     26  O   UNL A   1      34.295  31.821  28.768  1.00  0.00    -0.269 OA
BRANCH  24  27
ATOM     27  C   UNL A   1      35.965  30.190  28.554  1.00  0.00     0.039 A 
ATOM     28  C   UNL A   1      36.861  30.278  27.486  1.00  0.00     0.014 A 
ATOM     29  C   UNL A   1      36.359  29.589  29.753  1.00  0.00     0.014 A 
ATOM     30  C   UNL A   1      38.170  29.816  27.638  1.00  0.00     0.010 A 
ATOM     31  C   UNL A   1      37.681  29.187  29.926  1.00  0.00     0.010 A 
ATOM     32  C   UNL A   1      38.599  29.294  28.870  1.00  0.00    -0.014 A 
BRANCH  32  33
ATOM     33  C   UNL A   1      40.004  28.862  29.081  1.00  0.00     0.031 A 
ATOM     34  C   UNL A   1      40.442  27.484  28.671  1.00  0.00     0.074 A 
ATOM     35  C   UNL A   1      40.863  29.684  29.714  1.00  0.00     0.049 A 
ATOM     36  N   UNL A   1      41.596  26.894  28.861  1.00  0.00    -0.248 NA
ATOM     37  C   UNL A   1      39.447  26.651  27.977  1.00  0.00     0.031 C 
ATOM     38  C   UNL A   1      40.552  31.034  30.188  1.00  0.00     0.029 A 
ATOM     39  N   UNL A   1      42.172  29.498  30.080  1.00  0.00    -0.354 N 
ATOM     40  C   UNL A   1      41.458  25.618  28.330  1.00  0.00     0.074 A 
ATOM     41  C   UNL A   1      40.098  25.504  27.849  1.00  0.00     0.031 C 
ATOM     42  C   UNL A   1      41.645  31.561  30.764  1.00  0.00     0.029 A 
ATOM     43  C   UNL A   1      42.717  30.571  30.741  1.00  0.00     0.049 A 
ATOM     44  H   UNL A   1      42.674  28.673  29.886  1.00  0.00     0.167 HD
ATOM     45  C   UNL A   1      42.384  24.633  28.238  1.00  0.00     0.031 A 
ATOM     46  C   UNL A   1      43.938  30.737  31.281  1.00  0.00     0.031 A 
ATOM     47  C   UNL A   1      43.738  24.751  28.709  1.00  0.00     0.049 A 
ATOM     48  C   UNL A   1      44.940  29.620  31.190  1.00  0.00     0.074 A 
ATOM     49  C   UNL A   1      44.767  23.829  28.611  1.00  0.00     0.029 A 
ATOM     50  N   UNL A   1      44.249  25.856  29.371  1.00  0.00    -0.354 N 
ATOM     51  N   UNL A   1      44.812  28.441  30.632  1.00  0.00    -0.248 NA
ATOM     52  C   UNL A   1      46.255  29.859  31.802  1.00  0.00     0.031 C 
ATOM     53  C   UNL A   1      45.889  24.359  29.259  1.00  0.00     0.029 A 
ATOM     54  C   UNL A   1      45.572  25.630  29.711  1.00  0.00     0.049 A 
ATOM     55  H   UNL A   1      43.747  26.678  29.569  1.00  0.00     0.167 HD
ATOM     56  C   UNL A   1      46.037  27.809  30.800  1.00  0.00     0.074 A 
ATOM     57  C   UNL A   1      46.897  28.739  31.501  1.00  0.00     0.031 C 
ATOM     58  C   UNL A   1      46.414  26.568  30.409  1.00  0.00     0.031 A 
BRANCH  45  59
ATOM     59  C   UNL A   1      41.956  23.335  27.610  1.00  0.00    -0.014 A 
ATOM     60  C   UNL A   1      42.189  23.072  26.251  1.00  0.00     0.009 A 
ATOM     61  C   UNL A   1      41.343  22.348  28.397  1.00  0.00     0.009 A 
ATOM     62  C   UNL A   1      41.783  21.862  25.684  1.00  0.00     0.001 A 
ATOM     63  C   UNL A   1      40.963  21.128  27.834  1.00  0.00     0.001 A 
ATOM     64  C   UNL A   1      41.174  20.890  26.476  1.00  0.00     0.000 A 
ENDBRANCH  45  59
BRANCH  46  65
ATOM     65  C   UNL A   1      44.288  32.015  31.953  1.00  0.00    -0.014 A 
ATOM     66  C   UNL A   1      44.859  33.069  31.223  1.00  0.00     0.009 A 
ATOM     67  C   UNL A   1      44.053  32.191  33.326  1.00  0.00     0.009 A 
ATOM     68  C   UNL A   1      45.210  34.262  31.858  1.00  0.00     0.001 A 
ATOM     69  C   UNL A   1      44.378  33.396  33.953  1.00  0.00     0.001 A 
ATOM     70  C   UNL A   1      44.965  34.427  33.221  1.00  0.00     0.000 A 
ENDBRANCH  46  65
BRANCH  58  71
ATOM     71  C   UNL A   1      47.829  26.155  30.702  1.00  0.00    -0.014 A 
ATOM     72  C   UNL A   1      48.181  25.588  31.936  1.00  0.00     0.009 A 
ATOM     73  C   UNL A   1      48.812  26.290  29.709  1.00  0.00     0.009 A 
ATOM     74  C   UNL A   1      49.497  25.191  32.180  1.00  0.00     0.001 A 
ATOM     75  C   UNL A   1      50.119  25.865  29.945  1.00  0.00     0.001 A 
ATOM     76  C   UNL A   1      50.463  25.324  31.182  1.00  0.00     0.000 A 
ENDBRANCH  58  71
ENDBRANCH  32  33
ENDBRANCH  24  27
ENDBRANCH  22  23
ENDBRANCH  21  22
ENDBRANCH   1  21
TORSDOF 14
ENDMDL
