MODEL 1
REMARK VINA RESULT:     -13.0      0.000      0.000
REMARK SMILES C[C@@H](C(=O)NCCCNC(=O)c1ccc(-c2c3nc(c(-c4ccccc4)c4ccc([nH]4)c(-c4ccccc4)c4nc(c(-c5ccccc5)c5ccc2[nH]5)C=C4)C=C3)cc1)c1ccc2c3cc(Cl)ccc3n(C(=O)c3ccc(Cl)cc3)c2c1
REMARK SMILES IDX 6 1 5 2 3 3 4 4 2 6 1 7 60 8 61 9 82 10 62 11 81 12 63 13
REMARK SMILES IDX 71 14 64 15 70 16 65 17 69 18 66 19 68 20 67 21 72 22 73 23
REMARK SMILES IDX 74 24 75 25 80 26 76 27 79 28 77 29 78 30 7 31 8 32 9 33
REMARK SMILES IDX 10 34 11 36 12 37 13 38 59 39 14 40 58 41 15 42 16 43 17 44
REMARK SMILES IDX 52 45 18 46 57 47 51 48 53 49 19 50 56 51 50 52 49 53 20 55
REMARK SMILES IDX 42 56 27 57 41 58 28 59 31 60 40 61 54 62 29 63 30 64 39 66
REMARK SMILES IDX 55 67 32 68 21 69 22 70 26 71 23 72 25 73 24 74 43 75 44 76
REMARK SMILES IDX 48 77 45 78 47 79 46 80 33 81 34 82 38 83 35 84 37 85 36 86
REMARK H PARENT 5 5 9 35 53 54 31 65
REMARK Flexibility Score: inf
ROOT
ATOM      1  C   UNL A   1      31.539  28.065  26.514  1.00  0.00     0.117 C 
ENDROOT
BRANCH   1   2
ATOM      2  N   UNL A   1      30.974  26.779  26.872  1.00  0.00    -0.356 N 
ATOM      3  C   UNL A   1      30.640  25.734  26.061  1.00  0.00     0.227 C 
ATOM      4  O   UNL A   1      29.790  24.956  26.497  1.00  0.00    -0.274 OA
ATOM      5  H   UNL A   1      30.808  26.641  27.832  1.00  0.00     0.163 HD
BRANCH   3   6
ATOM      6  C   UNL A   1      31.316  25.600  24.687  1.00  0.00     0.105 C 
ATOM      7  C   UNL A   1      30.325  24.902  23.740  1.00  0.00     0.023 C 
BRANCH   6   8
ATOM      8  C   UNL A   1      32.667  24.877  24.689  1.00  0.00    -0.034 A 
ATOM      9  C   UNL A   1      33.887  25.538  24.835  1.00  0.00     0.005 A 
ATOM     10  C   UNL A   1      32.689  23.481  24.514  1.00  0.00     0.032 A 
ATOM     11  C   UNL A   1      35.078  24.829  25.019  1.00  0.00     0.011 A 
ATOM     12  C   UNL A   1      33.898  22.766  24.634  1.00  0.00     0.057 A 
ATOM     13  C   UNL A   1      35.070  23.423  24.971  1.00  0.00     0.008 A 
ATOM     14  N   UNL A   1      34.168  21.394  24.499  1.00  0.00    -0.276 N 
ATOM     15  C   UNL A   1      36.056  22.432  25.191  1.00  0.00     0.009 A 
ATOM     16  C   UNL A   1      35.525  21.194  24.796  1.00  0.00     0.057 A 
ATOM     17  C   UNL A   1      37.388  22.524  25.648  1.00  0.00     0.031 A 
ATOM     18  C   UNL A   1      36.374  20.076  24.682  1.00  0.00     0.029 A 
ATOM     19  C   UNL A   1      38.196  21.395  25.610  1.00  0.00     0.041 A 
ATOM     20  C   UNL A   1      37.710  20.198  25.101  1.00  0.00     0.023 A 
ATOM     21  Cl  UNL A   1      39.824  21.506  26.159  1.00  0.00    -0.084 Cl
BRANCH  14  22
ATOM     22  C   UNL A   1      33.181  20.468  24.063  1.00  0.00     0.262 C 
ATOM     23  O   UNL A   1      32.232  20.962  23.445  1.00  0.00    -0.268 OA
BRANCH  22  24
ATOM     24  C   UNL A   1      33.075  18.994  24.279  1.00  0.00     0.040 A 
ATOM     25  C   UNL A   1      32.619  18.579  25.551  1.00  0.00     0.015 A 
ATOM     26  C   UNL A   1      33.522  18.016  23.388  1.00  0.00     0.015 A 
ATOM     27  C   UNL A   1      32.592  17.234  25.921  1.00  0.00     0.021 A 
ATOM     28  C   UNL A   1      33.465  16.656  23.747  1.00  0.00     0.021 A 
ATOM     29  C   UNL A   1      33.009  16.273  25.011  1.00  0.00     0.041 A 
ATOM     30  Cl  UNL A   1      32.988  14.614  25.459  1.00  0.00    -0.084 Cl
ENDBRANCH  22  24
ENDBRANCH  14  22
ENDBRANCH   6   8
ENDBRANCH   3   6
ENDBRANCH   1   2
BRANCH   1  31
ATOM     31  C   UNL A   1      32.918  28.247  27.153  1.00  0.00     0.042 C 
BRANCH  31  32
ATOM     32  C   UNL A   1      33.883  29.077  26.315  1.00  0.00     0.118 C 
BRANCH  32  33
ATOM     33  N   UNL A   1      33.936  30.463  26.748  1.00  0.00    -0.352 N 
ATOM     34  C   UNL A   1      34.792  31.068  27.636  1.00  0.00     0.251 C 
ATOM     35  H   UNL A   1      33.262  31.056  26.345  1.00  0.00     0.163 HD
ATOM     36  O   UNL A   1      34.552  32.194  28.050  1.00  0.00    -0.269 OA
BRANCH  34  37
ATOM     37  C   UNL A   1      35.988  30.342  28.111  1.00  0.00     0.039 A 
ATOM     38  C   UNL A   1      37.157  30.396  27.347  1.00  0.00     0.014 A 
ATOM     39  C   UNL A   1      35.961  29.617  29.306  1.00  0.00     0.014 A 
ATOM     40  C   UNL A   1      38.321  29.790  27.822  1.00  0.00     0.010 A 
ATOM     41  C   UNL A   1      37.141  29.077  29.813  1.00  0.00     0.010 A 
ATOM     42  C   UNL A   1      38.333  29.168  29.080  1.00  0.00    -0.014 A 
BRANCH  42  43
ATOM     43  C   UNL A   1      39.592  28.644  29.670  1.00  0.00     0.031 A 
ATOM     44  C   UNL A   1      40.188  29.292  30.889  1.00  0.00     0.074 A 
ATOM     45  C   UNL A   1      40.243  27.639  29.049  1.00  0.00     0.049 A 
ATOM     46  N   UNL A   1      41.326  29.035  31.483  1.00  0.00    -0.248 NA
ATOM     47  C   UNL A   1      39.419  30.382  31.508  1.00  0.00     0.031 C 
ATOM     48  C   UNL A   1      39.786  26.950  27.839  1.00  0.00     0.029 A 
ATOM     49  N   UNL A   1      41.440  27.032  29.340  1.00  0.00    -0.354 N 
ATOM     50  C   UNL A   1      41.419  29.946  32.528  1.00  0.00     0.074 A 
ATOM     51  C   UNL A   1      40.240  30.781  32.470  1.00  0.00     0.031 C 
ATOM     52  C   UNL A   1      40.682  26.009  27.502  1.00  0.00     0.029 A 
ATOM     53  C   UNL A   1      41.801  26.063  28.435  1.00  0.00     0.049 A 
ATOM     54  H   UNL A   1      41.988  27.270  30.123  1.00  0.00     0.167 HD
ATOM     55  C   UNL A   1      42.398  30.068  33.455  1.00  0.00     0.031 A 
ATOM     56  C   UNL A   1      42.920  25.318  28.349  1.00  0.00     0.031 A 
ATOM     57  C   UNL A   1      43.563  29.225  33.519  1.00  0.00     0.049 A 
ATOM     58  C   UNL A   1      44.005  25.505  29.374  1.00  0.00     0.074 A 
ATOM     59  C   UNL A   1      44.564  29.218  34.474  1.00  0.00     0.029 A 
ATOM     60  N   UNL A   1      43.888  28.255  32.586  1.00  0.00    -0.354 N 
ATOM     61  N   UNL A   1      44.030  26.301  30.415  1.00  0.00    -0.248 NA
ATOM     62  C   UNL A   1      45.218  24.689  29.212  1.00  0.00     0.031 C 
ATOM     63  C   UNL A   1      45.536  28.294  34.078  1.00  0.00     0.029 A 
ATOM     64  C   UNL A   1      45.104  27.678  32.915  1.00  0.00     0.049 A 
ATOM     65  H   UNL A   1      43.339  28.011  31.806  1.00  0.00     0.167 HD
ATOM     66  C   UNL A   1      45.245  26.064  31.044  1.00  0.00     0.074 A 
ATOM     67  C   UNL A   1      45.921  25.035  30.281  1.00  0.00     0.031 C 
ATOM     68  C   UNL A   1      45.761  26.652  32.150  1.00  0.00     0.031 A 
BRANCH  55  69
ATOM     69  C   UNL A   1      42.273  31.165  34.475  1.00  0.00    -0.014 A 
ATOM     70  C   UNL A   1      41.653  30.947  35.715  1.00  0.00     0.009 A 
ATOM     71  C   UNL A   1      42.865  32.414  34.220  1.00  0.00     0.009 A 
ATOM     72  C   UNL A   1      41.610  31.965  36.671  1.00  0.00     0.001 A 
ATOM     73  C   UNL A   1      42.844  33.419  35.189  1.00  0.00     0.001 A 
ATOM     74  C   UNL A   1      42.212  33.196  36.410  1.00  0.00     0.000 A 
ENDBRANCH  55  69
BRANCH  56  75
ATOM     75  C   UNL A   1      43.097  24.348  27.234  1.00  0.00    -0.014 A 
ATOM     76  C   UNL A   1      42.898  22.975  27.441  1.00  0.00     0.009 A 
ATOM     77  C   UNL A   1      43.510  24.788  25.966  1.00  0.00     0.009 A 
ATOM     78  C   UNL A   1      43.147  22.059  26.416  1.00  0.00     0.001 A 
ATOM     79  C   UNL A   1      43.722  23.873  24.931  1.00  0.00     0.001 A 
ATOM     80  C   UNL A   1      43.555  22.509  25.161  1.00  0.00     0.000 A 
ENDBRANCH  56  75
BRANCH  68  81
ATOM     81  C   UNL A   1      47.106  26.180  32.624  1.00  0.00    -0.014 A 
ATOM     82  C   UNL A   1      47.222  25.172  33.593  1.00  0.00     0.009 A 
ATOM     83  C   UNL A   1      48.271  26.705  32.045  1.00  0.00     0.009 A 
ATOM     84  C   UNL A   1      48.481  24.716  33.990  1.00  0.00     0.001 A 
ATOM     85  C   UNL A   1      49.527  26.227  32.421  1.00  0.00     0.001 A 
ATOM     86  C   UNL A   1      49.631  25.238  33.397  1.00  0.00     0.000 A 
ENDBRANCH  68  81
ENDBRANCH  42  43
ENDBRANCH  34  37
ENDBRANCH  32  33
ENDBRANCH  31  32
ENDBRANCH   1  31
TORSDOF 13
ENDMDL
MODEL 2
REMARK VINA RESULT:     -12.8      2.235      6.979
REMARK SMILES C[C@@H](C(=O)NCCCNC(=O)c1ccc(-c2c3nc(c(-c4ccccc4)c4ccc([nH]4)c(-c4ccccc4)c4nc(c(-c5ccccc5)c5ccc2[nH]5)C=C4)C=C3)cc1)c1ccc2c3cc(Cl)ccc3n(C(=O)c3ccc(Cl)cc3)c2c1
REMARK SMILES IDX 6 1 5 2 3 3 4 4 2 6 1 7 60 8 61 9 82 10 62 11 81 12 63 13
REMARK SMILES IDX 71 14 64 15 70 16 65 17 69 18 66 19 68 20 67 21 72 22 73 23
REMARK SMILES IDX 74 24 75 25 80 26 76 27 79 28 77 29 78 30 7 31 8 32 9 33
REMARK SMILES IDX 10 34 11 36 12 37 13 38 59 39 14 40 58 41 15 42 16 43 17 44
REMARK SMILES IDX 52 45 18 46 57 47 51 48 53 49 19 50 56 51 50 52 49 53 20 55
REMARK SMILES IDX 42 56 27 57 41 58 28 59 31 60 40 61 54 62 29 63 30 64 39 66
REMARK SMILES IDX 55 67 32 68 21 69 22 70 26 71 23 72 25 73 24 74 43 75 44 76
REMARK SMILES IDX 48 77 45 78 47 79 46 80 33 81 34 82 38 83 35 84 37 85 36 86
REMARK H PARENT 5 5 9 35 53 54 31 65
REMARK Flexibility Score: inf
ROOT
ATOM      1  C   UNL A   1      30.937  28.783  25.001  1.00  0.00     0.117 C 
ENDROOT
BRANCH   1   2
ATOM      2  N   UNL A   1      31.437  27.859  24.002  1.00  0.00    -0.356 N 
ATOM      3  C   UNL A   1      32.416  26.915  24.121  1.00  0.00     0.227 C 
ATOM      4  O   UNL A   1      32.973  26.575  23.076  1.00  0.00    -0.274 OA
ATOM      5  H   UNL A   1      31.012  27.921  23.117  1.00  0.00     0.163 HD
BRANCH   3   6
ATOM      6  C   UNL A   1      32.762  26.359  25.511  1.00  0.00     0.105 C 
ATOM      7  C   UNL A   1      34.077  27.015  25.966  1.00  0.00     0.023 C 
BRANCH   6   8
ATOM      8  C   UNL A   1      32.856  24.833  25.601  1.00  0.00    -0.034 A 
ATOM      9  C   UNL A   1      31.834  24.033  26.116  1.00  0.00     0.005 A 
ATOM     10  C   UNL A   1      34.034  24.198  25.168  1.00  0.00     0.032 A 
ATOM     11  C   UNL A   1      31.880  22.640  26.010  1.00  0.00     0.011 A 
ATOM     12  C   UNL A   1      34.111  22.792  25.119  1.00  0.00     0.057 A 
ATOM     13  C   UNL A   1      33.013  22.018  25.454  1.00  0.00     0.008 A 
ATOM     14  N   UNL A   1      35.164  21.945  24.734  1.00  0.00    -0.276 N 
ATOM     15  C   UNL A   1      33.334  20.676  25.137  1.00  0.00     0.009 A 
ATOM     16  C   UNL A   1      34.694  20.624  24.795  1.00  0.00     0.057 A 
ATOM     17  C   UNL A   1      32.562  19.496  25.178  1.00  0.00     0.031 A 
ATOM     18  C   UNL A   1      35.333  19.375  24.670  1.00  0.00     0.029 A 
ATOM     19  C   UNL A   1      33.185  18.272  24.971  1.00  0.00     0.041 A 
ATOM     20  C   UNL A   1      34.556  18.208  24.757  1.00  0.00     0.023 A 
ATOM     21  Cl  UNL A   1      32.247  16.830  25.027  1.00  0.00    -0.084 Cl
BRANCH  14  22
ATOM     22  C   UNL A   1      36.460  22.442  24.424  1.00  0.00     0.262 C 
ATOM     23  O   UNL A   1      36.643  22.732  23.238  1.00  0.00    -0.268 OA
BRANCH  22  24
ATOM     24  C   UNL A   1      37.661  22.621  25.294  1.00  0.00     0.040 A 
ATOM     25  C   UNL A   1      38.521  21.505  25.410  1.00  0.00     0.015 A 
ATOM     26  C   UNL A   1      37.913  23.734  26.100  1.00  0.00     0.015 A 
ATOM     27  C   UNL A   1      39.608  21.502  26.285  1.00  0.00     0.021 A 
ATOM     28  C   UNL A   1      39.027  23.744  26.959  1.00  0.00     0.021 A 
ATOM     29  C   UNL A   1      39.862  22.628  27.054  1.00  0.00     0.041 A 
ATOM     30  Cl  UNL A   1      41.193  22.631  28.142  1.00  0.00    -0.084 Cl
ENDBRANCH  22  24
ENDBRANCH  14  22
ENDBRANCH   6   8
ENDBRANCH   3   6
ENDBRANCH   1   2
BRANCH   1  31
ATOM     31  C   UNL A   1      31.920  29.936  25.212  1.00  0.00     0.042 C 
BRANCH  31  32
ATOM     32  C   UNL A   1      32.016  30.409  26.658  1.00  0.00     0.118 C 
BRANCH  32  33
ATOM     33  N   UNL A   1      31.900  31.854  26.773  1.00  0.00    -0.352 N 
ATOM     34  C   UNL A   1      32.723  32.747  27.415  1.00  0.00     0.251 C 
ATOM     35  H   UNL A   1      31.118  32.250  26.325  1.00  0.00     0.163 HD
ATOM     36  O   UNL A   1      32.353  33.898  27.599  1.00  0.00    -0.269 OA
BRANCH  34  37
ATOM     37  C   UNL A   1      34.044  32.303  27.907  1.00  0.00     0.039 A 
ATOM     38  C   UNL A   1      35.082  33.236  27.984  1.00  0.00     0.014 A 
ATOM     39  C   UNL A   1      34.257  30.978  28.296  1.00  0.00     0.014 A 
ATOM     40  C   UNL A   1      36.311  32.858  28.528  1.00  0.00     0.010 A 
ATOM     41  C   UNL A   1      35.458  30.623  28.906  1.00  0.00     0.010 A 
ATOM     42  C   UNL A   1      36.492  31.562  29.036  1.00  0.00    -0.014 A 
BRANCH  42  43
ATOM     43  C   UNL A   1      37.738  31.180  29.748  1.00  0.00     0.031 A 
ATOM     44  C   UNL A   1      38.762  30.308  29.074  1.00  0.00     0.074 A 
ATOM     45  C   UNL A   1      37.901  31.546  31.036  1.00  0.00     0.049 A 
ATOM     46  N   UNL A   1      39.859  29.795  29.571  1.00  0.00    -0.248 NA
ATOM     47  C   UNL A   1      38.513  29.950  27.669  1.00  0.00     0.031 C 
ATOM     48  C   UNL A   1      36.963  32.361  31.812  1.00  0.00     0.029 A 
ATOM     49  N   UNL A   1      38.908  31.265  31.927  1.00  0.00    -0.354 N 
ATOM     50  C   UNL A   1      40.415  29.035  28.549  1.00  0.00     0.074 A 
ATOM     51  C   UNL A   1      39.522  29.129  27.415  1.00  0.00     0.031 C 
ATOM     52  C   UNL A   1      37.445  32.525  33.054  1.00  0.00     0.029 A 
ATOM     53  C   UNL A   1      38.694  31.784  33.181  1.00  0.00     0.049 A 
ATOM     54  H   UNL A   1      39.706  30.740  31.689  1.00  0.00     0.167 HD
ATOM     55  C   UNL A   1      41.571  28.330  28.556  1.00  0.00     0.031 A 
ATOM     56  C   UNL A   1      39.410  31.657  34.315  1.00  0.00     0.031 A 
ATOM     57  C   UNL A   1      42.464  28.251  29.681  1.00  0.00     0.049 A 
ATOM     58  C   UNL A   1      40.670  30.835  34.298  1.00  0.00     0.074 A 
ATOM     59  C   UNL A   1      43.700  27.632  29.752  1.00  0.00     0.029 A 
ATOM     60  N   UNL A   1      42.213  28.793  30.930  1.00  0.00    -0.354 N 
ATOM     61  N   UNL A   1      41.234  30.208  33.295  1.00  0.00    -0.248 NA
ATOM     62  C   UNL A   1      41.393  30.703  35.571  1.00  0.00     0.031 C 
ATOM     63  C   UNL A   1      44.163  27.735  31.067  1.00  0.00     0.029 A 
ATOM     64  C   UNL A   1      43.247  28.478  31.795  1.00  0.00     0.049 A 
ATOM     65  H   UNL A   1      41.418  29.324  31.168  1.00  0.00     0.167 HD
ATOM     66  C   UNL A   1      42.387  29.630  33.809  1.00  0.00     0.074 A 
ATOM     67  C   UNL A   1      42.455  29.999  35.208  1.00  0.00     0.031 C 
ATOM     68  C   UNL A   1      43.304  28.856  33.182  1.00  0.00     0.031 A 
BRANCH  55  69
ATOM     69  C   UNL A   1      41.938  27.563  27.316  1.00  0.00    -0.014 A 
ATOM     70  C   UNL A   1      42.619  28.172  26.252  1.00  0.00     0.009 A 
ATOM     71  C   UNL A   1      41.673  26.184  27.254  1.00  0.00     0.009 A 
ATOM     72  C   UNL A   1      43.008  27.421  25.140  1.00  0.00     0.001 A 
ATOM     73  C   UNL A   1      42.087  25.431  26.155  1.00  0.00     0.001 A 
ATOM     74  C   UNL A   1      42.750  26.051  25.097  1.00  0.00     0.000 A 
ENDBRANCH  55  69
BRANCH  56  75
ATOM     75  C   UNL A   1      38.943  32.292  35.578  1.00  0.00    -0.014 A 
ATOM     76  C   UNL A   1      39.307  33.609  35.894  1.00  0.00     0.009 A 
ATOM     77  C   UNL A   1      38.165  31.566  36.494  1.00  0.00     0.009 A 
ATOM     78  C   UNL A   1      38.938  34.172  37.119  1.00  0.00     0.001 A 
ATOM     79  C   UNL A   1      37.765  32.145  37.702  1.00  0.00     0.001 A 
ATOM     80  C   UNL A   1      38.164  33.441  38.019  1.00  0.00     0.000 A 
ENDBRANCH  56  75
BRANCH  68  81
ATOM     81  C   UNL A   1      44.477  28.378  33.989  1.00  0.00    -0.014 A 
ATOM     82  C   UNL A   1      45.642  29.152  34.108  1.00  0.00     0.009 A 
ATOM     83  C   UNL A   1      44.391  27.167  34.693  1.00  0.00     0.009 A 
ATOM     84  C   UNL A   1      46.706  28.711  34.897  1.00  0.00     0.001 A 
ATOM     85  C   UNL A   1      45.443  26.743  35.506  1.00  0.00     0.001 A 
ATOM     86  C   UNL A   1      46.601  27.511  35.602  1.00  0.00     0.000 A 
ENDBRANCH  68  81
ENDBRANCH  42  43
ENDBRANCH  34  37
ENDBRANCH  32  33
ENDBRANCH  31  32
ENDBRANCH   1  31
TORSDOF 13
ENDMDL
MODEL 3
REMARK VINA RESULT:     -12.7      2.219      4.265
REMARK SMILES C[C@@H](C(=O)NCCCNC(=O)c1ccc(-c2c3nc(c(-c4ccccc4)c4ccc([nH]4)c(-c4ccccc4)c4nc(c(-c5ccccc5)c5ccc2[nH]5)C=C4)C=C3)cc1)c1ccc2c3cc(Cl)ccc3n(C(=O)c3ccc(Cl)cc3)c2c1
REMARK SMILES IDX 6 1 5 2 3 3 4 4 2 6 1 7 60 8 61 9 82 10 62 11 81 12 63 13
REMARK SMILES IDX 71 14 64 15 70 16 65 17 69 18 66 19 68 20 67 21 72 22 73 23
REMARK SMILES IDX 74 24 75 25 80 26 76 27 79 28 77 29 78 30 7 31 8 32 9 33
REMARK SMILES IDX 10 34 11 36 12 37 13 38 59 39 14 40 58 41 15 42 16 43 17 44
REMARK SMILES IDX 52 45 18 46 57 47 51 48 53 49 19 50 56 51 50 52 49 53 20 55
REMARK SMILES IDX 42 56 27 57 41 58 28 59 31 60 40 61 54 62 29 63 30 64 39 66
REMARK SMILES IDX 55 67 32 68 21 69 22 70 26 71 23 72 25 73 24 74 43 75 44 76
REMARK SMILES IDX 48 77 45 78 47 79 46 80 33 81 34 82 38 83 35 84 37 85 36 86
REMARK H PARENT 5 5 9 35 53 54 31 65
REMARK Flexibility Score: inf
ROOT
ATOM      1  C   UNL A   1      31.115  29.312  24.859  1.00  0.00     0.117 C 
ENDROOT
BRANCH   1   2
ATOM      2  N   UNL A   1      31.788  28.410  23.947  1.00  0.00    -0.356 N 
ATOM      3  C   UNL A   1      32.728  27.458  24.219  1.00  0.00     0.227 C 
ATOM      4  O   UNL A   1      33.466  27.140  23.285  1.00  0.00    -0.274 OA
ATOM      5  H   UNL A   1      31.532  28.495  23.000  1.00  0.00     0.163 HD
BRANCH   3   6
ATOM      6  C   UNL A   1      32.815  26.868  25.635  1.00  0.00     0.105 C 
ATOM      7  C   UNL A   1      34.023  27.509  26.339  1.00  0.00     0.023 C 
BRANCH   6   8
ATOM      8  C   UNL A   1      32.893  25.340  25.705  1.00  0.00    -0.034 A 
ATOM      9  C   UNL A   1      31.855  24.543  26.190  1.00  0.00     0.005 A 
ATOM     10  C   UNL A   1      34.073  24.700  25.282  1.00  0.00     0.032 A 
ATOM     11  C   UNL A   1      31.890  23.151  26.063  1.00  0.00     0.011 A 
ATOM     12  C   UNL A   1      34.138  23.295  25.214  1.00  0.00     0.057 A 
ATOM     13  C   UNL A   1      33.027  22.526  25.518  1.00  0.00     0.008 A 
ATOM     14  N   UNL A   1      35.189  22.443  24.835  1.00  0.00    -0.276 N 
ATOM     15  C   UNL A   1      33.340  21.186  25.187  1.00  0.00     0.009 A 
ATOM     16  C   UNL A   1      34.706  21.126  24.868  1.00  0.00     0.057 A 
ATOM     17  C   UNL A   1      32.557  20.012  25.197  1.00  0.00     0.031 A 
ATOM     18  C   UNL A   1      35.336  19.873  24.736  1.00  0.00     0.029 A 
ATOM     19  C   UNL A   1      33.172  18.786  24.983  1.00  0.00     0.041 A 
ATOM     20  C   UNL A   1      34.546  18.712  24.792  1.00  0.00     0.023 A 
ATOM     21  Cl  UNL A   1      32.221  17.352  25.001  1.00  0.00    -0.084 Cl
BRANCH  14  22
ATOM     22  C   UNL A   1      36.495  22.932  24.555  1.00  0.00     0.262 C 
ATOM     23  O   UNL A   1      36.672  23.328  23.399  1.00  0.00    -0.268 OA
BRANCH  22  24
ATOM     24  C   UNL A   1      37.710  22.995  25.421  1.00  0.00     0.040 A 
ATOM     25  C   UNL A   1      38.475  21.810  25.513  1.00  0.00     0.015 A 
ATOM     26  C   UNL A   1      38.058  24.070  26.244  1.00  0.00     0.015 A 
ATOM     27  C   UNL A   1      39.561  21.701  26.382  1.00  0.00     0.021 A 
ATOM     28  C   UNL A   1      39.173  23.972  27.096  1.00  0.00     0.021 A 
ATOM     29  C   UNL A   1      39.912  22.789  27.167  1.00  0.00     0.041 A 
ATOM     30  Cl  UNL A   1      41.244  22.662  28.248  1.00  0.00    -0.084 Cl
ENDBRANCH  22  24
ENDBRANCH  14  22
ENDBRANCH   6   8
ENDBRANCH   3   6
ENDBRANCH   1   2
BRANCH   1  31
ATOM     31  C   UNL A   1      32.079  30.386  25.368  1.00  0.00     0.042 C 
BRANCH  31  32
ATOM     32  C   UNL A   1      31.765  30.882  26.774  1.00  0.00     0.118 C 
BRANCH  32  33
ATOM     33  N   UNL A   1      31.844  32.330  26.878  1.00  0.00    -0.352 N 
ATOM     34  C   UNL A   1      32.780  33.110  27.511  1.00  0.00     0.251 C 
ATOM     35  H   UNL A   1      31.121  32.824  26.427  1.00  0.00     0.163 HD
ATOM     36  O   UNL A   1      32.568  34.302  27.686  1.00  0.00    -0.269 OA
BRANCH  34  37
ATOM     37  C   UNL A   1      34.030  32.498  28.006  1.00  0.00     0.039 A 
ATOM     38  C   UNL A   1      35.136  33.319  28.239  1.00  0.00     0.014 A 
ATOM     39  C   UNL A   1      34.110  31.123  28.246  1.00  0.00     0.014 A 
ATOM     40  C   UNL A   1      36.298  32.774  28.789  1.00  0.00     0.010 A 
ATOM     41  C   UNL A   1      35.242  30.595  28.863  1.00  0.00     0.010 A 
ATOM     42  C   UNL A   1      36.342  31.417  29.149  1.00  0.00    -0.014 A 
BRANCH  42  43
ATOM     43  C   UNL A   1      37.511  30.847  29.867  1.00  0.00     0.031 A 
ATOM     44  C   UNL A   1      37.775  31.212  31.301  1.00  0.00     0.074 A 
ATOM     45  C   UNL A   1      38.383  30.071  29.193  1.00  0.00     0.049 A 
ATOM     46  N   UNL A   1      38.794  30.892  32.057  1.00  0.00    -0.248 NA
ATOM     47  C   UNL A   1      36.777  32.064  31.967  1.00  0.00     0.031 C 
ATOM     48  C   UNL A   1      38.258  29.672  27.789  1.00  0.00     0.029 A 
ATOM     49  N   UNL A   1      39.561  29.490  29.595  1.00  0.00    -0.354 N 
ATOM     50  C   UNL A   1      38.572  31.522  33.276  1.00  0.00     0.074 A 
ATOM     51  C   UNL A   1      37.339  32.267  33.151  1.00  0.00     0.031 C 
ATOM     52  C   UNL A   1      39.305  28.903  27.453  1.00  0.00     0.029 A 
ATOM     53  C   UNL A   1      40.204  28.798  28.596  1.00  0.00     0.049 A 
ATOM     54  H   UNL A   1      39.912  29.563  30.513  1.00  0.00     0.167 HD
ATOM     55  C   UNL A   1      39.327  31.475  34.399  1.00  0.00     0.031 A 
ATOM     56  C   UNL A   1      41.396  28.173  28.592  1.00  0.00     0.031 A 
ATOM     57  C   UNL A   1      40.545  30.720  34.524  1.00  0.00     0.049 A 
ATOM     58  C   UNL A   1      42.228  28.170  29.846  1.00  0.00     0.074 A 
ATOM     59  C   UNL A   1      41.332  30.542  35.649  1.00  0.00     0.029 A 
ATOM     60  N   UNL A   1      41.160  30.032  33.491  1.00  0.00    -0.354 N 
ATOM     61  N   UNL A   1      41.954  28.686  31.019  1.00  0.00    -0.248 NA
ATOM     62  C   UNL A   1      43.535  27.501  29.774  1.00  0.00     0.031 C 
ATOM     63  C   UNL A   1      42.463  29.809  35.278  1.00  0.00     0.029 A 
ATOM     64  C   UNL A   1      42.344  29.472  33.940  1.00  0.00     0.049 A 
ATOM     65  H   UNL A   1      40.807  29.952  32.575  1.00  0.00     0.167 HD
ATOM     66  C   UNL A   1      43.040  28.381  31.830  1.00  0.00     0.074 A 
ATOM     67  C   UNL A   1      43.967  27.617  31.022  1.00  0.00     0.031 C 
ATOM     68  C   UNL A   1      43.254  28.711  33.126  1.00  0.00     0.031 A 
BRANCH  55  69
ATOM     69  C   UNL A   1      38.876  32.277  35.588  1.00  0.00    -0.014 A 
ATOM     70  C   UNL A   1      38.087  31.709  36.598  1.00  0.00     0.009 A 
ATOM     71  C   UNL A   1      39.325  33.600  35.737  1.00  0.00     0.009 A 
ATOM     72  C   UNL A   1      37.737  32.458  37.726  1.00  0.00     0.001 A 
ATOM     73  C   UNL A   1      38.998  34.336  36.877  1.00  0.00     0.001 A 
ATOM     74  C   UNL A   1      38.200  33.765  37.868  1.00  0.00     0.000 A 
ENDBRANCH  55  69
BRANCH  56  75
ATOM     75  C   UNL A   1      41.902  27.520  27.354  1.00  0.00    -0.014 A 
ATOM     76  C   UNL A   1      41.854  26.125  27.208  1.00  0.00     0.009 A 
ATOM     77  C   UNL A   1      42.475  28.287  26.327  1.00  0.00     0.009 A 
ATOM     78  C   UNL A   1      42.407  25.510  26.081  1.00  0.00     0.001 A 
ATOM     79  C   UNL A   1      42.993  27.672  25.184  1.00  0.00     0.001 A 
ATOM     80  C   UNL A   1      42.972  26.285  25.069  1.00  0.00     0.000 A 
ENDBRANCH  56  75
BRANCH  68  81
ATOM     81  C   UNL A   1      44.524  28.225  33.764  1.00  0.00    -0.014 A 
ATOM     82  C   UNL A   1      44.594  26.963  34.375  1.00  0.00     0.009 A 
ATOM     83  C   UNL A   1      45.683  29.014  33.697  1.00  0.00     0.009 A 
ATOM     84  C   UNL A   1      45.795  26.511  34.925  1.00  0.00     0.001 A 
ATOM     85  C   UNL A   1      46.890  28.547  34.220  1.00  0.00     0.001 A 
ATOM     86  C   UNL A   1      46.943  27.300  34.840  1.00  0.00     0.000 A 
ENDBRANCH  68  81
ENDBRANCH  42  43
ENDBRANCH  34  37
ENDBRANCH  32  33
ENDBRANCH  31  32
ENDBRANCH   1  31
TORSDOF 13
ENDMDL
