MODEL 1
REMARK VINA RESULT:     -11.2      0.000      0.000
REMARK SMILES COCC[C@@]1(C(=O)NCCCNC(=O)c2ccc(-c3c4nc(c(-c5ccccc5)c5ccc([nH]5)c(-c5ccccc5)c5nc(c(-c6ccccc6)c6ccc3[nH]6)C=C5)C=C4)cc2)CCCN(C(=O)NCc2ccc(OC)cc2)C1
REMARK SMILES IDX 9 1 8 2 6 3 7 4 5 6 63 7 79 8 64 9 66 10 65 11 4 12 3 13
REMARK SMILES IDX 2 14 1 15 67 16 68 17 69 18 70 20 71 21 72 22 78 23 73 24
REMARK SMILES IDX 77 25 74 26 75 27 76 28 10 29 11 30 12 31 13 32 14 34 15 35
REMARK SMILES IDX 16 36 62 37 17 38 61 39 18 40 19 41 20 42 55 43 21 44 60 45
REMARK SMILES IDX 54 46 56 47 22 48 59 49 53 50 52 51 23 53 45 54 30 55 44 56
REMARK SMILES IDX 31 57 34 58 43 59 57 60 32 61 33 62 42 64 58 65 35 66 24 67
REMARK SMILES IDX 25 68 29 69 26 70 28 71 27 72 46 73 47 74 51 75 48 76 50 77
REMARK SMILES IDX 49 78 36 79 37 80 41 81 38 82 40 83 39 84
REMARK H PARENT 8 5 69 19 12 33 56 52 34 63
REMARK Flexibility Score: inf
ROOT
ATOM      1  C   UNL A   1      36.936  22.471  24.723  1.00  0.00     0.117 C 
ENDROOT
BRANCH   1   2
ATOM      2  N   UNL A   1      35.986  22.675  23.622  1.00  0.00    -0.355 N 
ATOM      3  C   UNL A   1      34.619  22.737  23.538  1.00  0.00     0.228 C 
ATOM      4  O   UNL A   1      34.190  23.133  22.444  1.00  0.00    -0.274 OA
ATOM      5  H   UNL A   1      36.429  22.796  22.752  1.00  0.00     0.163 HD
BRANCH   3   6
ATOM      6  C   UNL A   1      33.622  22.166  24.591  1.00  0.00     0.069 C 
ATOM      7  C   UNL A   1      32.094  22.430  24.178  1.00  0.00     0.021 C 
ATOM      8  C   UNL A   1      33.837  22.690  26.021  1.00  0.00     0.138 C 
ATOM      9  C   UNL A   1      31.265  23.509  24.916  1.00  0.00     0.023 C 
ATOM     10  N   UNL A   1      33.166  23.987  26.245  1.00  0.00    -0.324 N 
ATOM     11  C   UNL A   1      31.741  23.785  26.331  1.00  0.00     0.121 C 
BRANCH   6  12
ATOM     12  C   UNL A   1      33.737  20.599  24.474  1.00  0.00     0.047 C 
BRANCH  12  13
ATOM     13  C   UNL A   1      32.469  19.754  24.408  1.00  0.00     0.161 C 
BRANCH  13  14
ATOM     14  O   UNL A   1      32.350  18.892  25.542  1.00  0.00    -0.385 OA
ATOM     15  C   UNL A   1      32.590  17.528  25.230  1.00  0.00     0.194 C 
ENDBRANCH  13  14
ENDBRANCH  12  13
ENDBRANCH   6  12
BRANCH  10  16
ATOM     16  C   UNL A   1      33.728  25.150  25.780  1.00  0.00     0.317 C 
ATOM     17  O   UNL A   1      34.860  25.213  25.298  1.00  0.00    -0.249 OA
ATOM     18  N   UNL A   1      33.120  26.336  25.752  1.00  0.00    -0.334 N 
ATOM     19  H   UNL A   1      33.660  26.991  25.254  1.00  0.00     0.165 HD
BRANCH  18  20
ATOM     20  C   UNL A   1      31.908  26.943  26.233  1.00  0.00     0.153 C 
BRANCH  20  21
ATOM     21  C   UNL A   1      31.073  27.566  25.150  1.00  0.00    -0.028 A 
ATOM     22  C   UNL A   1      31.283  28.889  24.732  1.00  0.00     0.009 A 
ATOM     23  C   UNL A   1      30.147  26.782  24.453  1.00  0.00     0.009 A 
ATOM     24  C   UNL A   1      30.605  29.397  23.620  1.00  0.00     0.047 A 
ATOM     25  C   UNL A   1      29.473  27.291  23.339  1.00  0.00     0.047 A 
ATOM     26  C   UNL A   1      29.720  28.591  22.902  1.00  0.00     0.118 A 
BRANCH  26  27
ATOM     27  O   UNL A   1      29.160  29.178  21.800  1.00  0.00    -0.497 OA
ATOM     28  C   UNL A   1      29.209  30.600  21.759  1.00  0.00     0.278 C 
ENDBRANCH  26  27
ENDBRANCH  20  21
ENDBRANCH  18  20
ENDBRANCH  10  16
ENDBRANCH   3   6
ENDBRANCH   1   2
BRANCH   1  29
ATOM     29  C   UNL A   1      37.608  21.105  24.770  1.00  0.00     0.042 C 
BRANCH  29  30
ATOM     30  C   UNL A   1      38.591  20.871  25.914  1.00  0.00     0.118 C 
BRANCH  30  31
ATOM     31  N   UNL A   1      39.624  19.874  25.675  1.00  0.00    -0.352 N 
ATOM     32  C   UNL A   1      40.973  19.831  25.981  1.00  0.00     0.251 C 
ATOM     33  H   UNL A   1      39.299  19.072  25.204  1.00  0.00     0.163 HD
ATOM     34  O   UNL A   1      41.623  18.831  25.706  1.00  0.00    -0.269 OA
BRANCH  32  35
ATOM     35  C   UNL A   1      41.679  21.013  26.559  1.00  0.00     0.039 A 
ATOM     36  C   UNL A   1      42.244  21.948  25.681  1.00  0.00     0.014 A 
ATOM     37  C   UNL A   1      41.775  21.243  27.928  1.00  0.00     0.014 A 
ATOM     38  C   UNL A   1      42.747  23.164  26.166  1.00  0.00     0.010 A 
ATOM     39  C   UNL A   1      42.163  22.498  28.403  1.00  0.00     0.010 A 
ATOM     40  C   UNL A   1      42.624  23.489  27.525  1.00  0.00    -0.014 A 
BRANCH  40  41
ATOM     41  C   UNL A   1      42.900  24.863  28.041  1.00  0.00     0.031 A 
ATOM     42  C   UNL A   1      44.279  25.261  28.501  1.00  0.00     0.074 A 
ATOM     43  C   UNL A   1      41.878  25.729  28.214  1.00  0.00     0.049 A 
ATOM     44  N   UNL A   1      44.666  26.358  29.104  1.00  0.00    -0.248 NA
ATOM     45  C   UNL A   1      45.356  24.282  28.288  1.00  0.00     0.031 C 
ATOM     46  C   UNL A   1      40.477  25.474  27.868  1.00  0.00     0.029 A 
ATOM     47  N   UNL A   1      41.858  27.000  28.740  1.00  0.00    -0.354 N 
ATOM     48  C   UNL A   1      46.019  26.186  29.374  1.00  0.00     0.074 A 
ATOM     49  C   UNL A   1      46.372  24.862  28.908  1.00  0.00     0.031 C 
ATOM     50  C   UNL A   1      39.746  26.562  28.152  1.00  0.00     0.029 A 
ATOM     51  C   UNL A   1      40.609  27.573  28.753  1.00  0.00     0.049 A 
ATOM     52  H   UNL A   1      42.664  27.456  29.076  1.00  0.00     0.167 HD
ATOM     53  C   UNL A   1      46.894  27.051  29.942  1.00  0.00     0.031 A 
ATOM     54  C   UNL A   1      40.192  28.770  29.207  1.00  0.00     0.031 A 
ATOM     55  C   UNL A   1      46.560  28.379  30.384  1.00  0.00     0.049 A 
ATOM     56  C   UNL A   1      41.176  29.710  29.840  1.00  0.00     0.074 A 
ATOM     57  C   UNL A   1      47.401  29.358  30.889  1.00  0.00     0.029 A 
ATOM     58  N   UNL A   1      45.283  28.916  30.376  1.00  0.00    -0.354 N 
ATOM     59  N   UNL A   1      42.463  29.553  30.027  1.00  0.00    -0.248 NA
ATOM     60  C   UNL A   1      40.646  30.992  30.328  1.00  0.00     0.031 C 
ATOM     61  C   UNL A   1      46.624  30.469  31.232  1.00  0.00     0.029 A 
ATOM     62  C   UNL A   1      45.307  30.200  30.896  1.00  0.00     0.049 A 
ATOM     63  H   UNL A   1      44.478  28.453  30.049  1.00  0.00     0.167 HD
ATOM     64  C   UNL A   1      42.901  30.720  30.638  1.00  0.00     0.074 A 
ATOM     65  C   UNL A   1      41.745  31.583  30.777  1.00  0.00     0.031 C 
ATOM     66  C   UNL A   1      44.151  31.045  31.047  1.00  0.00     0.031 A 
BRANCH  53  67
ATOM     67  C   UNL A   1      48.310  26.573  30.127  1.00  0.00    -0.014 A 
ATOM     68  C   UNL A   1      48.701  25.882  31.285  1.00  0.00     0.009 A 
ATOM     69  C   UNL A   1      49.262  26.807  29.123  1.00  0.00     0.009 A 
ATOM     70  C   UNL A   1      50.027  25.481  31.456  1.00  0.00     0.001 A 
ATOM     71  C   UNL A   1      50.581  26.378  29.283  1.00  0.00     0.001 A 
ATOM     72  C   UNL A   1      50.965  25.728  30.454  1.00  0.00     0.000 A 
ENDBRANCH  53  67
BRANCH  54  73
ATOM     73  C   UNL A   1      38.766  29.159  29.059  1.00  0.00    -0.014 A 
ATOM     74  C   UNL A   1      38.301  29.675  27.839  1.00  0.00     0.009 A 
ATOM     75  C   UNL A   1      37.861  29.004  30.120  1.00  0.00     0.009 A 
ATOM     76  C   UNL A   1      36.962  30.039  27.689  1.00  0.00     0.001 A 
ATOM     77  C   UNL A   1      36.516  29.347  29.959  1.00  0.00     0.001 A 
ATOM     78  C   UNL A   1      36.070  29.869  28.746  1.00  0.00     0.000 A 
ENDBRANCH  54  73
BRANCH  66  79
ATOM     79  C   UNL A   1      44.337  32.398  31.672  1.00  0.00    -0.014 A 
ATOM     80  C   UNL A   1      44.613  33.527  30.885  1.00  0.00     0.009 A 
ATOM     81  C   UNL A   1      44.200  32.551  33.061  1.00  0.00     0.009 A 
ATOM     82  C   UNL A   1      44.774  34.779  31.482  1.00  0.00     0.001 A 
ATOM     83  C   UNL A   1      44.337  33.809  33.650  1.00  0.00     0.001 A 
ATOM     84  C   UNL A   1      44.630  34.920  32.862  1.00  0.00     0.000 A 
ENDBRANCH  66  79
ENDBRANCH  40  41
ENDBRANCH  32  35
ENDBRANCH  30  31
ENDBRANCH  29  30
ENDBRANCH   1  29
TORSDOF 17
ENDMDL
MODEL 2
REMARK VINA RESULT:     -11.1      2.892      8.833
REMARK SMILES COCC[C@@]1(C(=O)NCCCNC(=O)c2ccc(-c3c4nc(c(-c5ccccc5)c5ccc([nH]5)c(-c5ccccc5)c5nc(c(-c6ccccc6)c6ccc3[nH]6)C=C5)C=C4)cc2)CCCN(C(=O)NCc2ccc(OC)cc2)C1
REMARK SMILES IDX 9 1 8 2 6 3 7 4 5 6 63 7 79 8 64 9 66 10 65 11 4 12 3 13
REMARK SMILES IDX 2 14 1 15 67 16 68 17 69 18 70 20 71 21 72 22 78 23 73 24
REMARK SMILES IDX 77 25 74 26 75 27 76 28 10 29 11 30 12 31 13 32 14 34 15 35
REMARK SMILES IDX 16 36 62 37 17 38 61 39 18 40 19 41 20 42 55 43 21 44 60 45
REMARK SMILES IDX 54 46 56 47 22 48 59 49 53 50 52 51 23 53 45 54 30 55 44 56
REMARK SMILES IDX 31 57 34 58 43 59 57 60 32 61 33 62 42 64 58 65 35 66 24 67
REMARK SMILES IDX 25 68 29 69 26 70 28 71 27 72 46 73 47 74 51 75 48 76 50 77
REMARK SMILES IDX 49 78 36 79 37 80 41 81 38 82 40 83 39 84
REMARK H PARENT 8 5 69 19 12 33 56 52 34 63
REMARK Flexibility Score: inf
ROOT
ATOM      1  C   UNL A   1      32.411  28.674  27.200  1.00  0.00     0.117 C 
ENDROOT
BRANCH   1   2
ATOM      2  N   UNL A   1      31.395  27.627  27.036  1.00  0.00    -0.355 N 
ATOM      3  C   UNL A   1      31.004  26.828  25.993  1.00  0.00     0.228 C 
ATOM      4  O   UNL A   1      30.234  25.910  26.310  1.00  0.00    -0.274 OA
ATOM      5  H   UNL A   1      30.882  27.459  27.859  1.00  0.00     0.163 HD
BRANCH   3   6
ATOM      6  C   UNL A   1      31.274  27.116  24.485  1.00  0.00     0.069 C 
ATOM      7  C   UNL A   1      30.757  25.924  23.542  1.00  0.00     0.021 C 
ATOM      8  C   UNL A   1      32.748  27.400  24.144  1.00  0.00     0.138 C 
ATOM      9  C   UNL A   1      31.771  24.957  22.885  1.00  0.00     0.023 C 
ATOM     10  N   UNL A   1      33.520  26.158  23.937  1.00  0.00    -0.324 N 
ATOM     11  C   UNL A   1      33.148  25.562  22.678  1.00  0.00     0.121 C 
BRANCH   6  12
ATOM     12  C   UNL A   1      30.303  28.295  24.100  1.00  0.00     0.047 C 
BRANCH  12  13
ATOM     13  C   UNL A   1      29.277  28.095  22.990  1.00  0.00     0.161 C 
BRANCH  13  14
ATOM     14  O   UNL A   1      29.361  29.123  22.001  1.00  0.00    -0.385 OA
ATOM     15  C   UNL A   1      28.202  29.942  21.951  1.00  0.00     0.194 C 
ENDBRANCH  13  14
ENDBRANCH  12  13
ENDBRANCH   6  12
BRANCH  10  16
ATOM     16  C   UNL A   1      33.954  25.422  25.011  1.00  0.00     0.317 C 
ATOM     17  O   UNL A   1      33.904  25.823  26.175  1.00  0.00    -0.249 OA
ATOM     18  N   UNL A   1      34.442  24.183  24.944  1.00  0.00    -0.334 N 
ATOM     19  H   UNL A   1      34.558  23.807  25.845  1.00  0.00     0.165 HD
BRANCH  18  20
ATOM     20  C   UNL A   1      34.847  23.232  23.943  1.00  0.00     0.153 C 
BRANCH  20  21
ATOM     21  C   UNL A   1      34.171  21.895  24.071  1.00  0.00    -0.028 A 
ATOM     22  C   UNL A   1      34.734  20.861  24.835  1.00  0.00     0.009 A 
ATOM     23  C   UNL A   1      32.897  21.709  23.523  1.00  0.00     0.009 A 
ATOM     24  C   UNL A   1      34.016  19.684  25.070  1.00  0.00     0.047 A 
ATOM     25  C   UNL A   1      32.181  20.533  23.763  1.00  0.00     0.047 A 
ATOM     26  C   UNL A   1      32.726  19.528  24.560  1.00  0.00     0.118 A 
BRANCH  26  27
ATOM     27  O   UNL A   1      32.101  18.360  24.903  1.00  0.00    -0.497 OA
ATOM     28  C   UNL A   1      32.929  17.202  24.957  1.00  0.00     0.278 C 
ENDBRANCH  26  27
ENDBRANCH  20  21
ENDBRANCH  18  20
ENDBRANCH  10  16
ENDBRANCH   3   6
ENDBRANCH   1   2
BRANCH   1  29
ATOM     29  C   UNL A   1      31.935  30.100  26.952  1.00  0.00     0.042 C 
BRANCH  29  30
ATOM     30  C   UNL A   1      32.986  31.198  27.083  1.00  0.00     0.118 C 
BRANCH  30  31
ATOM     31  N   UNL A   1      32.492  32.513  27.465  1.00  0.00    -0.352 N 
ATOM     32  C   UNL A   1      33.075  33.573  28.137  1.00  0.00     0.251 C 
ATOM     33  H   UNL A   1      31.561  32.682  27.191  1.00  0.00     0.163 HD
ATOM     34  O   UNL A   1      32.444  34.611  28.291  1.00  0.00    -0.269 OA
BRANCH  32  35
ATOM     35  C   UNL A   1      34.426  33.453  28.761  1.00  0.00     0.039 A 
ATOM     36  C   UNL A   1      34.533  32.816  30.005  1.00  0.00     0.014 A 
ATOM     37  C   UNL A   1      35.587  33.918  28.150  1.00  0.00     0.014 A 
ATOM     38  C   UNL A   1      35.792  32.509  30.540  1.00  0.00     0.010 A 
ATOM     39  C   UNL A   1      36.837  33.510  28.618  1.00  0.00     0.010 A 
ATOM     40  C   UNL A   1      36.957  32.771  29.804  1.00  0.00    -0.014 A 
BRANCH  40  41
ATOM     41  C   UNL A   1      38.289  32.230  30.206  1.00  0.00     0.031 A 
ATOM     42  C   UNL A   1      38.801  30.925  29.652  1.00  0.00     0.074 A 
ATOM     43  C   UNL A   1      38.998  32.852  31.173  1.00  0.00     0.049 A 
ATOM     44  N   UNL A   1      39.864  30.240  29.995  1.00  0.00    -0.248 NA
ATOM     45  C   UNL A   1      37.992  30.290  28.601  1.00  0.00     0.031 C 
ATOM     46  C   UNL A   1      38.612  34.095  31.847  1.00  0.00     0.029 A 
ATOM     47  N   UNL A   1      40.190  32.515  31.769  1.00  0.00    -0.354 N 
ATOM     48  C   UNL A   1      39.832  29.080  29.230  1.00  0.00     0.074 A 
ATOM     49  C   UNL A   1      38.621  29.136  28.439  1.00  0.00     0.031 C 
ATOM     50  C   UNL A   1      39.563  34.434  32.730  1.00  0.00     0.029 A 
ATOM     51  C   UNL A   1      40.600  33.408  32.730  1.00  0.00     0.049 A 
ATOM     52  H   UNL A   1      40.703  31.708  31.530  1.00  0.00     0.167 HD
ATOM     53  C   UNL A   1      40.731  28.067  29.175  1.00  0.00     0.031 A 
ATOM     54  C   UNL A   1      41.680  33.406  33.536  1.00  0.00     0.031 A 
ATOM     55  C   UNL A   1      41.950  28.014  29.937  1.00  0.00     0.049 A 
ATOM     56  C   UNL A   1      42.658  32.270  33.464  1.00  0.00     0.074 A 
ATOM     57  C   UNL A   1      42.963  27.071  29.879  1.00  0.00     0.029 A 
ATOM     58  N   UNL A   1      42.323  28.942  30.895  1.00  0.00    -0.354 N 
ATOM     59  N   UNL A   1      42.641  31.214  32.688  1.00  0.00    -0.248 NA
ATOM     60  C   UNL A   1      43.803  32.325  34.386  1.00  0.00     0.031 C 
ATOM     61  C   UNL A   1      43.926  27.402  30.839  1.00  0.00     0.029 A 
ATOM     62  C   UNL A   1      43.535  28.577  31.460  1.00  0.00     0.049 A 
ATOM     63  H   UNL A   1      41.803  29.742  31.140  1.00  0.00     0.167 HD
ATOM     64  C   UNL A   1      43.779  30.489  33.014  1.00  0.00     0.074 A 
ATOM     65  C   UNL A   1      44.472  31.231  34.046  1.00  0.00     0.031 C 
ATOM     66  C   UNL A   1      44.209  29.312  32.499  1.00  0.00     0.031 A 
BRANCH  53  67
ATOM     67  C   UNL A   1      40.414  26.918  28.256  1.00  0.00    -0.014 A 
ATOM     68  C   UNL A   1      40.945  26.855  26.957  1.00  0.00     0.009 A 
ATOM     69  C   UNL A   1      39.582  25.879  28.699  1.00  0.00     0.009 A 
ATOM     70  C   UNL A   1      40.609  25.801  26.105  1.00  0.00     0.001 A 
ATOM     71  C   UNL A   1      39.272  24.809  27.855  1.00  0.00     0.001 A 
ATOM     72  C   UNL A   1      39.774  24.779  26.556  1.00  0.00     0.000 A 
ENDBRANCH  53  67
BRANCH  54  73
ATOM     73  C   UNL A   1      41.903  34.536  34.473  1.00  0.00    -0.014 A 
ATOM     74  C   UNL A   1      41.308  34.521  35.745  1.00  0.00     0.009 A 
ATOM     75  C   UNL A   1      42.716  35.621  34.116  1.00  0.00     0.009 A 
ATOM     76  C   UNL A   1      41.514  35.577  36.635  1.00  0.00     0.001 A 
ATOM     77  C   UNL A   1      42.941  36.665  35.018  1.00  0.00     0.001 A 
ATOM     78  C   UNL A   1      42.335  36.644  36.273  1.00  0.00     0.000 A 
ENDBRANCH  54  73
BRANCH  66  79
ATOM     79  C   UNL A   1      45.497  28.758  33.038  1.00  0.00    -0.014 A 
ATOM     80  C   UNL A   1      45.504  27.861  34.117  1.00  0.00     0.009 A 
ATOM     81  C   UNL A   1      46.715  29.109  32.435  1.00  0.00     0.009 A 
ATOM     82  C   UNL A   1      46.709  27.347  34.600  1.00  0.00     0.001 A 
ATOM     83  C   UNL A   1      47.916  28.574  32.904  1.00  0.00     0.001 A 
ATOM     84  C   UNL A   1      47.913  27.700  33.990  1.00  0.00     0.000 A 
ENDBRANCH  66  79
ENDBRANCH  40  41
ENDBRANCH  32  35
ENDBRANCH  30  31
ENDBRANCH  29  30
ENDBRANCH   1  29
TORSDOF 17
ENDMDL
MODEL 3
REMARK VINA RESULT:     -11.0      3.432      8.326
REMARK SMILES COCC[C@@]1(C(=O)NCCCNC(=O)c2ccc(-c3c4nc(c(-c5ccccc5)c5ccc([nH]5)c(-c5ccccc5)c5nc(c(-c6ccccc6)c6ccc3[nH]6)C=C5)C=C4)cc2)CCCN(C(=O)NCc2ccc(OC)cc2)C1
REMARK SMILES IDX 9 1 8 2 6 3 7 4 5 6 63 7 79 8 64 9 66 10 65 11 4 12 3 13
REMARK SMILES IDX 2 14 1 15 67 16 68 17 69 18 70 20 71 21 72 22 78 23 73 24
REMARK SMILES IDX 77 25 74 26 75 27 76 28 10 29 11 30 12 31 13 32 14 34 15 35
REMARK SMILES IDX 16 36 62 37 17 38 61 39 18 40 19 41 20 42 55 43 21 44 60 45
REMARK SMILES IDX 54 46 56 47 22 48 59 49 53 50 52 51 23 53 45 54 30 55 44 56
REMARK SMILES IDX 31 57 34 58 43 59 57 60 32 61 33 62 42 64 58 65 35 66 24 67
REMARK SMILES IDX 25 68 29 69 26 70 28 71 27 72 46 73 47 74 51 75 48 76 50 77
REMARK SMILES IDX 49 78 36 79 37 80 41 81 38 82 40 83 39 84
REMARK H PARENT 8 5 69 19 12 33 56 52 34 63
REMARK Flexibility Score: inf
ROOT
ATOM      1  C   UNL A   1      32.165  27.700  26.867  1.00  0.00     0.117 C 
ENDROOT
BRANCH   1   2
ATOM      2  N   UNL A   1      31.112  26.677  26.886  1.00  0.00    -0.355 N 
ATOM      3  C   UNL A   1      30.651  25.763  25.974  1.00  0.00     0.228 C 
ATOM      4  O   UNL A   1      29.868  24.923  26.441  1.00  0.00    -0.274 OA
ATOM      5  H   UNL A   1      30.632  26.638  27.743  1.00  0.00     0.163 HD
BRANCH   3   6
ATOM      6  C   UNL A   1      30.861  25.840  24.432  1.00  0.00     0.069 C 
ATOM      7  C   UNL A   1      30.328  24.523  23.685  1.00  0.00     0.021 C 
ATOM      8  C   UNL A   1      32.317  26.089  23.999  1.00  0.00     0.138 C 
ATOM      9  C   UNL A   1      31.332  23.485  23.130  1.00  0.00     0.023 C 
ATOM     10  N   UNL A   1      33.100  24.838  23.938  1.00  0.00    -0.324 N 
ATOM     11  C   UNL A   1      32.691  24.068  22.788  1.00  0.00     0.121 C 
BRANCH   6  12
ATOM     12  C   UNL A   1      29.859  26.945  23.924  1.00  0.00     0.047 C 
BRANCH  12  13
ATOM     13  C   UNL A   1      30.403  28.238  23.325  1.00  0.00     0.161 C 
BRANCH  13  14
ATOM     14  O   UNL A   1      29.655  28.644  22.178  1.00  0.00    -0.385 OA
ATOM     15  C   UNL A   1      28.907  29.832  22.395  1.00  0.00     0.194 C 
ENDBRANCH  13  14
ENDBRANCH  12  13
ENDBRANCH   6  12
BRANCH  10  16
ATOM     16  C   UNL A   1      33.584  24.264  25.086  1.00  0.00     0.317 C 
ATOM     17  O   UNL A   1      32.911  24.112  26.107  1.00  0.00    -0.249 OA
ATOM     18  N   UNL A   1      34.812  23.767  25.234  1.00  0.00    -0.334 N 
ATOM     19  H   UNL A   1      34.891  23.286  26.089  1.00  0.00     0.165 HD
BRANCH  18  20
ATOM     20  C   UNL A   1      36.057  23.724  24.515  1.00  0.00     0.153 C 
BRANCH  20  21
ATOM     21  C   UNL A   1      37.204  23.183  25.322  1.00  0.00    -0.028 A 
ATOM     22  C   UNL A   1      37.704  21.890  25.109  1.00  0.00     0.009 A 
ATOM     23  C   UNL A   1      37.871  24.021  26.222  1.00  0.00     0.009 A 
ATOM     24  C   UNL A   1      38.867  21.464  25.758  1.00  0.00     0.047 A 
ATOM     25  C   UNL A   1      39.036  23.594  26.867  1.00  0.00     0.047 A 
ATOM     26  C   UNL A   1      39.553  22.324  26.616  1.00  0.00     0.118 A 
BRANCH  26  27
ATOM     27  O   UNL A   1      40.708  21.819  27.149  1.00  0.00    -0.497 OA
ATOM     28  C   UNL A   1      41.568  21.140  26.239  1.00  0.00     0.278 C 
ENDBRANCH  26  27
ENDBRANCH  20  21
ENDBRANCH  18  20
ENDBRANCH  10  16
ENDBRANCH   3   6
ENDBRANCH   1   2
BRANCH   1  29
ATOM     29  C   UNL A   1      31.714  29.118  27.191  1.00  0.00     0.042 C 
BRANCH  29  30
ATOM     30  C   UNL A   1      32.267  30.226  26.300  1.00  0.00     0.118 C 
BRANCH  30  31
ATOM     31  N   UNL A   1      32.229  31.572  26.855  1.00  0.00    -0.352 N 
ATOM     32  C   UNL A   1      33.186  32.357  27.473  1.00  0.00     0.251 C 
ATOM     33  H   UNL A   1      31.350  32.009  26.773  1.00  0.00     0.163 HD
ATOM     34  O   UNL A   1      32.903  33.499  27.811  1.00  0.00    -0.269 OA
BRANCH  32  35
ATOM     35  C   UNL A   1      34.533  31.816  27.821  1.00  0.00     0.039 A 
ATOM     36  C   UNL A   1      35.588  32.720  28.005  1.00  0.00     0.014 A 
ATOM     37  C   UNL A   1      34.781  30.458  28.001  1.00  0.00     0.014 A 
ATOM     38  C   UNL A   1      36.818  32.281  28.516  1.00  0.00     0.010 A 
ATOM     39  C   UNL A   1      35.959  30.037  28.621  1.00  0.00     0.010 A 
ATOM     40  C   UNL A   1      36.983  30.947  28.919  1.00  0.00    -0.014 A 
BRANCH  40  41
ATOM     41  C   UNL A   1      38.169  30.496  29.705  1.00  0.00     0.031 A 
ATOM     42  C   UNL A   1      39.216  29.603  29.092  1.00  0.00     0.074 A 
ATOM     43  C   UNL A   1      38.249  30.789  31.021  1.00  0.00     0.049 A 
ATOM     44  N   UNL A   1      40.232  29.004  29.664  1.00  0.00    -0.248 NA
ATOM     45  C   UNL A   1      39.084  29.317  27.655  1.00  0.00     0.031 C 
ATOM     46  C   UNL A   1      37.286  31.597  31.774  1.00  0.00     0.029 A 
ATOM     47  N   UNL A   1      39.179  30.426  31.966  1.00  0.00    -0.354 N 
ATOM     48  C   UNL A   1      40.835  28.244  28.669  1.00  0.00     0.074 A 
ATOM     49  C   UNL A   1      40.045  28.424  27.469  1.00  0.00     0.031 C 
ATOM     50  C   UNL A   1      37.695  31.701  33.047  1.00  0.00     0.029 A 
ATOM     51  C   UNL A   1      38.916  30.923  33.220  1.00  0.00     0.049 A 
ATOM     52  H   UNL A   1      39.962  29.862  31.763  1.00  0.00     0.167 HD
ATOM     53  C   UNL A   1      41.951  27.478  28.736  1.00  0.00     0.031 A 
ATOM     54  C   UNL A   1      39.570  30.765  34.388  1.00  0.00     0.031 A 
ATOM     55  C   UNL A   1      42.759  27.313  29.915  1.00  0.00     0.049 A 
ATOM     56  C   UNL A   1      40.799  29.906  34.441  1.00  0.00     0.074 A 
ATOM     57  C   UNL A   1      43.956  26.628  30.053  1.00  0.00     0.029 A 
ATOM     58  N   UNL A   1      42.454  27.836  31.161  1.00  0.00    -0.354 N 
ATOM     59  N   UNL A   1      41.389  29.248  33.474  1.00  0.00    -0.248 NA
ATOM     60  C   UNL A   1      41.450  29.766  35.752  1.00  0.00     0.031 C 
ATOM     61  C   UNL A   1      44.349  26.697  31.393  1.00  0.00     0.029 A 
ATOM     62  C   UNL A   1      43.422  27.464  32.080  1.00  0.00     0.049 A 
ATOM     63  H   UNL A   1      41.666  28.390  31.363  1.00  0.00     0.167 HD
ATOM     64  C   UNL A   1      42.488  28.630  34.053  1.00  0.00     0.074 A 
ATOM     65  C   UNL A   1      42.493  29.003  35.453  1.00  0.00     0.031 C 
ATOM     66  C   UNL A   1      43.411  27.825  33.474  1.00  0.00     0.031 A 
BRANCH  53  67
ATOM     67  C   UNL A   1      42.358  26.746  27.485  1.00  0.00    -0.014 A 
ATOM     68  C   UNL A   1      41.999  25.404  27.276  1.00  0.00     0.009 A 
ATOM     69  C   UNL A   1      43.099  27.411  26.497  1.00  0.00     0.009 A 
ATOM     70  C   UNL A   1      42.418  24.730  26.127  1.00  0.00     0.001 A 
ATOM     71  C   UNL A   1      43.491  26.742  25.334  1.00  0.00     0.001 A 
ATOM     72  C   UNL A   1      43.162  25.400  25.157  1.00  0.00     0.000 A 
ENDBRANCH  53  67
BRANCH  54  73
ATOM     73  C   UNL A   1      39.080  31.459  35.606  1.00  0.00    -0.014 A 
ATOM     74  C   UNL A   1      39.493  32.772  35.880  1.00  0.00     0.009 A 
ATOM     75  C   UNL A   1      38.191  30.827  36.489  1.00  0.00     0.009 A 
ATOM     76  C   UNL A   1      39.036  33.434  37.022  1.00  0.00     0.001 A 
ATOM     77  C   UNL A   1      37.716  31.501  37.617  1.00  0.00     0.001 A 
ATOM     78  C   UNL A   1      38.143  32.801  37.885  1.00  0.00     0.000 A 
ENDBRANCH  54  73
BRANCH  66  79
ATOM     79  C   UNL A   1      44.512  27.302  34.351  1.00  0.00    -0.014 A 
ATOM     80  C   UNL A   1      45.695  28.033  34.540  1.00  0.00     0.009 A 
ATOM     81  C   UNL A   1      44.350  26.081  35.024  1.00  0.00     0.009 A 
ATOM     82  C   UNL A   1      46.706  27.538  35.367  1.00  0.00     0.001 A 
ATOM     83  C   UNL A   1      45.352  25.601  35.869  1.00  0.00     0.001 A 
ATOM     84  C   UNL A   1      46.531  26.325  36.034  1.00  0.00     0.000 A 
ENDBRANCH  66  79
ENDBRANCH  40  41
ENDBRANCH  32  35
ENDBRANCH  30  31
ENDBRANCH  29  30
ENDBRANCH   1  29
TORSDOF 17
ENDMDL
