MODEL 1
REMARK VINA RESULT:     -10.6      0.000      0.000
REMARK SMILES CC(C)[C@@H]([NH3+])C(=O)N[C@@H](Cc1ccccc1)C(=O)NCCCNC(=O)c1ccc(-c2c3nc(c(-c4ccccc4)c4ccc([nH]4)c(-c4ccccc4)c4nc(c(-c5ccccc5)c5ccc2[nH]5)C=C4)C=C3)cc1
REMARK SMILES IDX 20 1 19 2 17 3 18 4 9 6 8 7 6 8 7 9 4 11 2 12 1 13 3 14 5 15
REMARK SMILES IDX 10 19 11 20 12 21 16 22 13 23 15 24 14 25 21 26 22 27 23 28
REMARK SMILES IDX 24 29 25 31 26 32 27 33 73 34 28 35 72 36 29 37 30 38 31 39
REMARK SMILES IDX 66 40 32 41 71 42 65 43 67 44 33 45 70 46 64 47 63 48 34 50
REMARK SMILES IDX 56 51 41 52 55 53 42 54 45 55 54 56 68 57 43 58 44 59 53 61
REMARK SMILES IDX 69 62 46 63 35 64 36 65 40 66 37 67 39 68 38 69 57 70 58 71
REMARK SMILES IDX 62 72 59 73 61 74 60 75 47 76 48 77 52 78 49 79 51 80 50 81
REMARK H PARENT 19 5 8 10 5 16 5 17 5 18 23 30 67 49 45 60
REMARK Flexibility Score: inf
ROOT
ATOM      1  C   UNL A   1      32.058  29.555  25.126  1.00  0.00     0.117 C 
ENDROOT
BRANCH   1   2
ATOM      2  N   UNL A   1      33.332  29.523  24.441  1.00  0.00    -0.354 N 
ATOM      3  C   UNL A   1      33.909  28.504  23.740  1.00  0.00     0.242 C 
ATOM      4  O   UNL A   1      34.683  28.837  22.834  1.00  0.00    -0.273 OA
ATOM      5  H   UNL A   1      33.859  30.354  24.488  1.00  0.00     0.163 HD
BRANCH   3   6
ATOM      6  C   UNL A   1      33.537  27.019  23.946  1.00  0.00     0.175 C 
BRANCH   6   7
ATOM      7  N   UNL A   1      33.660  26.199  22.733  1.00  0.00    -0.339 N 
ATOM      8  C   UNL A   1      32.727  25.883  21.794  1.00  0.00     0.279 C 
ATOM      9  O   UNL A   1      33.129  25.385  20.737  1.00  0.00    -0.268 OA
ATOM     10  H   UNL A   1      34.556  25.821  22.575  1.00  0.00     0.164 HD
BRANCH   8  11
ATOM     11  C   UNL A   1      31.214  26.097  22.036  1.00  0.00     0.273 C 
BRANCH  11  12
ATOM     12  C   UNL A   1      30.735  25.459  23.363  1.00  0.00     0.051 C 
ATOM     13  C   UNL A   1      29.421  26.066  23.864  1.00  0.00     0.014 C 
ATOM     14  C   UNL A   1      30.564  23.941  23.212  1.00  0.00     0.014 C 
ENDBRANCH  11  12
BRANCH  11  15
ATOM     15  N   UNL A   1      30.907  27.536  21.921  1.00  0.00    -0.347 N 
ATOM     16  H   UNL A   1      30.355  27.700  21.080  1.00  0.00     0.345 HD
ATOM     17  H   UNL A   1      31.777  28.066  21.865  1.00  0.00     0.345 HD
ATOM     18  H   UNL A   1      30.378  27.838  22.740  1.00  0.00     0.345 HD
ENDBRANCH  11  15
ENDBRANCH   8  11
ENDBRANCH   6   7
BRANCH   6  19
ATOM     19  C   UNL A   1      34.179  26.378  25.198  1.00  0.00     0.070 C 
BRANCH  19  20
ATOM     20  C   UNL A   1      33.522  25.145  25.772  1.00  0.00    -0.045 A 
ATOM     21  C   UNL A   1      32.274  25.221  26.408  1.00  0.00     0.004 A 
ATOM     22  C   UNL A   1      34.140  23.891  25.637  1.00  0.00     0.004 A 
ATOM     23  C   UNL A   1      31.629  24.059  26.838  1.00  0.00     0.000 A 
ATOM     24  C   UNL A   1      33.497  22.733  26.079  1.00  0.00     0.000 A 
ATOM     25  C   UNL A   1      32.234  22.816  26.663  1.00  0.00     0.000 A 
ENDBRANCH  19  20
ENDBRANCH   6  19
ENDBRANCH   3   6
ENDBRANCH   1   2
BRANCH   1  26
ATOM     26  C   UNL A   1      32.124  29.136  26.576  1.00  0.00     0.042 C 
BRANCH  26  27
ATOM     27  C   UNL A   1      33.495  29.358  27.193  1.00  0.00     0.118 C 
BRANCH  27  28
ATOM     28  N   UNL A   1      33.613  30.639  27.889  1.00  0.00    -0.352 N 
ATOM     29  C   UNL A   1      34.627  31.151  28.662  1.00  0.00     0.251 C 
ATOM     30  H   UNL A   1      32.836  31.233  27.786  1.00  0.00     0.163 HD
ATOM     31  O   UNL A   1      34.450  32.183  29.304  1.00  0.00    -0.269 OA
BRANCH  29  32
ATOM     32  C   UNL A   1      35.920  30.444  28.746  1.00  0.00     0.039 A 
ATOM     33  C   UNL A   1      36.799  30.489  27.661  1.00  0.00     0.014 A 
ATOM     34  C   UNL A   1      36.279  29.761  29.907  1.00  0.00     0.014 A 
ATOM     35  C   UNL A   1      38.075  29.934  27.784  1.00  0.00     0.010 A 
ATOM     36  C   UNL A   1      37.585  29.326  30.073  1.00  0.00     0.010 A 
ATOM     37  C   UNL A   1      38.497  29.400  29.010  1.00  0.00    -0.014 A 
BRANCH  37  38
ATOM     38  C   UNL A   1      39.878  28.899  29.219  1.00  0.00     0.031 A 
ATOM     39  C   UNL A   1      40.935  29.824  29.764  1.00  0.00     0.074 A 
ATOM     40  C   UNL A   1      40.209  27.654  28.818  1.00  0.00     0.049 A 
ATOM     41  N   UNL A   1      42.222  29.623  29.892  1.00  0.00    -0.248 NA
ATOM     42  C   UNL A   1      40.497  31.170  30.177  1.00  0.00     0.031 C 
ATOM     43  C   UNL A   1      39.296  26.684  28.207  1.00  0.00     0.029 A 
ATOM     44  N   UNL A   1      41.413  26.998  28.849  1.00  0.00    -0.354 N 
ATOM     45  C   UNL A   1      42.747  30.827  30.347  1.00  0.00     0.074 A 
ATOM     46  C   UNL A   1      41.651  31.765  30.435  1.00  0.00     0.031 C 
ATOM     47  C   UNL A   1      39.968  25.550  27.945  1.00  0.00     0.029 A 
ATOM     48  C   UNL A   1      41.363  25.726  28.331  1.00  0.00     0.049 A 
ATOM     49  H   UNL A   1      42.237  27.400  29.210  1.00  0.00     0.167 HD
ATOM     50  C   UNL A   1      44.023  31.120  30.685  1.00  0.00     0.031 A 
ATOM     51  C   UNL A   1      42.335  24.808  28.174  1.00  0.00     0.031 A 
ATOM     52  C   UNL A   1      45.099  30.168  30.663  1.00  0.00     0.049 A 
ATOM     53  C   UNL A   1      43.732  25.140  28.619  1.00  0.00     0.074 A 
ATOM     54  C   UNL A   1      46.404  30.336  31.090  1.00  0.00     0.029 A 
ATOM     55  N   UNL A   1      44.988  28.869  30.196  1.00  0.00    -0.354 N 
ATOM     56  N   UNL A   1      44.190  26.254  29.137  1.00  0.00    -0.248 NA
ATOM     57  C   UNL A   1      44.742  24.082  28.473  1.00  0.00     0.031 C 
ATOM     58  C   UNL A   1      47.096  29.146  30.846  1.00  0.00     0.029 A 
ATOM     59  C   UNL A   1      46.208  28.227  30.309  1.00  0.00     0.049 A 
ATOM     60  H   UNL A   1      44.166  28.463  29.839  1.00  0.00     0.167 HD
ATOM     61  C   UNL A   1      45.533  26.021  29.402  1.00  0.00     0.074 A 
ATOM     62  C   UNL A   1      45.811  24.657  29.006  1.00  0.00     0.031 C 
ATOM     63  C   UNL A   1      46.457  26.864  29.922  1.00  0.00     0.031 A 
BRANCH  50  64
ATOM     64  C   UNL A   1      44.327  32.525  31.123  1.00  0.00    -0.014 A 
ATOM     65  C   UNL A   1      44.225  32.907  32.469  1.00  0.00     0.009 A 
ATOM     66  C   UNL A   1      44.774  33.464  30.180  1.00  0.00     0.009 A 
ATOM     67  C   UNL A   1      44.536  34.213  32.858  1.00  0.00     0.001 A 
ATOM     68  C   UNL A   1      45.110  34.759  30.576  1.00  0.00     0.001 A 
ATOM     69  C   UNL A   1      44.985  35.135  31.912  1.00  0.00     0.000 A 
ENDBRANCH  50  64
BRANCH  51  70
ATOM     70  C   UNL A   1      42.028  23.480  27.581  1.00  0.00    -0.014 A 
ATOM     71  C   UNL A   1      41.579  22.426  28.393  1.00  0.00     0.009 A 
ATOM     72  C   UNL A   1      42.208  23.250  26.209  1.00  0.00     0.009 A 
ATOM     73  C   UNL A   1      41.353  21.159  27.848  1.00  0.00     0.001 A 
ATOM     74  C   UNL A   1      41.953  21.990  25.662  1.00  0.00     0.001 A 
ATOM     75  C   UNL A   1      41.538  20.943  26.484  1.00  0.00     0.000 A 
ENDBRANCH  51  70
BRANCH  63  76
ATOM     76  C   UNL A   1      47.840  26.320  30.132  1.00  0.00    -0.014 A 
ATOM     77  C   UNL A   1      48.246  25.832  31.383  1.00  0.00     0.009 A 
ATOM     78  C   UNL A   1      48.729  26.252  29.048  1.00  0.00     0.009 A 
ATOM     79  C   UNL A   1      49.532  25.314  31.551  1.00  0.00     0.001 A 
ATOM     80  C   UNL A   1      50.003  25.707  29.213  1.00  0.00     0.001 A 
ATOM     81  C   UNL A   1      50.406  25.247  30.465  1.00  0.00     0.000 A 
ENDBRANCH  63  76
ENDBRANCH  37  38
ENDBRANCH  29  32
ENDBRANCH  27  28
ENDBRANCH  26  27
ENDBRANCH   1  26
TORSDOF 16
ENDMDL
MODEL 2
REMARK VINA RESULT:     -10.4      1.620      3.120
REMARK SMILES CC(C)[C@@H]([NH3+])C(=O)N[C@@H](Cc1ccccc1)C(=O)NCCCNC(=O)c1ccc(-c2c3nc(c(-c4ccccc4)c4ccc([nH]4)c(-c4ccccc4)c4nc(c(-c5ccccc5)c5ccc2[nH]5)C=C4)C=C3)cc1
REMARK SMILES IDX 20 1 19 2 17 3 18 4 9 6 8 7 6 8 7 9 4 11 2 12 1 13 3 14 5 15
REMARK SMILES IDX 10 19 11 20 12 21 16 22 13 23 15 24 14 25 21 26 22 27 23 28
REMARK SMILES IDX 24 29 25 31 26 32 27 33 73 34 28 35 72 36 29 37 30 38 31 39
REMARK SMILES IDX 66 40 32 41 71 42 65 43 67 44 33 45 70 46 64 47 63 48 34 50
REMARK SMILES IDX 56 51 41 52 55 53 42 54 45 55 54 56 68 57 43 58 44 59 53 61
REMARK SMILES IDX 69 62 46 63 35 64 36 65 40 66 37 67 39 68 38 69 57 70 58 71
REMARK SMILES IDX 62 72 59 73 61 74 60 75 47 76 48 77 52 78 49 79 51 80 50 81
REMARK H PARENT 19 5 8 10 5 16 5 17 5 18 23 30 67 49 45 60
REMARK Flexibility Score: inf
ROOT
ATOM      1  C   UNL A   1      31.721  27.585  26.362  1.00  0.00     0.117 C 
ENDROOT
BRANCH   1   2
ATOM      2  N   UNL A   1      30.663  26.673  26.743  1.00  0.00    -0.354 N 
ATOM      3  C   UNL A   1      30.019  25.736  25.987  1.00  0.00     0.242 C 
ATOM      4  O   UNL A   1      29.574  24.757  26.599  1.00  0.00    -0.273 OA
ATOM      5  H   UNL A   1      30.366  26.737  27.679  1.00  0.00     0.163 HD
BRANCH   3   6
ATOM      6  C   UNL A   1      29.951  25.795  24.445  1.00  0.00     0.175 C 
BRANCH   6   7
ATOM      7  N   UNL A   1      30.293  24.527  23.785  1.00  0.00    -0.339 N 
ATOM      8  C   UNL A   1      31.495  23.899  23.673  1.00  0.00     0.279 C 
ATOM      9  O   UNL A   1      31.489  22.725  23.286  1.00  0.00    -0.268 OA
ATOM     10  H   UNL A   1      29.538  24.062  23.358  1.00  0.00     0.164 HD
BRANCH   8  11
ATOM     11  C   UNL A   1      32.830  24.619  23.976  1.00  0.00     0.273 C 
BRANCH  11  12
ATOM     12  C   UNL A   1      33.702  23.838  24.991  1.00  0.00     0.051 C 
ATOM     13  C   UNL A   1      35.070  24.491  25.213  1.00  0.00     0.014 C 
ATOM     14  C   UNL A   1      32.984  23.700  26.340  1.00  0.00     0.014 C 
ENDBRANCH  11  12
BRANCH  11  15
ATOM     15  N   UNL A   1      33.517  24.916  22.704  1.00  0.00    -0.347 N 
ATOM     16  H   UNL A   1      34.526  24.901  22.851  1.00  0.00     0.345 HD
ATOM     17  H   UNL A   1      33.236  25.839  22.374  1.00  0.00     0.345 HD
ATOM     18  H   UNL A   1      33.264  24.214  22.008  1.00  0.00     0.345 HD
ENDBRANCH  11  15
ENDBRANCH   8  11
ENDBRANCH   6   7
BRANCH   6  19
ATOM     19  C   UNL A   1      28.663  26.453  23.898  1.00  0.00     0.070 C 
BRANCH  19  20
ATOM     20  C   UNL A   1      28.783  27.828  23.285  1.00  0.00    -0.045 A 
ATOM     21  C   UNL A   1      30.024  28.322  22.855  1.00  0.00     0.004 A 
ATOM     22  C   UNL A   1      27.637  28.619  23.101  1.00  0.00     0.004 A 
ATOM     23  C   UNL A   1      30.104  29.549  22.192  1.00  0.00     0.000 A 
ATOM     24  C   UNL A   1      27.723  29.850  22.449  1.00  0.00     0.000 A 
ATOM     25  C   UNL A   1      28.953  30.307  21.979  1.00  0.00     0.000 A 
ENDBRANCH  19  20
ENDBRANCH   6  19
ENDBRANCH   3   6
ENDBRANCH   1   2
BRANCH   1  26
ATOM     26  C   UNL A   1      32.285  28.391  27.509  1.00  0.00     0.042 C 
BRANCH  26  27
ATOM     27  C   UNL A   1      33.575  29.108  27.148  1.00  0.00     0.118 C 
BRANCH  27  28
ATOM     28  N   UNL A   1      33.694  30.427  27.768  1.00  0.00    -0.352 N 
ATOM     29  C   UNL A   1      34.710  30.987  28.503  1.00  0.00     0.251 C 
ATOM     30  H   UNL A   1      32.914  31.013  27.636  1.00  0.00     0.163 HD
ATOM     31  O   UNL A   1      34.534  32.053  29.085  1.00  0.00    -0.269 OA
BRANCH  29  32
ATOM     32  C   UNL A   1      36.007  30.290  28.620  1.00  0.00     0.039 A 
ATOM     33  C   UNL A   1      36.895  30.308  27.541  1.00  0.00     0.014 A 
ATOM     34  C   UNL A   1      36.358  29.643  29.803  1.00  0.00     0.014 A 
ATOM     35  C   UNL A   1      38.173  29.763  27.692  1.00  0.00     0.010 A 
ATOM     36  C   UNL A   1      37.665  29.220  29.993  1.00  0.00     0.010 A 
ATOM     37  C   UNL A   1      38.587  29.268  28.937  1.00  0.00    -0.014 A 
BRANCH  37  38
ATOM     38  C   UNL A   1      39.969  28.780  29.173  1.00  0.00     0.031 A 
ATOM     39  C   UNL A   1      41.004  29.715  29.742  1.00  0.00     0.074 A 
ATOM     40  C   UNL A   1      40.320  27.541  28.775  1.00  0.00     0.049 A 
ATOM     41  N   UNL A   1      42.290  29.528  29.896  1.00  0.00    -0.248 NA
ATOM     42  C   UNL A   1      40.543  31.055  30.150  1.00  0.00     0.031 C 
ATOM     43  C   UNL A   1      39.430  26.563  28.142  1.00  0.00     0.029 A 
ATOM     44  N   UNL A   1      41.531  26.897  28.829  1.00  0.00    -0.354 N 
ATOM     45  C   UNL A   1      42.792  30.735  30.366  1.00  0.00     0.074 A 
ATOM     46  C   UNL A   1      41.685  31.662  30.434  1.00  0.00     0.031 C 
ATOM     47  C   UNL A   1      40.120  25.438  27.890  1.00  0.00     0.029 A 
ATOM     48  C   UNL A   1      41.505  25.627  28.306  1.00  0.00     0.049 A 
ATOM     49  H   UNL A   1      42.343  27.307  29.208  1.00  0.00     0.167 HD
ATOM     50  C   UNL A   1      44.058  31.041  30.731  1.00  0.00     0.031 A 
ATOM     51  C   UNL A   1      42.490  24.719  28.167  1.00  0.00     0.031 A 
ATOM     52  C   UNL A   1      45.145  30.101  30.728  1.00  0.00     0.049 A 
ATOM     53  C   UNL A   1      43.873  25.065  28.642  1.00  0.00     0.074 A 
ATOM     54  C   UNL A   1      46.439  30.280  31.183  1.00  0.00     0.029 A 
ATOM     55  N   UNL A   1      45.057  28.802  30.256  1.00  0.00    -0.354 N 
ATOM     56  N   UNL A   1      44.309  26.182  29.172  1.00  0.00    -0.248 NA
ATOM     57  C   UNL A   1      44.898  24.018  28.513  1.00  0.00     0.031 C 
ATOM     58  C   UNL A   1      47.148  29.098  30.949  1.00  0.00     0.029 A 
ATOM     59  C   UNL A   1      46.281  28.172  30.392  1.00  0.00     0.049 A 
ATOM     60  H   UNL A   1      44.246  28.388  29.880  1.00  0.00     0.167 HD
ATOM     61  C   UNL A   1      45.649  25.963  29.464  1.00  0.00     0.074 A 
ATOM     62  C   UNL A   1      45.949  24.602  29.070  1.00  0.00     0.031 C 
ATOM     63  C   UNL A   1      46.553  26.813  30.006  1.00  0.00     0.031 A 
BRANCH  50  64
ATOM     64  C   UNL A   1      44.338  32.447  31.179  1.00  0.00    -0.014 A 
ATOM     65  C   UNL A   1      44.694  33.447  30.262  1.00  0.00     0.009 A 
ATOM     66  C   UNL A   1      44.190  32.787  32.533  1.00  0.00     0.009 A 
ATOM     67  C   UNL A   1      44.926  34.755  30.696  1.00  0.00     0.001 A 
ATOM     68  C   UNL A   1      44.395  34.100  32.959  1.00  0.00     0.001 A 
ATOM     69  C   UNL A   1      44.770  35.081  32.043  1.00  0.00     0.000 A 
ENDBRANCH  50  64
BRANCH  51  70
ATOM     70  C   UNL A   1      42.209  23.390  27.564  1.00  0.00    -0.014 A 
ATOM     71  C   UNL A   1      42.512  23.142  26.215  1.00  0.00     0.009 A 
ATOM     72  C   UNL A   1      41.610  22.372  28.322  1.00  0.00     0.009 A 
ATOM     73  C   UNL A   1      42.189  21.916  25.630  1.00  0.00     0.001 A 
ATOM     74  C   UNL A   1      41.314  21.137  27.741  1.00  0.00     0.001 A 
ATOM     75  C   UNL A   1      41.591  20.914  26.393  1.00  0.00     0.000 A 
ENDBRANCH  51  70
BRANCH  63  76
ATOM     76  C   UNL A   1      47.937  26.284  30.242  1.00  0.00    -0.014 A 
ATOM     77  C   UNL A   1      48.312  25.764  31.491  1.00  0.00     0.009 A 
ATOM     78  C   UNL A   1      48.859  26.260  29.185  1.00  0.00     0.009 A 
ATOM     79  C   UNL A   1      49.599  25.259  31.683  1.00  0.00     0.001 A 
ATOM     80  C   UNL A   1      50.136  25.729  29.374  1.00  0.00     0.001 A 
ATOM     81  C   UNL A   1      50.507  25.238  30.624  1.00  0.00     0.000 A 
ENDBRANCH  63  76
ENDBRANCH  37  38
ENDBRANCH  29  32
ENDBRANCH  27  28
ENDBRANCH  26  27
ENDBRANCH   1  26
TORSDOF 16
ENDMDL
MODEL 3
REMARK VINA RESULT:     -10.3      2.956      7.782
REMARK SMILES CC(C)[C@@H]([NH3+])C(=O)N[C@@H](Cc1ccccc1)C(=O)NCCCNC(=O)c1ccc(-c2c3nc(c(-c4ccccc4)c4ccc([nH]4)c(-c4ccccc4)c4nc(c(-c5ccccc5)c5ccc2[nH]5)C=C4)C=C3)cc1
REMARK SMILES IDX 20 1 19 2 17 3 18 4 9 6 8 7 6 8 7 9 4 11 2 12 1 13 3 14 5 15
REMARK SMILES IDX 10 19 11 20 12 21 16 22 13 23 15 24 14 25 21 26 22 27 23 28
REMARK SMILES IDX 24 29 25 31 26 32 27 33 73 34 28 35 72 36 29 37 30 38 31 39
REMARK SMILES IDX 66 40 32 41 71 42 65 43 67 44 33 45 70 46 64 47 63 48 34 50
REMARK SMILES IDX 56 51 41 52 55 53 42 54 45 55 54 56 68 57 43 58 44 59 53 61
REMARK SMILES IDX 69 62 46 63 35 64 36 65 40 66 37 67 39 68 38 69 57 70 58 71
REMARK SMILES IDX 62 72 59 73 61 74 60 75 47 76 48 77 52 78 49 79 51 80 50 81
REMARK H PARENT 19 5 8 10 5 16 5 17 5 18 23 30 67 49 45 60
REMARK Flexibility Score: inf
ROOT
ATOM      1  C   UNL A   1      35.414  22.197  23.892  1.00  0.00     0.117 C 
ENDROOT
BRANCH   1   2
ATOM      2  N   UNL A   1      35.094  21.676  25.204  1.00  0.00    -0.354 N 
ATOM      3  C   UNL A   1      34.037  21.973  26.016  1.00  0.00     0.242 C 
ATOM      4  O   UNL A   1      33.676  21.076  26.788  1.00  0.00    -0.273 OA
ATOM      5  H   UNL A   1      35.728  21.014  25.562  1.00  0.00     0.163 HD
BRANCH   3   6
ATOM      6  C   UNL A   1      33.231  23.286  25.907  1.00  0.00     0.175 C 
BRANCH   6   7
ATOM      7  N   UNL A   1      31.978  23.281  26.676  1.00  0.00    -0.339 N 
ATOM      8  C   UNL A   1      30.883  24.081  26.564  1.00  0.00     0.279 C 
ATOM      9  O   UNL A   1      29.857  23.727  27.155  1.00  0.00    -0.268 OA
ATOM     10  H   UNL A   1      31.923  22.594  27.379  1.00  0.00     0.164 HD
BRANCH   8  11
ATOM     11  C   UNL A   1      30.911  25.405  25.765  1.00  0.00     0.273 C 
BRANCH  11  12
ATOM     12  C   UNL A   1      29.964  25.372  24.539  1.00  0.00     0.051 C 
ATOM     13  C   UNL A   1      29.824  26.743  23.870  1.00  0.00     0.014 C 
ATOM     14  C   UNL A   1      30.446  24.351  23.501  1.00  0.00     0.014 C 
ENDBRANCH  11  12
BRANCH  11  15
ATOM     15  N   UNL A   1      30.655  26.529  26.686  1.00  0.00    -0.347 N 
ATOM     16  H   UNL A   1      29.878  27.088  26.333  1.00  0.00     0.345 HD
ATOM     17  H   UNL A   1      31.489  27.111  26.752  1.00  0.00     0.345 HD
ATOM     18  H   UNL A   1      30.420  26.166  27.610  1.00  0.00     0.345 HD
ENDBRANCH  11  15
ENDBRANCH   8  11
ENDBRANCH   6   7
BRANCH   6  19
ATOM     19  C   UNL A   1      34.079  24.562  26.109  1.00  0.00     0.070 C 
BRANCH  19  20
ATOM     20  C   UNL A   1      33.970  25.650  25.067  1.00  0.00    -0.045 A 
ATOM     21  C   UNL A   1      33.859  25.336  23.704  1.00  0.00     0.004 A 
ATOM     22  C   UNL A   1      33.937  26.999  25.458  1.00  0.00     0.004 A 
ATOM     23  C   UNL A   1      33.650  26.347  22.762  1.00  0.00     0.000 A 
ATOM     24  C   UNL A   1      33.740  28.006  24.512  1.00  0.00     0.000 A 
ATOM     25  C   UNL A   1      33.579  27.679  23.166  1.00  0.00     0.000 A 
ENDBRANCH  19  20
ENDBRANCH   6  19
ENDBRANCH   3   6
ENDBRANCH   1   2
BRANCH   1  26
ATOM     26  C   UNL A   1      36.718  22.958  23.831  1.00  0.00     0.042 C 
BRANCH  26  27
ATOM     27  C   UNL A   1      37.284  23.273  25.206  1.00  0.00     0.118 C 
BRANCH  27  28
ATOM     28  N   UNL A   1      38.511  22.536  25.506  1.00  0.00    -0.352 N 
ATOM     29  C   UNL A   1      39.670  22.936  26.126  1.00  0.00     0.251 C 
ATOM     30  H   UNL A   1      38.505  21.596  25.216  1.00  0.00     0.163 HD
ATOM     31  O   UNL A   1      40.655  22.203  26.121  1.00  0.00    -0.269 OA
BRANCH  29  32
ATOM     32  C   UNL A   1      39.741  24.261  26.773  1.00  0.00     0.039 A 
ATOM     33  C   UNL A   1      39.185  24.437  28.043  1.00  0.00     0.014 A 
ATOM     34  C   UNL A   1      40.383  25.324  26.139  1.00  0.00     0.014 A 
ATOM     35  C   UNL A   1      39.364  25.650  28.712  1.00  0.00     0.010 A 
ATOM     36  C   UNL A   1      40.671  26.478  26.853  1.00  0.00     0.010 A 
ATOM     37  C   UNL A   1      40.158  26.658  28.145  1.00  0.00    -0.014 A 
BRANCH  37  38
ATOM     38  C   UNL A   1      40.466  27.919  28.866  1.00  0.00     0.031 A 
ATOM     39  C   UNL A   1      41.756  28.044  29.635  1.00  0.00     0.074 A 
ATOM     40  C   UNL A   1      39.545  28.902  28.922  1.00  0.00     0.049 A 
ATOM     41  N   UNL A   1      42.149  29.001  30.436  1.00  0.00    -0.248 NA
ATOM     42  C   UNL A   1      42.710  26.926  29.527  1.00  0.00     0.031 C 
ATOM     43  C   UNL A   1      38.226  28.873  28.283  1.00  0.00     0.029 A 
ATOM     44  N   UNL A   1      39.573  30.113  29.565  1.00  0.00    -0.354 N 
ATOM     45  C   UNL A   1      43.364  28.576  30.961  1.00  0.00     0.074 A 
ATOM     46  C   UNL A   1      43.625  27.260  30.424  1.00  0.00     0.031 C 
ATOM     47  C   UNL A   1      37.584  30.024  28.546  1.00  0.00     0.029 A 
ATOM     48  C   UNL A   1      38.425  30.852  29.402  1.00  0.00     0.049 A 
ATOM     49  H   UNL A   1      40.343  30.425  30.094  1.00  0.00     0.167 HD
ATOM     50  C   UNL A   1      44.200  29.232  31.798  1.00  0.00     0.031 A 
ATOM     51  C   UNL A   1      38.085  32.057  29.896  1.00  0.00     0.031 A 
ATOM     52  C   UNL A   1      43.973  30.567  32.278  1.00  0.00     0.049 A 
ATOM     53  C   UNL A   1      39.062  32.790  30.772  1.00  0.00     0.074 A 
ATOM     54  C   UNL A   1      44.810  31.360  33.041  1.00  0.00     0.029 A 
ATOM     55  N   UNL A   1      42.828  31.306  32.030  1.00  0.00    -0.354 N 
ATOM     56  N   UNL A   1      40.248  32.411  31.181  1.00  0.00    -0.248 NA
ATOM     57  C   UNL A   1      38.660  34.125  31.240  1.00  0.00     0.031 C 
ATOM     58  C   UNL A   1      44.155  32.570  33.289  1.00  0.00     0.029 A 
ATOM     59  C   UNL A   1      42.930  32.543  32.641  1.00  0.00     0.049 A 
ATOM     60  H   UNL A   1      42.058  30.998  31.499  1.00  0.00     0.167 HD
ATOM     61  C   UNL A   1      40.743  33.469  31.932  1.00  0.00     0.074 A 
ATOM     62  C   UNL A   1      39.738  34.511  31.906  1.00  0.00     0.031 C 
ATOM     63  C   UNL A   1      41.923  33.569  32.590  1.00  0.00     0.031 A 
BRANCH  50  64
ATOM     64  C   UNL A   1      45.447  28.521  32.240  1.00  0.00    -0.014 A 
ATOM     65  C   UNL A   1      46.646  28.636  31.520  1.00  0.00     0.009 A 
ATOM     66  C   UNL A   1      45.434  27.769  33.425  1.00  0.00     0.009 A 
ATOM     67  C   UNL A   1      47.801  27.987  31.963  1.00  0.00     0.001 A 
ATOM     68  C   UNL A   1      46.597  27.144  33.879  1.00  0.00     0.001 A 
ATOM     69  C   UNL A   1      47.777  27.247  33.145  1.00  0.00     0.000 A 
ENDBRANCH  50  64
BRANCH  51  70
ATOM     70  C   UNL A   1      36.766  32.659  29.569  1.00  0.00    -0.014 A 
ATOM     71  C   UNL A   1      35.672  32.489  30.433  1.00  0.00     0.009 A 
ATOM     72  C   UNL A   1      36.585  33.383  28.380  1.00  0.00     0.009 A 
ATOM     73  C   UNL A   1      34.416  32.998  30.095  1.00  0.00     0.001 A 
ATOM     74  C   UNL A   1      35.333  33.916  28.059  1.00  0.00     0.001 A 
ATOM     75  C   UNL A   1      34.248  33.712  28.909  1.00  0.00     0.000 A 
ENDBRANCH  51  70
BRANCH  63  76
ATOM     76  C   UNL A   1      42.207  34.862  33.296  1.00  0.00    -0.014 A 
ATOM     77  C   UNL A   1      42.996  35.857  32.700  1.00  0.00     0.009 A 
ATOM     78  C   UNL A   1      41.635  35.103  34.555  1.00  0.00     0.009 A 
ATOM     79  C   UNL A   1      43.233  37.060  33.368  1.00  0.00     0.001 A 
ATOM     80  C   UNL A   1      41.850  36.318  35.207  1.00  0.00     0.001 A 
ATOM     81  C   UNL A   1      42.655  37.291  34.618  1.00  0.00     0.000 A 
ENDBRANCH  63  76
ENDBRANCH  37  38
ENDBRANCH  29  32
ENDBRANCH  27  28
ENDBRANCH  26  27
ENDBRANCH   1  26
TORSDOF 16
ENDMDL
