MODEL 1
REMARK VINA RESULT:     -12.6      0.000      0.000
REMARK SMILES Cc1cccc(O[C@@H](C)C(=O)N2CC[C@@H](C(=O)NCCCNC(=O)c3ccc(-c4c5nc(c(-c6ccccc6)c6ccc([nH]6)c(-c6ccccc6)c6nc(c(-c7ccccc7)c7ccc4[nH]7)C=C6)C=C5)cc3)[C@@H]2C)c1
REMARK SMILES IDX 19 1 18 2 16 3 17 4 15 6 12 7 13 8 73 9 14 10 74 11 10 12
REMARK SMILES IDX 11 13 8 14 9 15 7 16 6 17 1 18 2 19 3 20 75 21 4 22 5 23
REMARK SMILES IDX 20 24 21 25 22 26 23 27 24 29 25 30 26 31 72 32 27 33 71 34
REMARK SMILES IDX 28 35 29 36 30 37 65 38 31 39 70 40 64 41 66 42 32 43 69 44
REMARK SMILES IDX 63 45 62 46 33 48 55 49 40 50 54 51 41 52 44 53 53 54 67 55
REMARK SMILES IDX 42 56 43 57 52 59 68 60 45 61 34 62 35 63 39 64 36 65 38 66
REMARK SMILES IDX 37 67 56 68 57 69 61 70 58 71 60 72 59 73 46 74 47 75 51 76
REMARK SMILES IDX 48 77 50 78 49 79
REMARK H PARENT 18 5 22 28 66 47 44 58
REMARK Flexibility Score: inf
ROOT
ATOM      1  C   UNL A   1      35.786  22.185  25.678  1.00  0.00     0.117 C 
ENDROOT
BRANCH   1   2
ATOM      2  N   UNL A   1      34.999  23.320  24.785  1.00  0.00    -0.356 N 
ATOM      3  C   UNL A   1      34.334  24.510  24.540  1.00  0.00     0.225 C 
ATOM      4  O   UNL A   1      34.200  24.610  23.290  1.00  0.00    -0.275 OA
ATOM      5  H   UNL A   1      35.005  22.908  23.891  1.00  0.00     0.163 HD
BRANCH   3   6
ATOM      6  C   UNL A   1      33.688  25.872  25.333  1.00  0.00     0.102 C 
ATOM      7  N   UNL A   1      32.079  27.697  24.903  1.00  0.00    -0.336 N 
ATOM      8  C   UNL A   1      31.384  26.718  25.743  1.00  0.00     0.121 C 
ATOM      9  C   UNL A   1      33.532  27.445  25.046  1.00  0.00     0.094 C 
ATOM     10  C   UNL A   1      32.372  25.588  26.091  1.00  0.00     0.037 C 
ATOM     11  C   UNL A   1      34.028  28.305  26.232  1.00  0.00     0.032 C 
BRANCH   7  12
ATOM     12  C   UNL A   1      31.289  28.630  24.224  1.00  0.00     0.263 C 
ATOM     13  O   UNL A   1      31.039  29.688  24.841  1.00  0.00    -0.271 OA
BRANCH  12  14
ATOM     14  C   UNL A   1      30.544  28.523  22.768  1.00  0.00     0.259 C 
ATOM     15  C   UNL A   1      31.134  27.250  22.045  1.00  0.00     0.064 C 
BRANCH  14  16
ATOM     16  O   UNL A   1      30.177  29.469  21.760  1.00  0.00    -0.481 OA
BRANCH  16  17
ATOM     17  C   UNL A   1      28.937  30.015  21.919  1.00  0.00     0.120 A 
ATOM     18  C   UNL A   1      29.079  33.383  23.059  1.00  0.00     0.044 C 
ATOM     19  C   UNL A   1      28.397  31.997  22.911  1.00  0.00    -0.047 A 
ATOM     20  C   UNL A   1      27.403  31.295  23.658  1.00  0.00     0.003 A 
ATOM     21  C   UNL A   1      28.783  31.366  21.777  1.00  0.00     0.049 A 
ATOM     22  C   UNL A   1      27.119  29.945  23.424  1.00  0.00     0.004 A 
ATOM     23  C   UNL A   1      27.985  29.264  22.594  1.00  0.00     0.046 A 
ENDBRANCH  16  17
ENDBRANCH  14  16
ENDBRANCH  12  14
ENDBRANCH   7  12
ENDBRANCH   3   6
ENDBRANCH   1   2
BRANCH   1  24
ATOM     24  C   UNL A   1      37.317  22.327  26.050  1.00  0.00     0.042 C 
BRANCH  24  25
ATOM     25  C   UNL A   1      38.443  23.408  26.299  1.00  0.00     0.118 C 
BRANCH  25  26
ATOM     26  N   UNL A   1      39.593  23.116  27.161  1.00  0.00    -0.352 N 
ATOM     27  C   UNL A   1      40.639  23.976  27.533  1.00  0.00     0.251 C 
ATOM     28  H   UNL A   1      39.638  22.202  27.524  1.00  0.00     0.163 HD
ATOM     29  O   UNL A   1      41.716  23.544  27.889  1.00  0.00    -0.269 OA
BRANCH  27  30
ATOM     30  C   UNL A   1      40.381  25.434  27.494  1.00  0.00     0.039 A 
ATOM     31  C   UNL A   1      40.641  26.328  26.459  1.00  0.00     0.014 A 
ATOM     32  C   UNL A   1      39.918  25.955  28.674  1.00  0.00     0.014 A 
ATOM     33  C   UNL A   1      40.524  27.695  26.759  1.00  0.00     0.010 A 
ATOM     34  C   UNL A   1      39.228  27.102  28.705  1.00  0.00     0.010 A 
ATOM     35  C   UNL A   1      39.875  28.042  27.949  1.00  0.00    -0.014 A 
BRANCH  35  36
ATOM     36  C   UNL A   1      40.057  29.210  28.790  1.00  0.00     0.031 A 
ATOM     37  C   UNL A   1      38.929  30.087  29.016  1.00  0.00     0.074 A 
ATOM     38  C   UNL A   1      41.084  29.149  29.682  1.00  0.00     0.049 A 
ATOM     39  N   UNL A   1      39.049  31.335  29.276  1.00  0.00    -0.248 NA
ATOM     40  C   UNL A   1      37.555  29.599  28.986  1.00  0.00     0.031 C 
ATOM     41  C   UNL A   1      41.284  29.851  30.941  1.00  0.00     0.029 A 
ATOM     42  N   UNL A   1      42.231  28.359  29.577  1.00  0.00    -0.354 N 
ATOM     43  C   UNL A   1      37.841  31.719  29.798  1.00  0.00     0.074 A 
ATOM     44  C   UNL A   1      36.905  30.676  29.431  1.00  0.00     0.031 C 
ATOM     45  C   UNL A   1      42.571  29.702  31.320  1.00  0.00     0.029 A 
ATOM     46  C   UNL A   1      43.273  28.981  30.266  1.00  0.00     0.049 A 
ATOM     47  H   UNL A   1      42.294  27.502  29.095  1.00  0.00     0.167 HD
ATOM     48  C   UNL A   1      37.804  32.744  30.692  1.00  0.00     0.031 A 
ATOM     49  C   UNL A   1      44.310  29.445  29.508  1.00  0.00     0.031 A 
ATOM     50  C   UNL A   1      39.164  33.174  31.064  1.00  0.00     0.049 A 
ATOM     51  C   UNL A   1      44.236  30.948  29.341  1.00  0.00     0.074 A 
ATOM     52  C   UNL A   1      39.923  32.984  32.209  1.00  0.00     0.029 A 
ATOM     53  N   UNL A   1      40.062  33.573  30.076  1.00  0.00    -0.354 N 
ATOM     54  N   UNL A   1      43.236  31.676  29.756  1.00  0.00    -0.248 NA
ATOM     55  C   UNL A   1      45.271  31.751  28.702  1.00  0.00     0.031 C 
ATOM     56  C   UNL A   1      41.292  33.198  31.878  1.00  0.00     0.029 A 
ATOM     57  C   UNL A   1      41.367  33.549  30.541  1.00  0.00     0.049 A 
ATOM     58  H   UNL A   1      39.803  33.838  29.164  1.00  0.00     0.167 HD
ATOM     59  C   UNL A   1      43.427  32.983  29.415  1.00  0.00     0.074 A 
ATOM     60  C   UNL A   1      44.739  32.985  28.790  1.00  0.00     0.031 C 
ATOM     61  C   UNL A   1      42.470  33.932  29.654  1.00  0.00     0.031 A 
BRANCH  48  62
ATOM     62  C   UNL A   1      36.558  33.101  31.465  1.00  0.00    -0.014 A 
ATOM     63  C   UNL A   1      35.569  33.902  30.872  1.00  0.00     0.009 A 
ATOM     64  C   UNL A   1      36.291  32.668  32.778  1.00  0.00     0.009 A 
ATOM     65  C   UNL A   1      34.432  34.318  31.577  1.00  0.00     0.001 A 
ATOM     66  C   UNL A   1      35.186  33.121  33.508  1.00  0.00     0.001 A 
ATOM     67  C   UNL A   1      34.255  33.953  32.906  1.00  0.00     0.000 A 
ENDBRANCH  48  62
BRANCH  49  68
ATOM     68  C   UNL A   1      44.715  28.444  28.457  1.00  0.00    -0.014 A 
ATOM     69  C   UNL A   1      45.130  27.170  28.907  1.00  0.00     0.009 A 
ATOM     70  C   UNL A   1      44.258  28.554  27.133  1.00  0.00     0.009 A 
ATOM     71  C   UNL A   1      44.960  26.029  28.110  1.00  0.00     0.001 A 
ATOM     72  C   UNL A   1      44.096  27.407  26.338  1.00  0.00     0.001 A 
ATOM     73  C   UNL A   1      44.406  26.143  26.840  1.00  0.00     0.000 A 
ENDBRANCH  49  68
BRANCH  61  74
ATOM     74  C   UNL A   1      42.473  35.341  29.109  1.00  0.00    -0.014 A 
ATOM     75  C   UNL A   1      43.105  36.432  29.715  1.00  0.00     0.009 A 
ATOM     76  C   UNL A   1      41.910  35.573  27.831  1.00  0.00     0.009 A 
ATOM     77  C   UNL A   1      43.138  37.691  29.100  1.00  0.00     0.001 A 
ATOM     78  C   UNL A   1      41.998  36.806  27.185  1.00  0.00     0.001 A 
ATOM     79  C   UNL A   1      42.601  37.873  27.830  1.00  0.00     0.000 A 
ENDBRANCH  61  74
ENDBRANCH  35  36
ENDBRANCH  27  30
ENDBRANCH  25  26
ENDBRANCH  24  25
ENDBRANCH   1  24
TORSDOF 14
ENDMDL
MODEL 2
REMARK VINA RESULT:     -12.3      3.472      8.783
REMARK SMILES Cc1cccc(O[C@@H](C)C(=O)N2CC[C@@H](C(=O)NCCCNC(=O)c3ccc(-c4c5nc(c(-c6ccccc6)c6ccc([nH]6)c(-c6ccccc6)c6nc(c(-c7ccccc7)c7ccc4[nH]7)C=C6)C=C5)cc3)[C@@H]2C)c1
REMARK SMILES IDX 19 1 18 2 16 3 17 4 15 6 12 7 13 8 73 9 14 10 74 11 10 12
REMARK SMILES IDX 11 13 8 14 9 15 7 16 6 17 1 18 2 19 3 20 75 21 4 22 5 23
REMARK SMILES IDX 20 24 21 25 22 26 23 27 24 29 25 30 26 31 72 32 27 33 71 34
REMARK SMILES IDX 28 35 29 36 30 37 65 38 31 39 70 40 64 41 66 42 32 43 69 44
REMARK SMILES IDX 63 45 62 46 33 48 55 49 40 50 54 51 41 52 44 53 53 54 67 55
REMARK SMILES IDX 42 56 43 57 52 59 68 60 45 61 34 62 35 63 39 64 36 65 38 66
REMARK SMILES IDX 37 67 56 68 57 69 61 70 58 71 60 72 59 73 46 74 47 75 51 76
REMARK SMILES IDX 48 77 50 78 49 79
REMARK H PARENT 18 5 22 28 66 47 44 58
REMARK Flexibility Score: inf
ROOT
ATOM      1  C   UNL A   1      32.735  30.111  25.526  1.00  0.00     0.117 C 
ENDROOT
BRANCH   1   2
ATOM      2  N   UNL A   1      33.423  29.428  24.197  1.00  0.00    -0.356 N 
ATOM      3  C   UNL A   1      33.500  28.609  23.082  1.00  0.00     0.225 C 
ATOM      4  O   UNL A   1      34.564  28.906  22.476  1.00  0.00    -0.275 OA
ATOM      5  H   UNL A   1      34.309  29.857  24.189  1.00  0.00     0.163 HD
BRANCH   3   6
ATOM      6  C   UNL A   1      32.643  27.394  22.251  1.00  0.00     0.102 C 
ATOM      7  N   UNL A   1      31.757  25.124  22.653  1.00  0.00    -0.336 N 
ATOM      8  C   UNL A   1      30.618  26.038  22.751  1.00  0.00     0.121 C 
ATOM      9  C   UNL A   1      32.829  25.833  21.917  1.00  0.00     0.094 C 
ATOM     10  C   UNL A   1      31.112  27.465  22.443  1.00  0.00     0.037 C 
ATOM     11  C   UNL A   1      32.624  25.532  20.413  1.00  0.00     0.032 C 
BRANCH   7  12
ATOM     12  C   UNL A   1      31.596  23.843  23.194  1.00  0.00     0.263 C 
ATOM     13  O   UNL A   1      30.432  23.389  23.189  1.00  0.00    -0.271 OA
BRANCH  12  14
ATOM     14  C   UNL A   1      32.683  22.866  23.936  1.00  0.00     0.259 C 
ATOM     15  C   UNL A   1      32.523  21.433  23.294  1.00  0.00     0.064 C 
BRANCH  14  16
ATOM     16  O   UNL A   1      33.113  22.695  25.289  1.00  0.00    -0.481 OA
BRANCH  16  17
ATOM     17  C   UNL A   1      33.155  23.846  26.021  1.00  0.00     0.120 A 
ATOM     18  C   UNL A   1      29.949  25.355  26.350  1.00  0.00     0.044 C 
ATOM     19  C   UNL A   1      31.499  25.391  26.294  1.00  0.00    -0.047 A 
ATOM     20  C   UNL A   1      32.457  26.401  25.975  1.00  0.00     0.003 A 
ATOM     21  C   UNL A   1      32.045  24.228  26.721  1.00  0.00     0.049 A 
ATOM     22  C   UNL A   1      33.812  26.102  25.790  1.00  0.00     0.004 A 
ATOM     23  C   UNL A   1      34.148  24.767  25.716  1.00  0.00     0.046 A 
ENDBRANCH  16  17
ENDBRANCH  14  16
ENDBRANCH  12  14
ENDBRANCH   7  12
ENDBRANCH   3   6
ENDBRANCH   1   2
BRANCH   1  24
ATOM     24  C   UNL A   1      33.368  29.955  26.968  1.00  0.00     0.042 C 
BRANCH  24  25
ATOM     25  C   UNL A   1      34.758  29.891  27.718  1.00  0.00     0.118 C 
BRANCH  25  26
ATOM     26  N   UNL A   1      35.679  31.033  27.698  1.00  0.00    -0.352 N 
ATOM     27  C   UNL A   1      36.908  31.167  28.365  1.00  0.00     0.251 C 
ATOM     28  H   UNL A   1      35.401  31.801  27.149  1.00  0.00     0.163 HD
ATOM     29  O   UNL A   1      37.375  32.259  28.613  1.00  0.00    -0.269 OA
BRANCH  27  30
ATOM     30  C   UNL A   1      37.629  29.929  28.742  1.00  0.00     0.039 A 
ATOM     31  C   UNL A   1      37.372  29.075  29.810  1.00  0.00     0.014 A 
ATOM     32  C   UNL A   1      38.739  29.671  27.982  1.00  0.00     0.014 A 
ATOM     33  C   UNL A   1      38.346  28.100  30.088  1.00  0.00     0.010 A 
ATOM     34  C   UNL A   1      39.235  28.433  27.871  1.00  0.00     0.010 A 
ATOM     35  C   UNL A   1      39.321  27.865  29.113  1.00  0.00    -0.014 A 
BRANCH  35  36
ATOM     36  C   UNL A   1      40.685  27.396  29.271  1.00  0.00     0.031 A 
ATOM     37  C   UNL A   1      41.089  26.190  28.581  1.00  0.00     0.074 A 
ATOM     38  C   UNL A   1      41.602  28.336  29.630  1.00  0.00     0.049 A 
ATOM     39  N   UNL A   1      42.020  25.417  29.002  1.00  0.00    -0.248 NA
ATOM     40  C   UNL A   1      40.470  25.774  27.328  1.00  0.00     0.031 C 
ATOM     41  C   UNL A   1      43.043  28.374  29.428  1.00  0.00     0.029 A 
ATOM     42  N   UNL A   1      41.348  29.531  30.306  1.00  0.00    -0.354 N 
ATOM     43  C   UNL A   1      42.365  24.641  27.926  1.00  0.00     0.074 A 
ATOM     44  C   UNL A   1      41.273  24.765  26.984  1.00  0.00     0.031 C 
ATOM     45  C   UNL A   1      43.564  29.341  30.213  1.00  0.00     0.029 A 
ATOM     46  C   UNL A   1      42.488  29.896  31.023  1.00  0.00     0.049 A 
ATOM     47  H   UNL A   1      40.501  30.033  30.281  1.00  0.00     0.167 HD
ATOM     48  C   UNL A   1      43.640  24.175  27.831  1.00  0.00     0.031 A 
ATOM     49  C   UNL A   1      42.386  29.859  32.385  1.00  0.00     0.031 A 
ATOM     50  C   UNL A   1      44.496  24.747  28.886  1.00  0.00     0.049 A 
ATOM     51  C   UNL A   1      43.074  28.635  32.951  1.00  0.00     0.074 A 
ATOM     52  C   UNL A   1      45.481  25.725  28.862  1.00  0.00     0.029 A 
ATOM     53  N   UNL A   1      44.143  24.599  30.226  1.00  0.00    -0.354 N 
ATOM     54  N   UNL A   1      43.576  27.679  32.218  1.00  0.00    -0.248 NA
ATOM     55  C   UNL A   1      43.256  28.385  34.376  1.00  0.00     0.031 C 
ATOM     56  C   UNL A   1      45.657  26.213  30.189  1.00  0.00     0.029 A 
ATOM     57  C   UNL A   1      44.806  25.514  31.027  1.00  0.00     0.049 A 
ATOM     58  H   UNL A   1      43.503  23.929  30.561  1.00  0.00     0.167 HD
ATOM     59  C   UNL A   1      44.078  26.687  33.008  1.00  0.00     0.074 A 
ATOM     60  C   UNL A   1      43.889  27.197  34.356  1.00  0.00     0.031 C 
ATOM     61  C   UNL A   1      44.572  25.528  32.475  1.00  0.00     0.031 A 
BRANCH  48  62
ATOM     62  C   UNL A   1      44.162  23.486  26.594  1.00  0.00    -0.014 A 
ATOM     63  C   UNL A   1      44.954  24.195  25.677  1.00  0.00     0.009 A 
ATOM     64  C   UNL A   1      43.922  22.134  26.282  1.00  0.00     0.009 A 
ATOM     65  C   UNL A   1      45.399  23.616  24.481  1.00  0.00     0.001 A 
ATOM     66  C   UNL A   1      44.316  21.563  25.065  1.00  0.00     0.001 A 
ATOM     67  C   UNL A   1      45.054  22.310  24.160  1.00  0.00     0.000 A 
ENDBRANCH  48  62
BRANCH  49  68
ATOM     68  C   UNL A   1      41.087  30.457  32.857  1.00  0.00    -0.014 A 
ATOM     69  C   UNL A   1      40.729  31.719  32.330  1.00  0.00     0.009 A 
ATOM     70  C   UNL A   1      40.060  29.650  33.377  1.00  0.00     0.009 A 
ATOM     71  C   UNL A   1      39.385  32.096  32.198  1.00  0.00     0.001 A 
ATOM     72  C   UNL A   1      38.716  30.037  33.248  1.00  0.00     0.001 A 
ATOM     73  C   UNL A   1      38.377  31.236  32.623  1.00  0.00     0.000 A 
ENDBRANCH  49  68
BRANCH  61  74
ATOM     74  C   UNL A   1      44.924  24.281  33.253  1.00  0.00    -0.014 A 
ATOM     75  C   UNL A   1      46.176  24.019  33.818  1.00  0.00     0.009 A 
ATOM     76  C   UNL A   1      43.895  23.358  33.552  1.00  0.00     0.009 A 
ATOM     77  C   UNL A   1      46.399  22.879  34.603  1.00  0.00     0.001 A 
ATOM     78  C   UNL A   1      44.093  22.258  34.388  1.00  0.00     0.001 A 
ATOM     79  C   UNL A   1      45.355  22.010  34.901  1.00  0.00     0.000 A 
ENDBRANCH  61  74
ENDBRANCH  35  36
ENDBRANCH  27  30
ENDBRANCH  25  26
ENDBRANCH  24  25
ENDBRANCH   1  24
TORSDOF 14
ENDMDL
MODEL 3
REMARK VINA RESULT:     -12.2      3.222      8.379
REMARK SMILES Cc1cccc(O[C@@H](C)C(=O)N2CC[C@@H](C(=O)NCCCNC(=O)c3ccc(-c4c5nc(c(-c6ccccc6)c6ccc([nH]6)c(-c6ccccc6)c6nc(c(-c7ccccc7)c7ccc4[nH]7)C=C6)C=C5)cc3)[C@@H]2C)c1
REMARK SMILES IDX 19 1 18 2 16 3 17 4 15 6 12 7 13 8 73 9 14 10 74 11 10 12
REMARK SMILES IDX 11 13 8 14 9 15 7 16 6 17 1 18 2 19 3 20 75 21 4 22 5 23
REMARK SMILES IDX 20 24 21 25 22 26 23 27 24 29 25 30 26 31 72 32 27 33 71 34
REMARK SMILES IDX 28 35 29 36 30 37 65 38 31 39 70 40 64 41 66 42 32 43 69 44
REMARK SMILES IDX 63 45 62 46 33 48 55 49 40 50 54 51 41 52 44 53 53 54 67 55
REMARK SMILES IDX 42 56 43 57 52 59 68 60 45 61 34 62 35 63 39 64 36 65 38 66
REMARK SMILES IDX 37 67 56 68 57 69 61 70 58 71 60 72 59 73 46 74 47 75 51 76
REMARK SMILES IDX 48 77 50 78 49 79
REMARK H PARENT 18 5 22 28 66 47 44 58
REMARK Flexibility Score: inf
ROOT
ATOM      1  C   UNL A   1      34.442  33.297  28.224  1.00  0.00     0.117 C 
ENDROOT
BRANCH   1   2
ATOM      2  N   UNL A   1      33.227  32.518  27.436  1.00  0.00    -0.356 N 
ATOM      3  C   UNL A   1      32.498  31.433  26.976  1.00  0.00     0.225 C 
ATOM      4  O   UNL A   1      31.434  31.887  26.474  1.00  0.00    -0.275 OA
ATOM      5  H   UNL A   1      32.708  33.273  27.075  1.00  0.00     0.163 HD
BRANCH   3   6
ATOM      6  C   UNL A   1      32.532  29.732  26.898  1.00  0.00     0.102 C 
ATOM      7  N   UNL A   1      31.977  27.923  25.311  1.00  0.00    -0.336 N 
ATOM      8  C   UNL A   1      33.432  28.082  25.268  1.00  0.00     0.121 C 
ATOM      9  C   UNL A   1      31.504  28.542  26.570  1.00  0.00     0.094 C 
ATOM     10  C   UNL A   1      33.833  29.160  26.293  1.00  0.00     0.037 C 
ATOM     11  C   UNL A   1      31.525  27.440  27.655  1.00  0.00     0.032 C 
BRANCH   7  12
ATOM     12  C   UNL A   1      31.380  27.229  24.253  1.00  0.00     0.263 C 
ATOM     13  O   UNL A   1      31.333  25.985  24.371  1.00  0.00    -0.271 OA
BRANCH  12  14
ATOM     14  C   UNL A   1      30.811  27.778  22.817  1.00  0.00     0.259 C 
ATOM     15  C   UNL A   1      31.401  26.833  21.699  1.00  0.00     0.064 C 
BRANCH  14  16
ATOM     16  O   UNL A   1      30.631  29.076  22.244  1.00  0.00    -0.481 OA
BRANCH  16  17
ATOM     17  C   UNL A   1      29.328  29.463  22.117  1.00  0.00     0.120 A 
ATOM     18  C   UNL A   1      28.889  32.942  22.725  1.00  0.00     0.044 C 
ATOM     19  C   UNL A   1      28.403  31.469  22.689  1.00  0.00    -0.047 A 
ATOM     20  C   UNL A   1      27.378  30.745  23.369  1.00  0.00     0.003 A 
ATOM     21  C   UNL A   1      29.052  30.749  21.743  1.00  0.00     0.049 A 
ATOM     22  C   UNL A   1      27.292  29.349  23.307  1.00  0.00     0.004 A 
ATOM     23  C   UNL A   1      28.362  28.687  22.741  1.00  0.00     0.046 A 
ENDBRANCH  16  17
ENDBRANCH  14  16
ENDBRANCH  12  14
ENDBRANCH   7  12
ENDBRANCH   3   6
ENDBRANCH   1   2
BRANCH   1  24
ATOM     24  C   UNL A   1      34.179  34.597  29.089  1.00  0.00     0.042 C 
BRANCH  24  25
ATOM     25  C   UNL A   1      33.471  35.089  30.414  1.00  0.00     0.118 C 
BRANCH  25  26
ATOM     26  N   UNL A   1      34.221  35.809  31.448  1.00  0.00    -0.352 N 
ATOM     27  C   UNL A   1      35.009  35.273  32.479  1.00  0.00     0.251 C 
ATOM     28  H   UNL A   1      34.165  36.791  31.416  1.00  0.00     0.163 HD
ATOM     29  O   UNL A   1      35.238  35.902  33.491  1.00  0.00    -0.269 OA
BRANCH  27  30
ATOM     30  C   UNL A   1      35.570  33.915  32.286  1.00  0.00     0.039 A 
ATOM     31  C   UNL A   1      35.194  32.730  32.912  1.00  0.00     0.014 A 
ATOM     32  C   UNL A   1      36.657  33.869  31.452  1.00  0.00     0.014 A 
ATOM     33  C   UNL A   1      36.039  31.623  32.729  1.00  0.00     0.010 A 
ATOM     34  C   UNL A   1      37.004  32.740  30.822  1.00  0.00     0.010 A 
ATOM     35  C   UNL A   1      36.998  31.702  31.714  1.00  0.00    -0.014 A 
BRANCH  35  36
ATOM     36  C   UNL A   1      38.293  31.055  31.619  1.00  0.00     0.031 A 
ATOM     37  C   UNL A   1      38.459  29.965  30.681  1.00  0.00     0.074 A 
ATOM     38  C   UNL A   1      39.361  31.794  32.026  1.00  0.00     0.049 A 
ATOM     39  N   UNL A   1      39.311  29.023  30.842  1.00  0.00    -0.248 NA
ATOM     40  C   UNL A   1      37.670  29.875  29.458  1.00  0.00     0.031 C 
ATOM     41  C   UNL A   1      40.767  31.702  31.662  1.00  0.00     0.029 A 
ATOM     42  N   UNL A   1      39.340  32.858  32.931  1.00  0.00    -0.354 N 
ATOM     43  C   UNL A   1      39.440  28.434  29.611  1.00  0.00     0.074 A 
ATOM     44  C   UNL A   1      38.289  28.863  28.846  1.00  0.00     0.031 C 
ATOM     45  C   UNL A   1      41.490  32.432  32.538  1.00  0.00     0.029 A 
ATOM     46  C   UNL A   1      40.584  32.943  33.559  1.00  0.00     0.049 A 
ATOM     47  H   UNL A   1      38.572  33.452  33.099  1.00  0.00     0.167 HD
ATOM     48  C   UNL A   1      40.624  27.848  29.281  1.00  0.00     0.031 A 
ATOM     49  C   UNL A   1      40.611  32.656  34.894  1.00  0.00     0.031 A 
ATOM     50  C   UNL A   1      41.648  28.103  30.310  1.00  0.00     0.049 A 
ATOM     51  C   UNL A   1      41.175  31.274  35.145  1.00  0.00     0.074 A 
ATOM     52  C   UNL A   1      42.751  28.945  30.342  1.00  0.00     0.029 A 
ATOM     53  N   UNL A   1      41.410  27.741  31.634  1.00  0.00    -0.354 N 
ATOM     54  N   UNL A   1      41.467  30.425  34.198  1.00  0.00    -0.248 NA
ATOM     55  C   UNL A   1      41.458  30.735  36.470  1.00  0.00     0.031 C 
ATOM     56  C   UNL A   1      43.120  29.144  31.703  1.00  0.00     0.029 A 
ATOM     57  C   UNL A   1      42.267  28.402  32.500  1.00  0.00     0.049 A 
ATOM     58  H   UNL A   1      40.719  27.099  31.920  1.00  0.00     0.167 HD
ATOM     59  C   UNL A   1      41.902  29.248  34.732  1.00  0.00     0.074 A 
ATOM     60  C   UNL A   1      41.917  29.507  36.162  1.00  0.00     0.031 C 
ATOM     61  C   UNL A   1      42.179  28.163  33.944  1.00  0.00     0.031 A 
BRANCH  48  62
ATOM     62  C   UNL A   1      40.924  27.355  27.887  1.00  0.00    -0.014 A 
ATOM     63  C   UNL A   1      40.717  26.006  27.559  1.00  0.00     0.009 A 
ATOM     64  C   UNL A   1      41.399  28.174  26.844  1.00  0.00     0.009 A 
ATOM     65  C   UNL A   1      41.050  25.490  26.300  1.00  0.00     0.001 A 
ATOM     66  C   UNL A   1      41.785  27.658  25.601  1.00  0.00     0.001 A 
ATOM     67  C   UNL A   1      41.613  26.310  25.330  1.00  0.00     0.000 A 
ENDBRANCH  48  62
BRANCH  49  68
ATOM     68  C   UNL A   1      39.458  33.300  35.618  1.00  0.00    -0.014 A 
ATOM     69  C   UNL A   1      38.342  32.483  35.910  1.00  0.00     0.009 A 
ATOM     70  C   UNL A   1      39.641  34.459  36.393  1.00  0.00     0.009 A 
ATOM     71  C   UNL A   1      37.526  32.738  37.021  1.00  0.00     0.001 A 
ATOM     72  C   UNL A   1      38.815  34.712  37.501  1.00  0.00     0.001 A 
ATOM     73  C   UNL A   1      37.788  33.832  37.840  1.00  0.00     0.000 A 
ENDBRANCH  49  68
BRANCH  61  74
ATOM     74  C   UNL A   1      42.430  26.758  34.439  1.00  0.00    -0.014 A 
ATOM     75  C   UNL A   1      41.529  26.006  35.201  1.00  0.00     0.009 A 
ATOM     76  C   UNL A   1      43.598  26.087  34.007  1.00  0.00     0.009 A 
ATOM     77  C   UNL A   1      41.799  24.675  35.546  1.00  0.00     0.001 A 
ATOM     78  C   UNL A   1      43.841  24.743  34.290  1.00  0.00     0.001 A 
ATOM     79  C   UNL A   1      42.944  24.039  35.077  1.00  0.00     0.000 A 
ENDBRANCH  61  74
ENDBRANCH  35  36
ENDBRANCH  27  30
ENDBRANCH  25  26
ENDBRANCH  24  25
ENDBRANCH   1  24
TORSDOF 14
ENDMDL
