MODEL 1
REMARK VINA RESULT:     -13.0      0.000      0.000
REMARK SMILES O=C(COc1ccc(NC(=O)c2ccc(Br)cc2)cc1-c1nc2ccccc2o1)NCCCNC(=O)c1ccc(-c2c3nc(c(-c4ccccc4)c4ccc([nH]4)c(-c4ccccc4)c4nc(c(-c5ccccc5)c5ccc2[nH]5)C=C4)C=C3)cc1
REMARK SMILES IDX 31 1 30 2 1 3 2 4 3 6 4 7 5 8 6 9 20 10 7 11 19 12 8 13
REMARK SMILES IDX 21 14 22 15 29 16 23 17 28 18 24 19 27 20 25 21 26 22 9 23
REMARK SMILES IDX 10 24 11 26 12 27 13 28 18 29 14 30 17 31 15 32 16 33 32 34
REMARK SMILES IDX 33 35 34 36 35 37 36 39 37 40 38 41 84 42 39 43 83 44 40 45
REMARK SMILES IDX 41 46 42 47 77 48 43 49 82 50 76 51 78 52 44 53 81 54 75 55
REMARK SMILES IDX 74 56 45 58 67 59 52 60 66 61 53 62 56 63 65 64 79 65 54 66
REMARK SMILES IDX 55 67 64 69 80 70 57 71 46 72 47 73 51 74 48 75 50 76 49 77
REMARK SMILES IDX 68 78 69 79 73 80 70 81 72 82 71 83 58 84 59 85 63 86 60 87
REMARK SMILES IDX 62 88 61 89
REMARK H PARENT 30 5 9 25 34 38 78 57 56 68
REMARK Flexibility Score: inf
ROOT
ATOM      1  C   UNL A   1      37.572  20.980  24.658  1.00  0.00     0.117 C 
ENDROOT
BRANCH   1   2
ATOM      2  N   UNL A   1      36.117  20.921  24.686  1.00  0.00    -0.353 N 
ATOM      3  O   UNL A   1      35.091  21.534  26.651  1.00  0.00    -0.271 OA
ATOM      4  C   UNL A   1      35.409  21.807  25.498  1.00  0.00     0.257 C 
ATOM      5  H   UNL A   1      35.637  20.260  24.137  1.00  0.00     0.163 HD
BRANCH   4   6
ATOM      6  C   UNL A   1      35.004  23.099  24.772  1.00  0.00     0.329 C 
BRANCH   6   7
ATOM      7  O   UNL A   1      34.505  22.604  23.532  1.00  0.00    -0.483 OA
BRANCH   7   8
ATOM      8  C   UNL A   1      33.268  22.966  23.095  1.00  0.00     0.132 A 
ATOM      9  C   UNL A   1      33.283  24.304  22.738  1.00  0.00     0.049 A 
ATOM     10  C   UNL A   1      32.073  22.275  23.435  1.00  0.00     0.081 A 
ATOM     11  C   UNL A   1      32.119  25.028  22.799  1.00  0.00     0.030 A 
ATOM     12  C   UNL A   1      30.884  23.040  23.450  1.00  0.00     0.043 A 
ATOM     13  C   UNL A   1      30.903  24.420  23.109  1.00  0.00     0.042 A 
BRANCH  10  14
ATOM     14  C   UNL A   1      32.163  20.830  23.754  1.00  0.00     0.231 A 
ATOM     15  N   UNL A   1      32.276  19.872  22.853  1.00  0.00    -0.209 NA
ATOM     16  O   UNL A   1      32.258  20.363  25.055  1.00  0.00    -0.436 OA
ATOM     17  C   UNL A   1      32.635  18.761  23.540  1.00  0.00     0.110 A 
ATOM     18  C   UNL A   1      32.568  19.015  24.898  1.00  0.00     0.155 A 
ATOM     19  C   UNL A   1      33.081  17.521  23.063  1.00  0.00     0.032 A 
ATOM     20  C   UNL A   1      32.832  18.033  25.853  1.00  0.00     0.049 A 
ATOM     21  C   UNL A   1      33.422  16.539  23.993  1.00  0.00     0.003 A 
ATOM     22  C   UNL A   1      33.268  16.782  25.361  1.00  0.00     0.004 A 
ENDBRANCH  10  14
BRANCH  13  23
ATOM     23  N   UNL A   1      29.721  25.195  23.146  1.00  0.00    -0.322 N 
ATOM     24  C   UNL A   1      29.340  26.202  24.029  1.00  0.00     0.255 C 
ATOM     25  H   UNL A   1      29.068  24.991  22.438  1.00  0.00     0.170 HD
ATOM     26  O   UNL A   1      28.155  26.513  24.135  1.00  0.00    -0.269 OA
BRANCH  24  27
ATOM     27  C   UNL A   1      30.342  26.963  24.835  1.00  0.00     0.040 A 
ATOM     28  C   UNL A   1      30.779  26.441  26.061  1.00  0.00     0.015 A 
ATOM     29  C   UNL A   1      30.900  28.157  24.353  1.00  0.00     0.015 A 
ATOM     30  C   UNL A   1      31.826  27.063  26.755  1.00  0.00     0.016 A 
ATOM     31  C   UNL A   1      31.959  28.763  25.036  1.00  0.00     0.016 A 
ATOM     32  C   UNL A   1      32.424  28.207  26.227  1.00  0.00     0.018 A 
ATOM     33  Br  UNL A   1      33.895  28.997  27.115  1.00  0.00    -0.051 Br
ENDBRANCH  24  27
ENDBRANCH  13  23
ENDBRANCH   7   8
ENDBRANCH   6   7
ENDBRANCH   4   6
ENDBRANCH   1   2
BRANCH   1  34
ATOM     34  C   UNL A   1      38.254  19.672  24.978  1.00  0.00     0.042 C 
BRANCH  34  35
ATOM     35  C   UNL A   1      39.288  19.854  26.062  1.00  0.00     0.118 C 
BRANCH  35  36
ATOM     36  N   UNL A   1      40.453  18.998  25.881  1.00  0.00    -0.352 N 
ATOM     37  C   UNL A   1      41.778  19.347  25.963  1.00  0.00     0.251 C 
ATOM     38  H   UNL A   1      40.268  18.054  25.673  1.00  0.00     0.163 HD
ATOM     39  O   UNL A   1      42.653  18.558  25.644  1.00  0.00    -0.269 OA
BRANCH  37  40
ATOM     40  C   UNL A   1      42.120  20.709  26.420  1.00  0.00     0.039 A 
ATOM     41  C   UNL A   1      42.292  21.714  25.470  1.00  0.00     0.014 A 
ATOM     42  C   UNL A   1      42.247  20.991  27.783  1.00  0.00     0.014 A 
ATOM     43  C   UNL A   1      42.579  23.008  25.897  1.00  0.00     0.010 A 
ATOM     44  C   UNL A   1      42.395  22.299  28.209  1.00  0.00     0.010 A 
ATOM     45  C   UNL A   1      42.621  23.309  27.270  1.00  0.00    -0.014 A 
BRANCH  45  46
ATOM     46  C   UNL A   1      42.996  24.659  27.743  1.00  0.00     0.031 A 
ATOM     47  C   UNL A   1      44.445  25.067  27.741  1.00  0.00     0.074 A 
ATOM     48  C   UNL A   1      42.040  25.496  28.182  1.00  0.00     0.049 A 
ATOM     49  N   UNL A   1      44.979  26.211  28.087  1.00  0.00    -0.248 NA
ATOM     50  C   UNL A   1      45.430  24.052  27.327  1.00  0.00     0.031 C 
ATOM     51  C   UNL A   1      40.612  25.181  28.279  1.00  0.00     0.029 A 
ATOM     52  N   UNL A   1      42.126  26.793  28.615  1.00  0.00    -0.354 N 
ATOM     53  C   UNL A   1      46.352  26.040  27.948  1.00  0.00     0.074 A 
ATOM     54  C   UNL A   1      46.576  24.667  27.564  1.00  0.00     0.031 C 
ATOM     55  C   UNL A   1      39.950  26.276  28.688  1.00  0.00     0.029 A 
ATOM     56  C   UNL A   1      40.908  27.350  28.917  1.00  0.00     0.049 A 
ATOM     57  H   UNL A   1      42.978  27.278  28.701  1.00  0.00     0.167 HD
ATOM     58  C   UNL A   1      47.338  26.954  28.094  1.00  0.00     0.031 A 
ATOM     59  C   UNL A   1      40.605  28.596  29.320  1.00  0.00     0.031 A 
ATOM     60  C   UNL A   1      47.103  28.323  28.459  1.00  0.00     0.049 A 
ATOM     61  C   UNL A   1      41.716  29.598  29.464  1.00  0.00     0.074 A 
ATOM     62  C   UNL A   1      48.016  29.352  28.588  1.00  0.00     0.029 A 
ATOM     63  N   UNL A   1      45.854  28.851  28.754  1.00  0.00    -0.354 N 
ATOM     64  N   UNL A   1      43.002  29.444  29.258  1.00  0.00    -0.248 NA
ATOM     65  C   UNL A   1      41.328  30.954  29.873  1.00  0.00     0.031 C 
ATOM     66  C   UNL A   1      47.327  30.492  29.014  1.00  0.00     0.029 A 
ATOM     67  C   UNL A   1      45.976  30.190  29.083  1.00  0.00     0.049 A 
ATOM     68  H   UNL A   1      45.008  28.349  28.732  1.00  0.00     0.167 HD
ATOM     69  C   UNL A   1      43.574  30.690  29.481  1.00  0.00     0.074 A 
ATOM     70  C   UNL A   1      42.489  31.590  29.815  1.00  0.00     0.031 C 
ATOM     71  C   UNL A   1      44.877  31.061  29.415  1.00  0.00     0.031 A 
BRANCH  58  72
ATOM     72  C   UNL A   1      48.750  26.493  27.856  1.00  0.00    -0.014 A 
ATOM     73  C   UNL A   1      49.326  26.524  26.574  1.00  0.00     0.009 A 
ATOM     74  C   UNL A   1      49.523  26.029  28.931  1.00  0.00     0.009 A 
ATOM     75  C   UNL A   1      50.626  26.060  26.368  1.00  0.00     0.001 A 
ATOM     76  C   UNL A   1      50.836  25.598  28.728  1.00  0.00     0.001 A 
ATOM     77  C   UNL A   1      51.383  25.604  27.445  1.00  0.00     0.000 A 
ENDBRANCH  58  72
BRANCH  59  78
ATOM     78  C   UNL A   1      39.190  28.975  29.576  1.00  0.00    -0.014 A 
ATOM     79  C   UNL A   1      38.604  28.747  30.831  1.00  0.00     0.009 A 
ATOM     80  C   UNL A   1      38.415  29.564  28.564  1.00  0.00     0.009 A 
ATOM     81  C   UNL A   1      37.263  29.069  31.057  1.00  0.00     0.001 A 
ATOM     82  C   UNL A   1      37.085  29.914  28.802  1.00  0.00     0.001 A 
ATOM     83  C   UNL A   1      36.506  29.655  30.044  1.00  0.00     0.000 A 
ENDBRANCH  59  78
BRANCH  71  84
ATOM     84  C   UNL A   1      45.184  32.510  29.668  1.00  0.00    -0.014 A 
ATOM     85  C   UNL A   1      45.478  32.986  30.954  1.00  0.00     0.009 A 
ATOM     86  C   UNL A   1      45.192  33.410  28.590  1.00  0.00     0.009 A 
ATOM     87  C   UNL A   1      45.720  34.345  31.164  1.00  0.00     0.001 A 
ATOM     88  C   UNL A   1      45.472  34.760  28.796  1.00  0.00     0.001 A 
ATOM     89  C   UNL A   1      45.721  35.229  30.085  1.00  0.00     0.000 A 
ENDBRANCH  71  84
ENDBRANCH  45  46
ENDBRANCH  37  40
ENDBRANCH  35  36
ENDBRANCH  34  35
ENDBRANCH   1  34
TORSDOF 15
ENDMDL
MODEL 2
REMARK VINA RESULT:     -12.8      0.597      5.638
REMARK SMILES O=C(COc1ccc(NC(=O)c2ccc(Br)cc2)cc1-c1nc2ccccc2o1)NCCCNC(=O)c1ccc(-c2c3nc(c(-c4ccccc4)c4ccc([nH]4)c(-c4ccccc4)c4nc(c(-c5ccccc5)c5ccc2[nH]5)C=C4)C=C3)cc1
REMARK SMILES IDX 31 1 30 2 1 3 2 4 3 6 4 7 5 8 6 9 20 10 7 11 19 12 8 13
REMARK SMILES IDX 21 14 22 15 29 16 23 17 28 18 24 19 27 20 25 21 26 22 9 23
REMARK SMILES IDX 10 24 11 26 12 27 13 28 18 29 14 30 17 31 15 32 16 33 32 34
REMARK SMILES IDX 33 35 34 36 35 37 36 39 37 40 38 41 84 42 39 43 83 44 40 45
REMARK SMILES IDX 41 46 42 47 77 48 43 49 82 50 76 51 78 52 44 53 81 54 75 55
REMARK SMILES IDX 74 56 45 58 67 59 52 60 66 61 53 62 56 63 65 64 79 65 54 66
REMARK SMILES IDX 55 67 64 69 80 70 57 71 46 72 47 73 51 74 48 75 50 76 49 77
REMARK SMILES IDX 68 78 69 79 73 80 70 81 72 82 71 83 58 84 59 85 63 86 60 87
REMARK SMILES IDX 62 88 61 89
REMARK H PARENT 30 5 9 25 34 38 78 57 56 68
REMARK Flexibility Score: inf
ROOT
ATOM      1  C   UNL A   1      37.632  21.127  24.766  1.00  0.00     0.117 C 
ENDROOT
BRANCH   1   2
ATOM      2  N   UNL A   1      36.183  20.985  24.738  1.00  0.00    -0.353 N 
ATOM      3  O   UNL A   1      35.054  21.472  26.683  1.00  0.00    -0.271 OA
ATOM      4  C   UNL A   1      35.397  21.802  25.553  1.00  0.00     0.257 C 
ATOM      5  H   UNL A   1      35.761  20.318  24.151  1.00  0.00     0.163 HD
BRANCH   4   6
ATOM      6  C   UNL A   1      34.944  23.093  24.854  1.00  0.00     0.329 C 
BRANCH   6   7
ATOM      7  O   UNL A   1      34.468  22.607  23.602  1.00  0.00    -0.483 OA
BRANCH   7   8
ATOM      8  C   UNL A   1      33.232  22.961  23.152  1.00  0.00     0.132 A 
ATOM      9  C   UNL A   1      33.236  24.303  22.812  1.00  0.00     0.049 A 
ATOM     10  C   UNL A   1      32.042  22.250  23.467  1.00  0.00     0.081 A 
ATOM     11  C   UNL A   1      32.062  25.012  22.866  1.00  0.00     0.030 A 
ATOM     12  C   UNL A   1      30.843  23.001  23.476  1.00  0.00     0.043 A 
ATOM     13  C   UNL A   1      30.850  24.385  23.153  1.00  0.00     0.042 A 
BRANCH  10  14
ATOM     14  C   UNL A   1      32.144  20.803  23.770  1.00  0.00     0.231 A 
ATOM     15  N   UNL A   1      32.378  19.867  22.870  1.00  0.00    -0.209 NA
ATOM     16  O   UNL A   1      32.122  20.314  25.066  1.00  0.00    -0.436 OA
ATOM     17  C   UNL A   1      32.701  18.754  23.571  1.00  0.00     0.110 A 
ATOM     18  C   UNL A   1      32.489  18.979  24.919  1.00  0.00     0.155 A 
ATOM     19  C   UNL A   1      33.232  17.538  23.122  1.00  0.00     0.032 A 
ATOM     20  C   UNL A   1      32.686  17.987  25.880  1.00  0.00     0.049 A 
ATOM     21  C   UNL A   1      33.508  16.548  24.065  1.00  0.00     0.003 A 
ATOM     22  C   UNL A   1      33.209  16.759  25.414  1.00  0.00     0.004 A 
ENDBRANCH  10  14
BRANCH  13  23
ATOM     23  N   UNL A   1      29.658  25.146  23.182  1.00  0.00    -0.322 N 
ATOM     24  C   UNL A   1      29.294  26.204  24.013  1.00  0.00     0.255 C 
ATOM     25  H   UNL A   1      28.983  24.888  22.514  1.00  0.00     0.170 HD
ATOM     26  O   UNL A   1      28.108  26.505  24.142  1.00  0.00    -0.269 OA
BRANCH  24  27
ATOM     27  C   UNL A   1      30.312  27.027  24.730  1.00  0.00     0.040 A 
ATOM     28  C   UNL A   1      30.767  28.220  24.150  1.00  0.00     0.015 A 
ATOM     29  C   UNL A   1      30.771  26.660  26.005  1.00  0.00     0.015 A 
ATOM     30  C   UNL A   1      31.605  29.079  24.875  1.00  0.00     0.016 A 
ATOM     31  C   UNL A   1      31.589  27.529  26.734  1.00  0.00     0.016 A 
ATOM     32  C   UNL A   1      31.992  28.738  26.171  1.00  0.00     0.018 A 
ATOM     33  Br  UNL A   1      33.049  29.935  27.184  1.00  0.00    -0.051 Br
ENDBRANCH  24  27
ENDBRANCH  13  23
ENDBRANCH   7   8
ENDBRANCH   6   7
ENDBRANCH   4   6
ENDBRANCH   1   2
BRANCH   1  34
ATOM     34  C   UNL A   1      38.378  19.841  25.027  1.00  0.00     0.042 C 
BRANCH  34  35
ATOM     35  C   UNL A   1      39.401  20.022  26.121  1.00  0.00     0.118 C 
BRANCH  35  36
ATOM     36  N   UNL A   1      40.543  19.128  25.981  1.00  0.00    -0.352 N 
ATOM     37  C   UNL A   1      41.876  19.441  26.067  1.00  0.00     0.251 C 
ATOM     38  H   UNL A   1      40.332  18.183  25.803  1.00  0.00     0.163 HD
ATOM     39  O   UNL A   1      42.730  18.617  25.784  1.00  0.00    -0.269 OA
BRANCH  37  40
ATOM     40  C   UNL A   1      42.253  20.807  26.482  1.00  0.00     0.039 A 
ATOM     41  C   UNL A   1      42.577  21.743  25.502  1.00  0.00     0.014 A 
ATOM     42  C   UNL A   1      42.263  21.162  27.834  1.00  0.00     0.014 A 
ATOM     43  C   UNL A   1      42.899  23.043  25.886  1.00  0.00     0.010 A 
ATOM     44  C   UNL A   1      42.447  22.482  28.202  1.00  0.00     0.010 A 
ATOM     45  C   UNL A   1      42.825  23.421  27.237  1.00  0.00    -0.014 A 
BRANCH  45  46
ATOM     46  C   UNL A   1      43.232  24.774  27.673  1.00  0.00     0.031 A 
ATOM     47  C   UNL A   1      42.176  25.802  27.982  1.00  0.00     0.074 A 
ATOM     48  C   UNL A   1      44.540  25.073  27.771  1.00  0.00     0.049 A 
ATOM     49  N   UNL A   1      42.322  27.031  28.405  1.00  0.00    -0.248 NA
ATOM     50  C   UNL A   1      40.772  25.411  27.759  1.00  0.00     0.031 C 
ATOM     51  C   UNL A   1      45.646  24.170  27.441  1.00  0.00     0.029 A 
ATOM     52  N   UNL A   1      45.160  26.219  28.194  1.00  0.00    -0.354 N 
ATOM     53  C   UNL A   1      41.036  27.556  28.478  1.00  0.00     0.074 A 
ATOM     54  C   UNL A   1      40.132  26.546  27.985  1.00  0.00     0.031 C 
ATOM     55  C   UNL A   1      46.808  24.778  27.729  1.00  0.00     0.029 A 
ATOM     56  C   UNL A   1      46.529  26.121  28.225  1.00  0.00     0.049 A 
ATOM     57  H   UNL A   1      44.671  27.033  28.451  1.00  0.00     0.167 HD
ATOM     58  C   UNL A   1      40.639  28.761  28.948  1.00  0.00     0.031 A 
ATOM     59  C   UNL A   1      47.450  27.014  28.624  1.00  0.00     0.031 A 
ATOM     60  C   UNL A   1      41.547  29.753  29.453  1.00  0.00     0.049 A 
ATOM     61  C   UNL A   1      46.985  28.342  29.152  1.00  0.00     0.074 A 
ATOM     62  C   UNL A   1      41.258  30.989  30.001  1.00  0.00     0.029 A 
ATOM     63  N   UNL A   1      42.927  29.615  29.471  1.00  0.00    -0.354 N 
ATOM     64  N   UNL A   1      45.762  28.798  29.286  1.00  0.00    -0.248 NA
ATOM     65  C   UNL A   1      48.028  29.270  29.608  1.00  0.00     0.031 C 
ATOM     66  C   UNL A   1      42.468  31.623  30.301  1.00  0.00     0.029 A 
ATOM     67  C   UNL A   1      43.506  30.754  30.005  1.00  0.00     0.049 A 
ATOM     68  H   UNL A   1      43.421  28.826  29.153  1.00  0.00     0.167 HD
ATOM     69  C   UNL A   1      45.887  30.052  29.869  1.00  0.00     0.074 A 
ATOM     70  C   UNL A   1      47.303  30.271  30.084  1.00  0.00     0.031 C 
ATOM     71  C   UNL A   1      44.920  30.945  30.202  1.00  0.00     0.031 A 
BRANCH  58  72
ATOM     72  C   UNL A   1      39.165  29.059  28.931  1.00  0.00    -0.014 A 
ATOM     73  C   UNL A   1      38.543  29.615  27.799  1.00  0.00     0.009 A 
ATOM     74  C   UNL A   1      38.381  28.773  30.058  1.00  0.00     0.009 A 
ATOM     75  C   UNL A   1      37.180  29.917  27.814  1.00  0.00     0.001 A 
ATOM     76  C   UNL A   1      37.011  29.043  30.058  1.00  0.00     0.001 A 
ATOM     77  C   UNL A   1      36.413  29.624  28.940  1.00  0.00     0.000 A 
ENDBRANCH  58  72
BRANCH  59  78
ATOM     78  C   UNL A   1      48.895  26.669  28.577  1.00  0.00    -0.014 A 
ATOM     79  C   UNL A   1      49.534  26.112  29.695  1.00  0.00     0.009 A 
ATOM     80  C   UNL A   1      49.646  26.898  27.413  1.00  0.00     0.009 A 
ATOM     81  C   UNL A   1      50.901  25.824  29.661  1.00  0.00     0.001 A 
ATOM     82  C   UNL A   1      51.004  26.578  27.370  1.00  0.00     0.001 A 
ATOM     83  C   UNL A   1      51.634  26.053  28.497  1.00  0.00     0.000 A 
ENDBRANCH  59  78
BRANCH  71  84
ATOM     84  C   UNL A   1      45.369  32.213  30.871  1.00  0.00    -0.014 A 
ATOM     85  C   UNL A   1      45.681  33.364  30.131  1.00  0.00     0.009 A 
ATOM     86  C   UNL A   1      45.466  32.256  32.271  1.00  0.00     0.009 A 
ATOM     87  C   UNL A   1      46.133  34.516  30.777  1.00  0.00     0.001 A 
ATOM     88  C   UNL A   1      45.882  33.420  32.916  1.00  0.00     0.001 A 
ATOM     89  C   UNL A   1      46.229  34.544  32.168  1.00  0.00     0.000 A 
ENDBRANCH  71  84
ENDBRANCH  45  46
ENDBRANCH  37  40
ENDBRANCH  35  36
ENDBRANCH  34  35
ENDBRANCH   1  34
TORSDOF 15
ENDMDL
MODEL 3
REMARK VINA RESULT:     -12.7      4.102      9.684
REMARK SMILES O=C(COc1ccc(NC(=O)c2ccc(Br)cc2)cc1-c1nc2ccccc2o1)NCCCNC(=O)c1ccc(-c2c3nc(c(-c4ccccc4)c4ccc([nH]4)c(-c4ccccc4)c4nc(c(-c5ccccc5)c5ccc2[nH]5)C=C4)C=C3)cc1
REMARK SMILES IDX 31 1 30 2 1 3 2 4 3 6 4 7 5 8 6 9 20 10 7 11 19 12 8 13
REMARK SMILES IDX 21 14 22 15 29 16 23 17 28 18 24 19 27 20 25 21 26 22 9 23
REMARK SMILES IDX 10 24 11 26 12 27 13 28 18 29 14 30 17 31 15 32 16 33 32 34
REMARK SMILES IDX 33 35 34 36 35 37 36 39 37 40 38 41 84 42 39 43 83 44 40 45
REMARK SMILES IDX 41 46 42 47 77 48 43 49 82 50 76 51 78 52 44 53 81 54 75 55
REMARK SMILES IDX 74 56 45 58 67 59 52 60 66 61 53 62 56 63 65 64 79 65 54 66
REMARK SMILES IDX 55 67 64 69 80 70 57 71 46 72 47 73 51 74 48 75 50 76 49 77
REMARK SMILES IDX 68 78 69 79 73 80 70 81 72 82 71 83 58 84 59 85 63 86 60 87
REMARK SMILES IDX 62 88 61 89
REMARK H PARENT 30 5 9 25 34 38 78 57 56 68
REMARK Flexibility Score: inf
ROOT
ATOM      1  C   UNL A   1      31.677  30.542  26.914  1.00  0.00     0.117 C 
ENDROOT
BRANCH   1   2
ATOM      2  N   UNL A   1      32.479  29.847  25.917  1.00  0.00    -0.353 N 
ATOM      3  O   UNL A   1      34.639  29.320  26.505  1.00  0.00    -0.271 OA
ATOM      4  C   UNL A   1      33.478  28.965  26.331  1.00  0.00     0.257 C 
ATOM      5  H   UNL A   1      32.318  29.999  24.958  1.00  0.00     0.163 HD
BRANCH   4   6
ATOM      6  C   UNL A   1      32.989  27.515  26.455  1.00  0.00     0.329 C 
BRANCH   6   7
ATOM      7  O   UNL A   1      31.632  27.617  26.029  1.00  0.00    -0.483 OA
BRANCH   7   8
ATOM      8  C   UNL A   1      31.051  26.601  25.334  1.00  0.00     0.132 A 
ATOM      9  C   UNL A   1      31.389  25.393  25.922  1.00  0.00     0.049 A 
ATOM     10  C   UNL A   1      30.630  26.707  23.980  1.00  0.00     0.081 A 
ATOM     11  C   UNL A   1      31.412  24.256  25.153  1.00  0.00     0.030 A 
ATOM     12  C   UNL A   1      30.626  25.510  23.226  1.00  0.00     0.043 A 
ATOM     13  C   UNL A   1      30.999  24.274  23.821  1.00  0.00     0.042 A 
BRANCH  10  14
ATOM     14  C   UNL A   1      30.244  28.042  23.465  1.00  0.00     0.231 A 
ATOM     15  N   UNL A   1      29.805  28.271  22.242  1.00  0.00    -0.209 NA
ATOM     16  O   UNL A   1      30.196  29.163  24.277  1.00  0.00    -0.436 OA
ATOM     17  C   UNL A   1      29.279  29.520  22.267  1.00  0.00     0.110 A 
ATOM     18  C   UNL A   1      29.563  30.116  23.483  1.00  0.00     0.155 A 
ATOM     19  C   UNL A   1      28.503  30.182  21.307  1.00  0.00     0.032 A 
ATOM     20  C   UNL A   1      29.192  31.429  23.772  1.00  0.00     0.049 A 
ATOM     21  C   UNL A   1      28.054  31.470  21.594  1.00  0.00     0.003 A 
ATOM     22  C   UNL A   1      28.421  32.092  22.791  1.00  0.00     0.004 A 
ENDBRANCH  10  14
BRANCH  13  23
ATOM     23  N   UNL A   1      31.019  23.079  23.065  1.00  0.00    -0.322 N 
ATOM     24  C   UNL A   1      32.096  22.280  22.687  1.00  0.00     0.255 C 
ATOM     25  H   UNL A   1      30.137  22.764  22.761  1.00  0.00     0.170 HD
ATOM     26  O   UNL A   1      31.979  21.495  21.747  1.00  0.00    -0.269 OA
BRANCH  24  27
ATOM     27  C   UNL A   1      33.396  22.311  23.421  1.00  0.00     0.040 A 
ATOM     28  C   UNL A   1      33.644  21.363  24.424  1.00  0.00     0.015 A 
ATOM     29  C   UNL A   1      34.398  23.232  23.077  1.00  0.00     0.015 A 
ATOM     30  C   UNL A   1      34.911  21.283  25.017  1.00  0.00     0.016 A 
ATOM     31  C   UNL A   1      35.668  23.135  23.654  1.00  0.00     0.016 A 
ATOM     32  C   UNL A   1      35.922  22.155  24.611  1.00  0.00     0.018 A 
ATOM     33  Br  UNL A   1      37.658  21.991  25.343  1.00  0.00    -0.051 Br
ENDBRANCH  24  27
ENDBRANCH  13  23
ENDBRANCH   7   8
ENDBRANCH   6   7
ENDBRANCH   4   6
ENDBRANCH   1   2
BRANCH   1  34
ATOM     34  C   UNL A   1      31.489  32.015  26.645  1.00  0.00     0.042 C 
BRANCH  34  35
ATOM     35  C   UNL A   1      32.735  32.792  26.990  1.00  0.00     0.118 C 
BRANCH  35  36
ATOM     36  N   UNL A   1      32.451  34.022  27.718  1.00  0.00    -0.352 N 
ATOM     37  C   UNL A   1      33.152  34.565  28.766  1.00  0.00     0.251 C 
ATOM     38  H   UNL A   1      31.659  34.526  27.421  1.00  0.00     0.163 HD
ATOM     39  O   UNL A   1      32.718  35.527  29.376  1.00  0.00    -0.269 OA
BRANCH  37  40
ATOM     40  C   UNL A   1      34.431  33.938  29.156  1.00  0.00     0.039 A 
ATOM     41  C   UNL A   1      34.435  32.999  30.185  1.00  0.00     0.014 A 
ATOM     42  C   UNL A   1      35.615  34.264  28.489  1.00  0.00     0.014 A 
ATOM     43  C   UNL A   1      35.632  32.379  30.534  1.00  0.00     0.010 A 
ATOM     44  C   UNL A   1      36.772  33.550  28.742  1.00  0.00     0.010 A 
ATOM     45  C   UNL A   1      36.805  32.644  29.806  1.00  0.00    -0.014 A 
BRANCH  45  46
ATOM     46  C   UNL A   1      38.099  32.052  30.206  1.00  0.00     0.031 A 
ATOM     47  C   UNL A   1      38.930  32.733  31.261  1.00  0.00     0.074 A 
ATOM     48  C   UNL A   1      38.524  30.923  29.611  1.00  0.00     0.049 A 
ATOM     49  N   UNL A   1      40.076  32.363  31.773  1.00  0.00    -0.248 NA
ATOM     50  C   UNL A   1      38.427  34.012  31.792  1.00  0.00     0.031 C 
ATOM     51  C   UNL A   1      37.825  30.213  28.537  1.00  0.00     0.029 A 
ATOM     52  N   UNL A   1      39.643  30.166  29.838  1.00  0.00    -0.354 N 
ATOM     53  C   UNL A   1      40.430  33.370  32.664  1.00  0.00     0.074 A 
ATOM     54  C   UNL A   1      39.424  34.400  32.569  1.00  0.00     0.031 C 
ATOM     55  C   UNL A   1      38.502  29.092  28.240  1.00  0.00     0.029 A 
ATOM     56  C   UNL A   1      39.698  29.028  29.073  1.00  0.00     0.049 A 
ATOM     57  H   UNL A   1      40.339  30.414  30.488  1.00  0.00     0.167 HD
ATOM     58  C   UNL A   1      41.482  33.418  33.513  1.00  0.00     0.031 A 
ATOM     59  C   UNL A   1      40.608  28.039  29.059  1.00  0.00     0.031 A 
ATOM     60  C   UNL A   1      42.468  32.379  33.613  1.00  0.00     0.049 A 
ATOM     61  C   UNL A   1      41.763  28.109  30.019  1.00  0.00     0.074 A 
ATOM     62  C   UNL A   1      43.549  32.294  34.471  1.00  0.00     0.029 A 
ATOM     63  N   UNL A   1      42.488  31.240  32.822  1.00  0.00    -0.354 N 
ATOM     64  N   UNL A   1      42.045  29.030  30.909  1.00  0.00    -0.248 NA
ATOM     65  C   UNL A   1      42.710  26.987  29.989  1.00  0.00     0.031 C 
ATOM     66  C   UNL A   1      44.256  31.127  34.161  1.00  0.00     0.029 A 
ATOM     67  C   UNL A   1      43.575  30.453  33.160  1.00  0.00     0.049 A 
ATOM     68  H   UNL A   1      41.828  31.023  32.125  1.00  0.00     0.167 HD
ATOM     69  C   UNL A   1      43.185  28.585  31.566  1.00  0.00     0.074 A 
ATOM     70  C   UNL A   1      43.524  27.301  30.986  1.00  0.00     0.031 C 
ATOM     71  C   UNL A   1      43.890  29.180  32.561  1.00  0.00     0.031 A 
BRANCH  58  72
ATOM     72  C   UNL A   1      41.608  34.633  34.391  1.00  0.00    -0.014 A 
ATOM     73  C   UNL A   1      42.331  35.766  33.976  1.00  0.00     0.009 A 
ATOM     74  C   UNL A   1      40.988  34.653  35.649  1.00  0.00     0.009 A 
ATOM     75  C   UNL A   1      42.466  36.871  34.818  1.00  0.00     0.001 A 
ATOM     76  C   UNL A   1      41.095  35.774  36.476  1.00  0.00     0.001 A 
ATOM     77  C   UNL A   1      41.842  36.878  36.065  1.00  0.00     0.000 A 
ENDBRANCH  58  72
BRANCH  59  78
ATOM     78  C   UNL A   1      40.444  26.885  28.137  1.00  0.00    -0.014 A 
ATOM     79  C   UNL A   1      39.711  25.754  28.529  1.00  0.00     0.009 A 
ATOM     80  C   UNL A   1      41.022  26.906  26.857  1.00  0.00     0.009 A 
ATOM     81  C   UNL A   1      39.590  24.655  27.674  1.00  0.00     0.001 A 
ATOM     82  C   UNL A   1      40.873  25.821  25.993  1.00  0.00     0.001 A 
ATOM     83  C   UNL A   1      40.167  24.691  26.406  1.00  0.00     0.000 A 
ENDBRANCH  59  78
BRANCH  71  84
ATOM     84  C   UNL A   1      45.066  28.421  33.107  1.00  0.00    -0.014 A 
ATOM     85  C   UNL A   1      46.358  28.593  32.587  1.00  0.00     0.009 A 
ATOM     86  C   UNL A   1      44.874  27.528  34.174  1.00  0.00     0.009 A 
ATOM     87  C   UNL A   1      47.425  27.845  33.088  1.00  0.00     0.001 A 
ATOM     88  C   UNL A   1      45.948  26.810  34.698  1.00  0.00     0.001 A 
ATOM     89  C   UNL A   1      47.220  26.958  34.145  1.00  0.00     0.000 A 
ENDBRANCH  71  84
ENDBRANCH  45  46
ENDBRANCH  37  40
ENDBRANCH  35  36
ENDBRANCH  34  35
ENDBRANCH   1  34
TORSDOF 15
ENDMDL
