MODEL 1
REMARK VINA RESULT:     -10.9      0.000      0.000
REMARK SMILES COCc1cccc(C(=O)N2C[C@@H](O)C[C@@H]2C(=O)NCCCNC(=O)c2ccc(-c3c4nc(c(-c5ccccc5)c5ccc([nH]5)c(-c5ccccc5)c5nc(c(-c6ccccc6)c6ccc3[nH]6)C=C5)C=C4)cc2)c1
REMARK SMILES IDX 20 1 19 2 17 3 18 4 16 6 11 7 12 8 13 9 15 10 9 11 10 12
REMARK SMILES IDX 8 13 4 14 5 15 74 16 6 17 7 18 3 19 2 20 1 21 14 22 21 24
REMARK SMILES IDX 22 25 23 26 24 27 25 29 26 30 27 31 73 32 28 33 72 34 29 35
REMARK SMILES IDX 30 36 31 37 66 38 32 39 71 40 65 41 67 42 33 43 70 44 64 45
REMARK SMILES IDX 63 46 34 48 56 49 41 50 55 51 42 52 45 53 54 54 68 55 43 56
REMARK SMILES IDX 44 57 53 59 69 60 46 61 35 62 36 63 40 64 37 65 39 66 38 67
REMARK SMILES IDX 57 68 58 69 62 70 59 71 61 72 60 73 47 74 48 75 52 76 49 77
REMARK SMILES IDX 51 78 50 79
REMARK H PARENT 19 5 14 23 23 28 67 47 45 58
REMARK Flexibility Score: inf
ROOT
ATOM      1  C   UNL A   1      36.272  20.028  24.977  1.00  0.00     0.117 C 
ENDROOT
BRANCH   1   2
ATOM      2  N   UNL A   1      36.057  21.256  25.718  1.00  0.00    -0.354 N 
ATOM      3  C   UNL A   1      35.009  22.128  25.634  1.00  0.00     0.242 C 
ATOM      4  O   UNL A   1      35.004  23.112  26.378  1.00  0.00    -0.273 OA
ATOM      5  H   UNL A   1      36.759  21.493  26.365  1.00  0.00     0.163 HD
BRANCH   3   6
ATOM      6  C   UNL A   1      33.827  21.794  24.700  1.00  0.00     0.177 C 
ATOM      7  N   UNL A   1      33.215  23.017  24.192  1.00  0.00    -0.324 N 
ATOM      8  C   UNL A   1      31.809  23.084  24.560  1.00  0.00     0.152 C 
ATOM      9  C   UNL A   1      31.757  22.265  25.846  1.00  0.00     0.136 C 
ATOM     10  C   UNL A   1      32.728  21.120  25.535  1.00  0.00     0.069 C 
BRANCH   7  11
ATOM     11  C   UNL A   1      33.972  23.873  23.418  1.00  0.00     0.254 C 
ATOM     12  O   UNL A   1      34.934  23.459  22.772  1.00  0.00    -0.269 OA
BRANCH  11  13
ATOM     13  C   UNL A   1      33.755  25.348  23.536  1.00  0.00     0.040 A 
ATOM     14  C   UNL A   1      33.831  27.403  24.873  1.00  0.00    -0.022 A 
ATOM     15  C   UNL A   1      33.679  28.150  23.700  1.00  0.00     0.006 A 
ATOM     16  C   UNL A   1      33.888  26.009  24.764  1.00  0.00     0.020 A 
ATOM     17  C   UNL A   1      33.576  27.511  22.460  1.00  0.00     0.001 A 
ATOM     18  C   UNL A   1      33.607  26.115  22.378  1.00  0.00     0.014 A 
BRANCH  14  19
ATOM     19  C   UNL A   1      33.887  28.069  26.231  1.00  0.00     0.195 C 
BRANCH  19  20
ATOM     20  O   UNL A   1      33.453  29.428  26.237  1.00  0.00    -0.380 OA
ATOM     21  C   UNL A   1      32.408  29.719  27.158  1.00  0.00     0.195 C 
ENDBRANCH  19  20
ENDBRANCH  14  19
ENDBRANCH  11  13
ENDBRANCH   7  11
BRANCH   9  22
ATOM     22  O   UNL A   1      30.461  21.796  26.166  1.00  0.00    -0.391 OA
ATOM     23  H   UNL A   1      30.074  21.361  25.389  1.00  0.00     0.211 HD
ENDBRANCH   9  22
ENDBRANCH   3   6
ENDBRANCH   1   2
BRANCH   1  24
ATOM     24  C   UNL A   1      37.740  19.807  24.630  1.00  0.00     0.042 C 
BRANCH  24  25
ATOM     25  C   UNL A   1      38.708  20.189  25.750  1.00  0.00     0.118 C 
BRANCH  25  26
ATOM     26  N   UNL A   1      39.872  19.314  25.808  1.00  0.00    -0.352 N 
ATOM     27  C   UNL A   1      41.186  19.585  26.094  1.00  0.00     0.251 C 
ATOM     28  H   UNL A   1      39.684  18.368  25.607  1.00  0.00     0.163 HD
ATOM     29  O   UNL A   1      42.036  18.721  25.900  1.00  0.00    -0.269 OA
BRANCH  27  30
ATOM     30  C   UNL A   1      41.594  20.905  26.620  1.00  0.00     0.039 A 
ATOM     31  C   UNL A   1      42.114  21.850  25.729  1.00  0.00     0.014 A 
ATOM     32  C   UNL A   1      41.514  21.205  27.983  1.00  0.00     0.014 A 
ATOM     33  C   UNL A   1      42.490  23.113  26.194  1.00  0.00     0.010 A 
ATOM     34  C   UNL A   1      41.821  22.486  28.433  1.00  0.00     0.010 A 
ATOM     35  C   UNL A   1      42.311  23.454  27.544  1.00  0.00    -0.014 A 
BRANCH  35  36
ATOM     36  C   UNL A   1      42.618  24.821  28.039  1.00  0.00     0.031 A 
ATOM     37  C   UNL A   1      44.019  25.188  28.446  1.00  0.00     0.074 A 
ATOM     38  C   UNL A   1      41.620  25.713  28.185  1.00  0.00     0.049 A 
ATOM     39  N   UNL A   1      44.461  26.308  28.961  1.00  0.00    -0.248 NA
ATOM     40  C   UNL A   1      45.053  24.156  28.270  1.00  0.00     0.031 C 
ATOM     41  C   UNL A   1      40.212  25.471  27.862  1.00  0.00     0.029 A 
ATOM     42  N   UNL A   1      41.635  27.003  28.655  1.00  0.00    -0.354 N 
ATOM     43  C   UNL A   1      45.817  26.109  29.189  1.00  0.00     0.074 A 
ATOM     44  C   UNL A   1      46.116  24.749  28.797  1.00  0.00     0.031 C 
ATOM     45  C   UNL A   1      39.505  26.583  28.119  1.00  0.00     0.029 A 
ATOM     46  C   UNL A   1      40.399  27.600  28.665  1.00  0.00     0.049 A 
ATOM     47  H   UNL A   1      42.455  27.457  28.955  1.00  0.00     0.167 HD
ATOM     48  C   UNL A   1      46.734  26.984  29.665  1.00  0.00     0.031 A 
ATOM     49  C   UNL A   1      40.021  28.825  29.077  1.00  0.00     0.031 A 
ATOM     50  C   UNL A   1      46.441  28.340  30.050  1.00  0.00     0.049 A 
ATOM     51  C   UNL A   1      41.055  29.770  29.621  1.00  0.00     0.074 A 
ATOM     52  C   UNL A   1      47.314  29.318  30.493  1.00  0.00     0.029 A 
ATOM     53  N   UNL A   1      45.176  28.906  30.041  1.00  0.00    -0.354 N 
ATOM     54  N   UNL A   1      42.345  29.587  29.767  1.00  0.00    -0.248 NA
ATOM     55  C   UNL A   1      40.581  31.093  30.047  1.00  0.00     0.031 C 
ATOM     56  C   UNL A   1      46.570  30.461  30.801  1.00  0.00     0.029 A 
ATOM     57  C   UNL A   1      45.241  30.212  30.494  1.00  0.00     0.049 A 
ATOM     58  H   UNL A   1      44.353  28.447  29.754  1.00  0.00     0.167 HD
ATOM     59  C   UNL A   1      42.840  30.782  30.276  1.00  0.00     0.074 A 
ATOM     60  C   UNL A   1      41.714  31.685  30.396  1.00  0.00     0.031 C 
ATOM     61  C   UNL A   1      44.114  31.101  30.610  1.00  0.00     0.031 A 
BRANCH  48  62
ATOM     62  C   UNL A   1      48.149  26.495  29.807  1.00  0.00    -0.014 A 
ATOM     63  C   UNL A   1      48.597  25.896  30.995  1.00  0.00     0.009 A 
ATOM     64  C   UNL A   1      49.037  26.601  28.725  1.00  0.00     0.009 A 
ATOM     65  C   UNL A   1      49.915  25.448  31.109  1.00  0.00     0.001 A 
ATOM     66  C   UNL A   1      50.346  26.125  28.831  1.00  0.00     0.001 A 
ATOM     67  C   UNL A   1      50.787  25.558  30.027  1.00  0.00     0.000 A 
ENDBRANCH  48  62
BRANCH  49  68
ATOM     68  C   UNL A   1      38.597  29.236  28.980  1.00  0.00    -0.014 A 
ATOM     69  C   UNL A   1      38.074  29.706  27.765  1.00  0.00     0.009 A 
ATOM     70  C   UNL A   1      37.754  29.167  30.100  1.00  0.00     0.009 A 
ATOM     71  C   UNL A   1      36.744  30.123  27.682  1.00  0.00     0.001 A 
ATOM     72  C   UNL A   1      36.417  29.558  30.007  1.00  0.00     0.001 A 
ATOM     73  C   UNL A   1      35.916  30.045  28.801  1.00  0.00     0.000 A 
ENDBRANCH  49  68
BRANCH  61  74
ATOM     74  C   UNL A   1      44.365  32.497  31.104  1.00  0.00    -0.014 A 
ATOM     75  C   UNL A   1      44.658  33.545  30.217  1.00  0.00     0.009 A 
ATOM     76  C   UNL A   1      44.269  32.775  32.476  1.00  0.00     0.009 A 
ATOM     77  C   UNL A   1      44.883  34.835  30.699  1.00  0.00     0.001 A 
ATOM     78  C   UNL A   1      44.465  34.071  32.953  1.00  0.00     0.001 A 
ATOM     79  C   UNL A   1      44.781  35.099  32.066  1.00  0.00     0.000 A 
ENDBRANCH  61  74
ENDBRANCH  35  36
ENDBRANCH  27  30
ENDBRANCH  25  26
ENDBRANCH  24  25
ENDBRANCH   1  24
TORSDOF 15
ENDMDL
MODEL 2
REMARK VINA RESULT:     -10.8      1.921      7.224
REMARK SMILES COCc1cccc(C(=O)N2C[C@@H](O)C[C@@H]2C(=O)NCCCNC(=O)c2ccc(-c3c4nc(c(-c5ccccc5)c5ccc([nH]5)c(-c5ccccc5)c5nc(c(-c6ccccc6)c6ccc3[nH]6)C=C5)C=C4)cc2)c1
REMARK SMILES IDX 20 1 19 2 17 3 18 4 16 6 11 7 12 8 13 9 15 10 9 11 10 12
REMARK SMILES IDX 8 13 4 14 5 15 74 16 6 17 7 18 3 19 2 20 1 21 14 22 21 24
REMARK SMILES IDX 22 25 23 26 24 27 25 29 26 30 27 31 73 32 28 33 72 34 29 35
REMARK SMILES IDX 30 36 31 37 66 38 32 39 71 40 65 41 67 42 33 43 70 44 64 45
REMARK SMILES IDX 63 46 34 48 56 49 41 50 55 51 42 52 45 53 54 54 68 55 43 56
REMARK SMILES IDX 44 57 53 59 69 60 46 61 35 62 36 63 40 64 37 65 39 66 38 67
REMARK SMILES IDX 57 68 58 69 62 70 59 71 61 72 60 73 47 74 48 75 52 76 49 77
REMARK SMILES IDX 51 78 50 79
REMARK H PARENT 19 5 14 23 23 28 67 47 45 58
REMARK Flexibility Score: inf
ROOT
ATOM      1  C   UNL A   1      32.005  27.095  26.266  1.00  0.00     0.117 C 
ENDROOT
BRANCH   1   2
ATOM      2  N   UNL A   1      31.390  25.910  26.832  1.00  0.00    -0.354 N 
ATOM      3  C   UNL A   1      31.727  24.600  26.637  1.00  0.00     0.242 C 
ATOM      4  O   UNL A   1      31.086  23.734  27.237  1.00  0.00    -0.273 OA
ATOM      5  H   UNL A   1      30.629  26.070  27.435  1.00  0.00     0.163 HD
BRANCH   3   6
ATOM      6  C   UNL A   1      32.956  24.264  25.766  1.00  0.00     0.177 C 
ATOM      7  N   UNL A   1      32.573  23.404  24.651  1.00  0.00    -0.324 N 
ATOM      8  C   UNL A   1      33.308  22.150  24.686  1.00  0.00     0.152 C 
ATOM      9  C   UNL A   1      33.608  21.977  26.172  1.00  0.00     0.136 C 
ATOM     10  C   UNL A   1      33.922  23.413  26.605  1.00  0.00     0.069 C 
BRANCH   7  11
ATOM     11  C   UNL A   1      31.670  23.879  23.720  1.00  0.00     0.254 C 
ATOM     12  O   UNL A   1      30.804  23.144  23.245  1.00  0.00    -0.269 OA
BRANCH  11  13
ATOM     13  C   UNL A   1      31.882  25.234  23.124  1.00  0.00     0.040 A 
ATOM     14  C   UNL A   1      31.085  27.515  22.703  1.00  0.00    -0.022 A 
ATOM     15  C   UNL A   1      32.380  27.876  22.314  1.00  0.00     0.006 A 
ATOM     16  C   UNL A   1      30.867  26.198  23.124  1.00  0.00     0.020 A 
ATOM     17  C   UNL A   1      33.416  26.936  22.337  1.00  0.00     0.001 A 
ATOM     18  C   UNL A   1      33.168  25.618  22.735  1.00  0.00     0.014 A 
BRANCH  14  19
ATOM     19  C   UNL A   1      29.937  28.498  22.633  1.00  0.00     0.195 C 
BRANCH  19  20
ATOM     20  O   UNL A   1      30.144  29.579  21.724  1.00  0.00    -0.380 OA
ATOM     21  C   UNL A   1      28.988  30.364  21.457  1.00  0.00     0.195 C 
ENDBRANCH  19  20
ENDBRANCH  14  19
ENDBRANCH  11  13
ENDBRANCH   7  11
BRANCH   9  22
ATOM     22  O   UNL A   1      34.682  21.093  26.433  1.00  0.00    -0.391 OA
ATOM     23  H   UNL A   1      34.849  21.061  27.389  1.00  0.00     0.211 HD
ENDBRANCH   9  22
ENDBRANCH   3   6
ENDBRANCH   1   2
BRANCH   1  24
ATOM     24  C   UNL A   1      32.239  28.183  27.309  1.00  0.00     0.042 C 
BRANCH  24  25
ATOM     25  C   UNL A   1      33.648  28.773  27.286  1.00  0.00     0.118 C 
BRANCH  25  26
ATOM     26  N   UNL A   1      33.685  30.157  27.743  1.00  0.00    -0.352 N 
ATOM     27  C   UNL A   1      34.656  30.855  28.415  1.00  0.00     0.251 C 
ATOM     28  H   UNL A   1      32.876  30.679  27.535  1.00  0.00     0.163 HD
ATOM     29  O   UNL A   1      34.396  31.966  28.867  1.00  0.00    -0.269 OA
BRANCH  27  30
ATOM     30  C   UNL A   1      36.005  30.284  28.613  1.00  0.00     0.039 A 
ATOM     31  C   UNL A   1      36.902  30.294  27.539  1.00  0.00     0.014 A 
ATOM     32  C   UNL A   1      36.380  29.698  29.825  1.00  0.00     0.014 A 
ATOM     33  C   UNL A   1      38.190  29.779  27.702  1.00  0.00     0.010 A 
ATOM     34  C   UNL A   1      37.686  29.251  30.009  1.00  0.00     0.010 A 
ATOM     35  C   UNL A   1      38.605  29.287  28.950  1.00  0.00    -0.014 A 
BRANCH  35  36
ATOM     36  C   UNL A   1      39.998  28.821  29.168  1.00  0.00     0.031 A 
ATOM     37  C   UNL A   1      41.028  29.746  29.758  1.00  0.00     0.074 A 
ATOM     38  C   UNL A   1      40.354  27.584  28.772  1.00  0.00     0.049 A 
ATOM     39  N   UNL A   1      42.304  29.536  29.961  1.00  0.00    -0.248 NA
ATOM     40  C   UNL A   1      40.568  31.086  30.154  1.00  0.00     0.031 C 
ATOM     41  C   UNL A   1      39.461  26.602  28.152  1.00  0.00     0.029 A 
ATOM     42  N   UNL A   1      41.567  26.943  28.822  1.00  0.00    -0.354 N 
ATOM     43  C   UNL A   1      42.802  30.722  30.487  1.00  0.00     0.074 A 
ATOM     44  C   UNL A   1      41.702  31.659  30.533  1.00  0.00     0.031 C 
ATOM     45  C   UNL A   1      40.151  25.477  27.904  1.00  0.00     0.029 A 
ATOM     46  C   UNL A   1      41.540  25.672  28.304  1.00  0.00     0.049 A 
ATOM     47  H   UNL A   1      42.379  27.357  29.195  1.00  0.00     0.167 HD
ATOM     48  C   UNL A   1      44.059  31.000  30.910  1.00  0.00     0.031 A 
ATOM     49  C   UNL A   1      42.525  24.765  28.158  1.00  0.00     0.031 A 
ATOM     50  C   UNL A   1      45.154  30.068  30.872  1.00  0.00     0.049 A 
ATOM     51  C   UNL A   1      43.914  25.107  28.617  1.00  0.00     0.074 A 
ATOM     52  C   UNL A   1      46.450  30.241  31.329  1.00  0.00     0.029 A 
ATOM     53  N   UNL A   1      45.083  28.788  30.344  1.00  0.00    -0.354 N 
ATOM     54  N   UNL A   1      44.353  26.210  29.173  1.00  0.00    -0.248 NA
ATOM     55  C   UNL A   1      44.942  24.073  28.435  1.00  0.00     0.031 C 
ATOM     56  C   UNL A   1      47.177  29.084  31.029  1.00  0.00     0.029 A 
ATOM     57  C   UNL A   1      46.318  28.169  30.440  1.00  0.00     0.049 A 
ATOM     58  H   UNL A   1      44.274  28.380  29.958  1.00  0.00     0.167 HD
ATOM     59  C   UNL A   1      45.700  25.991  29.433  1.00  0.00     0.074 A 
ATOM     60  C   UNL A   1      46.001  24.647  28.989  1.00  0.00     0.031 C 
ATOM     61  C   UNL A   1      46.605  26.831  29.993  1.00  0.00     0.031 A 
BRANCH  48  62
ATOM     62  C   UNL A   1      44.318  32.381  31.446  1.00  0.00    -0.014 A 
ATOM     63  C   UNL A   1      44.717  33.428  30.599  1.00  0.00     0.009 A 
ATOM     64  C   UNL A   1      44.127  32.649  32.810  1.00  0.00     0.009 A 
ATOM     65  C   UNL A   1      44.954  34.704  31.113  1.00  0.00     0.001 A 
ATOM     66  C   UNL A   1      44.336  33.934  33.317  1.00  0.00     0.001 A 
ATOM     67  C   UNL A   1      44.760  34.957  32.470  1.00  0.00     0.000 A 
ENDBRANCH  48  62
BRANCH  49  68
ATOM     68  C   UNL A   1      42.231  23.438  27.558  1.00  0.00    -0.014 A 
ATOM     69  C   UNL A   1      41.689  22.408  28.343  1.00  0.00     0.009 A 
ATOM     70  C   UNL A   1      42.494  23.191  26.202  1.00  0.00     0.009 A 
ATOM     71  C   UNL A   1      41.443  21.151  27.788  1.00  0.00     0.001 A 
ATOM     72  C   UNL A   1      42.219  21.941  25.643  1.00  0.00     0.001 A 
ATOM     73  C   UNL A   1      41.704  20.920  26.439  1.00  0.00     0.000 A 
ENDBRANCH  49  68
BRANCH  61  74
ATOM     74  C   UNL A   1      47.999  26.305  30.190  1.00  0.00    -0.014 A 
ATOM     75  C   UNL A   1      48.407  25.759  31.417  1.00  0.00     0.009 A 
ATOM     76  C   UNL A   1      48.904  26.323  29.118  1.00  0.00     0.009 A 
ATOM     77  C   UNL A   1      49.706  25.273  31.575  1.00  0.00     0.001 A 
ATOM     78  C   UNL A   1      50.193  25.810  29.269  1.00  0.00     0.001 A 
ATOM     79  C   UNL A   1      50.596  25.294  30.500  1.00  0.00     0.000 A 
ENDBRANCH  61  74
ENDBRANCH  35  36
ENDBRANCH  27  30
ENDBRANCH  25  26
ENDBRANCH  24  25
ENDBRANCH   1  24
TORSDOF 15
ENDMDL
MODEL 3
REMARK VINA RESULT:     -10.7      3.220      8.791
REMARK SMILES COCc1cccc(C(=O)N2C[C@@H](O)C[C@@H]2C(=O)NCCCNC(=O)c2ccc(-c3c4nc(c(-c5ccccc5)c5ccc([nH]5)c(-c5ccccc5)c5nc(c(-c6ccccc6)c6ccc3[nH]6)C=C5)C=C4)cc2)c1
REMARK SMILES IDX 20 1 19 2 17 3 18 4 16 6 11 7 12 8 13 9 15 10 9 11 10 12
REMARK SMILES IDX 8 13 4 14 5 15 74 16 6 17 7 18 3 19 2 20 1 21 14 22 21 24
REMARK SMILES IDX 22 25 23 26 24 27 25 29 26 30 27 31 73 32 28 33 72 34 29 35
REMARK SMILES IDX 30 36 31 37 66 38 32 39 71 40 65 41 67 42 33 43 70 44 64 45
REMARK SMILES IDX 63 46 34 48 56 49 41 50 55 51 42 52 45 53 54 54 68 55 43 56
REMARK SMILES IDX 44 57 53 59 69 60 46 61 35 62 36 63 40 64 37 65 39 66 38 67
REMARK SMILES IDX 57 68 58 69 62 70 59 71 61 72 60 73 47 74 48 75 52 76 49 77
REMARK SMILES IDX 51 78 50 79
REMARK H PARENT 19 5 14 23 23 28 67 47 45 58
REMARK Flexibility Score: inf
ROOT
ATOM      1  C   UNL A   1      31.763  30.284  26.936  1.00  0.00     0.117 C 
ENDROOT
BRANCH   1   2
ATOM      2  N   UNL A   1      32.842  29.801  26.096  1.00  0.00    -0.354 N 
ATOM      3  C   UNL A   1      32.788  28.885  25.084  1.00  0.00     0.242 C 
ATOM      4  O   UNL A   1      33.826  28.629  24.469  1.00  0.00    -0.273 OA
ATOM      5  H   UNL A   1      33.731  30.184  26.279  1.00  0.00     0.163 HD
BRANCH   3   6
ATOM      6  C   UNL A   1      31.422  28.294  24.679  1.00  0.00     0.177 C 
ATOM      7  N   UNL A   1      31.435  26.840  24.810  1.00  0.00    -0.324 N 
ATOM      8  C   UNL A   1      31.140  26.203  23.536  1.00  0.00     0.152 C 
ATOM      9  C   UNL A   1      31.627  27.233  22.522  1.00  0.00     0.136 C 
ATOM     10  C   UNL A   1      31.208  28.553  23.181  1.00  0.00     0.069 C 
BRANCH   7  11
ATOM     11  C   UNL A   1      31.644  26.282  26.055  1.00  0.00     0.254 C 
ATOM     12  O   UNL A   1      31.314  26.878  27.080  1.00  0.00    -0.269 OA
BRANCH  11  13
ATOM     13  C   UNL A   1      32.472  25.041  26.168  1.00  0.00     0.040 A 
ATOM     14  C   UNL A   1      34.658  23.934  26.074  1.00  0.00    -0.022 A 
ATOM     15  C   UNL A   1      34.097  22.814  26.697  1.00  0.00     0.006 A 
ATOM     16  C   UNL A   1      33.833  25.041  25.841  1.00  0.00     0.020 A 
ATOM     17  C   UNL A   1      32.747  22.806  27.060  1.00  0.00     0.001 A 
ATOM     18  C   UNL A   1      31.935  23.913  26.792  1.00  0.00     0.014 A 
BRANCH  14  19
ATOM     19  C   UNL A   1      36.102  23.946  25.620  1.00  0.00     0.195 C 
BRANCH  19  20
ATOM     20  O   UNL A   1      36.278  23.739  24.219  1.00  0.00    -0.380 OA
ATOM     21  C   UNL A   1      36.662  22.419  23.852  1.00  0.00     0.195 C 
ENDBRANCH  19  20
ENDBRANCH  14  19
ENDBRANCH  11  13
ENDBRANCH   7  11
BRANCH   9  22
ATOM     22  O   UNL A   1      31.060  27.074  21.236  1.00  0.00    -0.391 OA
ATOM     23  H   UNL A   1      31.278  26.192  20.894  1.00  0.00     0.211 HD
ENDBRANCH   9  22
ENDBRANCH   3   6
ENDBRANCH   1   2
BRANCH   1  24
ATOM     24  C   UNL A   1      31.499  31.774  26.744  1.00  0.00     0.042 C 
BRANCH  24  25
ATOM     25  C   UNL A   1      32.748  32.646  26.860  1.00  0.00     0.118 C 
BRANCH  25  26
ATOM     26  N   UNL A   1      32.509  33.872  27.613  1.00  0.00    -0.352 N 
ATOM     27  C   UNL A   1      33.178  34.415  28.680  1.00  0.00     0.251 C 
ATOM     28  H   UNL A   1      31.735  34.398  27.304  1.00  0.00     0.163 HD
ATOM     29  O   UNL A   1      32.686  35.366  29.279  1.00  0.00    -0.269 OA
BRANCH  27  30
ATOM     30  C   UNL A   1      34.476  33.865  29.124  1.00  0.00     0.039 A 
ATOM     31  C   UNL A   1      34.516  33.109  30.301  1.00  0.00     0.014 A 
ATOM     32  C   UNL A   1      35.657  34.124  28.425  1.00  0.00     0.014 A 
ATOM     33  C   UNL A   1      35.724  32.559  30.736  1.00  0.00     0.010 A 
ATOM     34  C   UNL A   1      36.848  33.518  28.819  1.00  0.00     0.010 A 
ATOM     35  C   UNL A   1      36.894  32.728  29.978  1.00  0.00    -0.014 A 
BRANCH  35  36
ATOM     36  C   UNL A   1      38.168  32.076  30.374  1.00  0.00     0.031 A 
ATOM     37  C   UNL A   1      39.112  32.761  31.324  1.00  0.00     0.074 A 
ATOM     38  C   UNL A   1      38.506  30.893  29.826  1.00  0.00     0.049 A 
ATOM     39  N   UNL A   1      40.296  32.375  31.731  1.00  0.00    -0.248 NA
ATOM     40  C   UNL A   1      38.680  34.057  31.871  1.00  0.00     0.031 C 
ATOM     41  C   UNL A   1      37.697  30.142  28.864  1.00  0.00     0.029 A 
ATOM     42  N   UNL A   1      39.628  30.119  29.991  1.00  0.00    -0.354 N 
ATOM     43  C   UNL A   1      40.756  33.388  32.564  1.00  0.00     0.074 A 
ATOM     44  C   UNL A   1      39.746  34.423  32.570  1.00  0.00     0.031 C 
ATOM     45  C   UNL A   1      38.337  29.005  28.545  1.00  0.00     0.029 A 
ATOM     46  C   UNL A   1      39.618  28.968  29.243  1.00  0.00     0.049 A 
ATOM     47  H   UNL A   1      40.369  30.367  30.590  1.00  0.00     0.167 HD
ATOM     48  C   UNL A   1      41.909  33.444  33.273  1.00  0.00     0.031 A 
ATOM     49  C   UNL A   1      40.539  27.993  29.123  1.00  0.00     0.031 A 
ATOM     50  C   UNL A   1      42.914  32.413  33.274  1.00  0.00     0.049 A 
ATOM     51  C   UNL A   1      41.819  28.090  29.905  1.00  0.00     0.074 A 
ATOM     52  C   UNL A   1      44.089  32.355  34.003  1.00  0.00     0.029 A 
ATOM     53  N   UNL A   1      42.862  31.260  32.506  1.00  0.00    -0.354 N 
ATOM     54  N   UNL A   1      42.209  29.023  30.739  1.00  0.00    -0.248 NA
ATOM     55  C   UNL A   1      42.780  26.992  29.735  1.00  0.00     0.031 C 
ATOM     56  C   UNL A   1      44.774  31.192  33.636  1.00  0.00     0.029 A 
ATOM     57  C   UNL A   1      43.996  30.497  32.723  1.00  0.00     0.049 A 
ATOM     58  H   UNL A   1      42.127  31.020  31.896  1.00  0.00     0.167 HD
ATOM     59  C   UNL A   1      43.447  28.610  31.214  1.00  0.00     0.074 A 
ATOM     60  C   UNL A   1      43.735  27.337  30.588  1.00  0.00     0.031 C 
ATOM     61  C   UNL A   1      44.271  29.232  32.093  1.00  0.00     0.031 A 
BRANCH  48  62
ATOM     62  C   UNL A   1      42.151  34.673  34.105  1.00  0.00    -0.014 A 
ATOM     63  C   UNL A   1      42.768  35.811  33.561  1.00  0.00     0.009 A 
ATOM     64  C   UNL A   1      41.722  34.708  35.441  1.00  0.00     0.009 A 
ATOM     65  C   UNL A   1      42.985  36.943  34.349  1.00  0.00     0.001 A 
ATOM     66  C   UNL A   1      41.914  35.853  36.218  1.00  0.00     0.001 A 
ATOM     67  C   UNL A   1      42.554  36.965  35.674  1.00  0.00     0.000 A 
ENDBRANCH  48  62
BRANCH  49  68
ATOM     68  C   UNL A   1      40.282  26.832  28.233  1.00  0.00    -0.014 A 
ATOM     69  C   UNL A   1      40.802  26.807  26.930  1.00  0.00     0.009 A 
ATOM     70  C   UNL A   1      39.513  25.746  28.678  1.00  0.00     0.009 A 
ATOM     71  C   UNL A   1      40.533  25.731  26.081  1.00  0.00     0.001 A 
ATOM     72  C   UNL A   1      39.270  24.658  27.837  1.00  0.00     0.001 A 
ATOM     73  C   UNL A   1      39.771  24.656  26.537  1.00  0.00     0.000 A 
ENDBRANCH  49  68
BRANCH  61  74
ATOM     74  C   UNL A   1      45.546  28.525  32.458  1.00  0.00    -0.014 A 
ATOM     75  C   UNL A   1      45.595  27.607  33.519  1.00  0.00     0.009 A 
ATOM     76  C   UNL A   1      46.706  28.753  31.701  1.00  0.00     0.009 A 
ATOM     77  C   UNL A   1      46.790  26.959  33.836  1.00  0.00     0.001 A 
ATOM     78  C   UNL A   1      47.892  28.082  32.002  1.00  0.00     0.001 A 
ATOM     79  C   UNL A   1      47.935  27.193  33.074  1.00  0.00     0.000 A 
ENDBRANCH  61  74
ENDBRANCH  35  36
ENDBRANCH  27  30
ENDBRANCH  25  26
ENDBRANCH  24  25
ENDBRANCH   1  24
TORSDOF 15
ENDMDL
