MODEL 1
REMARK VINA RESULT:     -10.9      0.000      0.000
REMARK SMILES C/C(=C/C[N@H+]1C[C@H]2CCC[N@H+]2C[C@@H]1C)C(=O)NCCCNC(=O)c1ccc(-c2c3nc(c(-c4ccccc4)c4ccc([nH]4)c(-c4ccccc4)c4nc(c(-c5ccccc5)c5ccc2[nH]5)C=C4)C=C3)cc1
REMARK SMILES IDX 19 1 18 2 17 3 15 4 16 5 2 7 1 8 3 9 4 10 5 11 6 12 13 13
REMARK SMILES IDX 7 15 12 16 14 17 8 18 11 19 9 20 10 21 20 23 21 24 22 25
REMARK SMILES IDX 23 27 24 28 25 29 71 30 26 31 70 32 27 33 28 34 29 35 64 36
REMARK SMILES IDX 30 37 69 38 63 39 65 40 31 41 68 42 62 43 61 44 32 46 54 47
REMARK SMILES IDX 39 48 53 49 40 50 43 51 52 52 66 53 41 54 42 55 51 57 67 58
REMARK SMILES IDX 44 59 33 60 34 61 38 62 35 63 37 64 36 65 55 66 56 67 60 68
REMARK SMILES IDX 57 69 59 70 58 71 45 72 46 73 50 74 47 75 49 76 48 77
REMARK H PARENT 17 6 5 14 11 22 21 26 65 45 43 56
REMARK Flexibility Score: inf
ROOT
ATOM      1  C   UNL A   1      37.773  19.906  24.683  1.00  0.00     0.042 C 
ENDROOT
BRANCH   1   2
ATOM      2  C   UNL A   1      36.323  20.141  25.106  1.00  0.00     0.118 C 
BRANCH   2   3
ATOM      3  N   UNL A   1      36.154  21.421  25.741  1.00  0.00    -0.352 N 
ATOM      4  C   UNL A   1      35.758  22.643  25.336  1.00  0.00     0.246 C 
ATOM      5  O   UNL A   1      35.647  23.459  26.261  1.00  0.00    -0.270 OA
ATOM      6  H   UNL A   1      36.382  21.398  26.699  1.00  0.00     0.163 HD
BRANCH   4   7
ATOM      7  C   UNL A   1      35.400  23.094  23.934  1.00  0.00     0.015 C 
ATOM      8  C   UNL A   1      36.649  22.995  23.057  1.00  0.00     0.050 C 
ATOM      9  C   UNL A   1      34.291  23.522  23.288  1.00  0.00     0.042 C 
BRANCH   9  10
ATOM     10  C   UNL A   1      32.855  23.756  23.627  1.00  0.00     0.292 C 
BRANCH  10  11
ATOM     11  N   UNL A   1      32.549  24.561  24.814  1.00  0.00    -0.320 N 
ATOM     12  C   UNL A   1      33.304  25.815  24.910  1.00  0.00     0.328 C 
ATOM     13  C   UNL A   1      31.142  24.680  25.240  1.00  0.00     0.237 C 
ATOM     14  H   UNL A   1      32.916  23.944  25.539  1.00  0.00     0.348 HD
ATOM     15  C   UNL A   1      33.132  26.542  26.265  1.00  0.00     0.240 C 
ATOM     16  C   UNL A   1      30.765  26.046  25.893  1.00  0.00     0.328 C 
ATOM     17  C   UNL A   1      30.830  23.525  26.200  1.00  0.00     0.081 C 
ATOM     18  C   UNL A   1      33.593  27.999  26.195  1.00  0.00     0.077 C 
ATOM     19  N   UNL A   1      31.763  26.584  26.823  1.00  0.00    -0.323 N 
ATOM     20  C   UNL A   1      32.806  28.662  27.307  1.00  0.00     0.068 C 
ATOM     21  C   UNL A   1      31.460  27.965  27.220  1.00  0.00     0.263 C 
ATOM     22  H   UNL A   1      31.721  25.980  27.645  1.00  0.00     0.348 HD
ENDBRANCH  10  11
ENDBRANCH   9  10
ENDBRANCH   4   7
ENDBRANCH   2   3
ENDBRANCH   1   2
BRANCH   1  23
ATOM     23  C   UNL A   1      38.794  20.257  25.751  1.00  0.00     0.118 C 
BRANCH  23  24
ATOM     24  N   UNL A   1      39.921  19.331  25.766  1.00  0.00    -0.352 N 
ATOM     25  C   UNL A   1      41.242  19.551  26.074  1.00  0.00     0.251 C 
ATOM     26  H   UNL A   1      39.701  18.404  25.516  1.00  0.00     0.163 HD
ATOM     27  O   UNL A   1      42.061  18.654  25.882  1.00  0.00    -0.269 OA
BRANCH  25  28
ATOM     28  C   UNL A   1      41.692  20.864  26.594  1.00  0.00     0.039 A 
ATOM     29  C   UNL A   1      42.191  21.813  25.695  1.00  0.00     0.014 A 
ATOM     30  C   UNL A   1      41.626  21.170  27.954  1.00  0.00     0.014 A 
ATOM     31  C   UNL A   1      42.546  23.086  26.150  1.00  0.00     0.010 A 
ATOM     32  C   UNL A   1      41.878  22.467  28.388  1.00  0.00     0.010 A 
ATOM     33  C   UNL A   1      42.352  23.436  27.494  1.00  0.00    -0.014 A 
BRANCH  33  34
ATOM     34  C   UNL A   1      42.644  24.802  27.998  1.00  0.00     0.031 A 
ATOM     35  C   UNL A   1      44.039  25.162  28.434  1.00  0.00     0.074 A 
ATOM     36  C   UNL A   1      41.639  25.684  28.161  1.00  0.00     0.049 A 
ATOM     37  N   UNL A   1      44.474  26.263  28.990  1.00  0.00    -0.248 NA
ATOM     38  C   UNL A   1      45.073  24.127  28.262  1.00  0.00     0.031 C 
ATOM     39  C   UNL A   1      40.230  25.433  27.850  1.00  0.00     0.029 A 
ATOM     40  N   UNL A   1      41.648  26.966  28.648  1.00  0.00    -0.354 N 
ATOM     41  C   UNL A   1      45.815  26.038  29.272  1.00  0.00     0.074 A 
ATOM     42  C   UNL A   1      46.110  24.680  28.872  1.00  0.00     0.031 C 
ATOM     43  C   UNL A   1      39.517  26.535  28.129  1.00  0.00     0.029 A 
ATOM     44  C   UNL A   1      40.409  27.555  28.670  1.00  0.00     0.049 A 
ATOM     45  H   UNL A   1      42.467  27.421  28.952  1.00  0.00     0.167 HD
ATOM     46  C   UNL A   1      46.728  26.889  29.799  1.00  0.00     0.031 A 
ATOM     47  C   UNL A   1      40.029  28.779  29.082  1.00  0.00     0.031 A 
ATOM     48  C   UNL A   1      46.442  28.252  30.159  1.00  0.00     0.049 A 
ATOM     49  C   UNL A   1      41.065  29.730  29.606  1.00  0.00     0.074 A 
ATOM     50  C   UNL A   1      47.314  29.228  30.606  1.00  0.00     0.029 A 
ATOM     51  N   UNL A   1      45.182  28.829  30.110  1.00  0.00    -0.354 N 
ATOM     52  N   UNL A   1      42.350  29.533  29.782  1.00  0.00    -0.248 NA
ATOM     53  C   UNL A   1      40.604  31.075  29.972  1.00  0.00     0.031 C 
ATOM     54  C   UNL A   1      46.573  30.385  30.869  1.00  0.00     0.029 A 
ATOM     55  C   UNL A   1      45.248  30.143  30.541  1.00  0.00     0.049 A 
ATOM     56  H   UNL A   1      44.363  28.372  29.815  1.00  0.00     0.167 HD
ATOM     57  C   UNL A   1      42.854  30.733  30.264  1.00  0.00     0.074 A 
ATOM     58  C   UNL A   1      41.740  31.657  30.334  1.00  0.00     0.031 C 
ATOM     59  C   UNL A   1      44.127  31.042  30.615  1.00  0.00     0.031 A 
BRANCH  46  60
ATOM     60  C   UNL A   1      48.117  26.356  30.019  1.00  0.00    -0.014 A 
ATOM     61  C   UNL A   1      48.505  25.811  31.254  1.00  0.00     0.009 A 
ATOM     62  C   UNL A   1      49.054  26.405  28.977  1.00  0.00     0.009 A 
ATOM     63  C   UNL A   1      49.818  25.381  31.458  1.00  0.00     0.001 A 
ATOM     64  C   UNL A   1      50.359  25.944  29.172  1.00  0.00     0.001 A 
ATOM     65  C   UNL A   1      50.742  25.447  30.417  1.00  0.00     0.000 A 
ENDBRANCH  46  60
BRANCH  47  66
ATOM     66  C   UNL A   1      38.602  29.176  28.978  1.00  0.00    -0.014 A 
ATOM     67  C   UNL A   1      37.758  29.086  30.096  1.00  0.00     0.009 A 
ATOM     68  C   UNL A   1      38.088  29.689  27.777  1.00  0.00     0.009 A 
ATOM     69  C   UNL A   1      36.424  29.488  30.008  1.00  0.00     0.001 A 
ATOM     70  C   UNL A   1      36.759  30.112  27.699  1.00  0.00     0.001 A 
ATOM     71  C   UNL A   1      35.927  30.006  28.813  1.00  0.00     0.000 A 
ENDBRANCH  47  66
BRANCH  59  72
ATOM     72  C   UNL A   1      44.382  32.442  31.093  1.00  0.00    -0.014 A 
ATOM     73  C   UNL A   1      44.702  33.470  30.192  1.00  0.00     0.009 A 
ATOM     74  C   UNL A   1      44.259  32.745  32.458  1.00  0.00     0.009 A 
ATOM     75  C   UNL A   1      44.920  34.770  30.654  1.00  0.00     0.001 A 
ATOM     76  C   UNL A   1      44.451  34.050  32.913  1.00  0.00     0.001 A 
ATOM     77  C   UNL A   1      44.790  35.058  32.012  1.00  0.00     0.000 A 
ENDBRANCH  59  72
ENDBRANCH  33  34
ENDBRANCH  25  28
ENDBRANCH  23  24
ENDBRANCH   1  23
TORSDOF 12
ENDMDL
MODEL 2
REMARK VINA RESULT:     -10.8      2.303      7.737
REMARK SMILES C/C(=C/C[N@H+]1C[C@H]2CCC[N@H+]2C[C@@H]1C)C(=O)NCCCNC(=O)c1ccc(-c2c3nc(c(-c4ccccc4)c4ccc([nH]4)c(-c4ccccc4)c4nc(c(-c5ccccc5)c5ccc2[nH]5)C=C4)C=C3)cc1
REMARK SMILES IDX 19 1 18 2 17 3 15 4 16 5 2 7 1 8 3 9 4 10 5 11 6 12 13 13
REMARK SMILES IDX 7 15 12 16 14 17 8 18 11 19 9 20 10 21 20 23 21 24 22 25
REMARK SMILES IDX 23 27 24 28 25 29 71 30 26 31 70 32 27 33 28 34 29 35 64 36
REMARK SMILES IDX 30 37 69 38 63 39 65 40 31 41 68 42 62 43 61 44 32 46 54 47
REMARK SMILES IDX 39 48 53 49 40 50 43 51 52 52 66 53 41 54 42 55 51 57 67 58
REMARK SMILES IDX 44 59 33 60 34 61 38 62 35 63 37 64 36 65 55 66 56 67 60 68
REMARK SMILES IDX 57 69 59 70 58 71 45 72 46 73 50 74 47 75 49 76 48 77
REMARK H PARENT 17 6 5 14 11 22 21 26 65 45 43 56
REMARK Flexibility Score: inf
ROOT
ATOM      1  C   UNL A   1      33.778  28.350  25.958  1.00  0.00     0.042 C 
ENDROOT
BRANCH   1   2
ATOM      2  C   UNL A   1      33.223  29.291  24.888  1.00  0.00     0.118 C 
BRANCH   2   3
ATOM      3  N   UNL A   1      33.788  29.017  23.594  1.00  0.00    -0.352 N 
ATOM      4  C   UNL A   1      33.677  28.019  22.695  1.00  0.00     0.246 C 
ATOM      5  O   UNL A   1      34.269  28.245  21.631  1.00  0.00    -0.270 OA
ATOM      6  H   UNL A   1      34.401  29.726  23.294  1.00  0.00     0.163 HD
BRANCH   4   7
ATOM      7  C   UNL A   1      32.897  26.727  22.823  1.00  0.00     0.015 C 
ATOM      8  C   UNL A   1      31.483  26.955  22.285  1.00  0.00     0.050 C 
ATOM      9  C   UNL A   1      33.138  25.468  23.256  1.00  0.00     0.042 C 
BRANCH   9  10
ATOM     10  C   UNL A   1      34.299  24.712  23.816  1.00  0.00     0.292 C 
BRANCH  10  11
ATOM     11  N   UNL A   1      34.051  23.376  24.365  1.00  0.00    -0.320 N 
ATOM     12  C   UNL A   1      33.238  22.506  23.508  1.00  0.00     0.328 C 
ATOM     13  C   UNL A   1      35.159  22.676  25.041  1.00  0.00     0.237 C 
ATOM     14  H   UNL A   1      33.467  23.624  25.164  1.00  0.00     0.348 HD
ATOM     15  C   UNL A   1      32.805  21.187  24.192  1.00  0.00     0.240 C 
ATOM     16  C   UNL A   1      35.151  21.124  24.883  1.00  0.00     0.328 C 
ATOM     17  C   UNL A   1      35.139  23.062  26.525  1.00  0.00     0.081 C 
ATOM     18  C   UNL A   1      32.314  20.152  23.179  1.00  0.00     0.077 C 
ATOM     19  N   UNL A   1      33.831  20.496  25.002  1.00  0.00    -0.323 N 
ATOM     20  C   UNL A   1      32.545  18.836  23.893  1.00  0.00     0.068 C 
ATOM     21  C   UNL A   1      33.857  19.078  24.617  1.00  0.00     0.263 C 
ATOM     22  H   UNL A   1      33.582  20.573  25.989  1.00  0.00     0.348 HD
ENDBRANCH  10  11
ENDBRANCH   9  10
ENDBRANCH   4   7
ENDBRANCH   2   3
ENDBRANCH   1   2
BRANCH   1  23
ATOM     23  C   UNL A   1      33.344  28.695  27.372  1.00  0.00     0.118 C 
BRANCH  23  24
ATOM     24  N   UNL A   1      33.445  30.123  27.650  1.00  0.00    -0.352 N 
ATOM     25  C   UNL A   1      34.494  30.852  28.159  1.00  0.00     0.251 C 
ATOM     26  H   UNL A   1      32.638  30.646  27.441  1.00  0.00     0.163 HD
ATOM     27  O   UNL A   1      34.317  32.033  28.451  1.00  0.00    -0.269 OA
BRANCH  25  28
ATOM     28  C   UNL A   1      35.814  30.222  28.394  1.00  0.00     0.039 A 
ATOM     29  C   UNL A   1      36.755  30.215  27.359  1.00  0.00     0.014 A 
ATOM     30  C   UNL A   1      36.136  29.642  29.622  1.00  0.00     0.014 A 
ATOM     31  C   UNL A   1      38.035  29.699  27.581  1.00  0.00     0.010 A 
ATOM     32  C   UNL A   1      37.438  29.227  29.875  1.00  0.00     0.010 A 
ATOM     33  C   UNL A   1      38.400  29.239  28.856  1.00  0.00    -0.014 A 
BRANCH  33  34
ATOM     34  C   UNL A   1      39.772  28.757  29.151  1.00  0.00     0.031 A 
ATOM     35  C   UNL A   1      40.772  29.678  29.796  1.00  0.00     0.074 A 
ATOM     36  C   UNL A   1      40.151  27.529  28.747  1.00  0.00     0.049 A 
ATOM     37  N   UNL A   1      42.041  29.479  30.044  1.00  0.00    -0.248 NA
ATOM     38  C   UNL A   1      40.291  31.019  30.169  1.00  0.00     0.031 C 
ATOM     39  C   UNL A   1      39.301  26.567  28.042  1.00  0.00     0.029 A 
ATOM     40  N   UNL A   1      41.359  26.887  28.856  1.00  0.00    -0.354 N 
ATOM     41  C   UNL A   1      42.516  30.678  30.560  1.00  0.00     0.074 A 
ATOM     42  C   UNL A   1      41.414  31.613  30.543  1.00  0.00     0.031 C 
ATOM     43  C   UNL A   1      40.005  25.449  27.807  1.00  0.00     0.029 A 
ATOM     44  C   UNL A   1      41.363  25.628  28.310  1.00  0.00     0.049 A 
ATOM     45  H   UNL A   1      42.146  27.292  29.286  1.00  0.00     0.167 HD
ATOM     46  C   UNL A   1      43.754  30.972  31.026  1.00  0.00     0.031 A 
ATOM     47  C   UNL A   1      42.350  24.718  28.220  1.00  0.00     0.031 A 
ATOM     48  C   UNL A   1      44.838  30.028  31.080  1.00  0.00     0.049 A 
ATOM     49  C   UNL A   1      43.698  25.039  28.797  1.00  0.00     0.074 A 
ATOM     50  C   UNL A   1      46.100  30.192  31.622  1.00  0.00     0.029 A 
ATOM     51  N   UNL A   1      44.783  28.741  30.568  1.00  0.00    -0.354 N 
ATOM     52  N   UNL A   1      44.108  26.148  29.366  1.00  0.00    -0.248 NA
ATOM     53  C   UNL A   1      44.714  23.980  28.735  1.00  0.00     0.031 C 
ATOM     54  C   UNL A   1      46.824  29.015  31.401  1.00  0.00     0.029 A 
ATOM     55  C   UNL A   1      45.997  28.104  30.763  1.00  0.00     0.049 A 
ATOM     56  H   UNL A   1      43.999  28.339  30.131  1.00  0.00     0.167 HD
ATOM     57  C   UNL A   1      45.423  25.915  29.745  1.00  0.00     0.074 A 
ATOM     58  C   UNL A   1      45.736  24.554  29.358  1.00  0.00     0.031 C 
ATOM     59  C   UNL A   1      46.292  26.754  30.360  1.00  0.00     0.031 A 
BRANCH  46  60
ATOM     60  C   UNL A   1      43.990  32.377  31.506  1.00  0.00    -0.014 A 
ATOM     61  C   UNL A   1      44.448  33.381  30.636  1.00  0.00     0.009 A 
ATOM     62  C   UNL A   1      43.758  32.702  32.851  1.00  0.00     0.009 A 
ATOM     63  C   UNL A   1      44.723  34.663  31.117  1.00  0.00     0.001 A 
ATOM     64  C   UNL A   1      44.004  33.994  33.323  1.00  0.00     0.001 A 
ATOM     65  C   UNL A   1      44.500  34.968  32.458  1.00  0.00     0.000 A 
ENDBRANCH  46  60
BRANCH  47  66
ATOM     66  C   UNL A   1      42.079  23.403  27.586  1.00  0.00    -0.014 A 
ATOM     67  C   UNL A   1      42.479  23.158  26.263  1.00  0.00     0.009 A 
ATOM     68  C   UNL A   1      41.458  22.374  28.311  1.00  0.00     0.009 A 
ATOM     69  C   UNL A   1      42.251  21.912  25.675  1.00  0.00     0.001 A 
ATOM     70  C   UNL A   1      41.253  21.121  27.727  1.00  0.00     0.001 A 
ATOM     71  C   UNL A   1      41.645  20.893  26.408  1.00  0.00     0.000 A 
ENDBRANCH  47  66
BRANCH  59  72
ATOM     72  C   UNL A   1      47.661  26.216  30.664  1.00  0.00    -0.014 A 
ATOM     73  C   UNL A   1      48.668  26.201  29.687  1.00  0.00     0.009 A 
ATOM     74  C   UNL A   1      47.957  25.759  31.958  1.00  0.00     0.009 A 
ATOM     75  C   UNL A   1      49.940  25.712  29.994  1.00  0.00     0.001 A 
ATOM     76  C   UNL A   1      49.236  25.296  32.268  1.00  0.00     0.001 A 
ATOM     77  C   UNL A   1      50.223  25.265  31.284  1.00  0.00     0.000 A 
ENDBRANCH  59  72
ENDBRANCH  33  34
ENDBRANCH  25  28
ENDBRANCH  23  24
ENDBRANCH   1  23
TORSDOF 12
ENDMDL
MODEL 3
REMARK VINA RESULT:     -10.8      3.891      9.981
REMARK SMILES C/C(=C/C[N@H+]1C[C@H]2CCC[N@H+]2C[C@@H]1C)C(=O)NCCCNC(=O)c1ccc(-c2c3nc(c(-c4ccccc4)c4ccc([nH]4)c(-c4ccccc4)c4nc(c(-c5ccccc5)c5ccc2[nH]5)C=C4)C=C3)cc1
REMARK SMILES IDX 19 1 18 2 17 3 15 4 16 5 2 7 1 8 3 9 4 10 5 11 6 12 13 13
REMARK SMILES IDX 7 15 12 16 14 17 8 18 11 19 9 20 10 21 20 23 21 24 22 25
REMARK SMILES IDX 23 27 24 28 25 29 71 30 26 31 70 32 27 33 28 34 29 35 64 36
REMARK SMILES IDX 30 37 69 38 63 39 65 40 31 41 68 42 62 43 61 44 32 46 54 47
REMARK SMILES IDX 39 48 53 49 40 50 43 51 52 52 66 53 41 54 42 55 51 57 67 58
REMARK SMILES IDX 44 59 33 60 34 61 38 62 35 63 37 64 36 65 55 66 56 67 60 68
REMARK SMILES IDX 57 69 59 70 58 71 45 72 46 73 50 74 47 75 49 76 48 77
REMARK H PARENT 17 6 5 14 11 22 21 26 65 45 43 56
REMARK Flexibility Score: inf
ROOT
ATOM      1  C   UNL A   1      33.497  34.022  28.554  1.00  0.00     0.042 C 
ENDROOT
BRANCH   1   2
ATOM      2  C   UNL A   1      33.950  34.961  29.673  1.00  0.00     0.118 C 
BRANCH   2   3
ATOM      3  N   UNL A   1      32.856  35.333  30.530  1.00  0.00    -0.352 N 
ATOM      4  C   UNL A   1      32.746  35.844  31.773  1.00  0.00     0.246 C 
ATOM      5  O   UNL A   1      31.583  36.123  32.091  1.00  0.00    -0.270 OA
ATOM      6  H   UNL A   1      31.979  35.176  30.110  1.00  0.00     0.163 HD
BRANCH   4   7
ATOM      7  C   UNL A   1      33.855  36.147  32.760  1.00  0.00     0.015 C 
ATOM      8  C   UNL A   1      34.081  37.660  32.790  1.00  0.00     0.050 C 
ATOM      9  C   UNL A   1      34.644  35.444  33.604  1.00  0.00     0.042 C 
BRANCH   9  10
ATOM     10  C   UNL A   1      34.814  34.012  33.997  1.00  0.00     0.292 C 
BRANCH  10  11
ATOM     11  N   UNL A   1      36.128  33.393  33.794  1.00  0.00    -0.320 N 
ATOM     12  C   UNL A   1      36.945  33.287  35.008  1.00  0.00     0.328 C 
ATOM     13  C   UNL A   1      36.223  32.217  32.911  1.00  0.00     0.237 C 
ATOM     14  H   UNL A   1      36.565  34.106  33.210  1.00  0.00     0.348 HD
ATOM     15  C   UNL A   1      38.401  32.837  34.740  1.00  0.00     0.240 C 
ATOM     16  C   UNL A   1      37.309  31.173  33.317  1.00  0.00     0.328 C 
ATOM     17  C   UNL A   1      36.466  32.709  31.478  1.00  0.00     0.081 C 
ATOM     18  C   UNL A   1      39.097  32.362  36.017  1.00  0.00     0.077 C 
ATOM     19  N   UNL A   1      38.585  31.746  33.758  1.00  0.00    -0.323 N 
ATOM     20  C   UNL A   1      40.171  31.430  35.497  1.00  0.00     0.068 C 
ATOM     21  C   UNL A   1      39.473  30.733  34.342  1.00  0.00     0.263 C 
ATOM     22  H   UNL A   1      39.016  32.128  32.916  1.00  0.00     0.348 HD
ENDBRANCH  10  11
ENDBRANCH   9  10
ENDBRANCH   4   7
ENDBRANCH   2   3
ENDBRANCH   1   2
BRANCH   1  23
ATOM     23  C   UNL A   1      34.484  32.912  28.240  1.00  0.00     0.118 C 
BRANCH  23  24
ATOM     24  N   UNL A   1      33.821  31.680  27.833  1.00  0.00    -0.352 N 
ATOM     25  C   UNL A   1      34.318  30.403  27.721  1.00  0.00     0.251 C 
ATOM     26  H   UNL A   1      32.869  31.777  27.600  1.00  0.00     0.163 HD
ATOM     27  O   UNL A   1      33.617  29.528  27.217  1.00  0.00    -0.269 OA
BRANCH  25  28
ATOM     28  C   UNL A   1      35.695  30.083  28.163  1.00  0.00     0.039 A 
ATOM     29  C   UNL A   1      35.900  29.643  29.476  1.00  0.00     0.014 A 
ATOM     30  C   UNL A   1      36.785  30.208  27.301  1.00  0.00     0.014 A 
ATOM     31  C   UNL A   1      37.178  29.258  29.892  1.00  0.00     0.010 A 
ATOM     32  C   UNL A   1      38.033  29.726  27.680  1.00  0.00     0.010 A 
ATOM     33  C   UNL A   1      38.247  29.257  28.983  1.00  0.00    -0.014 A 
BRANCH  33  34
ATOM     34  C   UNL A   1      39.600  28.782  29.367  1.00  0.00     0.031 A 
ATOM     35  C   UNL A   1      40.520  29.680  30.149  1.00  0.00     0.074 A 
ATOM     36  C   UNL A   1      40.040  27.588  28.925  1.00  0.00     0.049 A 
ATOM     37  N   UNL A   1      41.767  29.488  30.495  1.00  0.00    -0.248 NA
ATOM     38  C   UNL A   1      39.978  30.987  30.559  1.00  0.00     0.031 C 
ATOM     39  C   UNL A   1      39.275  26.656  28.094  1.00  0.00     0.029 A 
ATOM     40  N   UNL A   1      41.248  26.962  29.100  1.00  0.00    -0.354 N 
ATOM     41  C   UNL A   1      42.169  30.661  31.120  1.00  0.00     0.074 A 
ATOM     42  C   UNL A   1      41.051  31.576  31.063  1.00  0.00     0.031 C 
ATOM     43  C   UNL A   1      40.022  25.567  27.855  1.00  0.00     0.029 A 
ATOM     44  C   UNL A   1      41.328  25.739  28.483  1.00  0.00     0.049 A 
ATOM     45  H   UNL A   1      41.987  27.353  29.620  1.00  0.00     0.167 HD
ATOM     46  C   UNL A   1      43.355  30.948  31.708  1.00  0.00     0.031 A 
ATOM     47  C   UNL A   1      42.339  24.853  28.426  1.00  0.00     0.031 A 
ATOM     48  C   UNL A   1      44.452  30.022  31.799  1.00  0.00     0.049 A 
ATOM     49  C   UNL A   1      43.625  25.162  29.135  1.00  0.00     0.074 A 
ATOM     50  C   UNL A   1      45.659  30.174  32.458  1.00  0.00     0.029 A 
ATOM     51  N   UNL A   1      44.471  28.767  31.209  1.00  0.00    -0.354 N 
ATOM     52  N   UNL A   1      43.959  26.241  29.802  1.00  0.00    -0.248 NA
ATOM     53  C   UNL A   1      44.667  24.127  29.099  1.00  0.00     0.031 C 
ATOM     54  C   UNL A   1      46.426  29.026  32.231  1.00  0.00     0.029 A 
ATOM     55  C   UNL A   1      45.678  28.141  31.470  1.00  0.00     0.049 A 
ATOM     56  H   UNL A   1      43.736  28.379  30.683  1.00  0.00     0.167 HD
ATOM     57  C   UNL A   1      45.242  26.008  30.279  1.00  0.00     0.074 A 
ATOM     58  C   UNL A   1      45.618  24.679  29.840  1.00  0.00     0.031 C 
ATOM     59  C   UNL A   1      46.037  26.823  31.015  1.00  0.00     0.031 A 
BRANCH  46  60
ATOM     60  C   UNL A   1      43.518  32.325  32.289  1.00  0.00    -0.014 A 
ATOM     61  C   UNL A   1      43.148  32.610  33.614  1.00  0.00     0.009 A 
ATOM     62  C   UNL A   1      44.043  33.357  31.497  1.00  0.00     0.009 A 
ATOM     63  C   UNL A   1      43.246  33.911  34.113  1.00  0.00     0.001 A 
ATOM     64  C   UNL A   1      44.170  34.651  32.008  1.00  0.00     0.001 A 
ATOM     65  C   UNL A   1      43.758  34.929  33.310  1.00  0.00     0.000 A 
ENDBRANCH  46  60
BRANCH  47  66
ATOM     66  C   UNL A   1      42.153  23.575  27.693  1.00  0.00    -0.014 A 
ATOM     67  C   UNL A   1      41.539  22.480  28.322  1.00  0.00     0.009 A 
ATOM     68  C   UNL A   1      42.547  23.455  26.351  1.00  0.00     0.009 A 
ATOM     69  C   UNL A   1      41.336  21.287  27.625  1.00  0.00     0.001 A 
ATOM     70  C   UNL A   1      42.321  22.269  25.650  1.00  0.00     0.001 A 
ATOM     71  C   UNL A   1      41.720  21.184  26.289  1.00  0.00     0.000 A 
ENDBRANCH  47  66
BRANCH  59  72
ATOM     72  C   UNL A   1      47.386  26.292  31.404  1.00  0.00    -0.014 A 
ATOM     73  C   UNL A   1      47.588  25.657  32.639  1.00  0.00     0.009 A 
ATOM     74  C   UNL A   1      48.459  26.391  30.504  1.00  0.00     0.009 A 
ATOM     75  C   UNL A   1      48.847  25.155  32.976  1.00  0.00     0.001 A 
ATOM     76  C   UNL A   1      49.708  25.864  30.833  1.00  0.00     0.001 A 
ATOM     77  C   UNL A   1      49.903  25.255  32.071  1.00  0.00     0.000 A 
ENDBRANCH  59  72
ENDBRANCH  33  34
ENDBRANCH  25  28
ENDBRANCH  23  24
ENDBRANCH   1  23
TORSDOF 12
ENDMDL
