MODEL 1
REMARK VINA RESULT:     -11.2      0.000      0.000
REMARK SMILES O=C(CC[C@H]1CCC[N@@H+](Cc2cccc(C3CC3)c2)C1)NCCCNC(=O)c1ccc(-c2c3nc(c(-c4ccccc4)c4ccc([nH]4)c(-c4ccccc4)c4nc(c(-c5ccccc5)c5ccc2[nH]5)C=C4)C=C3)cc1
REMARK SMILES IDX 1 1 2 2 21 3 3 5 4 6 5 7 6 8 20 9 7 10 9 11 8 12 10 14 11 15
REMARK SMILES IDX 12 16 19 17 13 18 15 19 14 20 16 21 17 22 18 23 22 24 23 25
REMARK SMILES IDX 24 26 25 27 26 28 27 30 28 31 29 32 75 33 30 34 74 35 31 36
REMARK SMILES IDX 32 37 33 38 68 39 34 40 73 41 67 42 69 43 35 44 72 45 66 46
REMARK SMILES IDX 65 47 36 49 58 50 43 51 57 52 44 53 47 54 56 55 70 56 45 57
REMARK SMILES IDX 46 58 55 60 71 61 48 62 37 63 38 64 42 65 39 66 41 67 40 68
REMARK SMILES IDX 59 69 60 70 64 71 61 72 63 73 62 74 49 75 50 76 54 77 51 78
REMARK SMILES IDX 53 79 52 80
REMARK H PARENT 21 4 9 13 25 29 69 48 47 59
REMARK Flexibility Score: inf
ROOT
ATOM      1  O   UNL A   1      34.149  28.804  25.960  1.00  0.00    -0.275 OA
ATOM      2  C   UNL A   1      33.457  29.229  25.043  1.00  0.00     0.220 C 
ATOM      3  N   UNL A   1      32.357  30.037  25.217  1.00  0.00    -0.356 N 
ATOM      4  H   UNL A   1      31.908  30.395  24.417  1.00  0.00     0.163 HD
ENDROOT
BRANCH   2   5
ATOM      5  C   UNL A   1      33.714  28.876  23.590  1.00  0.00     0.100 C 
BRANCH   5   6
ATOM      6  C   UNL A   1      32.642  27.980  22.953  1.00  0.00     0.019 C 
BRANCH   6   7
ATOM      7  C   UNL A   1      32.190  26.786  23.828  1.00  0.00     0.045 C 
ATOM      8  C   UNL A   1      30.705  26.883  24.209  1.00  0.00     0.015 C 
ATOM      9  C   UNL A   1      32.390  25.465  23.070  1.00  0.00     0.265 C 
ATOM     10  C   UNL A   1      30.283  25.640  24.996  1.00  0.00     0.062 C 
ATOM     11  N   UNL A   1      32.037  24.292  23.876  1.00  0.00    -0.331 N 
ATOM     12  C   UNL A   1      30.617  24.339  24.252  1.00  0.00     0.262 C 
ATOM     13  H   UNL A   1      32.592  24.325  24.732  1.00  0.00     0.348 HD
BRANCH  11  14
ATOM     14  C   UNL A   1      32.407  23.011  23.215  1.00  0.00     0.299 C 
BRANCH  14  15
ATOM     15  C   UNL A   1      33.453  22.159  23.914  1.00  0.00     0.006 A 
ATOM     16  C   UNL A   1      33.215  20.814  24.203  1.00  0.00     0.009 A 
ATOM     17  C   UNL A   1      34.714  22.696  24.232  1.00  0.00     0.013 A 
ATOM     18  C   UNL A   1      34.234  20.025  24.734  1.00  0.00     0.001 A 
ATOM     19  C   UNL A   1      35.800  21.903  24.634  1.00  0.00    -0.044 A 
ATOM     20  C   UNL A   1      35.514  20.558  24.915  1.00  0.00     0.004 A 
BRANCH  19  21
ATOM     21  C   UNL A   1      37.227  22.420  24.680  1.00  0.00     0.019 C 
ATOM     22  C   UNL A   1      37.661  23.412  25.742  1.00  0.00     0.009 C 
ATOM     23  C   UNL A   1      38.192  22.007  25.761  1.00  0.00     0.009 C 
ENDBRANCH  19  21
ENDBRANCH  14  15
ENDBRANCH  11  14
ENDBRANCH   6   7
ENDBRANCH   5   6
ENDBRANCH   2   5
BRANCH   3  24
ATOM     24  C   UNL A   1      31.826  30.387  26.518  1.00  0.00     0.117 C 
BRANCH  24  25
ATOM     25  C   UNL A   1      31.576  31.885  26.646  1.00  0.00     0.042 C 
BRANCH  25  26
ATOM     26  C   UNL A   1      32.726  32.683  27.257  1.00  0.00     0.118 C 
BRANCH  26  27
ATOM     27  N   UNL A   1      32.377  34.055  27.594  1.00  0.00    -0.352 N 
ATOM     28  C   UNL A   1      32.950  34.900  28.516  1.00  0.00     0.251 C 
ATOM     29  H   UNL A   1      31.621  34.433  27.089  1.00  0.00     0.163 HD
ATOM     30  O   UNL A   1      32.431  35.984  28.767  1.00  0.00    -0.269 OA
BRANCH  28  31
ATOM     31  C   UNL A   1      34.182  34.495  29.233  1.00  0.00     0.039 A 
ATOM     32  C   UNL A   1      34.073  33.973  30.525  1.00  0.00     0.014 A 
ATOM     33  C   UNL A   1      35.441  34.621  28.639  1.00  0.00     0.014 A 
ATOM     34  C   UNL A   1      35.211  33.493  31.181  1.00  0.00     0.010 A 
ATOM     35  C   UNL A   1      36.562  34.074  29.261  1.00  0.00     0.010 A 
ATOM     36  C   UNL A   1      36.458  33.489  30.533  1.00  0.00    -0.014 A 
BRANCH  36  37
ATOM     37  C   UNL A   1      37.646  32.835  31.144  1.00  0.00     0.031 A 
ATOM     38  C   UNL A   1      38.261  31.613  30.520  1.00  0.00     0.074 A 
ATOM     39  C   UNL A   1      38.129  33.301  32.314  1.00  0.00     0.049 A 
ATOM     40  N   UNL A   1      39.252  30.875  30.953  1.00  0.00    -0.248 NA
ATOM     41  C   UNL A   1      37.676  31.149  29.253  1.00  0.00     0.031 C 
ATOM     42  C   UNL A   1      37.608  34.459  33.045  1.00  0.00     0.029 A 
ATOM     43  N   UNL A   1      39.164  32.853  33.098  1.00  0.00    -0.354 N 
ATOM     44  C   UNL A   1      39.402  29.855  30.022  1.00  0.00     0.074 A 
ATOM     45  C   UNL A   1      38.370  30.043  29.024  1.00  0.00     0.031 C 
ATOM     46  C   UNL A   1      38.339  34.642  34.157  1.00  0.00     0.029 A 
ATOM     47  C   UNL A   1      39.346  33.591  34.244  1.00  0.00     0.049 A 
ATOM     48  H   UNL A   1      39.722  32.078  32.862  1.00  0.00     0.167 HD
ATOM     49  C   UNL A   1      40.321  28.860  29.991  1.00  0.00     0.031 A 
ATOM     50  C   UNL A   1      40.213  33.432  35.263  1.00  0.00     0.031 A 
ATOM     51  C   UNL A   1      41.345  28.667  30.986  1.00  0.00     0.049 A 
ATOM     52  C   UNL A   1      41.192  32.291  35.227  1.00  0.00     0.074 A 
ATOM     53  C   UNL A   1      42.354  27.718  31.009  1.00  0.00     0.029 A 
ATOM     54  N   UNL A   1      41.485  29.426  32.136  1.00  0.00    -0.354 N 
ATOM     55  N   UNL A   1      41.364  31.378  34.302  1.00  0.00    -0.248 NA
ATOM     56  C   UNL A   1      42.100  32.164  36.376  1.00  0.00     0.031 C 
ATOM     57  C   UNL A   1      43.063  27.862  32.207  1.00  0.00     0.029 A 
ATOM     58  C   UNL A   1      42.539  28.943  32.896  1.00  0.00     0.049 A 
ATOM     59  H   UNL A   1      40.920  30.195  32.378  1.00  0.00     0.167 HD
ATOM     60  C   UNL A   1      42.414  30.584  34.746  1.00  0.00     0.074 A 
ATOM     61  C   UNL A   1      42.854  31.137  36.010  1.00  0.00     0.031 C 
ATOM     62  C   UNL A   1      42.963  29.493  34.158  1.00  0.00     0.031 A 
BRANCH  49  63
ATOM     63  C   UNL A   1      40.254  27.886  28.846  1.00  0.00    -0.014 A 
ATOM     64  C   UNL A   1      40.902  28.145  27.627  1.00  0.00     0.009 A 
ATOM     65  C   UNL A   1      39.570  26.671  29.002  1.00  0.00     0.009 A 
ATOM     66  C   UNL A   1      40.836  27.225  26.579  1.00  0.00     0.001 A 
ATOM     67  C   UNL A   1      39.532  25.738  27.964  1.00  0.00     0.001 A 
ATOM     68  C   UNL A   1      40.156  26.020  26.750  1.00  0.00     0.000 A 
ENDBRANCH  49  63
BRANCH  50  69
ATOM     69  C   UNL A   1      40.194  34.375  36.413  1.00  0.00    -0.014 A 
ATOM     70  C   UNL A   1      39.382  34.122  37.529  1.00  0.00     0.009 A 
ATOM     71  C   UNL A   1      40.977  35.541  36.394  1.00  0.00     0.009 A 
ATOM     72  C   UNL A   1      39.334  35.030  38.590  1.00  0.00     0.001 A 
ATOM     73  C   UNL A   1      40.951  36.429  37.471  1.00  0.00     0.001 A 
ATOM     74  C   UNL A   1      40.121  36.179  38.562  1.00  0.00     0.000 A 
ENDBRANCH  50  69
BRANCH  62  75
ATOM     75  C   UNL A   1      44.119  28.839  34.865  1.00  0.00    -0.014 A 
ATOM     76  C   UNL A   1      43.915  27.820  35.808  1.00  0.00     0.009 A 
ATOM     77  C   UNL A   1      45.433  29.224  34.556  1.00  0.00     0.009 A 
ATOM     78  C   UNL A   1      45.002  27.227  36.455  1.00  0.00     0.001 A 
ATOM     79  C   UNL A   1      46.519  28.606  35.178  1.00  0.00     0.001 A 
ATOM     80  C   UNL A   1      46.303  27.616  36.135  1.00  0.00     0.000 A 
ENDBRANCH  62  75
ENDBRANCH  36  37
ENDBRANCH  28  31
ENDBRANCH  26  27
ENDBRANCH  25  26
ENDBRANCH  24  25
ENDBRANCH   3  24
TORSDOF 15
ENDMDL
MODEL 2
REMARK VINA RESULT:     -11.1      4.640      9.531
REMARK SMILES O=C(CC[C@H]1CCC[N@@H+](Cc2cccc(C3CC3)c2)C1)NCCCNC(=O)c1ccc(-c2c3nc(c(-c4ccccc4)c4ccc([nH]4)c(-c4ccccc4)c4nc(c(-c5ccccc5)c5ccc2[nH]5)C=C4)C=C3)cc1
REMARK SMILES IDX 1 1 2 2 21 3 3 5 4 6 5 7 6 8 20 9 7 10 9 11 8 12 10 14 11 15
REMARK SMILES IDX 12 16 19 17 13 18 15 19 14 20 16 21 17 22 18 23 22 24 23 25
REMARK SMILES IDX 24 26 25 27 26 28 27 30 28 31 29 32 75 33 30 34 74 35 31 36
REMARK SMILES IDX 32 37 33 38 68 39 34 40 73 41 67 42 69 43 35 44 72 45 66 46
REMARK SMILES IDX 65 47 36 49 58 50 43 51 57 52 44 53 47 54 56 55 70 56 45 57
REMARK SMILES IDX 46 58 55 60 71 61 48 62 37 63 38 64 42 65 39 66 41 67 40 68
REMARK SMILES IDX 59 69 60 70 64 71 61 72 63 73 62 74 49 75 50 76 54 77 51 78
REMARK SMILES IDX 53 79 52 80
REMARK H PARENT 21 4 9 13 25 29 69 48 47 59
REMARK Flexibility Score: inf
ROOT
ATOM      1  O   UNL A   1      34.158  18.047  24.434  1.00  0.00    -0.275 OA
ATOM      2  C   UNL A   1      34.173  19.215  24.802  1.00  0.00     0.220 C 
ATOM      3  N   UNL A   1      35.321  19.942  25.014  1.00  0.00    -0.356 N 
ATOM      4  H   UNL A   1      35.237  20.898  25.235  1.00  0.00     0.163 HD
ENDROOT
BRANCH   2   5
ATOM      5  C   UNL A   1      32.908  19.994  25.109  1.00  0.00     0.100 C 
BRANCH   5   6
ATOM      6  C   UNL A   1      32.510  21.013  24.032  1.00  0.00     0.019 C 
BRANCH   6   7
ATOM      7  C   UNL A   1      31.856  22.307  24.571  1.00  0.00     0.045 C 
ATOM      8  C   UNL A   1      31.149  22.077  25.915  1.00  0.00     0.015 C 
ATOM      9  C   UNL A   1      32.921  23.393  24.785  1.00  0.00     0.265 C 
ATOM     10  C   UNL A   1      30.595  23.400  26.450  1.00  0.00     0.062 C 
ATOM     11  N   UNL A   1      32.349  24.666  25.236  1.00  0.00    -0.331 N 
ATOM     12  C   UNL A   1      31.672  24.492  26.529  1.00  0.00     0.262 C 
ATOM     13  H   UNL A   1      31.649  24.951  24.550  1.00  0.00     0.348 HD
BRANCH  11  14
ATOM     14  C   UNL A   1      33.349  25.766  25.262  1.00  0.00     0.299 C 
BRANCH  14  15
ATOM     15  C   UNL A   1      32.818  27.168  25.506  1.00  0.00     0.006 A 
ATOM     16  C   UNL A   1      33.467  28.047  26.376  1.00  0.00     0.009 A 
ATOM     17  C   UNL A   1      31.686  27.633  24.812  1.00  0.00     0.013 A 
ATOM     18  C   UNL A   1      33.028  29.365  26.489  1.00  0.00     0.001 A 
ATOM     19  C   UNL A   1      31.304  28.983  24.795  1.00  0.00    -0.044 A 
ATOM     20  C   UNL A   1      31.981  29.829  25.685  1.00  0.00     0.004 A 
BRANCH  19  21
ATOM     21  C   UNL A   1      30.285  29.540  23.817  1.00  0.00     0.019 C 
ATOM     22  C   UNL A   1      30.454  29.346  22.322  1.00  0.00     0.009 C 
ATOM     23  C   UNL A   1      29.341  28.649  23.051  1.00  0.00     0.009 C 
ENDBRANCH  19  21
ENDBRANCH  14  15
ENDBRANCH  11  14
ENDBRANCH   6   7
ENDBRANCH   5   6
ENDBRANCH   2   5
BRANCH   3  24
ATOM     24  C   UNL A   1      36.650  19.371  24.933  1.00  0.00     0.117 C 
BRANCH  24  25
ATOM     25  C   UNL A   1      37.712  20.435  24.681  1.00  0.00     0.042 C 
BRANCH  25  26
ATOM     26  C   UNL A   1      38.747  20.592  25.792  1.00  0.00     0.118 C 
BRANCH  26  27
ATOM     27  N   UNL A   1      39.776  19.563  25.789  1.00  0.00    -0.352 N 
ATOM     28  C   UNL A   1      41.113  19.665  26.095  1.00  0.00     0.251 C 
ATOM     29  H   UNL A   1      39.470  18.663  25.530  1.00  0.00     0.163 HD
ATOM     30  O   UNL A   1      41.866  18.714  25.899  1.00  0.00    -0.269 OA
BRANCH  28  31
ATOM     31  C   UNL A   1      41.660  20.932  26.635  1.00  0.00     0.039 A 
ATOM     32  C   UNL A   1      42.267  21.835  25.758  1.00  0.00     0.014 A 
ATOM     33  C   UNL A   1      41.572  21.236  27.996  1.00  0.00     0.014 A 
ATOM     34  C   UNL A   1      42.700  23.079  26.229  1.00  0.00     0.010 A 
ATOM     35  C   UNL A   1      41.935  22.504  28.450  1.00  0.00     0.010 A 
ATOM     36  C   UNL A   1      42.488  23.445  27.569  1.00  0.00    -0.014 A 
BRANCH  36  37
ATOM     37  C   UNL A   1      42.790  24.820  28.052  1.00  0.00     0.031 A 
ATOM     38  C   UNL A   1      44.182  25.203  28.472  1.00  0.00     0.074 A 
ATOM     39  C   UNL A   1      41.786  25.711  28.183  1.00  0.00     0.049 A 
ATOM     40  N   UNL A   1      44.610  26.330  28.983  1.00  0.00    -0.248 NA
ATOM     41  C   UNL A   1      45.227  24.179  28.316  1.00  0.00     0.031 C 
ATOM     42  C   UNL A   1      40.382  25.462  27.843  1.00  0.00     0.029 A 
ATOM     43  N   UNL A   1      41.790  27.003  28.647  1.00  0.00    -0.354 N 
ATOM     44  C   UNL A   1      45.966  26.149  29.219  1.00  0.00     0.074 A 
ATOM     45  C   UNL A   1      46.281  24.789  28.840  1.00  0.00     0.031 C 
ATOM     46  C   UNL A   1      39.667  26.572  28.088  1.00  0.00     0.029 A 
ATOM     47  C   UNL A   1      40.547  27.593  28.647  1.00  0.00     0.049 A 
ATOM     48  H   UNL A   1      42.604  27.464  28.951  1.00  0.00     0.167 HD
ATOM     49  C   UNL A   1      46.872  27.038  29.696  1.00  0.00     0.031 A 
ATOM     50  C   UNL A   1      40.152  28.810  29.065  1.00  0.00     0.031 A 
ATOM     51  C   UNL A   1      46.561  28.391  30.081  1.00  0.00     0.049 A 
ATOM     52  C   UNL A   1      41.169  29.760  29.635  1.00  0.00     0.074 A 
ATOM     53  C   UNL A   1      47.423  29.379  30.524  1.00  0.00     0.029 A 
ATOM     54  N   UNL A   1      45.289  28.942  30.078  1.00  0.00    -0.354 N 
ATOM     55  N   UNL A   1      42.461  29.596  29.785  1.00  0.00    -0.248 NA
ATOM     56  C   UNL A   1      40.670  31.067  30.088  1.00  0.00     0.031 C 
ATOM     57  C   UNL A   1      46.664  30.507  30.854  1.00  0.00     0.029 A 
ATOM     58  C   UNL A   1      45.338  30.244  30.550  1.00  0.00     0.049 A 
ATOM     59  H   UNL A   1      44.472  28.477  29.785  1.00  0.00     0.167 HD
ATOM     60  C   UNL A   1      42.932  30.785  30.327  1.00  0.00     0.074 A 
ATOM     61  C   UNL A   1      41.793  31.669  30.457  1.00  0.00     0.031 C 
ATOM     62  C   UNL A   1      44.198  31.113  30.686  1.00  0.00     0.031 A 
BRANCH  49  63
ATOM     63  C   UNL A   1      48.294  26.569  29.846  1.00  0.00    -0.014 A 
ATOM     64  C   UNL A   1      49.242  26.776  28.831  1.00  0.00     0.009 A 
ATOM     65  C   UNL A   1      48.704  25.950  31.038  1.00  0.00     0.009 A 
ATOM     66  C   UNL A   1      50.561  26.342  28.993  1.00  0.00     0.001 A 
ATOM     67  C   UNL A   1      50.029  25.546  31.210  1.00  0.00     0.001 A 
ATOM     68  C   UNL A   1      50.954  25.733  30.183  1.00  0.00     0.000 A 
ENDBRANCH  49  63
BRANCH  50  69
ATOM     69  C   UNL A   1      38.721  29.204  28.969  1.00  0.00    -0.014 A 
ATOM     70  C   UNL A   1      37.863  29.051  30.068  1.00  0.00     0.009 A 
ATOM     71  C   UNL A   1      38.202  29.723  27.771  1.00  0.00     0.009 A 
ATOM     72  C   UNL A   1      36.510  29.383  29.963  1.00  0.00     0.001 A 
ATOM     73  C   UNL A   1      36.856  30.085  27.680  1.00  0.00     0.001 A 
ATOM     74  C   UNL A   1      36.010  29.903  28.770  1.00  0.00     0.000 A 
ENDBRANCH  50  69
BRANCH  62  75
ATOM     75  C   UNL A   1      44.421  32.498  31.230  1.00  0.00    -0.014 A 
ATOM     76  C   UNL A   1      44.364  32.758  32.609  1.00  0.00     0.009 A 
ATOM     77  C   UNL A   1      44.726  33.551  30.354  1.00  0.00     0.009 A 
ATOM     78  C   UNL A   1      44.573  34.051  33.094  1.00  0.00     0.001 A 
ATOM     79  C   UNL A   1      44.968  34.835  30.844  1.00  0.00     0.001 A 
ATOM     80  C   UNL A   1      44.880  35.087  32.212  1.00  0.00     0.000 A 
ENDBRANCH  62  75
ENDBRANCH  36  37
ENDBRANCH  28  31
ENDBRANCH  26  27
ENDBRANCH  25  26
ENDBRANCH  24  25
ENDBRANCH   3  24
TORSDOF 15
ENDMDL
MODEL 3
REMARK VINA RESULT:     -11.1      4.222      7.601
REMARK SMILES O=C(CC[C@H]1CCC[N@@H+](Cc2cccc(C3CC3)c2)C1)NCCCNC(=O)c1ccc(-c2c3nc(c(-c4ccccc4)c4ccc([nH]4)c(-c4ccccc4)c4nc(c(-c5ccccc5)c5ccc2[nH]5)C=C4)C=C3)cc1
REMARK SMILES IDX 1 1 2 2 21 3 3 5 4 6 5 7 6 8 20 9 7 10 9 11 8 12 10 14 11 15
REMARK SMILES IDX 12 16 19 17 13 18 15 19 14 20 16 21 17 22 18 23 22 24 23 25
REMARK SMILES IDX 24 26 25 27 26 28 27 30 28 31 29 32 75 33 30 34 74 35 31 36
REMARK SMILES IDX 32 37 33 38 68 39 34 40 73 41 67 42 69 43 35 44 72 45 66 46
REMARK SMILES IDX 65 47 36 49 58 50 43 51 57 52 44 53 47 54 56 55 70 56 45 57
REMARK SMILES IDX 46 58 55 60 71 61 48 62 37 63 38 64 42 65 39 66 41 67 40 68
REMARK SMILES IDX 59 69 60 70 64 71 61 72 63 73 62 74 49 75 50 76 54 77 51 78
REMARK SMILES IDX 53 79 52 80
REMARK H PARENT 21 4 9 13 25 29 69 48 47 59
REMARK Flexibility Score: inf
ROOT
ATOM      1  O   UNL A   1      37.324  34.961  34.053  1.00  0.00    -0.275 OA
ATOM      2  C   UNL A   1      36.555  34.064  34.375  1.00  0.00     0.220 C 
ATOM      3  N   UNL A   1      35.187  34.134  34.237  1.00  0.00    -0.356 N 
ATOM      4  H   UNL A   1      34.654  33.334  34.451  1.00  0.00     0.163 HD
ENDROOT
BRANCH   2   5
ATOM      5  C   UNL A   1      37.025  32.770  35.011  1.00  0.00     0.100 C 
BRANCH   5   6
ATOM      6  C   UNL A   1      37.599  31.746  34.022  1.00  0.00     0.019 C 
BRANCH   6   7
ATOM      7  C   UNL A   1      39.118  31.485  34.164  1.00  0.00     0.045 C 
ATOM      8  C   UNL A   1      39.593  31.633  35.617  1.00  0.00     0.015 C 
ATOM      9  C   UNL A   1      39.458  30.059  33.707  1.00  0.00     0.265 C 
ATOM     10  C   UNL A   1      41.078  31.281  35.723  1.00  0.00     0.062 C 
ATOM     11  N   UNL A   1      40.896  29.776  33.759  1.00  0.00    -0.331 N 
ATOM     12  C   UNL A   1      41.390  29.895  35.138  1.00  0.00     0.262 C 
ATOM     13  H   UNL A   1      41.371  30.479  33.192  1.00  0.00     0.348 HD
BRANCH  11  14
ATOM     14  C   UNL A   1      41.246  28.469  33.141  1.00  0.00     0.299 C 
BRANCH  14  15
ATOM     15  C   UNL A   1      41.838  27.414  34.060  1.00  0.00     0.006 A 
ATOM     16  C   UNL A   1      41.153  26.978  35.196  1.00  0.00     0.009 A 
ATOM     17  C   UNL A   1      43.070  26.809  33.751  1.00  0.00     0.013 A 
ATOM     18  C   UNL A   1      41.663  25.925  35.953  1.00  0.00     0.001 A 
ATOM     19  C   UNL A   1      43.540  25.661  34.406  1.00  0.00    -0.044 A 
ATOM     20  C   UNL A   1      42.823  25.259  35.543  1.00  0.00     0.004 A 
BRANCH  19  21
ATOM     21  C   UNL A   1      44.698  24.829  33.884  1.00  0.00     0.019 C 
ATOM     22  C   UNL A   1      44.457  23.474  33.245  1.00  0.00     0.009 C 
ATOM     23  C   UNL A   1      44.936  24.626  32.410  1.00  0.00     0.009 C 
ENDBRANCH  19  21
ENDBRANCH  14  15
ENDBRANCH  11  14
ENDBRANCH   6   7
ENDBRANCH   5   6
ENDBRANCH   2   5
BRANCH   3  24
ATOM     24  C   UNL A   1      34.492  35.325  33.794  1.00  0.00     0.117 C 
BRANCH  24  25
ATOM     25  C   UNL A   1      33.491  35.021  32.686  1.00  0.00     0.042 C 
BRANCH  25  26
ATOM     26  C   UNL A   1      33.682  35.826  31.403  1.00  0.00     0.118 C 
BRANCH  26  27
ATOM     27  N   UNL A   1      32.908  35.330  30.276  1.00  0.00    -0.352 N 
ATOM     28  C   UNL A   1      33.271  34.438  29.293  1.00  0.00     0.251 C 
ATOM     29  H   UNL A   1      31.991  35.683  30.206  1.00  0.00     0.163 HD
ATOM     30  O   UNL A   1      32.530  34.241  28.333  1.00  0.00    -0.269 OA
BRANCH  28  31
ATOM     31  C   UNL A   1      34.571  33.731  29.371  1.00  0.00     0.039 A 
ATOM     32  C   UNL A   1      35.643  34.199  28.606  1.00  0.00     0.014 A 
ATOM     33  C   UNL A   1      34.740  32.616  30.196  1.00  0.00     0.014 A 
ATOM     34  C   UNL A   1      36.903  33.609  28.739  1.00  0.00     0.010 A 
ATOM     35  C   UNL A   1      36.012  32.077  30.385  1.00  0.00     0.010 A 
ATOM     36  C   UNL A   1      37.111  32.577  29.671  1.00  0.00    -0.014 A 
BRANCH  36  37
ATOM     37  C   UNL A   1      38.474  32.048  29.948  1.00  0.00     0.031 A 
ATOM     38  C   UNL A   1      38.903  30.706  29.422  1.00  0.00     0.074 A 
ATOM     39  C   UNL A   1      39.308  32.750  30.743  1.00  0.00     0.049 A 
ATOM     40  N   UNL A   1      40.024  30.060  29.624  1.00  0.00    -0.248 NA
ATOM     41  C   UNL A   1      37.940  29.988  28.573  1.00  0.00     0.031 C 
ATOM     42  C   UNL A   1      39.009  34.050  31.347  1.00  0.00     0.029 A 
ATOM     43  N   UNL A   1      40.575  32.462  31.187  1.00  0.00    -0.354 N 
ATOM     44  C   UNL A   1      39.898  28.858  28.940  1.00  0.00     0.074 A 
ATOM     45  C   UNL A   1      38.574  28.844  28.355  1.00  0.00     0.031 C 
ATOM     46  C   UNL A   1      40.070  34.458  32.062  1.00  0.00     0.029 A 
ATOM     47  C   UNL A   1      41.103  33.430  32.010  1.00  0.00     0.049 A 
ATOM     48  H   UNL A   1      41.060  31.642  30.940  1.00  0.00     0.167 HD
ATOM     49  C   UNL A   1      40.804  27.860  28.798  1.00  0.00     0.031 A 
ATOM     50  C   UNL A   1      42.279  33.480  32.665  1.00  0.00     0.031 A 
ATOM     51  C   UNL A   1      42.121  27.868  29.384  1.00  0.00     0.049 A 
ATOM     52  C   UNL A   1      43.248  32.339  32.529  1.00  0.00     0.074 A 
ATOM     53  C   UNL A   1      43.127  26.927  29.251  1.00  0.00     0.029 A 
ATOM     54  N   UNL A   1      42.609  28.859  30.220  1.00  0.00    -0.354 N 
ATOM     55  N   UNL A   1      43.139  31.241  31.820  1.00  0.00    -0.248 NA
ATOM     56  C   UNL A   1      44.506  32.448  33.282  1.00  0.00     0.031 C 
ATOM     57  C   UNL A   1      44.200  27.315  30.061  1.00  0.00     0.029 A 
ATOM     58  C   UNL A   1      43.888  28.532  30.643  1.00  0.00     0.049 A 
ATOM     59  H   UNL A   1      42.121  29.674  30.477  1.00  0.00     0.167 HD
ATOM     60  C   UNL A   1      44.323  30.541  32.023  1.00  0.00     0.074 A 
ATOM     61  C   UNL A   1      45.143  31.349  32.901  1.00  0.00     0.031 C 
ATOM     62  C   UNL A   1      44.694  29.336  31.526  1.00  0.00     0.031 A 
BRANCH  49  63
ATOM     63  C   UNL A   1      40.398  26.660  27.986  1.00  0.00    -0.014 A 
ATOM     64  C   UNL A   1      40.785  26.522  26.644  1.00  0.00     0.009 A 
ATOM     65  C   UNL A   1      39.655  25.631  28.585  1.00  0.00     0.009 A 
ATOM     66  C   UNL A   1      40.406  25.396  25.909  1.00  0.00     0.001 A 
ATOM     67  C   UNL A   1      39.304  24.492  27.858  1.00  0.00     0.001 A 
ATOM     68  C   UNL A   1      39.671  24.380  26.518  1.00  0.00     0.000 A 
ENDBRANCH  49  63
BRANCH  50  69
ATOM     69  C   UNL A   1      42.608  34.653  33.518  1.00  0.00    -0.014 A 
ATOM     70  C   UNL A   1      43.275  35.763  32.979  1.00  0.00     0.009 A 
ATOM     71  C   UNL A   1      42.268  34.662  34.881  1.00  0.00     0.009 A 
ATOM     72  C   UNL A   1      43.620  36.846  33.792  1.00  0.00     0.001 A 
ATOM     73  C   UNL A   1      42.585  35.760  35.683  1.00  0.00     0.001 A 
ATOM     74  C   UNL A   1      43.270  36.845  35.142  1.00  0.00     0.000 A 
ENDBRANCH  50  69
BRANCH  62  75
ATOM     75  C   UNL A   1      46.060  28.829  31.900  1.00  0.00    -0.014 A 
ATOM     76  C   UNL A   1      47.185  29.115  31.112  1.00  0.00     0.009 A 
ATOM     77  C   UNL A   1      46.228  28.083  33.078  1.00  0.00     0.009 A 
ATOM     78  C   UNL A   1      48.445  28.633  31.476  1.00  0.00     0.001 A 
ATOM     79  C   UNL A   1      47.493  27.632  33.457  1.00  0.00     0.001 A 
ATOM     80  C   UNL A   1      48.598  27.897  32.651  1.00  0.00     0.000 A 
ENDBRANCH  62  75
ENDBRANCH  36  37
ENDBRANCH  28  31
ENDBRANCH  26  27
ENDBRANCH  25  26
ENDBRANCH  24  25
ENDBRANCH   3  24
TORSDOF 15
ENDMDL
