MODEL 1
REMARK VINA RESULT:     -12.3      0.000      0.000
REMARK SMILES COc1ccc(/C=N/NC(=O)c2cc(C)nc3ccccc23)c(C(=O)NCCCNC(=O)c2ccc(-c3c4nc(c(-c5ccccc5)c5ccc([nH]5)c(-c5ccccc5)c5nc(c(-c6ccccc6)c6ccc3[nH]6)C=C5)C=C4)cc2)c1OC
REMARK SMILES IDX 27 1 26 2 24 3 25 4 23 6 3 7 4 8 81 9 5 10 6 11 2 12 1 13
REMARK SMILES IDX 82 14 83 15 7 16 8 17 9 18 10 19 11 21 12 22 13 23 22 24
REMARK SMILES IDX 14 25 17 26 21 27 15 28 16 29 18 30 20 31 19 32 28 33 29 34
REMARK SMILES IDX 30 35 31 36 32 38 33 39 34 40 80 41 35 42 79 43 36 44 37 45
REMARK SMILES IDX 38 46 73 47 39 48 78 49 72 50 74 51 40 52 77 53 71 54 70 55
REMARK SMILES IDX 41 57 63 58 48 59 62 60 49 61 52 62 61 63 75 64 50 65 51 66
REMARK SMILES IDX 60 68 76 69 53 70 42 71 43 72 47 73 44 74 46 75 45 76 64 77
REMARK SMILES IDX 65 78 69 79 66 80 68 81 67 82 54 83 55 84 59 85 56 86 58 87
REMARK SMILES IDX 57 88
REMARK H PARENT 26 5 9 20 30 37 74 56 52 67
REMARK Flexibility Score: inf
ROOT
ATOM      1  C   UNL A   1      31.767  29.801  26.887  1.00  0.00     0.118 C 
ENDROOT
BRANCH   1   2
ATOM      2  N   UNL A   1      32.878  29.047  26.504  1.00  0.00    -0.352 N 
ATOM      3  C   UNL A   1      32.877  28.200  25.428  1.00  0.00     0.255 C 
ATOM      4  O   UNL A   1      33.913  27.540  25.402  1.00  0.00    -0.269 OA
ATOM      5  H   UNL A   1      33.703  29.129  27.034  1.00  0.00     0.163 HD
BRANCH   3   6
ATOM      6  C   UNL A   1      31.683  28.002  24.440  1.00  0.00     0.094 A 
ATOM      7  C   UNL A   1      30.114  28.769  22.611  1.00  0.00     0.161 A 
ATOM      8  C   UNL A   1      29.203  27.823  23.087  1.00  0.00     0.051 A 
ATOM      9  C   UNL A   1      31.388  28.808  23.217  1.00  0.00     0.174 A 
ATOM     10  C   UNL A   1      29.528  26.924  24.127  1.00  0.00     0.015 A 
ATOM     11  C   UNL A   1      30.752  26.989  24.829  1.00  0.00     0.011 A 
BRANCH   7  12
ATOM     12  O   UNL A   1      29.557  29.590  21.661  1.00  0.00    -0.493 OA
ATOM     13  C   UNL A   1      28.234  30.098  21.772  1.00  0.00     0.278 C 
ENDBRANCH   7  12
BRANCH   9  14
ATOM     14  O   UNL A   1      32.446  29.397  22.520  1.00  0.00    -0.492 OA
ATOM     15  C   UNL A   1      33.569  28.580  22.114  1.00  0.00     0.278 C 
ENDBRANCH   9  14
BRANCH  11  16
ATOM     16  C   UNL A   1      31.070  25.883  25.859  1.00  0.00     0.142 C 
ATOM     17  N   UNL A   1      31.567  24.730  25.552  1.00  0.00    -0.180 NA
BRANCH  17  18
ATOM     18  N   UNL A   1      31.955  23.723  26.425  1.00  0.00    -0.243 N 
ATOM     19  C   UNL A   1      32.616  22.514  26.741  1.00  0.00     0.272 C 
ATOM     20  H   UNL A   1      31.557  23.996  27.283  1.00  0.00     0.194 HD
ATOM     21  O   UNL A   1      32.445  22.255  27.950  1.00  0.00    -0.267 OA
BRANCH  19  22
ATOM     22  C   UNL A   1      33.488  21.453  26.074  1.00  0.00     0.052 A 
ATOM     23  C   UNL A   1      32.932  20.081  25.573  1.00  0.00     0.038 A 
ATOM     24  C   UNL A   1      35.180  21.799  25.880  1.00  0.00     0.013 A 
ATOM     25  C   UNL A   1      33.798  19.220  24.974  1.00  0.00     0.039 A 
ATOM     26  C   UNL A   1      35.750  20.771  25.207  1.00  0.00     0.071 A 
ATOM     27  C   UNL A   1      36.413  22.653  26.061  1.00  0.00     0.011 A 
ATOM     28  C   UNL A   1      34.317  18.016  24.353  1.00  0.00     0.067 C 
ATOM     29  N   UNL A   1      34.746  20.032  25.109  1.00  0.00    -0.253 NA
ATOM     30  C   UNL A   1      36.975  20.315  24.739  1.00  0.00     0.029 A 
ATOM     31  C   UNL A   1      37.789  22.264  25.682  1.00  0.00     0.001 A 
ATOM     32  C   UNL A   1      38.062  21.054  25.048  1.00  0.00     0.002 A 
ENDBRANCH  19  22
ENDBRANCH  17  18
ENDBRANCH  11  16
ENDBRANCH   3   6
ENDBRANCH   1   2
BRANCH   1  33
ATOM     33  C   UNL A   1      31.607  31.236  26.551  1.00  0.00     0.042 C 
BRANCH  33  34
ATOM     34  C   UNL A   1      32.812  31.997  26.928  1.00  0.00     0.118 C 
BRANCH  34  35
ATOM     35  N   UNL A   1      32.477  33.324  27.418  1.00  0.00    -0.352 N 
ATOM     36  C   UNL A   1      33.134  34.063  28.357  1.00  0.00     0.251 C 
ATOM     37  H   UNL A   1      31.677  33.739  27.023  1.00  0.00     0.163 HD
ATOM     38  O   UNL A   1      32.639  35.096  28.796  1.00  0.00    -0.269 OA
BRANCH  36  39
ATOM     39  C   UNL A   1      34.444  33.597  28.840  1.00  0.00     0.039 A 
ATOM     40  C   UNL A   1      34.470  32.745  29.936  1.00  0.00     0.014 A 
ATOM     41  C   UNL A   1      35.638  34.016  28.236  1.00  0.00     0.014 A 
ATOM     42  C   UNL A   1      35.700  32.362  30.443  1.00  0.00     0.010 A 
ATOM     43  C   UNL A   1      36.845  33.460  28.609  1.00  0.00     0.010 A 
ATOM     44  C   UNL A   1      36.889  32.671  29.754  1.00  0.00    -0.014 A 
BRANCH  44  45
ATOM     45  C   UNL A   1      38.175  32.132  30.229  1.00  0.00     0.031 A 
ATOM     46  C   UNL A   1      38.951  32.812  31.311  1.00  0.00     0.074 A 
ATOM     47  C   UNL A   1      38.624  30.988  29.681  1.00  0.00     0.049 A 
ATOM     48  N   UNL A   1      40.042  32.388  31.894  1.00  0.00    -0.248 NA
ATOM     49  C   UNL A   1      38.469  34.113  31.802  1.00  0.00     0.031 C 
ATOM     50  C   UNL A   1      37.958  30.268  28.593  1.00  0.00     0.029 A 
ATOM     51  N   UNL A   1      39.712  30.214  29.977  1.00  0.00    -0.354 N 
ATOM     52  C   UNL A   1      40.365  33.354  32.829  1.00  0.00     0.074 A 
ATOM     53  C   UNL A   1      39.395  34.419  32.699  1.00  0.00     0.031 C 
ATOM     54  C   UNL A   1      38.604  29.118  28.371  1.00  0.00     0.029 A 
ATOM     55  C   UNL A   1      39.774  29.060  29.235  1.00  0.00     0.049 A 
ATOM     56  H   UNL A   1      40.384  30.459  30.654  1.00  0.00     0.167 HD
ATOM     57  C   UNL A   1      41.374  33.337  33.728  1.00  0.00     0.031 A 
ATOM     58  C   UNL A   1      40.675  28.063  29.225  1.00  0.00     0.031 A 
ATOM     59  C   UNL A   1      42.354  32.293  33.827  1.00  0.00     0.049 A 
ATOM     60  C   UNL A   1      41.836  28.130  30.167  1.00  0.00     0.074 A 
ATOM     61  C   UNL A   1      43.402  32.199  34.723  1.00  0.00     0.029 A 
ATOM     62  N   UNL A   1      42.431  31.186  32.999  1.00  0.00    -0.354 N 
ATOM     63  N   UNL A   1      42.092  29.028  31.083  1.00  0.00    -0.248 NA
ATOM     64  C   UNL A   1      42.827  27.050  30.077  1.00  0.00     0.031 C 
ATOM     65  C   UNL A   1      44.168  31.089  34.384  1.00  0.00     0.029 A 
ATOM     66  C   UNL A   1      43.540  30.431  33.342  1.00  0.00     0.049 A 
ATOM     67  H   UNL A   1      41.795  30.968  32.279  1.00  0.00     0.167 HD
ATOM     68  C   UNL A   1      43.254  28.603  31.706  1.00  0.00     0.074 A 
ATOM     69  C   UNL A   1      43.638  27.356  31.077  1.00  0.00     0.031 C 
ATOM     70  C   UNL A   1      43.932  29.200  32.713  1.00  0.00     0.031 A 
BRANCH  57  71
ATOM     71  C   UNL A   1      41.499  34.509  34.653  1.00  0.00    -0.014 A 
ATOM     72  C   UNL A   1      40.840  34.535  35.891  1.00  0.00     0.009 A 
ATOM     73  C   UNL A   1      42.333  35.580  34.300  1.00  0.00     0.009 A 
ATOM     74  C   UNL A   1      40.944  35.655  36.715  1.00  0.00     0.001 A 
ATOM     75  C   UNL A   1      42.495  36.663  35.158  1.00  0.00     0.001 A 
ATOM     76  C   UNL A   1      41.775  36.714  36.350  1.00  0.00     0.000 A 
ENDBRANCH  57  71
BRANCH  58  77
ATOM     77  C   UNL A   1      40.548  26.942  28.260  1.00  0.00    -0.014 A 
ATOM     78  C   UNL A   1      41.122  27.021  26.984  1.00  0.00     0.009 A 
ATOM     79  C   UNL A   1      39.788  25.810  28.596  1.00  0.00     0.009 A 
ATOM     80  C   UNL A   1      40.874  26.024  26.039  1.00  0.00     0.001 A 
ATOM     81  C   UNL A   1      39.606  24.781  27.677  1.00  0.00     0.001 A 
ATOM     82  C   UNL A   1      40.124  24.902  26.390  1.00  0.00     0.000 A 
ENDBRANCH  58  77
BRANCH  70  83
ATOM     83  C   UNL A   1      45.134  28.479  33.252  1.00  0.00    -0.014 A 
ATOM     84  C   UNL A   1      46.420  28.714  32.748  1.00  0.00     0.009 A 
ATOM     85  C   UNL A   1      44.968  27.539  34.282  1.00  0.00     0.009 A 
ATOM     86  C   UNL A   1      47.491  27.927  33.168  1.00  0.00     0.001 A 
ATOM     87  C   UNL A   1      46.056  26.819  34.767  1.00  0.00     0.001 A 
ATOM     88  C   UNL A   1      47.308  26.983  34.178  1.00  0.00     0.000 A 
ENDBRANCH  70  83
ENDBRANCH  44  45
ENDBRANCH  36  39
ENDBRANCH  34  35
ENDBRANCH  33  34
ENDBRANCH   1  33
TORSDOF 15
ENDMDL
MODEL 2
REMARK VINA RESULT:     -12.2      2.952      6.907
REMARK SMILES COc1ccc(/C=N/NC(=O)c2cc(C)nc3ccccc23)c(C(=O)NCCCNC(=O)c2ccc(-c3c4nc(c(-c5ccccc5)c5ccc([nH]5)c(-c5ccccc5)c5nc(c(-c6ccccc6)c6ccc3[nH]6)C=C5)C=C4)cc2)c1OC
REMARK SMILES IDX 27 1 26 2 24 3 25 4 23 6 3 7 4 8 81 9 5 10 6 11 2 12 1 13
REMARK SMILES IDX 82 14 83 15 7 16 8 17 9 18 10 19 11 21 12 22 13 23 22 24
REMARK SMILES IDX 14 25 17 26 21 27 15 28 16 29 18 30 20 31 19 32 28 33 29 34
REMARK SMILES IDX 30 35 31 36 32 38 33 39 34 40 80 41 35 42 79 43 36 44 37 45
REMARK SMILES IDX 38 46 73 47 39 48 78 49 72 50 74 51 40 52 77 53 71 54 70 55
REMARK SMILES IDX 41 57 63 58 48 59 62 60 49 61 52 62 61 63 75 64 50 65 51 66
REMARK SMILES IDX 60 68 76 69 53 70 42 71 43 72 47 73 44 74 46 75 45 76 64 77
REMARK SMILES IDX 65 78 69 79 66 80 68 81 67 82 54 83 55 84 59 85 56 86 58 87
REMARK SMILES IDX 57 88
REMARK H PARENT 26 5 9 20 30 37 74 56 52 67
REMARK Flexibility Score: inf
ROOT
ATOM      1  C   UNL A   1      33.699  27.725  25.053  1.00  0.00     0.118 C 
ENDROOT
BRANCH   1   2
ATOM      2  N   UNL A   1      32.636  26.955  25.528  1.00  0.00    -0.352 N 
ATOM      3  C   UNL A   1      31.326  27.216  25.227  1.00  0.00     0.255 C 
ATOM      4  O   UNL A   1      30.582  26.499  25.893  1.00  0.00    -0.269 OA
ATOM      5  H   UNL A   1      32.838  26.187  26.108  1.00  0.00     0.163 HD
BRANCH   3   6
ATOM      6  C   UNL A   1      30.831  28.346  24.269  1.00  0.00     0.094 A 
ATOM      7  C   UNL A   1      29.850  30.626  23.783  1.00  0.00     0.161 A 
ATOM      8  C   UNL A   1      29.440  30.113  22.550  1.00  0.00     0.051 A 
ATOM      9  C   UNL A   1      30.623  29.785  24.612  1.00  0.00     0.174 A 
ATOM     10  C   UNL A   1      29.782  28.810  22.127  1.00  0.00     0.015 A 
ATOM     11  C   UNL A   1      30.469  27.899  22.961  1.00  0.00     0.011 A 
BRANCH   7  12
ATOM     12  O   UNL A   1      29.332  31.876  24.021  1.00  0.00    -0.493 OA
ATOM     13  C   UNL A   1      28.803  32.692  22.985  1.00  0.00     0.278 C 
ENDBRANCH   7  12
BRANCH   9  14
ATOM     14  O   UNL A   1      31.407  30.365  25.613  1.00  0.00    -0.492 OA
ATOM     15  C   UNL A   1      31.001  31.631  26.187  1.00  0.00     0.278 C 
ENDBRANCH   9  14
BRANCH  11  16
ATOM     16  C   UNL A   1      30.913  26.546  22.364  1.00  0.00     0.142 C 
ATOM     17  N   UNL A   1      32.082  26.329  21.853  1.00  0.00    -0.180 NA
BRANCH  17  18
ATOM     18  N   UNL A   1      32.580  25.124  21.377  1.00  0.00    -0.243 N 
ATOM     19  C   UNL A   1      33.069  23.809  21.545  1.00  0.00     0.272 C 
ATOM     20  H   UNL A   1      32.608  25.256  20.402  1.00  0.00     0.194 HD
ATOM     21  O   UNL A   1      33.350  23.329  20.427  1.00  0.00    -0.267 OA
BRANCH  19  22
ATOM     22  C   UNL A   1      33.334  22.795  22.655  1.00  0.00     0.052 A 
ATOM     23  C   UNL A   1      32.327  21.664  23.039  1.00  0.00     0.038 A 
ATOM     24  C   UNL A   1      34.830  22.925  23.531  1.00  0.00     0.013 A 
ATOM     25  C   UNL A   1      32.679  20.803  24.031  1.00  0.00     0.039 A 
ATOM     26  C   UNL A   1      34.899  21.897  24.410  1.00  0.00     0.071 A 
ATOM     27  C   UNL A   1      36.147  23.587  23.864  1.00  0.00     0.011 A 
ATOM     28  C   UNL A   1      32.589  19.734  25.007  1.00  0.00     0.067 C 
ATOM     29  N   UNL A   1      33.783  21.381  24.182  1.00  0.00    -0.253 NA
ATOM     30  C   UNL A   1      35.696  21.372  25.418  1.00  0.00     0.029 A 
ATOM     31  C   UNL A   1      37.057  23.183  24.957  1.00  0.00     0.001 A 
ATOM     32  C   UNL A   1      36.792  22.080  25.764  1.00  0.00     0.002 A 
ENDBRANCH  19  22
ENDBRANCH  17  18
ENDBRANCH  11  16
ENDBRANCH   3   6
ENDBRANCH   1   2
BRANCH   1  33
ATOM     33  C   UNL A   1      34.499  28.624  25.919  1.00  0.00     0.042 C 
BRANCH  33  34
ATOM     34  C   UNL A   1      33.917  28.701  27.271  1.00  0.00     0.118 C 
BRANCH  34  35
ATOM     35  N   UNL A   1      33.823  30.073  27.737  1.00  0.00    -0.352 N 
ATOM     36  C   UNL A   1      34.749  30.786  28.441  1.00  0.00     0.251 C 
ATOM     37  H   UNL A   1      32.988  30.546  27.520  1.00  0.00     0.163 HD
ATOM     38  O   UNL A   1      34.463  31.880  28.917  1.00  0.00    -0.269 OA
BRANCH  36  39
ATOM     39  C   UNL A   1      36.094  30.218  28.625  1.00  0.00     0.039 A 
ATOM     40  C   UNL A   1      37.005  30.348  27.586  1.00  0.00     0.014 A 
ATOM     41  C   UNL A   1      36.446  29.538  29.800  1.00  0.00     0.014 A 
ATOM     42  C   UNL A   1      38.248  29.752  27.721  1.00  0.00     0.010 A 
ATOM     43  C   UNL A   1      37.749  29.137  30.013  1.00  0.00     0.010 A 
ATOM     44  C   UNL A   1      38.646  29.192  28.951  1.00  0.00    -0.014 A 
BRANCH  44  45
ATOM     45  C   UNL A   1      40.021  28.692  29.120  1.00  0.00     0.031 A 
ATOM     46  C   UNL A   1      40.398  27.301  28.723  1.00  0.00     0.074 A 
ATOM     47  C   UNL A   1      40.945  29.535  29.618  1.00  0.00     0.049 A 
ATOM     48  N   UNL A   1      41.592  26.770  28.720  1.00  0.00    -0.248 NA
ATOM     49  C   UNL A   1      39.329  26.388  28.282  1.00  0.00     0.031 C 
ATOM     50  C   UNL A   1      40.669  30.901  30.069  1.00  0.00     0.029 A 
ATOM     51  N   UNL A   1      42.293  29.390  29.796  1.00  0.00    -0.354 N 
ATOM     52  C   UNL A   1      41.425  25.476  28.263  1.00  0.00     0.074 A 
ATOM     53  C   UNL A   1      40.008  25.274  28.055  1.00  0.00     0.031 C 
ATOM     54  C   UNL A   1      41.823  31.494  30.393  1.00  0.00     0.029 A 
ATOM     55  C   UNL A   1      42.904  30.530  30.256  1.00  0.00     0.049 A 
ATOM     56  H   UNL A   1      42.778  28.552  29.612  1.00  0.00     0.167 HD
ATOM     57  C   UNL A   1      42.379  24.549  28.021  1.00  0.00     0.031 A 
ATOM     58  C   UNL A   1      44.189  30.784  30.558  1.00  0.00     0.031 A 
ATOM     59  C   UNL A   1      43.779  24.746  28.264  1.00  0.00     0.049 A 
ATOM     60  C   UNL A   1      45.202  29.698  30.373  1.00  0.00     0.074 A 
ATOM     61  C   UNL A   1      44.811  23.855  28.031  1.00  0.00     0.029 A 
ATOM     62  N   UNL A   1      44.346  25.884  28.812  1.00  0.00    -0.354 N 
ATOM     63  N   UNL A   1      45.029  28.496  29.886  1.00  0.00    -0.248 NA
ATOM     64  C   UNL A   1      46.581  30.001  30.774  1.00  0.00     0.031 C 
ATOM     65  C   UNL A   1      45.987  24.412  28.522  1.00  0.00     0.029 A 
ATOM     66  C   UNL A   1      45.709  25.693  28.965  1.00  0.00     0.049 A 
ATOM     67  H   UNL A   1      43.855  26.703  29.055  1.00  0.00     0.167 HD
ATOM     68  C   UNL A   1      46.285  27.911  29.886  1.00  0.00     0.074 A 
ATOM     69  C   UNL A   1      47.211  28.898  30.400  1.00  0.00     0.031 C 
ATOM     70  C   UNL A   1      46.629  26.664  29.487  1.00  0.00     0.031 A 
BRANCH  57  71
ATOM     71  C   UNL A   1      41.935  23.214  27.505  1.00  0.00    -0.014 A 
ATOM     72  C   UNL A   1      42.003  22.900  26.140  1.00  0.00     0.009 A 
ATOM     73  C   UNL A   1      41.490  22.239  28.411  1.00  0.00     0.009 A 
ATOM     74  C   UNL A   1      41.547  21.664  25.683  1.00  0.00     0.001 A 
ATOM     75  C   UNL A   1      41.107  20.979  27.960  1.00  0.00     0.001 A 
ATOM     76  C   UNL A   1      41.105  20.705  26.594  1.00  0.00     0.000 A 
ENDBRANCH  57  71
BRANCH  58  77
ATOM     77  C   UNL A   1      44.586  32.101  31.115  1.00  0.00    -0.014 A 
ATOM     78  C   UNL A   1      44.526  32.349  32.493  1.00  0.00     0.009 A 
ATOM     79  C   UNL A   1      44.967  33.141  30.252  1.00  0.00     0.009 A 
ATOM     80  C   UNL A   1      44.764  33.632  32.987  1.00  0.00     0.001 A 
ATOM     81  C   UNL A   1      45.278  34.401  30.755  1.00  0.00     0.001 A 
ATOM     82  C   UNL A   1      45.148  34.654  32.119  1.00  0.00     0.000 A 
ENDBRANCH  58  77
BRANCH  70  83
ATOM     83  C   UNL A   1      48.088  26.310  29.528  1.00  0.00    -0.014 A 
ATOM     84  C   UNL A   1      48.674  25.739  30.665  1.00  0.00     0.009 A 
ATOM     85  C   UNL A   1      48.890  26.564  28.403  1.00  0.00     0.009 A 
ATOM     86  C   UNL A   1      50.054  25.555  30.724  1.00  0.00     0.001 A 
ATOM     87  C   UNL A   1      50.254  26.293  28.430  1.00  0.00     0.001 A 
ATOM     88  C   UNL A   1      50.841  25.830  29.606  1.00  0.00     0.000 A 
ENDBRANCH  70  83
ENDBRANCH  44  45
ENDBRANCH  36  39
ENDBRANCH  34  35
ENDBRANCH  33  34
ENDBRANCH   1  33
TORSDOF 15
ENDMDL
MODEL 3
REMARK VINA RESULT:     -11.5      2.578      3.886
REMARK SMILES COc1ccc(/C=N/NC(=O)c2cc(C)nc3ccccc23)c(C(=O)NCCCNC(=O)c2ccc(-c3c4nc(c(-c5ccccc5)c5ccc([nH]5)c(-c5ccccc5)c5nc(c(-c6ccccc6)c6ccc3[nH]6)C=C5)C=C4)cc2)c1OC
REMARK SMILES IDX 27 1 26 2 24 3 25 4 23 6 3 7 4 8 81 9 5 10 6 11 2 12 1 13
REMARK SMILES IDX 82 14 83 15 7 16 8 17 9 18 10 19 11 21 12 22 13 23 22 24
REMARK SMILES IDX 14 25 17 26 21 27 15 28 16 29 18 30 20 31 19 32 28 33 29 34
REMARK SMILES IDX 30 35 31 36 32 38 33 39 34 40 80 41 35 42 79 43 36 44 37 45
REMARK SMILES IDX 38 46 73 47 39 48 78 49 72 50 74 51 40 52 77 53 71 54 70 55
REMARK SMILES IDX 41 57 63 58 48 59 62 60 49 61 52 62 61 63 75 64 50 65 51 66
REMARK SMILES IDX 60 68 76 69 53 70 42 71 43 72 47 73 44 74 46 75 45 76 64 77
REMARK SMILES IDX 65 78 69 79 66 80 68 81 67 82 54 83 55 84 59 85 56 86 58 87
REMARK SMILES IDX 57 88
REMARK H PARENT 26 5 9 20 30 37 74 56 52 67
REMARK Flexibility Score: inf
ROOT
ATOM      1  C   UNL A   1      33.675  27.875  25.339  1.00  0.00     0.118 C 
ENDROOT
BRANCH   1   2
ATOM      2  N   UNL A   1      32.599  27.121  25.810  1.00  0.00    -0.352 N 
ATOM      3  C   UNL A   1      31.298  27.366  25.458  1.00  0.00     0.255 C 
ATOM      4  O   UNL A   1      30.536  26.673  26.127  1.00  0.00    -0.269 OA
ATOM      5  H   UNL A   1      32.784  26.376  26.426  1.00  0.00     0.163 HD
BRANCH   3   6
ATOM      6  C   UNL A   1      30.831  28.457  24.442  1.00  0.00     0.094 A 
ATOM      7  C   UNL A   1      29.831  30.700  23.837  1.00  0.00     0.161 A 
ATOM      8  C   UNL A   1      29.497  30.142  22.600  1.00  0.00     0.051 A 
ATOM      9  C   UNL A   1      30.577  29.900  24.730  1.00  0.00     0.174 A 
ATOM     10  C   UNL A   1      29.888  28.834  22.235  1.00  0.00     0.015 A 
ATOM     11  C   UNL A   1      30.547  27.963  23.131  1.00  0.00     0.011 A 
BRANCH   7  12
ATOM     12  O   UNL A   1      29.276  31.944  24.009  1.00  0.00    -0.493 OA
ATOM     13  C   UNL A   1      28.821  32.734  22.919  1.00  0.00     0.278 C 
ENDBRANCH   7  12
BRANCH   9  14
ATOM     14  O   UNL A   1      31.295  30.526  25.752  1.00  0.00    -0.492 OA
ATOM     15  C   UNL A   1      30.973  31.891  26.111  1.00  0.00     0.278 C 
ENDBRANCH   9  14
BRANCH  11  16
ATOM     16  C   UNL A   1      31.050  26.604  22.599  1.00  0.00     0.142 C 
ATOM     17  N   UNL A   1      32.292  26.335  22.358  1.00  0.00    -0.180 NA
BRANCH  17  18
ATOM     18  N   UNL A   1      32.826  25.117  21.961  1.00  0.00    -0.243 N 
ATOM     19  C   UNL A   1      33.589  23.946  22.174  1.00  0.00     0.272 C 
ATOM     20  H   UNL A   1      32.500  25.012  21.038  1.00  0.00     0.194 HD
ATOM     21  O   UNL A   1      33.567  23.247  21.140  1.00  0.00    -0.267 OA
BRANCH  19  22
ATOM     22  C   UNL A   1      34.401  23.267  23.274  1.00  0.00     0.052 A 
ATOM     23  C   UNL A   1      35.848  22.717  23.055  1.00  0.00     0.038 A 
ATOM     24  C   UNL A   1      33.663  23.097  24.839  1.00  0.00     0.013 A 
ATOM     25  C   UNL A   1      36.484  22.151  24.115  1.00  0.00     0.039 A 
ATOM     26  C   UNL A   1      34.569  22.544  25.679  1.00  0.00     0.071 A 
ATOM     27  C   UNL A   1      32.515  23.232  25.812  1.00  0.00     0.011 A 
ATOM     28  C   UNL A   1      37.494  21.451  24.887  1.00  0.00     0.067 C 
ATOM     29  N   UNL A   1      35.501  22.372  24.863  1.00  0.00    -0.253 NA
ATOM     30  C   UNL A   1      34.717  22.086  26.982  1.00  0.00     0.029 A 
ATOM     31  C   UNL A   1      32.505  22.724  27.202  1.00  0.00     0.001 A 
ATOM     32  C   UNL A   1      33.618  22.107  27.766  1.00  0.00     0.002 A 
ENDBRANCH  19  22
ENDBRANCH  17  18
ENDBRANCH  11  16
ENDBRANCH   3   6
ENDBRANCH   1   2
BRANCH   1  33
ATOM     33  C   UNL A   1      34.537  28.696  26.223  1.00  0.00     0.042 C 
BRANCH  33  34
ATOM     34  C   UNL A   1      33.937  28.828  27.562  1.00  0.00     0.118 C 
BRANCH  34  35
ATOM     35  N   UNL A   1      33.791  30.220  27.951  1.00  0.00    -0.352 N 
ATOM     36  C   UNL A   1      34.693  31.010  28.601  1.00  0.00     0.251 C 
ATOM     37  H   UNL A   1      32.934  30.645  27.717  1.00  0.00     0.163 HD
ATOM     38  O   UNL A   1      34.366  32.117  29.017  1.00  0.00    -0.269 OA
BRANCH  36  39
ATOM     39  C   UNL A   1      36.062  30.509  28.801  1.00  0.00     0.039 A 
ATOM     40  C   UNL A   1      36.995  30.741  27.799  1.00  0.00     0.014 A 
ATOM     41  C   UNL A   1      36.418  29.791  29.952  1.00  0.00     0.014 A 
ATOM     42  C   UNL A   1      38.265  30.208  27.945  1.00  0.00     0.010 A 
ATOM     43  C   UNL A   1      37.735  29.453  30.188  1.00  0.00     0.010 A 
ATOM     44  C   UNL A   1      38.657  29.610  29.159  1.00  0.00    -0.014 A 
BRANCH  44  45
ATOM     45  C   UNL A   1      40.054  29.180  29.347  1.00  0.00     0.031 A 
ATOM     46  C   UNL A   1      41.052  30.058  30.030  1.00  0.00     0.074 A 
ATOM     47  C   UNL A   1      40.404  27.955  28.912  1.00  0.00     0.049 A 
ATOM     48  N   UNL A   1      42.283  29.760  30.354  1.00  0.00    -0.248 NA
ATOM     49  C   UNL A   1      40.645  31.426  30.393  1.00  0.00     0.031 C 
ATOM     50  C   UNL A   1      39.511  27.037  28.200  1.00  0.00     0.029 A 
ATOM     51  N   UNL A   1      41.575  27.259  29.029  1.00  0.00    -0.354 N 
ATOM     52  C   UNL A   1      42.790  30.888  30.973  1.00  0.00     0.074 A 
ATOM     53  C   UNL A   1      41.760  31.903  30.927  1.00  0.00     0.031 C 
ATOM     54  C   UNL A   1      40.140  25.871  28.019  1.00  0.00     0.029 A 
ATOM     55  C   UNL A   1      41.502  25.986  28.520  1.00  0.00     0.049 A 
ATOM     56  H   UNL A   1      42.390  27.633  29.438  1.00  0.00     0.167 HD
ATOM     57  C   UNL A   1      44.004  31.049  31.545  1.00  0.00     0.031 A 
ATOM     58  C   UNL A   1      42.424  25.011  28.441  1.00  0.00     0.031 A 
ATOM     59  C   UNL A   1      45.034  30.050  31.554  1.00  0.00     0.049 A 
ATOM     60  C   UNL A   1      43.790  25.264  28.996  1.00  0.00     0.074 A 
ATOM     61  C   UNL A   1      46.289  30.134  32.127  1.00  0.00     0.029 A 
ATOM     62  N   UNL A   1      44.949  28.806  30.952  1.00  0.00    -0.354 N 
ATOM     63  N   UNL A   1      44.232  26.321  29.627  1.00  0.00    -0.248 NA
ATOM     64  C   UNL A   1      44.782  24.194  28.831  1.00  0.00     0.031 C 
ATOM     65  C   UNL A   1      46.999  28.986  31.794  1.00  0.00     0.029 A 
ATOM     66  C   UNL A   1      46.152  28.137  31.104  1.00  0.00     0.049 A 
ATOM     67  H   UNL A   1      44.156  28.451  30.488  1.00  0.00     0.167 HD
ATOM     68  C   UNL A   1      45.542  26.030  29.969  1.00  0.00     0.074 A 
ATOM     69  C   UNL A   1      45.814  24.689  29.495  1.00  0.00     0.031 C 
ATOM     70  C   UNL A   1      46.432  26.812  30.624  1.00  0.00     0.031 A 
BRANCH  57  71
ATOM     71  C   UNL A   1      44.306  32.376  32.172  1.00  0.00    -0.014 A 
ATOM     72  C   UNL A   1      44.044  32.619  33.528  1.00  0.00     0.009 A 
ATOM     73  C   UNL A   1      44.911  33.380  31.401  1.00  0.00     0.009 A 
ATOM     74  C   UNL A   1      44.300  33.875  34.075  1.00  0.00     0.001 A 
ATOM     75  C   UNL A   1      45.235  34.609  31.969  1.00  0.00     0.001 A 
ATOM     76  C   UNL A   1      44.899  34.865  33.297  1.00  0.00     0.000 A 
ENDBRANCH  57  71
BRANCH  58  77
ATOM     77  C   UNL A   1      42.106  23.727  27.768  1.00  0.00    -0.014 A 
ATOM     78  C   UNL A   1      42.363  23.546  26.402  1.00  0.00     0.009 A 
ATOM     79  C   UNL A   1      41.479  22.696  28.486  1.00  0.00     0.009 A 
ATOM     80  C   UNL A   1      41.930  22.389  25.753  1.00  0.00     0.001 A 
ATOM     81  C   UNL A   1      41.116  21.511  27.851  1.00  0.00     0.001 A 
ATOM     82  C   UNL A   1      41.314  21.370  26.480  1.00  0.00     0.000 A 
ENDBRANCH  58  77
BRANCH  70  83
ATOM     83  C   UNL A   1      47.774  26.214  30.930  1.00  0.00    -0.014 A 
ATOM     84  C   UNL A   1      48.805  26.199  29.981  1.00  0.00     0.009 A 
ATOM     85  C   UNL A   1      48.005  25.649  32.194  1.00  0.00     0.009 A 
ATOM     86  C   UNL A   1      49.988  25.511  30.244  1.00  0.00     0.001 A 
ATOM     87  C   UNL A   1      49.222  25.043  32.489  1.00  0.00     0.001 A 
ATOM     88  C   UNL A   1      50.196  24.937  31.498  1.00  0.00     0.000 A 
ENDBRANCH  70  83
ENDBRANCH  44  45
ENDBRANCH  36  39
ENDBRANCH  34  35
ENDBRANCH  33  34
ENDBRANCH   1  33
TORSDOF 15
ENDMDL
