MODEL 1
REMARK VINA RESULT:     -11.8      0.000      0.000
REMARK SMILES O=C(NCCCNC(=O)c1cc(NC(=S)NC(=O)c2ccccc2F)ccc1Cl)c1ccc(-c2c3nc(c(-c4ccccc4)c4ccc([nH]4)c(-c4ccccc4)c4nc(c(-c5ccccc5)c5ccc2[nH]5)C=C4)C=C3)cc1
REMARK SMILES IDX 6 1 5 2 4 3 3 4 1 5 2 6 30 8 31 9 77 10 32 11 76 12 33 13
REMARK SMILES IDX 34 14 35 15 70 16 36 17 75 18 69 19 71 20 37 21 74 22 68 23
REMARK SMILES IDX 67 24 38 26 60 27 45 28 59 29 46 30 49 31 58 32 72 33 47 34
REMARK SMILES IDX 48 35 57 37 73 38 50 39 39 40 40 41 44 42 41 43 43 44 42 45
REMARK SMILES IDX 61 46 62 47 66 48 63 49 65 50 64 51 51 52 52 53 56 54 53 55
REMARK SMILES IDX 55 56 54 57 7 58 8 59 9 61 10 62 11 63 28 64 12 65 27 66
REMARK SMILES IDX 29 67 26 68 13 69 14 71 15 72 16 73 17 74 18 76 19 77 20 78
REMARK SMILES IDX 24 79 21 80 23 81 25 82 22 83
REMARK H PARENT 3 7 71 25 49 36 7 60 13 70 16 75
REMARK Flexibility Score: inf
ROOT
ATOM      1  C   UNL A   1      36.269  20.279  24.652  1.00  0.00     0.118 C 
ENDROOT
BRANCH   1   2
ATOM      2  C   UNL A   1      37.628  19.582  24.653  1.00  0.00     0.042 C 
BRANCH   2   3
ATOM      3  C   UNL A   1      38.625  20.068  25.701  1.00  0.00     0.118 C 
BRANCH   3   4
ATOM      4  N   UNL A   1      39.866  19.310  25.731  1.00  0.00    -0.352 N 
ATOM      5  O   UNL A   1      42.031  18.786  25.887  1.00  0.00    -0.269 OA
ATOM      6  C   UNL A   1      41.153  19.624  26.088  1.00  0.00     0.251 C 
ATOM      7  H   UNL A   1      39.760  18.377  25.433  1.00  0.00     0.163 HD
BRANCH   6   8
ATOM      8  C   UNL A   1      41.539  20.933  26.669  1.00  0.00     0.039 A 
ATOM      9  C   UNL A   1      41.689  21.152  28.038  1.00  0.00     0.014 A 
ATOM     10  C   UNL A   1      41.869  21.968  25.778  1.00  0.00     0.014 A 
ATOM     11  C   UNL A   1      42.031  22.421  28.518  1.00  0.00     0.010 A 
ATOM     12  C   UNL A   1      42.281  23.217  26.255  1.00  0.00     0.010 A 
ATOM     13  C   UNL A   1      42.332  23.467  27.632  1.00  0.00    -0.014 A 
BRANCH  13  14
ATOM     14  C   UNL A   1      42.715  24.806  28.151  1.00  0.00     0.031 A 
ATOM     15  C   UNL A   1      41.670  25.860  28.404  1.00  0.00     0.074 A 
ATOM     16  C   UNL A   1      44.008  25.084  28.404  1.00  0.00     0.049 A 
ATOM     17  N   UNL A   1      41.826  27.088  28.835  1.00  0.00    -0.248 NA
ATOM     18  C   UNL A   1      40.272  25.493  28.131  1.00  0.00     0.031 C 
ATOM     19  C   UNL A   1      45.130  24.169  28.188  1.00  0.00     0.029 A 
ATOM     20  N   UNL A   1      44.593  26.217  28.912  1.00  0.00    -0.354 N 
ATOM     21  C   UNL A   1      40.558  27.649  28.848  1.00  0.00     0.074 A 
ATOM     22  C   UNL A   1      39.640  26.632  28.382  1.00  0.00     0.031 C 
ATOM     23  C   UNL A   1      46.262  24.760  28.602  1.00  0.00     0.029 A 
ATOM     24  C   UNL A   1      45.952  26.105  29.075  1.00  0.00     0.049 A 
ATOM     25  H   UNL A   1      44.088  27.031  29.138  1.00  0.00     0.167 HD
ATOM     26  C   UNL A   1      40.183  28.898  29.215  1.00  0.00     0.031 A 
ATOM     27  C   UNL A   1      46.853  26.985  29.549  1.00  0.00     0.031 A 
ATOM     28  C   UNL A   1      41.071  29.910  29.716  1.00  0.00     0.049 A 
ATOM     29  C   UNL A   1      46.411  28.350  29.983  1.00  0.00     0.074 A 
ATOM     30  C   UNL A   1      40.765  31.190  30.147  1.00  0.00     0.029 A 
ATOM     31  N   UNL A   1      42.439  29.754  29.864  1.00  0.00    -0.354 N 
ATOM     32  N   UNL A   1      45.204  28.859  29.992  1.00  0.00    -0.248 NA
ATOM     33  C   UNL A   1      47.457  29.264  30.464  1.00  0.00     0.031 C 
ATOM     34  C   UNL A   1      41.955  31.815  30.543  1.00  0.00     0.029 A 
ATOM     35  C   UNL A   1      42.994  30.917  30.372  1.00  0.00     0.049 A 
ATOM     36  H   UNL A   1      42.942  28.938  29.640  1.00  0.00     0.167 HD
ATOM     37  C   UNL A   1      45.345  30.153  30.471  1.00  0.00     0.074 A 
ATOM     38  C   UNL A   1      46.752  30.347  30.760  1.00  0.00     0.031 C 
ATOM     39  C   UNL A   1      44.392  31.099  30.646  1.00  0.00     0.031 A 
BRANCH  26  40
ATOM     40  C   UNL A   1      38.733  29.244  29.068  1.00  0.00    -0.014 A 
ATOM     41  C   UNL A   1      37.845  29.108  30.145  1.00  0.00     0.009 A 
ATOM     42  C   UNL A   1      38.255  29.738  27.844  1.00  0.00     0.009 A 
ATOM     43  C   UNL A   1      36.498  29.441  29.993  1.00  0.00     0.001 A 
ATOM     44  C   UNL A   1      36.910  30.081  27.699  1.00  0.00     0.001 A 
ATOM     45  C   UNL A   1      36.032  29.927  28.770  1.00  0.00     0.000 A 
ENDBRANCH  26  40
BRANCH  27  46
ATOM     46  C   UNL A   1      48.279  26.592  29.632  1.00  0.00    -0.014 A 
ATOM     47  C   UNL A   1      49.164  26.923  28.596  1.00  0.00     0.009 A 
ATOM     48  C   UNL A   1      48.764  25.915  30.761  1.00  0.00     0.009 A 
ATOM     49  C   UNL A   1      50.513  26.578  28.687  1.00  0.00     0.001 A 
ATOM     50  C   UNL A   1      50.116  25.583  30.854  1.00  0.00     0.001 A 
ATOM     51  C   UNL A   1      50.989  25.913  29.818  1.00  0.00     0.000 A 
ENDBRANCH  27  46
BRANCH  39  52
ATOM     52  C   UNL A   1      44.842  32.428  31.170  1.00  0.00    -0.014 A 
ATOM     53  C   UNL A   1      45.234  33.444  30.285  1.00  0.00     0.009 A 
ATOM     54  C   UNL A   1      44.845  32.678  32.550  1.00  0.00     0.009 A 
ATOM     55  C   UNL A   1      45.639  34.686  30.777  1.00  0.00     0.001 A 
ATOM     56  C   UNL A   1      45.242  33.924  33.037  1.00  0.00     0.001 A 
ATOM     57  C   UNL A   1      45.642  34.925  32.152  1.00  0.00     0.000 A 
ENDBRANCH  39  52
ENDBRANCH  13  14
ENDBRANCH   6   8
ENDBRANCH   3   4
ENDBRANCH   2   3
ENDBRANCH   1   2
BRANCH   1  58
ATOM     58  N   UNL A   1      35.837  20.757  25.956  1.00  0.00    -0.352 N 
ATOM     59  C   UNL A   1      35.128  21.893  26.336  1.00  0.00     0.252 C 
ATOM     60  H   UNL A   1      36.092  20.173  26.705  1.00  0.00     0.163 HD
ATOM     61  O   UNL A   1      34.587  21.841  27.440  1.00  0.00    -0.269 OA
BRANCH  59  62
ATOM     62  C   UNL A   1      35.020  23.284  25.201  1.00  0.00     0.060 A 
ATOM     63  C   UNL A   1      33.712  23.448  23.612  1.00  0.00     0.041 A 
ATOM     64  C   UNL A   1      35.890  23.895  25.911  1.00  0.00     0.053 A 
ATOM     65  C   UNL A   1      33.054  23.947  22.605  1.00  0.00     0.041 A 
ATOM     66  C   UNL A   1      35.322  24.404  24.887  1.00  0.00     0.023 A 
ATOM     67  Cl  UNL A   1      37.551  23.701  26.168  1.00  0.00    -0.083 Cl
ATOM     68  C   UNL A   1      33.964  24.445  23.358  1.00  0.00     0.028 A 
BRANCH  65  69
ATOM     69  N   UNL A   1      31.649  23.967  22.652  1.00  0.00    -0.332 N 
ATOM     70  H   UNL A   1      31.256  23.774  21.770  1.00  0.00     0.169 HD
BRANCH  69  71
ATOM     71  C   UNL A   1      30.687  24.180  23.586  1.00  0.00     0.177 C 
ATOM     72  S   UNL A   1      30.879  23.378  25.050  1.00  0.00    -0.040 S 
BRANCH  71  73
ATOM     73  N   UNL A   1      29.631  25.060  23.499  1.00  0.00    -0.299 N 
ATOM     74  C   UNL A   1      29.236  26.325  23.959  1.00  0.00     0.260 C 
ATOM     75  H   UNL A   1      28.926  24.679  22.929  1.00  0.00     0.172 HD
ATOM     76  O   UNL A   1      28.072  26.699  23.960  1.00  0.00    -0.269 OA
BRANCH  74  77
ATOM     77  C   UNL A   1      30.299  27.190  24.467  1.00  0.00     0.075 A 
ATOM     78  C   UNL A   1      31.090  26.902  26.296  1.00  0.00     0.017 A 
ATOM     79  C   UNL A   1      31.523  27.847  23.073  1.00  0.00     0.135 A 
ATOM     80  C   UNL A   1      33.017  27.296  26.418  1.00  0.00     0.001 A 
ATOM     81  C   UNL A   1      33.450  28.220  23.197  1.00  0.00     0.040 A 
ATOM     82  F   UNL A   1      31.013  27.899  21.826  1.00  0.00    -0.206 F 
ATOM     83  C   UNL A   1      34.243  27.901  25.005  1.00  0.00     0.003 A 
ENDBRANCH  74  77
ENDBRANCH  71  73
ENDBRANCH  69  71
ENDBRANCH  65  69
ENDBRANCH  59  62
ENDBRANCH   1  58
TORSDOF 14
ENDMDL
MODEL 2
REMARK VINA RESULT:     -11.7      2.474      7.521
REMARK SMILES O=C(NCCCNC(=O)c1cc(NC(=S)NC(=O)c2ccccc2F)ccc1Cl)c1ccc(-c2c3nc(c(-c4ccccc4)c4ccc([nH]4)c(-c4ccccc4)c4nc(c(-c5ccccc5)c5ccc2[nH]5)C=C4)C=C3)cc1
REMARK SMILES IDX 6 1 5 2 4 3 3 4 1 5 2 6 30 8 31 9 77 10 32 11 76 12 33 13
REMARK SMILES IDX 34 14 35 15 70 16 36 17 75 18 69 19 71 20 37 21 74 22 68 23
REMARK SMILES IDX 67 24 38 26 60 27 45 28 59 29 46 30 49 31 58 32 72 33 47 34
REMARK SMILES IDX 48 35 57 37 73 38 50 39 39 40 40 41 44 42 41 43 43 44 42 45
REMARK SMILES IDX 61 46 62 47 66 48 63 49 65 50 64 51 51 52 52 53 56 54 53 55
REMARK SMILES IDX 55 56 54 57 7 58 8 59 9 61 10 62 11 63 28 64 12 65 27 66
REMARK SMILES IDX 29 67 26 68 13 69 14 71 15 72 16 73 17 74 18 76 19 77 20 78
REMARK SMILES IDX 24 79 21 80 23 81 25 82 22 83
REMARK H PARENT 3 7 71 25 49 36 7 60 13 70 16 75
REMARK Flexibility Score: inf
ROOT
ATOM      1  C   UNL A   1      33.470  28.634  24.687  1.00  0.00     0.118 C 
ENDROOT
BRANCH   1   2
ATOM      2  C   UNL A   1      34.409  28.704  25.888  1.00  0.00     0.042 C 
BRANCH   2   3
ATOM      3  C   UNL A   1      33.738  28.779  27.257  1.00  0.00     0.118 C 
BRANCH   3   4
ATOM      4  N   UNL A   1      33.754  30.107  27.851  1.00  0.00    -0.352 N 
ATOM      5  O   UNL A   1      34.374  31.896  29.034  1.00  0.00    -0.269 OA
ATOM      6  C   UNL A   1      34.703  30.819  28.540  1.00  0.00     0.251 C 
ATOM      7  H   UNL A   1      32.907  30.596  27.735  1.00  0.00     0.163 HD
BRANCH   6   8
ATOM      8  C   UNL A   1      36.090  30.336  28.747  1.00  0.00     0.039 A 
ATOM      9  C   UNL A   1      36.513  29.693  29.911  1.00  0.00     0.014 A 
ATOM     10  C   UNL A   1      36.984  30.444  27.670  1.00  0.00     0.014 A 
ATOM     11  C   UNL A   1      37.844  29.286  30.048  1.00  0.00     0.010 A 
ATOM     12  C   UNL A   1      38.297  29.972  27.781  1.00  0.00     0.010 A 
ATOM     13  C   UNL A   1      38.751  29.420  28.985  1.00  0.00    -0.014 A 
BRANCH  13  14
ATOM     14  C   UNL A   1      40.158  28.965  29.133  1.00  0.00     0.031 A 
ATOM     15  C   UNL A   1      40.575  27.594  28.674  1.00  0.00     0.074 A 
ATOM     16  C   UNL A   1      41.076  29.787  29.678  1.00  0.00     0.049 A 
ATOM     17  N   UNL A   1      41.753  27.024  28.745  1.00  0.00    -0.248 NA
ATOM     18  C   UNL A   1      39.535  26.748  28.067  1.00  0.00     0.031 C 
ATOM     19  C   UNL A   1      40.814  31.135  30.185  1.00  0.00     0.029 A 
ATOM     20  N   UNL A   1      42.421  29.608  29.884  1.00  0.00    -0.354 N 
ATOM     21  C   UNL A   1      41.588  25.747  28.229  1.00  0.00     0.074 A 
ATOM     22  C   UNL A   1      40.197  25.621  27.848  1.00  0.00     0.031 C 
ATOM     23  C   UNL A   1      41.969  31.677  30.602  1.00  0.00     0.029 A 
ATOM     24  C   UNL A   1      43.043  30.704  30.427  1.00  0.00     0.049 A 
ATOM     25  H   UNL A   1      42.896  28.774  29.662  1.00  0.00     0.167 HD
ATOM     26  C   UNL A   1      42.507  24.763  28.080  1.00  0.00     0.031 A 
ATOM     27  C   UNL A   1      44.332  30.908  30.756  1.00  0.00     0.031 A 
ATOM     28  C   UNL A   1      43.899  24.880  28.415  1.00  0.00     0.049 A 
ATOM     29  C   UNL A   1      45.339  29.818  30.550  1.00  0.00     0.074 A 
ATOM     30  C   UNL A   1      44.906  23.942  28.260  1.00  0.00     0.029 A 
ATOM     31  N   UNL A   1      44.484  26.008  28.965  1.00  0.00    -0.354 N 
ATOM     32  N   UNL A   1      45.163  28.618  30.055  1.00  0.00    -0.248 NA
ATOM     33  C   UNL A   1      46.722  30.108  30.957  1.00  0.00     0.031 C 
ATOM     34  C   UNL A   1      46.102  24.500  28.731  1.00  0.00     0.029 A 
ATOM     35  C   UNL A   1      45.837  25.788  29.163  1.00  0.00     0.049 A 
ATOM     36  H   UNL A   1      44.009  26.842  29.183  1.00  0.00     0.167 HD
ATOM     37  C   UNL A   1      46.407  28.008  30.097  1.00  0.00     0.074 A 
ATOM     38  C   UNL A   1      47.336  28.973  30.648  1.00  0.00     0.031 C 
ATOM     39  C   UNL A   1      46.746  26.752  29.719  1.00  0.00     0.031 A 
BRANCH  26  40
ATOM     40  C   UNL A   1      42.021  23.453  27.539  1.00  0.00    -0.014 A 
ATOM     41  C   UNL A   1      42.115  23.157  26.172  1.00  0.00     0.009 A 
ATOM     42  C   UNL A   1      41.487  22.494  28.414  1.00  0.00     0.009 A 
ATOM     43  C   UNL A   1      41.662  21.930  25.685  1.00  0.00     0.001 A 
ATOM     44  C   UNL A   1      41.047  21.263  27.926  1.00  0.00     0.001 A 
ATOM     45  C   UNL A   1      41.129  20.983  26.562  1.00  0.00     0.000 A 
ENDBRANCH  26  40
BRANCH  27  46
ATOM     46  C   UNL A   1      44.739  32.215  31.323  1.00  0.00    -0.014 A 
ATOM     47  C   UNL A   1      45.137  33.259  30.475  1.00  0.00     0.009 A 
ATOM     48  C   UNL A   1      44.700  32.433  32.708  1.00  0.00     0.009 A 
ATOM     49  C   UNL A   1      45.494  34.499  31.006  1.00  0.00     0.001 A 
ATOM     50  C   UNL A   1      45.045  33.677  33.235  1.00  0.00     0.001 A 
ATOM     51  C   UNL A   1      45.443  34.709  32.385  1.00  0.00     0.000 A 
ENDBRANCH  27  46
BRANCH  39  52
ATOM     52  C   UNL A   1      48.178  26.353  29.895  1.00  0.00    -0.014 A 
ATOM     53  C   UNL A   1      49.112  26.588  28.875  1.00  0.00     0.009 A 
ATOM     54  C   UNL A   1      48.605  25.768  31.096  1.00  0.00     0.009 A 
ATOM     55  C   UNL A   1      50.449  26.227  29.048  1.00  0.00     0.001 A 
ATOM     56  C   UNL A   1      49.944  25.416  31.269  1.00  0.00     0.001 A 
ATOM     57  C   UNL A   1      50.864  25.642  30.245  1.00  0.00     0.000 A 
ENDBRANCH  39  52
ENDBRANCH  13  14
ENDBRANCH   6   8
ENDBRANCH   3   4
ENDBRANCH   2   3
ENDBRANCH   1   2
BRANCH   1  58
ATOM     58  N   UNL A   1      32.522  29.734  24.600  1.00  0.00    -0.352 N 
ATOM     59  C   UNL A   1      31.137  29.752  24.456  1.00  0.00     0.252 C 
ATOM     60  H   UNL A   1      32.932  30.627  24.654  1.00  0.00     0.163 HD
ATOM     61  O   UNL A   1      30.578  30.795  24.791  1.00  0.00    -0.269 OA
BRANCH  59  62
ATOM     62  C   UNL A   1      30.296  28.280  23.855  1.00  0.00     0.060 A 
ATOM     63  C   UNL A   1      30.563  26.361  24.566  1.00  0.00     0.041 A 
ATOM     64  C   UNL A   1      29.598  29.027  23.087  1.00  0.00     0.053 A 
ATOM     65  C   UNL A   1      30.399  25.082  24.752  1.00  0.00     0.041 A 
ATOM     66  C   UNL A   1      29.446  27.763  23.182  1.00  0.00     0.023 A 
ATOM     67  Cl  UNL A   1      29.928  29.914  21.684  1.00  0.00    -0.083 Cl
ATOM     68  C   UNL A   1      29.794  25.916  23.991  1.00  0.00     0.028 A 
BRANCH  65  69
ATOM     69  N   UNL A   1      30.149  24.609  26.053  1.00  0.00    -0.332 N 
ATOM     70  H   UNL A   1      29.534  25.203  26.540  1.00  0.00     0.169 HD
BRANCH  69  71
ATOM     71  C   UNL A   1      30.527  23.553  26.818  1.00  0.00     0.177 C 
ATOM     72  S   UNL A   1      29.415  22.302  26.963  1.00  0.00    -0.040 S 
BRANCH  71  73
ATOM     73  N   UNL A   1      31.759  23.353  27.399  1.00  0.00    -0.299 N 
ATOM     74  C   UNL A   1      33.044  22.890  27.080  1.00  0.00     0.260 C 
ATOM     75  H   UNL A   1      31.729  23.624  28.345  1.00  0.00     0.172 HD
ATOM     76  O   UNL A   1      33.851  22.532  27.926  1.00  0.00    -0.269 OA
BRANCH  74  77
ATOM     77  C   UNL A   1      33.378  22.835  25.658  1.00  0.00     0.075 A 
ATOM     78  C   UNL A   1      32.350  21.652  24.394  1.00  0.00     0.017 A 
ATOM     79  C   UNL A   1      34.036  24.540  24.930  1.00  0.00     0.135 A 
ATOM     80  C   UNL A   1      32.120  22.404  22.587  1.00  0.00     0.001 A 
ATOM     81  C   UNL A   1      33.785  25.293  23.131  1.00  0.00     0.040 A 
ATOM     82  F   UNL A   1      34.596  25.379  25.824  1.00  0.00    -0.206 F 
ATOM     83  C   UNL A   1      32.734  24.134  21.884  1.00  0.00     0.003 A 
ENDBRANCH  74  77
ENDBRANCH  71  73
ENDBRANCH  69  71
ENDBRANCH  65  69
ENDBRANCH  59  62
ENDBRANCH   1  58
TORSDOF 14
ENDMDL
MODEL 3
REMARK VINA RESULT:     -11.6      1.821      2.460
REMARK SMILES O=C(NCCCNC(=O)c1cc(NC(=S)NC(=O)c2ccccc2F)ccc1Cl)c1ccc(-c2c3nc(c(-c4ccccc4)c4ccc([nH]4)c(-c4ccccc4)c4nc(c(-c5ccccc5)c5ccc2[nH]5)C=C4)C=C3)cc1
REMARK SMILES IDX 6 1 5 2 4 3 3 4 1 5 2 6 30 8 31 9 77 10 32 11 76 12 33 13
REMARK SMILES IDX 34 14 35 15 70 16 36 17 75 18 69 19 71 20 37 21 74 22 68 23
REMARK SMILES IDX 67 24 38 26 60 27 45 28 59 29 46 30 49 31 58 32 72 33 47 34
REMARK SMILES IDX 48 35 57 37 73 38 50 39 39 40 40 41 44 42 41 43 43 44 42 45
REMARK SMILES IDX 61 46 62 47 66 48 63 49 65 50 64 51 51 52 52 53 56 54 53 55
REMARK SMILES IDX 55 56 54 57 7 58 8 59 9 61 10 62 11 63 28 64 12 65 27 66
REMARK SMILES IDX 29 67 26 68 13 69 14 71 15 72 16 73 17 74 18 76 19 77 20 78
REMARK SMILES IDX 24 79 21 80 23 81 25 82 22 83
REMARK H PARENT 3 7 71 25 49 36 7 60 13 70 16 75
REMARK Flexibility Score: inf
ROOT
ATOM      1  C   UNL A   1      36.845  21.665  24.760  1.00  0.00     0.118 C 
ENDROOT
BRANCH   1   2
ATOM      2  C   UNL A   1      38.241  21.061  24.885  1.00  0.00     0.042 C 
BRANCH   2   3
ATOM      3  C   UNL A   1      38.384  19.914  25.882  1.00  0.00     0.118 C 
BRANCH   3   4
ATOM      4  N   UNL A   1      39.648  19.201  25.786  1.00  0.00    -0.352 N 
ATOM      5  O   UNL A   1      41.835  18.752  25.742  1.00  0.00    -0.269 OA
ATOM      6  C   UNL A   1      40.949  19.552  26.041  1.00  0.00     0.251 C 
ATOM      7  H   UNL A   1      39.549  18.273  25.471  1.00  0.00     0.163 HD
BRANCH   6   8
ATOM      8  C   UNL A   1      41.339  20.859  26.625  1.00  0.00     0.039 A 
ATOM      9  C   UNL A   1      41.284  21.137  27.991  1.00  0.00     0.014 A 
ATOM     10  C   UNL A   1      41.887  21.820  25.760  1.00  0.00     0.014 A 
ATOM     11  C   UNL A   1      41.643  22.401  28.469  1.00  0.00     0.010 A 
ATOM     12  C   UNL A   1      42.314  23.059  26.248  1.00  0.00     0.010 A 
ATOM     13  C   UNL A   1      42.163  23.377  27.603  1.00  0.00    -0.014 A 
BRANCH  13  14
ATOM     14  C   UNL A   1      42.563  24.710  28.124  1.00  0.00     0.031 A 
ATOM     15  C   UNL A   1      41.533  25.783  28.359  1.00  0.00     0.074 A 
ATOM     16  C   UNL A   1      43.857  24.966  28.397  1.00  0.00     0.049 A 
ATOM     17  N   UNL A   1      41.705  27.009  28.789  1.00  0.00    -0.248 NA
ATOM     18  C   UNL A   1      40.133  25.441  28.065  1.00  0.00     0.031 C 
ATOM     19  C   UNL A   1      44.966  24.030  28.201  1.00  0.00     0.029 A 
ATOM     20  N   UNL A   1      44.454  26.089  28.910  1.00  0.00    -0.354 N 
ATOM     21  C   UNL A   1      40.446  27.593  28.781  1.00  0.00     0.074 A 
ATOM     22  C   UNL A   1      39.518  26.591  28.303  1.00  0.00     0.031 C 
ATOM     23  C   UNL A   1      46.101  24.602  28.630  1.00  0.00     0.029 A 
ATOM     24  C   UNL A   1      45.807  25.954  29.095  1.00  0.00     0.049 A 
ATOM     25  H   UNL A   1      43.960  26.913  29.126  1.00  0.00     0.167 HD
ATOM     26  C   UNL A   1      40.088  28.849  29.139  1.00  0.00     0.031 A 
ATOM     27  C   UNL A   1      46.717  26.819  29.580  1.00  0.00     0.031 A 
ATOM     28  C   UNL A   1      40.986  29.847  29.651  1.00  0.00     0.049 A 
ATOM     29  C   UNL A   1      46.293  28.193  30.004  1.00  0.00     0.074 A 
ATOM     30  C   UNL A   1      40.697  31.134  30.073  1.00  0.00     0.029 A 
ATOM     31  N   UNL A   1      42.348  29.667  29.820  1.00  0.00    -0.354 N 
ATOM     32  N   UNL A   1      45.095  28.724  29.993  1.00  0.00    -0.248 NA
ATOM     33  C   UNL A   1      47.348  29.090  30.498  1.00  0.00     0.031 C 
ATOM     34  C   UNL A   1      41.892  31.739  30.486  1.00  0.00     0.029 A 
ATOM     35  C   UNL A   1      42.916  30.821  30.334  1.00  0.00     0.049 A 
ATOM     36  H   UNL A   1      42.840  28.841  29.606  1.00  0.00     0.167 HD
ATOM     37  C   UNL A   1      45.252  30.016  30.470  1.00  0.00     0.074 A 
ATOM     38  C   UNL A   1      46.657  30.186  30.781  1.00  0.00     0.031 C 
ATOM     39  C   UNL A   1      44.314  30.980  30.629  1.00  0.00     0.031 A 
BRANCH  26  40
ATOM     40  C   UNL A   1      38.647  29.221  28.969  1.00  0.00    -0.014 A 
ATOM     41  C   UNL A   1      38.165  29.701  27.742  1.00  0.00     0.009 A 
ATOM     42  C   UNL A   1      37.756  29.064  30.042  1.00  0.00     0.009 A 
ATOM     43  C   UNL A   1      36.818  30.038  27.599  1.00  0.00     0.001 A 
ATOM     44  C   UNL A   1      36.407  29.390  29.892  1.00  0.00     0.001 A 
ATOM     45  C   UNL A   1      35.940  29.881  28.674  1.00  0.00     0.000 A 
ENDBRANCH  26  40
BRANCH  27  46
ATOM     46  C   UNL A   1      48.134  26.401  29.686  1.00  0.00    -0.014 A 
ATOM     47  C   UNL A   1      49.017  26.622  28.620  1.00  0.00     0.009 A 
ATOM     48  C   UNL A   1      48.614  25.811  30.865  1.00  0.00     0.009 A 
ATOM     49  C   UNL A   1      50.359  26.254  28.730  1.00  0.00     0.001 A 
ATOM     50  C   UNL A   1      49.959  25.456  30.976  1.00  0.00     0.001 A 
ATOM     51  C   UNL A   1      50.830  25.676  29.910  1.00  0.00     0.000 A 
ENDBRANCH  27  46
BRANCH  39  52
ATOM     52  C   UNL A   1      44.779  32.301  31.155  1.00  0.00    -0.014 A 
ATOM     53  C   UNL A   1      44.804  32.546  32.536  1.00  0.00     0.009 A 
ATOM     54  C   UNL A   1      45.222  33.296  30.272  1.00  0.00     0.009 A 
ATOM     55  C   UNL A   1      45.252  33.776  33.024  1.00  0.00     0.001 A 
ATOM     56  C   UNL A   1      45.677  34.520  30.764  1.00  0.00     0.001 A 
ATOM     57  C   UNL A   1      45.688  34.761  32.138  1.00  0.00     0.000 A 
ENDBRANCH  39  52
ENDBRANCH  13  14
ENDBRANCH   6   8
ENDBRANCH   3   4
ENDBRANCH   2   3
ENDBRANCH   1   2
BRANCH   1  58
ATOM     58  N   UNL A   1      36.025  21.539  25.955  1.00  0.00    -0.352 N 
ATOM     59  C   UNL A   1      34.647  21.606  26.142  1.00  0.00     0.252 C 
ATOM     60  H   UNL A   1      36.536  21.376  26.780  1.00  0.00     0.163 HD
ATOM     61  O   UNL A   1      34.222  21.092  27.176  1.00  0.00    -0.269 OA
BRANCH  59  62
ATOM     62  C   UNL A   1      33.623  22.372  24.877  1.00  0.00     0.060 A 
ATOM     63  C   UNL A   1      33.314  24.399  24.637  1.00  0.00     0.041 A 
ATOM     64  C   UNL A   1      33.436  21.214  24.369  1.00  0.00     0.053 A 
ATOM     65  C   UNL A   1      32.926  25.534  24.130  1.00  0.00     0.041 A 
ATOM     66  C   UNL A   1      32.973  22.295  23.870  1.00  0.00     0.023 A 
ATOM     67  Cl  UNL A   1      32.556  19.847  24.837  1.00  0.00    -0.083 Cl
ATOM     68  C   UNL A   1      32.765  24.326  23.735  1.00  0.00     0.028 A 
BRANCH  65  69
ATOM     69  N   UNL A   1      33.889  26.519  23.848  1.00  0.00    -0.332 N 
ATOM     70  H   UNL A   1      34.758  26.118  23.614  1.00  0.00     0.169 HD
BRANCH  69  71
ATOM     71  C   UNL A   1      33.945  27.875  23.809  1.00  0.00     0.177 C 
ATOM     72  S   UNL A   1      34.010  28.575  22.284  1.00  0.00    -0.040 S 
BRANCH  71  73
ATOM     73  N   UNL A   1      33.848  28.736  24.880  1.00  0.00    -0.299 N 
ATOM     74  C   UNL A   1      32.889  29.456  25.606  1.00  0.00     0.260 C 
ATOM     75  H   UNL A   1      34.742  28.899  25.258  1.00  0.00     0.172 HD
ATOM     76  O   UNL A   1      33.171  30.405  26.324  1.00  0.00    -0.269 OA
BRANCH  74  77
ATOM     77  C   UNL A   1      31.501  29.024  25.451  1.00  0.00     0.075 A 
ATOM     78  C   UNL A   1      30.451  29.477  23.794  1.00  0.00     0.017 A 
ATOM     79  C   UNL A   1      31.109  27.291  26.296  1.00  0.00     0.135 A 
ATOM     80  C   UNL A   1      29.183  28.077  23.230  1.00  0.00     0.001 A 
ATOM     81  C   UNL A   1      29.856  25.890  25.716  1.00  0.00     0.040 A 
ATOM     82  F   UNL A   1      31.917  26.943  27.317  1.00  0.00    -0.206 F 
ATOM     83  C   UNL A   1      28.837  26.324  24.051  1.00  0.00     0.003 A 
ENDBRANCH  74  77
ENDBRANCH  71  73
ENDBRANCH  69  71
ENDBRANCH  65  69
ENDBRANCH  59  62
ENDBRANCH   1  58
TORSDOF 14
ENDMDL
