MODEL 1
REMARK VINA RESULT:     -10.7      0.000      0.000
REMARK SMILES O=C(CSc1nnnn1C1CC1)N[C@H](CO)C(=O)NCCCNC(=O)c1ccc(-c2c3nc(c(-c4ccccc4)c4ccc([nH]4)c(-c4ccccc4)c4nc(c(-c5ccccc5)c5ccc2[nH]5)C=C4)C=C3)cc1
REMARK SMILES IDX 17 1 18 2 19 3 14 5 13 6 1 7 2 8 3 10 4 11 5 12 6 13 9 14
REMARK SMILES IDX 7 15 8 16 10 17 11 18 12 19 15 20 16 21 20 23 21 24 22 25
REMARK SMILES IDX 23 26 24 27 25 29 26 30 27 31 73 32 28 33 72 34 29 35 30 36
REMARK SMILES IDX 31 37 66 38 32 39 71 40 65 41 67 42 33 43 70 44 64 45 63 46
REMARK SMILES IDX 34 48 56 49 41 50 55 51 42 52 45 53 54 54 68 55 43 56 44 57
REMARK SMILES IDX 53 59 69 60 46 61 35 62 36 63 40 64 37 65 39 66 38 67 57 68
REMARK SMILES IDX 58 69 62 70 59 71 61 72 60 73 47 74 48 75 52 76 49 77 51 78
REMARK SMILES IDX 50 79
REMARK H PARENT 19 4 13 9 16 22 23 28 67 47 45 58
REMARK Flexibility Score: inf
ROOT
ATOM      1  C   UNL A   1      34.819  21.584  26.131  1.00  0.00     0.244 C 
ATOM      2  O   UNL A   1      34.260  21.425  27.224  1.00  0.00    -0.273 OA
ATOM      3  N   UNL A   1      36.120  21.992  26.167  1.00  0.00    -0.354 N 
ATOM      4  H   UNL A   1      36.430  22.353  27.027  1.00  0.00     0.163 HD
ENDROOT
BRANCH   1   5
ATOM      5  C   UNL A   1      34.080  21.187  24.834  1.00  0.00     0.197 C 
BRANCH   5   6
ATOM      6  N   UNL A   1      33.293  22.311  24.303  1.00  0.00    -0.342 N 
ATOM      7  O   UNL A   1      34.718  22.990  22.659  1.00  0.00    -0.274 OA
ATOM      8  C   UNL A   1      33.620  23.059  23.205  1.00  0.00     0.231 C 
ATOM      9  H   UNL A   1      32.461  22.544  24.777  1.00  0.00     0.164 HD
BRANCH   8  10
ATOM     10  C   UNL A   1      32.601  24.040  22.667  1.00  0.00     0.178 C 
BRANCH  10  11
ATOM     11  S   UNL A   1      32.313  25.536  23.561  1.00  0.00    -0.075 SA
BRANCH  11  12
ATOM     12  C   UNL A   1      33.370  26.865  23.241  1.00  0.00     0.210 A 
ATOM     13  N   UNL A   1      33.754  26.992  21.980  1.00  0.00    -0.102 NA
ATOM     14  N   UNL A   1      33.690  28.056  23.880  1.00  0.00    -0.217 N 
ATOM     15  N   UNL A   1      34.179  28.271  21.809  1.00  0.00    -0.023 NA
ATOM     16  N   UNL A   1      34.091  28.945  22.938  1.00  0.00    -0.044 NA
BRANCH  14  17
ATOM     17  C   UNL A   1      33.980  28.453  25.245  1.00  0.00     0.112 C 
ATOM     18  C   UNL A   1      33.345  29.455  26.164  1.00  0.00     0.029 C 
ATOM     19  C   UNL A   1      33.057  28.010  26.360  1.00  0.00     0.029 C 
ENDBRANCH  14  17
ENDBRANCH  11  12
ENDBRANCH  10  11
ENDBRANCH   8  10
ENDBRANCH   5   6
BRANCH   5  20
ATOM     20  C   UNL A   1      33.449  19.784  24.808  1.00  0.00     0.191 C 
BRANCH  20  21
ATOM     21  O   UNL A   1      32.312  19.672  25.667  1.00  0.00    -0.394 OA
ATOM     22  H   UNL A   1      32.573  19.889  26.577  1.00  0.00     0.210 HD
ENDBRANCH  20  21
ENDBRANCH   5  20
ENDBRANCH   1   5
BRANCH   3  23
ATOM     23  C   UNL A   1      37.108  21.964  25.104  1.00  0.00     0.117 C 
BRANCH  23  24
ATOM     24  C   UNL A   1      37.934  20.688  25.023  1.00  0.00     0.042 C 
BRANCH  24  25
ATOM     25  C   UNL A   1      39.209  20.744  25.838  1.00  0.00     0.118 C 
BRANCH  25  26
ATOM     26  N   UNL A   1      40.022  19.521  25.779  1.00  0.00    -0.352 N 
ATOM     27  C   UNL A   1      41.381  19.414  25.998  1.00  0.00     0.251 C 
ATOM     28  H   UNL A   1      39.546  18.687  25.559  1.00  0.00     0.163 HD
ATOM     29  O   UNL A   1      42.015  18.423  25.705  1.00  0.00    -0.269 OA
BRANCH  27  30
ATOM     30  C   UNL A   1      42.049  20.589  26.605  1.00  0.00     0.039 A 
ATOM     31  C   UNL A   1      42.542  21.626  25.814  1.00  0.00     0.014 A 
ATOM     32  C   UNL A   1      41.961  20.707  27.986  1.00  0.00     0.014 A 
ATOM     33  C   UNL A   1      42.830  22.850  26.419  1.00  0.00     0.010 A 
ATOM     34  C   UNL A   1      42.090  21.955  28.542  1.00  0.00     0.010 A 
ATOM     35  C   UNL A   1      42.556  23.033  27.781  1.00  0.00    -0.014 A 
BRANCH  35  36
ATOM     36  C   UNL A   1      42.613  24.367  28.395  1.00  0.00     0.031 A 
ATOM     37  C   UNL A   1      41.502  25.319  28.066  1.00  0.00     0.074 A 
ATOM     38  C   UNL A   1      43.437  24.647  29.430  1.00  0.00     0.049 A 
ATOM     39  N   UNL A   1      41.592  26.531  27.619  1.00  0.00    -0.248 NA
ATOM     40  C   UNL A   1      40.115  24.849  28.226  1.00  0.00     0.031 C 
ATOM     41  C   UNL A   1      44.376  23.740  30.104  1.00  0.00     0.029 A 
ATOM     42  N   UNL A   1      43.485  25.761  30.214  1.00  0.00    -0.354 N 
ATOM     43  C   UNL A   1      40.292  27.041  27.592  1.00  0.00     0.074 A 
ATOM     44  C   UNL A   1      39.417  25.927  27.860  1.00  0.00     0.031 C 
ATOM     45  C   UNL A   1      44.668  24.223  31.329  1.00  0.00     0.029 A 
ATOM     46  C   UNL A   1      44.110  25.556  31.437  1.00  0.00     0.049 A 
ATOM     47  H   UNL A   1      43.111  26.630  29.938  1.00  0.00     0.167 HD
ATOM     48  C   UNL A   1      40.035  28.381  27.556  1.00  0.00     0.031 A 
ATOM     49  C   UNL A   1      44.161  26.403  32.488  1.00  0.00     0.031 A 
ATOM     50  C   UNL A   1      41.192  29.143  27.169  1.00  0.00     0.049 A 
ATOM     51  C   UNL A   1      43.877  27.759  31.980  1.00  0.00     0.074 A 
ATOM     52  C   UNL A   1      42.009  29.201  26.058  1.00  0.00     0.029 A 
ATOM     53  N   UNL A   1      41.867  29.803  28.164  1.00  0.00    -0.354 N 
ATOM     54  N   UNL A   1      44.663  28.400  31.165  1.00  0.00    -0.248 NA
ATOM     55  C   UNL A   1      42.520  28.273  32.072  1.00  0.00     0.031 C 
ATOM     56  C   UNL A   1      43.314  29.458  26.577  1.00  0.00     0.029 A 
ATOM     57  C   UNL A   1      43.203  29.583  27.964  1.00  0.00     0.049 A 
ATOM     58  H   UNL A   1      41.466  30.337  28.888  1.00  0.00     0.167 HD
ATOM     59  C   UNL A   1      43.808  29.100  30.329  1.00  0.00     0.074 A 
ATOM     60  C   UNL A   1      42.524  29.102  31.025  1.00  0.00     0.031 C 
ATOM     61  C   UNL A   1      44.152  29.360  29.033  1.00  0.00     0.031 A 
BRANCH  48  62
ATOM     62  C   UNL A   1      38.863  29.041  28.255  1.00  0.00    -0.014 A 
ATOM     63  C   UNL A   1      38.664  28.793  29.629  1.00  0.00     0.009 A 
ATOM     64  C   UNL A   1      37.792  29.641  27.568  1.00  0.00     0.009 A 
ATOM     65  C   UNL A   1      37.433  29.045  30.251  1.00  0.00     0.001 A 
ATOM     66  C   UNL A   1      36.578  29.936  28.196  1.00  0.00     0.001 A 
ATOM     67  C   UNL A   1      36.387  29.607  29.530  1.00  0.00     0.000 A 
ENDBRANCH  48  62
BRANCH  49  68
ATOM     68  C   UNL A   1      44.260  26.081  33.924  1.00  0.00    -0.014 A 
ATOM     69  C   UNL A   1      43.254  25.352  34.572  1.00  0.00     0.009 A 
ATOM     70  C   UNL A   1      45.470  26.290  34.615  1.00  0.00     0.009 A 
ATOM     71  C   UNL A   1      43.463  24.823  35.852  1.00  0.00     0.001 A 
ATOM     72  C   UNL A   1      45.676  25.766  35.895  1.00  0.00     0.001 A 
ATOM     73  C   UNL A   1      44.677  25.019  36.507  1.00  0.00     0.000 A 
ENDBRANCH  49  68
BRANCH  61  74
ATOM     74  C   UNL A   1      45.575  29.094  28.610  1.00  0.00    -0.014 A 
ATOM     75  C   UNL A   1      46.576  30.081  28.653  1.00  0.00     0.009 A 
ATOM     76  C   UNL A   1      45.956  27.775  28.323  1.00  0.00     0.009 A 
ATOM     77  C   UNL A   1      47.912  29.762  28.394  1.00  0.00     0.001 A 
ATOM     78  C   UNL A   1      47.294  27.454  28.083  1.00  0.00     0.001 A 
ATOM     79  C   UNL A   1      48.271  28.447  28.116  1.00  0.00     0.000 A 
ENDBRANCH  61  74
ENDBRANCH  35  36
ENDBRANCH  27  30
ENDBRANCH  25  26
ENDBRANCH  24  25
ENDBRANCH  23  24
ENDBRANCH   3  23
TORSDOF 17
ENDMDL
MODEL 2
REMARK VINA RESULT:     -10.2      4.044      8.998
REMARK SMILES O=C(CSc1nnnn1C1CC1)N[C@H](CO)C(=O)NCCCNC(=O)c1ccc(-c2c3nc(c(-c4ccccc4)c4ccc([nH]4)c(-c4ccccc4)c4nc(c(-c5ccccc5)c5ccc2[nH]5)C=C4)C=C3)cc1
REMARK SMILES IDX 17 1 18 2 19 3 14 5 13 6 1 7 2 8 3 10 4 11 5 12 6 13 9 14
REMARK SMILES IDX 7 15 8 16 10 17 11 18 12 19 15 20 16 21 20 23 21 24 22 25
REMARK SMILES IDX 23 26 24 27 25 29 26 30 27 31 73 32 28 33 72 34 29 35 30 36
REMARK SMILES IDX 31 37 66 38 32 39 71 40 65 41 67 42 33 43 70 44 64 45 63 46
REMARK SMILES IDX 34 48 56 49 41 50 55 51 42 52 45 53 54 54 68 55 43 56 44 57
REMARK SMILES IDX 53 59 69 60 46 61 35 62 36 63 40 64 37 65 39 66 38 67 57 68
REMARK SMILES IDX 58 69 62 70 59 71 61 72 60 73 47 74 48 75 52 76 49 77 51 78
REMARK SMILES IDX 50 79
REMARK H PARENT 19 4 13 9 16 22 23 28 67 47 45 58
REMARK Flexibility Score: inf
ROOT
ATOM      1  C   UNL A   1      32.829  29.124  24.530  1.00  0.00     0.244 C 
ATOM      2  O   UNL A   1      33.327  29.334  23.416  1.00  0.00    -0.273 OA
ATOM      3  N   UNL A   1      33.449  29.710  25.594  1.00  0.00    -0.354 N 
ATOM      4  H   UNL A   1      34.360  30.044  25.426  1.00  0.00     0.163 HD
ENDROOT
BRANCH   1   5
ATOM      5  C   UNL A   1      31.494  28.353  24.634  1.00  0.00     0.197 C 
BRANCH   5   6
ATOM      6  N   UNL A   1      31.720  26.940  24.976  1.00  0.00    -0.342 N 
ATOM      7  O   UNL A   1      31.054  26.998  27.156  1.00  0.00    -0.274 OA
ATOM      8  C   UNL A   1      31.394  26.351  26.168  1.00  0.00     0.231 C 
ATOM      9  H   UNL A   1      32.138  26.370  24.290  1.00  0.00     0.164 HD
BRANCH   8  10
ATOM     10  C   UNL A   1      31.497  24.846  26.285  1.00  0.00     0.178 C 
BRANCH  10  11
ATOM     11  S   UNL A   1      33.092  24.096  26.169  1.00  0.00    -0.075 SA
BRANCH  11  12
ATOM     12  C   UNL A   1      33.671  23.710  24.588  1.00  0.00     0.210 A 
ATOM     13  N   UNL A   1      33.076  24.352  23.594  1.00  0.00    -0.102 NA
ATOM     14  N   UNL A   1      34.826  23.141  24.064  1.00  0.00    -0.217 N 
ATOM     15  N   UNL A   1      33.904  24.295  22.517  1.00  0.00    -0.023 NA
ATOM     16  N   UNL A   1      34.995  23.614  22.804  1.00  0.00    -0.044 NA
BRANCH  14  17
ATOM     17  C   UNL A   1      35.662  22.004  24.397  1.00  0.00     0.112 C 
ATOM     18  C   UNL A   1      37.149  21.802  24.383  1.00  0.00     0.029 C 
ATOM     19  C   UNL A   1      36.462  22.019  25.683  1.00  0.00     0.029 C 
ENDBRANCH  14  17
ENDBRANCH  11  12
ENDBRANCH  10  11
ENDBRANCH   8  10
ENDBRANCH   5   6
BRANCH   5  20
ATOM     20  C   UNL A   1      30.430  28.681  23.572  1.00  0.00     0.191 C 
BRANCH  20  21
ATOM     21  O   UNL A   1      30.327  30.082  23.305  1.00  0.00    -0.394 OA
ATOM     22  H   UNL A   1      30.065  30.215  22.380  1.00  0.00     0.210 HD
ENDBRANCH  20  21
ENDBRANCH   5  20
ENDBRANCH   1   5
BRANCH   3  23
ATOM     23  C   UNL A   1      32.946  29.907  26.941  1.00  0.00     0.117 C 
BRANCH  23  24
ATOM     24  C   UNL A   1      32.279  31.252  27.190  1.00  0.00     0.042 C 
BRANCH  24  25
ATOM     25  C   UNL A   1      33.258  32.404  27.274  1.00  0.00     0.118 C 
BRANCH  25  26
ATOM     26  N   UNL A   1      32.656  33.686  27.664  1.00  0.00    -0.352 N 
ATOM     27  C   UNL A   1      33.075  34.529  28.674  1.00  0.00     0.251 C 
ATOM     28  H   UNL A   1      31.868  33.976  27.150  1.00  0.00     0.163 HD
ATOM     29  O   UNL A   1      32.396  35.446  29.086  1.00  0.00    -0.269 OA
BRANCH  27  30
ATOM     30  C   UNL A   1      34.410  34.254  29.255  1.00  0.00     0.039 A 
ATOM     31  C   UNL A   1      34.549  33.473  30.402  1.00  0.00     0.014 A 
ATOM     32  C   UNL A   1      35.508  34.620  28.488  1.00  0.00     0.014 A 
ATOM     33  C   UNL A   1      35.806  32.948  30.705  1.00  0.00     0.010 A 
ATOM     34  C   UNL A   1      36.697  33.969  28.700  1.00  0.00     0.010 A 
ATOM     35  C   UNL A   1      36.876  33.154  29.823  1.00  0.00    -0.014 A 
BRANCH  35  36
ATOM     36  C   UNL A   1      38.140  32.420  29.977  1.00  0.00     0.031 A 
ATOM     37  C   UNL A   1      38.139  30.971  29.592  1.00  0.00     0.074 A 
ATOM     38  C   UNL A   1      39.319  33.052  30.166  1.00  0.00     0.049 A 
ATOM     39  N   UNL A   1      38.530  29.955  30.293  1.00  0.00    -0.248 NA
ATOM     40  C   UNL A   1      37.607  30.604  28.267  1.00  0.00     0.031 C 
ATOM     41  C   UNL A   1      39.563  34.499  30.249  1.00  0.00     0.029 A 
ATOM     42  N   UNL A   1      40.582  32.539  30.151  1.00  0.00    -0.354 N 
ATOM     43  C   UNL A   1      38.451  28.840  29.456  1.00  0.00     0.074 A 
ATOM     44  C   UNL A   1      37.766  29.279  28.266  1.00  0.00     0.031 C 
ATOM     45  C   UNL A   1      40.860  34.754  29.986  1.00  0.00     0.029 A 
ATOM     46  C   UNL A   1      41.568  33.490  29.925  1.00  0.00     0.049 A 
ATOM     47  H   UNL A   1      40.777  31.583  30.287  1.00  0.00     0.167 HD
ATOM     48  C   UNL A   1      39.136  27.687  29.710  1.00  0.00     0.031 A 
ATOM     49  C   UNL A   1      42.880  33.276  29.685  1.00  0.00     0.031 A 
ATOM     50  C   UNL A   1      39.601  27.623  31.069  1.00  0.00     0.049 A 
ATOM     51  C   UNL A   1      43.205  31.922  30.173  1.00  0.00     0.074 A 
ATOM     52  C   UNL A   1      39.011  27.628  32.316  1.00  0.00     0.029 A 
ATOM     53  N   UNL A   1      40.933  27.876  31.286  1.00  0.00    -0.354 N 
ATOM     54  N   UNL A   1      43.173  31.584  31.429  1.00  0.00    -0.248 NA
ATOM     55  C   UNL A   1      43.205  30.816  29.229  1.00  0.00     0.031 C 
ATOM     56  C   UNL A   1      39.915  28.355  33.147  1.00  0.00     0.029 A 
ATOM     57  C   UNL A   1      41.017  28.711  32.366  1.00  0.00     0.049 A 
ATOM     58  H   UNL A   1      41.687  27.521  30.762  1.00  0.00     0.167 HD
ATOM     59  C   UNL A   1      42.709  30.279  31.430  1.00  0.00     0.074 A 
ATOM     60  C   UNL A   1      42.889  29.816  30.056  1.00  0.00     0.031 C 
ATOM     61  C   UNL A   1      41.963  29.800  32.470  1.00  0.00     0.031 A 
BRANCH  48  62
ATOM     62  C   UNL A   1      39.733  26.800  28.637  1.00  0.00    -0.014 A 
ATOM     63  C   UNL A   1      40.625  27.368  27.703  1.00  0.00     0.009 A 
ATOM     64  C   UNL A   1      39.234  25.522  28.324  1.00  0.00     0.009 A 
ATOM     65  C   UNL A   1      40.920  26.734  26.489  1.00  0.00     0.001 A 
ATOM     66  C   UNL A   1      39.564  24.866  27.133  1.00  0.00     0.001 A 
ATOM     67  C   UNL A   1      40.380  25.487  26.200  1.00  0.00     0.000 A 
ENDBRANCH  48  62
BRANCH  49  68
ATOM     68  C   UNL A   1      43.817  34.099  28.897  1.00  0.00    -0.014 A 
ATOM     69  C   UNL A   1      43.372  34.848  27.799  1.00  0.00     0.009 A 
ATOM     70  C   UNL A   1      45.122  34.337  29.371  1.00  0.00     0.009 A 
ATOM     71  C   UNL A   1      44.192  35.824  27.217  1.00  0.00     0.001 A 
ATOM     72  C   UNL A   1      45.942  35.307  28.787  1.00  0.00     0.001 A 
ATOM     73  C   UNL A   1      45.470  36.061  27.718  1.00  0.00     0.000 A 
ENDBRANCH  49  68
BRANCH  61  74
ATOM     74  C   UNL A   1      41.875  30.637  33.723  1.00  0.00    -0.014 A 
ATOM     75  C   UNL A   1      40.993  31.725  33.847  1.00  0.00     0.009 A 
ATOM     76  C   UNL A   1      42.574  30.216  34.863  1.00  0.00     0.009 A 
ATOM     77  C   UNL A   1      40.832  32.386  35.068  1.00  0.00     0.001 A 
ATOM     78  C   UNL A   1      42.399  30.865  36.088  1.00  0.00     0.001 A 
ATOM     79  C   UNL A   1      41.532  31.950  36.190  1.00  0.00     0.000 A 
ENDBRANCH  61  74
ENDBRANCH  35  36
ENDBRANCH  27  30
ENDBRANCH  25  26
ENDBRANCH  24  25
ENDBRANCH  23  24
ENDBRANCH   3  23
TORSDOF 17
ENDMDL
MODEL 3
REMARK VINA RESULT:     -10.2      2.766      7.566
REMARK SMILES O=C(CSc1nnnn1C1CC1)N[C@H](CO)C(=O)NCCCNC(=O)c1ccc(-c2c3nc(c(-c4ccccc4)c4ccc([nH]4)c(-c4ccccc4)c4nc(c(-c5ccccc5)c5ccc2[nH]5)C=C4)C=C3)cc1
REMARK SMILES IDX 17 1 18 2 19 3 14 5 13 6 1 7 2 8 3 10 4 11 5 12 6 13 9 14
REMARK SMILES IDX 7 15 8 16 10 17 11 18 12 19 15 20 16 21 20 23 21 24 22 25
REMARK SMILES IDX 23 26 24 27 25 29 26 30 27 31 73 32 28 33 72 34 29 35 30 36
REMARK SMILES IDX 31 37 66 38 32 39 71 40 65 41 67 42 33 43 70 44 64 45 63 46
REMARK SMILES IDX 34 48 56 49 41 50 55 51 42 52 45 53 54 54 68 55 43 56 44 57
REMARK SMILES IDX 53 59 69 60 46 61 35 62 36 63 40 64 37 65 39 66 38 67 57 68
REMARK SMILES IDX 58 69 62 70 59 71 61 72 60 73 47 74 48 75 52 76 49 77 51 78
REMARK SMILES IDX 50 79
REMARK H PARENT 19 4 13 9 16 22 23 28 67 47 45 58
REMARK Flexibility Score: inf
ROOT
ATOM      1  C   UNL A   1      33.033  28.359  23.699  1.00  0.00     0.244 C 
ATOM      2  O   UNL A   1      33.436  28.454  22.533  1.00  0.00    -0.273 OA
ATOM      3  N   UNL A   1      33.674  29.123  24.629  1.00  0.00    -0.354 N 
ATOM      4  H   UNL A   1      34.541  29.496  24.350  1.00  0.00     0.163 HD
ENDROOT
BRANCH   1   5
ATOM      5  C   UNL A   1      31.774  27.515  24.003  1.00  0.00     0.197 C 
BRANCH   5   6
ATOM      6  N   UNL A   1      32.124  26.268  24.700  1.00  0.00    -0.342 N 
ATOM      7  O   UNL A   1      31.088  26.677  26.689  1.00  0.00    -0.274 OA
ATOM      8  C   UNL A   1      31.678  25.902  25.941  1.00  0.00     0.231 C 
ATOM      9  H   UNL A   1      32.728  25.644  24.234  1.00  0.00     0.164 HD
BRANCH   8  10
ATOM     10  C   UNL A   1      31.960  24.497  26.427  1.00  0.00     0.178 C 
BRANCH  10  11
ATOM     11  S   UNL A   1      33.560  23.807  26.139  1.00  0.00    -0.075 SA
BRANCH  11  12
ATOM     12  C   UNL A   1      33.925  23.301  24.528  1.00  0.00     0.210 A 
ATOM     13  N   UNL A   1      32.875  23.065  23.757  1.00  0.00    -0.102 NA
ATOM     14  N   UNL A   1      35.030  23.377  23.689  1.00  0.00    -0.217 N 
ATOM     15  N   UNL A   1      33.294  23.124  22.465  1.00  0.00    -0.023 NA
ATOM     16  N   UNL A   1      34.587  23.371  22.407  1.00  0.00    -0.044 NA
BRANCH  14  17
ATOM     17  C   UNL A   1      36.457  23.160  23.834  1.00  0.00     0.112 C 
ATOM     18  C   UNL A   1      37.374  23.217  25.020  1.00  0.00     0.029 C 
ATOM     19  C   UNL A   1      36.953  21.892  24.495  1.00  0.00     0.029 C 
ENDBRANCH  14  17
ENDBRANCH  11  12
ENDBRANCH  10  11
ENDBRANCH   8  10
ENDBRANCH   5   6
BRANCH   5  20
ATOM     20  C   UNL A   1      30.709  27.452  22.894  1.00  0.00     0.191 C 
BRANCH  20  21
ATOM     21  O   UNL A   1      30.784  28.557  21.990  1.00  0.00    -0.394 OA
ATOM     22  H   UNL A   1      31.706  28.854  21.919  1.00  0.00     0.210 HD
ENDBRANCH  20  21
ENDBRANCH   5  20
ENDBRANCH   1   5
BRANCH   3  23
ATOM     23  C   UNL A   1      33.248  29.461  25.975  1.00  0.00     0.117 C 
BRANCH  23  24
ATOM     24  C   UNL A   1      34.185  29.001  27.083  1.00  0.00     0.042 C 
BRANCH  24  25
ATOM     25  C   UNL A   1      35.295  29.987  27.381  1.00  0.00     0.118 C 
BRANCH  25  26
ATOM     26  N   UNL A   1      34.850  31.221  28.043  1.00  0.00    -0.352 N 
ATOM     27  C   UNL A   1      35.252  31.695  29.276  1.00  0.00     0.251 C 
ATOM     28  H   UNL A   1      34.193  31.769  27.556  1.00  0.00     0.163 HD
ATOM     29  O   UNL A   1      34.673  32.590  29.854  1.00  0.00    -0.269 OA
BRANCH  27  30
ATOM     30  C   UNL A   1      36.437  31.045  29.882  1.00  0.00     0.039 A 
ATOM     31  C   UNL A   1      36.377  29.733  30.354  1.00  0.00     0.014 A 
ATOM     32  C   UNL A   1      37.647  31.716  29.754  1.00  0.00     0.014 A 
ATOM     33  C   UNL A   1      37.571  29.048  30.578  1.00  0.00     0.010 A 
ATOM     34  C   UNL A   1      38.807  30.985  29.820  1.00  0.00     0.010 A 
ATOM     35  C   UNL A   1      38.793  29.658  30.262  1.00  0.00    -0.014 A 
BRANCH  35  36
ATOM     36  C   UNL A   1      40.046  28.890  30.251  1.00  0.00     0.031 A 
ATOM     37  C   UNL A   1      40.722  28.667  31.570  1.00  0.00     0.074 A 
ATOM     38  C   UNL A   1      40.432  28.161  29.180  1.00  0.00     0.049 A 
ATOM     39  N   UNL A   1      41.951  28.914  31.892  1.00  0.00    -0.248 NA
ATOM     40  C   UNL A   1      39.917  28.130  32.682  1.00  0.00     0.031 C 
ATOM     41  C   UNL A   1      39.730  27.998  27.900  1.00  0.00     0.029 A 
ATOM     42  N   UNL A   1      41.457  27.268  29.073  1.00  0.00    -0.354 N 
ATOM     43  C   UNL A   1      42.129  28.420  33.186  1.00  0.00     0.074 A 
ATOM     44  C   UNL A   1      40.818  28.059  33.664  1.00  0.00     0.031 C 
ATOM     45  C   UNL A   1      40.167  26.881  27.284  1.00  0.00     0.029 A 
ATOM     46  C   UNL A   1      41.310  26.376  28.018  1.00  0.00     0.049 A 
ATOM     47  H   UNL A   1      42.228  27.256  29.685  1.00  0.00     0.167 HD
ATOM     48  C   UNL A   1      43.365  28.148  33.699  1.00  0.00     0.031 A 
ATOM     49  C   UNL A   1      42.056  25.280  27.757  1.00  0.00     0.031 A 
ATOM     50  C   UNL A   1      44.415  28.771  32.940  1.00  0.00     0.049 A 
ATOM     51  C   UNL A   1      43.338  25.435  28.470  1.00  0.00     0.074 A 
ATOM     52  C   UNL A   1      44.761  30.066  32.612  1.00  0.00     0.029 A 
ATOM     53  N   UNL A   1      45.136  27.967  32.094  1.00  0.00    -0.354 N 
ATOM     54  N   UNL A   1      44.216  26.349  28.178  1.00  0.00    -0.248 NA
ATOM     55  C   UNL A   1      43.497  24.810  29.773  1.00  0.00     0.031 C 
ATOM     56  C   UNL A   1      45.285  29.981  31.287  1.00  0.00     0.029 A 
ATOM     57  C   UNL A   1      45.266  28.636  30.908  1.00  0.00     0.049 A 
ATOM     58  H   UNL A   1      45.495  27.074  32.302  1.00  0.00     0.167 HD
ATOM     59  C   UNL A   1      44.753  26.724  29.400  1.00  0.00     0.074 A 
ATOM     60  C   UNL A   1      44.384  25.647  30.316  1.00  0.00     0.031 C 
ATOM     61  C   UNL A   1      45.193  28.000  29.611  1.00  0.00     0.031 A 
BRANCH  48  62
ATOM     62  C   UNL A   1      43.659  26.999  34.643  1.00  0.00    -0.014 A 
ATOM     63  C   UNL A   1      43.479  25.678  34.182  1.00  0.00     0.009 A 
ATOM     64  C   UNL A   1      43.813  27.159  36.032  1.00  0.00     0.009 A 
ATOM     65  C   UNL A   1      43.363  24.599  35.069  1.00  0.00     0.001 A 
ATOM     66  C   UNL A   1      43.745  26.078  36.917  1.00  0.00     0.001 A 
ATOM     67  C   UNL A   1      43.487  24.802  36.438  1.00  0.00     0.000 A 
ENDBRANCH  48  62
BRANCH  49  68
ATOM     68  C   UNL A   1      41.651  24.033  27.079  1.00  0.00    -0.014 A 
ATOM     69  C   UNL A   1      42.524  23.370  26.207  1.00  0.00     0.009 A 
ATOM     70  C   UNL A   1      40.478  23.361  27.475  1.00  0.00     0.009 A 
ATOM     71  C   UNL A   1      42.250  22.066  25.772  1.00  0.00     0.001 A 
ATOM     72  C   UNL A   1      40.202  22.062  27.037  1.00  0.00     0.001 A 
ATOM     73  C   UNL A   1      41.097  21.410  26.197  1.00  0.00     0.000 A 
ENDBRANCH  49  68
BRANCH  61  74
ATOM     74  C   UNL A   1      45.318  28.913  28.417  1.00  0.00    -0.014 A 
ATOM     75  C   UNL A   1      44.243  29.682  27.935  1.00  0.00     0.009 A 
ATOM     76  C   UNL A   1      46.589  29.134  27.869  1.00  0.00     0.009 A 
ATOM     77  C   UNL A   1      44.431  30.625  26.920  1.00  0.00     0.001 A 
ATOM     78  C   UNL A   1      46.781  30.090  26.868  1.00  0.00     0.001 A 
ATOM     79  C   UNL A   1      45.702  30.832  26.392  1.00  0.00     0.000 A 
ENDBRANCH  61  74
ENDBRANCH  35  36
ENDBRANCH  27  30
ENDBRANCH  25  26
ENDBRANCH  24  25
ENDBRANCH  23  24
ENDBRANCH   3  23
TORSDOF 17
ENDMDL
