MODEL 1
REMARK VINA RESULT:     -12.7      0.000      0.000
REMARK SMILES COc1ccc2c(c1)c(Cc1nc(-c3ccc(C(=O)NCCCNC(=O)c4ccc(-c5c6nc(c(-c7ccccc7)c7ccc([nH]7)c(-c7ccccc7)c7nc(c(-c8ccccc8)c8ccc5[nH]8)C=C7)C=C6)cc4)cc3)cs1)c(C)n2C(=O)c1ccc(Cl)cc1
REMARK SMILES IDX 18 1 19 2 20 3 17 5 14 6 15 7 76 8 16 9 75 10 13 11 11 12
REMARK SMILES IDX 12 13 78 14 77 15 10 16 9 17 3 18 4 19 8 20 5 21 7 22 6 23
REMARK SMILES IDX 81 24 79 25 80 26 2 27 1 28 82 29 83 30 84 31 85 32 90 33
REMARK SMILES IDX 86 34 89 35 87 36 88 37 21 38 22 39 23 40 24 41 25 42 26 44
REMARK SMILES IDX 27 45 28 46 74 47 29 48 73 49 30 50 31 51 32 52 67 53 33 54
REMARK SMILES IDX 72 55 66 56 68 57 34 58 71 59 65 60 64 61 35 63 57 64 42 65
REMARK SMILES IDX 56 66 43 67 46 68 55 69 69 70 44 71 45 72 54 74 70 75 47 76
REMARK SMILES IDX 36 77 37 78 41 79 38 80 40 81 39 82 58 83 59 84 63 85 60 86
REMARK SMILES IDX 62 87 61 88 48 89 49 90 53 91 50 92 52 93 51 94
REMARK H PARENT 20 4 24 43 68 62 46 73
REMARK Flexibility Score: inf
ROOT
ATOM      1  C   UNL A   1      41.151  23.460  27.760  1.00  0.00     0.251 C 
ATOM      2  O   UNL A   1      41.322  24.498  28.402  1.00  0.00    -0.269 OA
ATOM      3  N   UNL A   1      42.173  22.542  27.753  1.00  0.00    -0.352 N 
ATOM      4  H   UNL A   1      42.961  22.828  28.269  1.00  0.00     0.163 HD
ENDROOT
BRANCH   1   5
ATOM      5  C   UNL A   1      39.894  23.299  26.980  1.00  0.00     0.039 A 
ATOM      6  C   UNL A   1      37.460  22.750  25.654  1.00  0.00     0.001 A 
ATOM      7  C   UNL A   1      38.448  21.765  25.756  1.00  0.00     0.011 A 
ATOM      8  C   UNL A   1      37.754  24.040  26.117  1.00  0.00     0.011 A 
ATOM      9  C   UNL A   1      39.649  22.037  26.419  1.00  0.00     0.014 A 
ATOM     10  C   UNL A   1      38.974  24.321  26.743  1.00  0.00     0.014 A 
BRANCH   6  11
ATOM     11  C   UNL A   1      36.158  22.477  25.058  1.00  0.00     0.081 A 
ATOM     12  C   UNL A   1      34.386  22.978  23.826  1.00  0.00     0.098 A 
ATOM     13  N   UNL A   1      35.478  23.465  24.377  1.00  0.00    -0.241 NA
ATOM     14  S   UNL A   1      34.019  21.354  24.249  1.00  0.00    -0.126 S 
ATOM     15  C   UNL A   1      35.484  21.274  25.141  1.00  0.00     0.095 A 
BRANCH  12  16
ATOM     16  C   UNL A   1      33.518  23.748  22.874  1.00  0.00     0.105 C 
BRANCH  16  17
ATOM     17  C   UNL A   1      32.757  24.843  23.581  1.00  0.00    -0.012 A 
ATOM     18  C   UNL A   1      30.274  23.561  26.193  1.00  0.00     0.119 A 
ATOM     19  C   UNL A   1      29.721  24.794  26.486  1.00  0.00     0.048 A 
ATOM     20  C   UNL A   1      31.286  23.483  25.238  1.00  0.00     0.057 A 
ATOM     21  C   UNL A   1      30.183  25.958  25.855  1.00  0.00     0.031 A 
ATOM     22  C   UNL A   1      31.783  24.642  24.597  1.00  0.00     0.008 A 
ATOM     23  C   UNL A   1      31.262  25.890  24.945  1.00  0.00     0.057 A 
ATOM     24  N   UNL A   1      31.989  26.877  24.248  1.00  0.00    -0.280 N 
ATOM     25  C   UNL A   1      32.863  26.213  23.368  1.00  0.00     0.028 A 
ATOM     26  C   UNL A   1      33.784  26.866  22.385  1.00  0.00     0.065 C 
BRANCH  18  27
ATOM     27  O   UNL A   1      29.928  22.366  26.761  1.00  0.00    -0.497 OA
ATOM     28  C   UNL A   1      28.799  22.377  27.625  1.00  0.00     0.278 C 
ENDBRANCH  18  27
BRANCH  24  29
ATOM     29  C   UNL A   1      31.852  28.290  24.404  1.00  0.00     0.262 C 
ATOM     30  O   UNL A   1      32.706  28.917  25.012  1.00  0.00    -0.268 OA
BRANCH  29  31
ATOM     31  C   UNL A   1      30.750  29.102  23.853  1.00  0.00     0.040 A 
ATOM     32  C   UNL A   1      29.986  28.647  22.772  1.00  0.00     0.015 A 
ATOM     33  C   UNL A   1      30.501  30.351  24.432  1.00  0.00     0.015 A 
ATOM     34  C   UNL A   1      29.018  29.490  22.218  1.00  0.00     0.021 A 
ATOM     35  C   UNL A   1      29.529  31.186  23.878  1.00  0.00     0.021 A 
ATOM     36  C   UNL A   1      28.805  30.759  22.764  1.00  0.00     0.041 A 
ATOM     37  Cl  UNL A   1      27.653  31.815  22.045  1.00  0.00    -0.084 Cl
ENDBRANCH  29  31
ENDBRANCH  24  29
ENDBRANCH  16  17
ENDBRANCH  12  16
ENDBRANCH   6  11
ENDBRANCH   1   5
BRANCH   3  38
ATOM     38  C   UNL A   1      42.326  21.237  27.138  1.00  0.00     0.118 C 
BRANCH  38  39
ATOM     39  C   UNL A   1      43.262  21.208  25.936  1.00  0.00     0.042 C 
BRANCH  39  40
ATOM     40  C   UNL A   1      43.047  22.289  24.877  1.00  0.00     0.118 C 
BRANCH  40  41
ATOM     41  N   UNL A   1      44.197  23.119  24.577  1.00  0.00    -0.352 N 
ATOM     42  C   UNL A   1      44.652  24.345  24.976  1.00  0.00     0.251 C 
ATOM     43  H   UNL A   1      44.799  22.697  23.922  1.00  0.00     0.163 HD
ATOM     44  O   UNL A   1      45.800  24.632  24.625  1.00  0.00    -0.269 OA
BRANCH  42  45
ATOM     45  C   UNL A   1      43.871  25.365  25.732  1.00  0.00     0.039 A 
ATOM     46  C   UNL A   1      42.751  26.048  25.264  1.00  0.00     0.014 A 
ATOM     47  C   UNL A   1      44.361  25.697  27.011  1.00  0.00     0.014 A 
ATOM     48  C   UNL A   1      42.208  27.107  25.993  1.00  0.00     0.010 A 
ATOM     49  C   UNL A   1      43.798  26.728  27.762  1.00  0.00     0.010 A 
ATOM     50  C   UNL A   1      42.749  27.472  27.230  1.00  0.00    -0.014 A 
BRANCH  50  51
ATOM     51  C   UNL A   1      42.140  28.597  27.945  1.00  0.00     0.031 A 
ATOM     52  C   UNL A   1      42.877  29.898  27.915  1.00  0.00     0.074 A 
ATOM     53  C   UNL A   1      40.911  28.567  28.499  1.00  0.00     0.049 A 
ATOM     54  N   UNL A   1      43.253  30.636  28.910  1.00  0.00    -0.248 NA
ATOM     55  C   UNL A   1      43.254  30.431  26.596  1.00  0.00     0.031 C 
ATOM     56  C   UNL A   1      39.881  27.536  28.360  1.00  0.00     0.029 A 
ATOM     57  N   UNL A   1      40.281  29.543  29.219  1.00  0.00    -0.354 N 
ATOM     58  C   UNL A   1      43.807  31.791  28.354  1.00  0.00     0.074 A 
ATOM     59  C   UNL A   1      43.844  31.578  26.928  1.00  0.00     0.031 C 
ATOM     60  C   UNL A   1      38.693  28.043  28.760  1.00  0.00     0.029 A 
ATOM     61  C   UNL A   1      38.910  29.369  29.314  1.00  0.00     0.049 A 
ATOM     62  H   UNL A   1      40.757  30.299  29.632  1.00  0.00     0.167 HD
ATOM     63  C   UNL A   1      44.085  32.908  29.084  1.00  0.00     0.031 A 
ATOM     64  C   UNL A   1      38.008  30.284  29.741  1.00  0.00     0.031 A 
ATOM     65  C   UNL A   1      44.141  32.647  30.493  1.00  0.00     0.049 A 
ATOM     66  C   UNL A   1      38.719  31.308  30.534  1.00  0.00     0.074 A 
ATOM     67  C   UNL A   1      44.922  31.854  31.308  1.00  0.00     0.029 A 
ATOM     68  N   UNL A   1      43.084  33.049  31.272  1.00  0.00    -0.354 N 
ATOM     69  N   UNL A   1      39.247  31.095  31.704  1.00  0.00    -0.248 NA
ATOM     70  C   UNL A   1      39.138  32.534  29.875  1.00  0.00     0.031 C 
ATOM     71  C   UNL A   1      44.054  31.430  32.355  1.00  0.00     0.029 A 
ATOM     72  C   UNL A   1      42.806  32.010  32.122  1.00  0.00     0.049 A 
ATOM     73  H   UNL A   1      42.616  33.914  31.227  1.00  0.00     0.167 HD
ATOM     74  C   UNL A   1      40.360  31.919  31.746  1.00  0.00     0.074 A 
ATOM     75  C   UNL A   1      40.161  32.874  30.660  1.00  0.00     0.031 C 
ATOM     76  C   UNL A   1      41.469  31.578  32.468  1.00  0.00     0.031 A 
BRANCH  63  77
ATOM     77  C   UNL A   1      44.059  34.313  28.535  1.00  0.00    -0.014 A 
ATOM     78  C   UNL A   1      45.153  34.894  27.866  1.00  0.00     0.009 A 
ATOM     79  C   UNL A   1      42.833  35.000  28.453  1.00  0.00     0.009 A 
ATOM     80  C   UNL A   1      45.036  36.098  27.162  1.00  0.00     0.001 A 
ATOM     81  C   UNL A   1      42.701  36.181  27.711  1.00  0.00     0.001 A 
ATOM     82  C   UNL A   1      43.803  36.729  27.065  1.00  0.00     0.000 A 
ENDBRANCH  63  77
BRANCH  64  83
ATOM     83  C   UNL A   1      36.632  30.503  29.245  1.00  0.00    -0.014 A 
ATOM     84  C   UNL A   1      36.209  29.911  28.041  1.00  0.00     0.009 A 
ATOM     85  C   UNL A   1      35.830  31.516  29.794  1.00  0.00     0.009 A 
ATOM     86  C   UNL A   1      35.051  30.342  27.387  1.00  0.00     0.001 A 
ATOM     87  C   UNL A   1      34.675  31.955  29.134  1.00  0.00     0.001 A 
ATOM     88  C   UNL A   1      34.295  31.378  27.924  1.00  0.00     0.000 A 
ENDBRANCH  64  83
BRANCH  76  89
ATOM     89  C   UNL A   1      41.368  30.435  33.452  1.00  0.00    -0.014 A 
ATOM     90  C   UNL A   1      41.359  30.728  34.826  1.00  0.00     0.009 A 
ATOM     91  C   UNL A   1      41.460  29.087  33.065  1.00  0.00     0.009 A 
ATOM     92  C   UNL A   1      41.439  29.709  35.779  1.00  0.00     0.001 A 
ATOM     93  C   UNL A   1      41.510  28.065  34.018  1.00  0.00     0.001 A 
ATOM     94  C   UNL A   1      41.509  28.378  35.374  1.00  0.00     0.000 A 
ENDBRANCH  76  89
ENDBRANCH  50  51
ENDBRANCH  42  45
ENDBRANCH  40  41
ENDBRANCH  39  40
ENDBRANCH  38  39
ENDBRANCH   3  38
TORSDOF 16
ENDMDL
MODEL 2
REMARK VINA RESULT:     -12.0      5.948     11.322
REMARK SMILES COc1ccc2c(c1)c(Cc1nc(-c3ccc(C(=O)NCCCNC(=O)c4ccc(-c5c6nc(c(-c7ccccc7)c7ccc([nH]7)c(-c7ccccc7)c7nc(c(-c8ccccc8)c8ccc5[nH]8)C=C7)C=C6)cc4)cc3)cs1)c(C)n2C(=O)c1ccc(Cl)cc1
REMARK SMILES IDX 18 1 19 2 20 3 17 5 14 6 15 7 76 8 16 9 75 10 13 11 11 12
REMARK SMILES IDX 12 13 78 14 77 15 10 16 9 17 3 18 4 19 8 20 5 21 7 22 6 23
REMARK SMILES IDX 81 24 79 25 80 26 2 27 1 28 82 29 83 30 84 31 85 32 90 33
REMARK SMILES IDX 86 34 89 35 87 36 88 37 21 38 22 39 23 40 24 41 25 42 26 44
REMARK SMILES IDX 27 45 28 46 74 47 29 48 73 49 30 50 31 51 32 52 67 53 33 54
REMARK SMILES IDX 72 55 66 56 68 57 34 58 71 59 65 60 64 61 35 63 57 64 42 65
REMARK SMILES IDX 56 66 43 67 46 68 55 69 69 70 44 71 45 72 54 74 70 75 47 76
REMARK SMILES IDX 36 77 37 78 41 79 38 80 40 81 39 82 58 83 59 84 63 85 60 86
REMARK SMILES IDX 62 87 61 88 48 89 49 90 53 91 50 92 52 93 51 94
REMARK H PARENT 20 4 24 43 68 62 46 73
REMARK Flexibility Score: inf
ROOT
ATOM      1  C   UNL A   1      45.641  25.390  25.502  1.00  0.00     0.251 C 
ATOM      2  O   UNL A   1      45.913  26.333  24.756  1.00  0.00    -0.269 OA
ATOM      3  N   UNL A   1      45.178  24.234  24.922  1.00  0.00    -0.352 N 
ATOM      4  H   UNL A   1      45.101  24.290  23.943  1.00  0.00     0.163 HD
ENDROOT
BRANCH   1   5
ATOM      5  C   UNL A   1      45.757  25.585  26.973  1.00  0.00     0.039 A 
ATOM      6  C   UNL A   1      45.691  25.882  29.782  1.00  0.00     0.001 A 
ATOM      7  C   UNL A   1      44.740  26.522  28.981  1.00  0.00     0.011 A 
ATOM      8  C   UNL A   1      46.738  25.194  29.154  1.00  0.00     0.011 A 
ATOM      9  C   UNL A   1      44.770  26.368  27.591  1.00  0.00     0.014 A 
ATOM     10  C   UNL A   1      46.790  25.076  27.760  1.00  0.00     0.014 A 
BRANCH   6  11
ATOM     11  C   UNL A   1      45.636  25.938  31.238  1.00  0.00     0.081 A 
ATOM     12  C   UNL A   1      44.719  25.535  33.214  1.00  0.00     0.098 A 
ATOM     13  N   UNL A   1      44.514  25.503  31.914  1.00  0.00    -0.241 NA
ATOM     14  S   UNL A   1      46.196  26.263  33.702  1.00  0.00    -0.126 S 
ATOM     15  C   UNL A   1      46.632  26.443  32.050  1.00  0.00     0.095 A 
BRANCH  12  16
ATOM     16  C   UNL A   1      43.764  24.964  34.222  1.00  0.00     0.105 C 
BRANCH  16  17
ATOM     17  C   UNL A   1      44.464  24.035  35.183  1.00  0.00    -0.012 A 
ATOM     18  C   UNL A   1      44.711  25.401  38.748  1.00  0.00     0.119 A 
ATOM     19  C   UNL A   1      45.493  24.373  39.244  1.00  0.00     0.048 A 
ATOM     20  C   UNL A   1      44.324  25.371  37.409  1.00  0.00     0.057 A 
ATOM     21  C   UNL A   1      45.876  23.301  38.425  1.00  0.00     0.031 A 
ATOM     22  C   UNL A   1      44.682  24.294  36.564  1.00  0.00     0.008 A 
ATOM     23  C   UNL A   1      45.421  23.232  37.090  1.00  0.00     0.057 A 
ATOM     24  N   UNL A   1      45.555  22.254  36.082  1.00  0.00    -0.280 N 
ATOM     25  C   UNL A   1      45.015  22.791  34.900  1.00  0.00     0.028 A 
ATOM     26  C   UNL A   1      44.999  22.124  33.559  1.00  0.00     0.065 C 
BRANCH  18  27
ATOM     27  O   UNL A   1      44.252  26.478  39.454  1.00  0.00    -0.497 OA
ATOM     28  C   UNL A   1      44.574  26.515  40.838  1.00  0.00     0.278 C 
ENDBRANCH  18  27
BRANCH  24  29
ATOM     29  C   UNL A   1      46.143  20.962  36.239  1.00  0.00     0.262 C 
ATOM     30  O   UNL A   1      45.505  20.068  36.775  1.00  0.00    -0.268 OA
BRANCH  29  31
ATOM     31  C   UNL A   1      47.487  20.577  35.767  1.00  0.00     0.040 A 
ATOM     32  C   UNL A   1      48.565  20.479  36.654  1.00  0.00     0.015 A 
ATOM     33  C   UNL A   1      47.658  20.331  34.400  1.00  0.00     0.015 A 
ATOM     34  C   UNL A   1      49.841  20.210  36.150  1.00  0.00     0.021 A 
ATOM     35  C   UNL A   1      48.933  20.057  33.904  1.00  0.00     0.021 A 
ATOM     36  C   UNL A   1      50.020  20.015  34.778  1.00  0.00     0.041 A 
ATOM     37  Cl  UNL A   1      51.600  19.740  34.155  1.00  0.00    -0.084 Cl
ENDBRANCH  29  31
ENDBRANCH  24  29
ENDBRANCH  16  17
ENDBRANCH  12  16
ENDBRANCH   6  11
ENDBRANCH   1   5
BRANCH   3  38
ATOM     38  C   UNL A   1      44.780  22.948  25.462  1.00  0.00     0.118 C 
BRANCH  38  39
ATOM     39  C   UNL A   1      43.323  22.579  25.210  1.00  0.00     0.042 C 
BRANCH  39  40
ATOM     40  C   UNL A   1      42.760  21.422  26.034  1.00  0.00     0.118 C 
BRANCH  40  41
ATOM     41  N   UNL A   1      41.320  21.407  26.203  1.00  0.00    -0.352 N 
ATOM     42  C   UNL A   1      40.365  22.323  26.546  1.00  0.00     0.251 C 
ATOM     43  H   UNL A   1      40.935  20.518  26.030  1.00  0.00     0.163 HD
ATOM     44  O   UNL A   1      39.195  21.960  26.394  1.00  0.00    -0.269 OA
BRANCH  42  45
ATOM     45  C   UNL A   1      40.614  23.670  27.133  1.00  0.00     0.039 A 
ATOM     46  C   UNL A   1      41.519  23.963  28.150  1.00  0.00     0.014 A 
ATOM     47  C   UNL A   1      39.809  24.717  26.643  1.00  0.00     0.014 A 
ATOM     48  C   UNL A   1      41.541  25.228  28.740  1.00  0.00     0.010 A 
ATOM     49  C   UNL A   1      39.852  25.994  27.201  1.00  0.00     0.010 A 
ATOM     50  C   UNL A   1      40.684  26.239  28.290  1.00  0.00    -0.014 A 
BRANCH  50  51
ATOM     51  C   UNL A   1      40.748  27.544  28.954  1.00  0.00     0.031 A 
ATOM     52  C   UNL A   1      41.751  28.521  28.434  1.00  0.00     0.074 A 
ATOM     53  C   UNL A   1      39.876  27.957  29.897  1.00  0.00     0.049 A 
ATOM     54  N   UNL A   1      42.677  29.152  29.084  1.00  0.00    -0.248 NA
ATOM     55  C   UNL A   1      41.722  28.818  26.993  1.00  0.00     0.031 C 
ATOM     56  C   UNL A   1      38.626  27.320  30.315  1.00  0.00     0.029 A 
ATOM     57  N   UNL A   1      39.880  29.128  30.601  1.00  0.00    -0.354 N 
ATOM     58  C   UNL A   1      43.276  30.021  28.170  1.00  0.00     0.074 A 
ATOM     59  C   UNL A   1      42.695  29.722  26.884  1.00  0.00     0.031 C 
ATOM     60  C   UNL A   1      37.884  28.216  31.004  1.00  0.00     0.029 A 
ATOM     61  C   UNL A   1      38.666  29.426  31.197  1.00  0.00     0.049 A 
ATOM     62  H   UNL A   1      40.673  29.707  30.678  1.00  0.00     0.167 HD
ATOM     63  C   UNL A   1      44.120  31.025  28.541  1.00  0.00     0.031 A 
ATOM     64  C   UNL A   1      38.300  30.612  31.737  1.00  0.00     0.031 A 
ATOM     65  C   UNL A   1      44.642  30.846  29.866  1.00  0.00     0.049 A 
ATOM     66  C   UNL A   1      39.523  31.389  32.033  1.00  0.00     0.074 A 
ATOM     67  C   UNL A   1      45.417  29.889  30.487  1.00  0.00     0.029 A 
ATOM     68  N   UNL A   1      44.131  31.623  30.876  1.00  0.00    -0.354 N 
ATOM     69  N   UNL A   1      40.380  31.083  32.964  1.00  0.00    -0.248 NA
ATOM     70  C   UNL A   1      39.983  32.363  31.058  1.00  0.00     0.031 C 
ATOM     71  C   UNL A   1      44.941  29.842  31.830  1.00  0.00     0.029 A 
ATOM     72  C   UNL A   1      43.922  30.788  31.944  1.00  0.00     0.049 A 
ATOM     73  H   UNL A   1      43.950  32.589  30.841  1.00  0.00     0.167 HD
ATOM     74  C   UNL A   1      41.606  31.492  32.465  1.00  0.00     0.074 A 
ATOM     75  C   UNL A   1      41.281  32.391  31.362  1.00  0.00     0.031 C 
ATOM     76  C   UNL A   1      42.761  30.847  32.806  1.00  0.00     0.031 A 
BRANCH  63  77
ATOM     77  C   UNL A   1      44.284  32.322  27.790  1.00  0.00    -0.014 A 
ATOM     78  C   UNL A   1      44.920  32.407  26.537  1.00  0.00     0.009 A 
ATOM     79  C   UNL A   1      43.570  33.460  28.212  1.00  0.00     0.009 A 
ATOM     80  C   UNL A   1      44.856  33.563  25.751  1.00  0.00     0.001 A 
ATOM     81  C   UNL A   1      43.466  34.602  27.407  1.00  0.00     0.001 A 
ATOM     82  C   UNL A   1      44.110  34.653  26.177  1.00  0.00     0.000 A 
ENDBRANCH  63  77
BRANCH  64  83
ATOM     83  C   UNL A   1      36.964  31.245  31.720  1.00  0.00    -0.014 A 
ATOM     84  C   UNL A   1      36.346  31.566  30.497  1.00  0.00     0.009 A 
ATOM     85  C   UNL A   1      36.422  31.796  32.892  1.00  0.00     0.009 A 
ATOM     86  C   UNL A   1      35.255  32.436  30.442  1.00  0.00     0.001 A 
ATOM     87  C   UNL A   1      35.334  32.676  32.835  1.00  0.00     0.001 A 
ATOM     88  C   UNL A   1      34.760  33.007  31.609  1.00  0.00     0.000 A 
ENDBRANCH  64  83
BRANCH  76  89
ATOM     89  C   UNL A   1      42.730  29.864  33.954  1.00  0.00    -0.014 A 
ATOM     90  C   UNL A   1      42.121  28.614  33.754  1.00  0.00     0.009 A 
ATOM     91  C   UNL A   1      43.125  30.205  35.259  1.00  0.00     0.009 A 
ATOM     92  C   UNL A   1      41.913  27.737  34.821  1.00  0.00     0.001 A 
ATOM     93  C   UNL A   1      42.943  29.314  36.322  1.00  0.00     0.001 A 
ATOM     94  C   UNL A   1      42.329  28.085  36.104  1.00  0.00     0.000 A 
ENDBRANCH  76  89
ENDBRANCH  50  51
ENDBRANCH  42  45
ENDBRANCH  40  41
ENDBRANCH  39  40
ENDBRANCH  38  39
ENDBRANCH   3  38
TORSDOF 16
ENDMDL
MODEL 3
REMARK VINA RESULT:     -12.0      5.624     12.784
REMARK SMILES COc1ccc2c(c1)c(Cc1nc(-c3ccc(C(=O)NCCCNC(=O)c4ccc(-c5c6nc(c(-c7ccccc7)c7ccc([nH]7)c(-c7ccccc7)c7nc(c(-c8ccccc8)c8ccc5[nH]8)C=C7)C=C6)cc4)cc3)cs1)c(C)n2C(=O)c1ccc(Cl)cc1
REMARK SMILES IDX 18 1 19 2 20 3 17 5 14 6 15 7 76 8 16 9 75 10 13 11 11 12
REMARK SMILES IDX 12 13 78 14 77 15 10 16 9 17 3 18 4 19 8 20 5 21 7 22 6 23
REMARK SMILES IDX 81 24 79 25 80 26 2 27 1 28 82 29 83 30 84 31 85 32 90 33
REMARK SMILES IDX 86 34 89 35 87 36 88 37 21 38 22 39 23 40 24 41 25 42 26 44
REMARK SMILES IDX 27 45 28 46 74 47 29 48 73 49 30 50 31 51 32 52 67 53 33 54
REMARK SMILES IDX 72 55 66 56 68 57 34 58 71 59 65 60 64 61 35 63 57 64 42 65
REMARK SMILES IDX 56 66 43 67 46 68 55 69 69 70 44 71 45 72 54 74 70 75 47 76
REMARK SMILES IDX 36 77 37 78 41 79 38 80 40 81 39 82 58 83 59 84 63 85 60 86
REMARK SMILES IDX 62 87 61 88 48 89 49 90 53 91 50 92 52 93 51 94
REMARK H PARENT 20 4 24 43 68 62 46 73
REMARK Flexibility Score: inf
ROOT
ATOM      1  C   UNL A   1      37.431  32.673  33.673  1.00  0.00     0.251 C 
ATOM      2  O   UNL A   1      37.654  32.752  34.882  1.00  0.00    -0.269 OA
ATOM      3  N   UNL A   1      36.169  32.298  33.283  1.00  0.00    -0.352 N 
ATOM      4  H   UNL A   1      35.563  32.116  34.037  1.00  0.00     0.163 HD
ENDROOT
BRANCH   1   5
ATOM      5  C   UNL A   1      38.551  32.912  32.721  1.00  0.00     0.039 A 
ATOM      6  C   UNL A   1      40.689  33.638  31.024  1.00  0.00     0.001 A 
ATOM      7  C   UNL A   1      39.542  34.435  31.097  1.00  0.00     0.011 A 
ATOM      8  C   UNL A   1      40.700  32.420  31.717  1.00  0.00     0.011 A 
ATOM      9  C   UNL A   1      38.488  34.077  31.944  1.00  0.00     0.014 A 
ATOM     10  C   UNL A   1      39.626  32.043  32.531  1.00  0.00     0.014 A 
BRANCH   6  11
ATOM     11  C   UNL A   1      41.848  34.027  30.229  1.00  0.00     0.081 A 
ATOM     12  C   UNL A   1      43.438  35.425  29.575  1.00  0.00     0.098 A 
ATOM     13  N   UNL A   1      42.327  35.320  30.273  1.00  0.00    -0.241 NA
ATOM     14  S   UNL A   1      43.867  34.026  28.675  1.00  0.00    -0.126 S 
ATOM     15  C   UNL A   1      42.529  33.196  29.361  1.00  0.00     0.095 A 
BRANCH  12  16
ATOM     16  C   UNL A   1      44.303  36.651  29.564  1.00  0.00     0.105 C 
BRANCH  16  17
ATOM     17  C   UNL A   1      43.555  37.851  29.037  1.00  0.00    -0.012 A 
ATOM     18  C   UNL A   1      43.027  40.606  31.639  1.00  0.00     0.119 A 
ATOM     19  C   UNL A   1      42.232  41.410  30.841  1.00  0.00     0.048 A 
ATOM     20  C   UNL A   1      43.508  39.405  31.122  1.00  0.00     0.057 A 
ATOM     21  C   UNL A   1      41.930  41.040  29.523  1.00  0.00     0.031 A 
ATOM     22  C   UNL A   1      43.233  39.014  29.790  1.00  0.00     0.008 A 
ATOM     23  C   UNL A   1      42.481  39.861  28.973  1.00  0.00     0.057 A 
ATOM     24  N   UNL A   1      42.438  39.295  27.682  1.00  0.00    -0.280 N 
ATOM     25  C   UNL A   1      43.050  38.032  27.755  1.00  0.00     0.028 A 
ATOM     26  C   UNL A   1      43.175  37.049  26.631  1.00  0.00     0.065 C 
BRANCH  18  27
ATOM     27  O   UNL A   1      43.412  40.874  32.923  1.00  0.00    -0.497 OA
ATOM     28  C   UNL A   1      43.806  39.760  33.713  1.00  0.00     0.278 C 
ENDBRANCH  18  27
BRANCH  24  29
ATOM     29  C   UNL A   1      41.867  39.898  26.519  1.00  0.00     0.262 C 
ATOM     30  O   UNL A   1      40.772  39.528  26.123  1.00  0.00    -0.268 OA
BRANCH  29  31
ATOM     31  C   UNL A   1      42.481  40.990  25.741  1.00  0.00     0.040 A 
ATOM     32  C   UNL A   1      43.605  41.675  26.215  1.00  0.00     0.015 A 
ATOM     33  C   UNL A   1      41.895  41.334  24.517  1.00  0.00     0.015 A 
ATOM     34  C   UNL A   1      44.093  42.768  25.493  1.00  0.00     0.021 A 
ATOM     35  C   UNL A   1      42.391  42.422  23.798  1.00  0.00     0.021 A 
ATOM     36  C   UNL A   1      43.476  43.144  24.297  1.00  0.00     0.041 A 
ATOM     37  Cl  UNL A   1      44.045  44.523  23.440  1.00  0.00    -0.084 Cl
ENDBRANCH  29  31
ENDBRANCH  24  29
ENDBRANCH  16  17
ENDBRANCH  12  16
ENDBRANCH   6  11
ENDBRANCH   1   5
BRANCH   3  38
ATOM     38  C   UNL A   1      35.548  32.115  31.985  1.00  0.00     0.118 C 
BRANCH  38  39
ATOM     39  C   UNL A   1      34.672  33.277  31.532  1.00  0.00     0.042 C 
BRANCH  39  40
ATOM     40  C   UNL A   1      35.071  33.964  30.226  1.00  0.00     0.118 C 
BRANCH  40  41
ATOM     41  N   UNL A   1      34.767  33.236  29.010  1.00  0.00    -0.352 N 
ATOM     42  C   UNL A   1      35.195  32.074  28.430  1.00  0.00     0.251 C 
ATOM     43  H   UNL A   1      34.084  33.692  28.465  1.00  0.00     0.163 HD
ATOM     44  O   UNL A   1      34.542  31.688  27.457  1.00  0.00    -0.269 OA
BRANCH  42  45
ATOM     45  C   UNL A   1      36.395  31.287  28.831  1.00  0.00     0.039 A 
ATOM     46  C   UNL A   1      37.680  31.792  29.013  1.00  0.00     0.014 A 
ATOM     47  C   UNL A   1      36.204  29.898  28.975  1.00  0.00     0.014 A 
ATOM     48  C   UNL A   1      38.760  30.932  29.217  1.00  0.00     0.010 A 
ATOM     49  C   UNL A   1      37.273  29.036  29.217  1.00  0.00     0.010 A 
ATOM     50  C   UNL A   1      38.565  29.548  29.287  1.00  0.00    -0.014 A 
BRANCH  50  51
ATOM     51  C   UNL A   1      39.739  28.695  29.494  1.00  0.00     0.031 A 
ATOM     52  C   UNL A   1      40.236  28.554  30.897  1.00  0.00     0.074 A 
ATOM     53  C   UNL A   1      40.302  27.934  28.533  1.00  0.00     0.049 A 
ATOM     54  N   UNL A   1      41.427  28.767  31.357  1.00  0.00    -0.248 NA
ATOM     55  C   UNL A   1      39.264  28.135  31.919  1.00  0.00     0.031 C 
ATOM     56  C   UNL A   1      39.792  27.646  27.191  1.00  0.00     0.029 A 
ATOM     57  N   UNL A   1      41.417  27.148  28.618  1.00  0.00    -0.354 N 
ATOM     58  C   UNL A   1      41.401  28.395  32.702  1.00  0.00     0.074 A 
ATOM     59  C   UNL A   1      40.027  28.080  33.010  1.00  0.00     0.031 C 
ATOM     60  C   UNL A   1      40.450  26.578  26.689  1.00  0.00     0.029 A 
ATOM     61  C   UNL A   1      41.515  26.206  27.606  1.00  0.00     0.049 A 
ATOM     62  H   UNL A   1      42.088  27.241  29.332  1.00  0.00     0.167 HD
ATOM     63  C   UNL A   1      42.527  28.240  33.454  1.00  0.00     0.031 A 
ATOM     64  C   UNL A   1      42.357  25.148  27.566  1.00  0.00     0.031 A 
ATOM     65  C   UNL A   1      43.672  28.878  32.870  1.00  0.00     0.049 A 
ATOM     66  C   UNL A   1      43.472  25.401  28.503  1.00  0.00     0.074 A 
ATOM     67  C   UNL A   1      44.003  30.176  32.540  1.00  0.00     0.029 A 
ATOM     68  N   UNL A   1      44.615  28.088  32.258  1.00  0.00    -0.354 N 
ATOM     69  N   UNL A   1      44.392  26.303  28.323  1.00  0.00    -0.248 NA
ATOM     70  C   UNL A   1      43.392  24.852  29.847  1.00  0.00     0.031 C 
ATOM     71  C   UNL A   1      44.811  30.067  31.372  1.00  0.00     0.029 A 
ATOM     72  C   UNL A   1      44.938  28.708  31.079  1.00  0.00     0.049 A 
ATOM     73  H   UNL A   1      44.985  27.243  32.600  1.00  0.00     0.167 HD
ATOM     74  C   UNL A   1      44.719  26.735  29.598  1.00  0.00     0.074 A 
ATOM     75  C   UNL A   1      44.178  25.715  30.491  1.00  0.00     0.031 C 
ATOM     76  C   UNL A   1      45.145  28.013  29.826  1.00  0.00     0.031 A 
BRANCH  63  77
ATOM     77  C   UNL A   1      42.654  27.284  34.613  1.00  0.00    -0.014 A 
ATOM     78  C   UNL A   1      42.240  27.604  35.920  1.00  0.00     0.009 A 
ATOM     79  C   UNL A   1      42.961  25.932  34.364  1.00  0.00     0.009 A 
ATOM     80  C   UNL A   1      42.145  26.636  36.926  1.00  0.00     0.001 A 
ATOM     81  C   UNL A   1      42.822  24.953  35.356  1.00  0.00     0.001 A 
ATOM     82  C   UNL A   1      42.415  25.306  36.637  1.00  0.00     0.000 A 
ENDBRANCH  63  77
BRANCH  64  83
ATOM     83  C   UNL A   1      42.097  23.800  27.014  1.00  0.00    -0.014 A 
ATOM     84  C   UNL A   1      41.187  22.936  27.650  1.00  0.00     0.009 A 
ATOM     85  C   UNL A   1      42.949  23.255  26.040  1.00  0.00     0.009 A 
ATOM     86  C   UNL A   1      41.155  21.571  27.354  1.00  0.00     0.001 A 
ATOM     87  C   UNL A   1      42.923  21.885  25.751  1.00  0.00     0.001 A 
ATOM     88  C   UNL A   1      42.037  21.041  26.418  1.00  0.00     0.000 A 
ENDBRANCH  64  83
BRANCH  76  89
ATOM     89  C   UNL A   1      45.532  28.870  28.642  1.00  0.00    -0.014 A 
ATOM     90  C   UNL A   1      46.851  28.805  28.166  1.00  0.00     0.009 A 
ATOM     91  C   UNL A   1      44.684  29.855  28.106  1.00  0.00     0.009 A 
ATOM     92  C   UNL A   1      47.308  29.694  27.189  1.00  0.00     0.001 A 
ATOM     93  C   UNL A   1      45.132  30.726  27.108  1.00  0.00     0.001 A 
ATOM     94  C   UNL A   1      46.446  30.650  26.657  1.00  0.00     0.000 A 
ENDBRANCH  76  89
ENDBRANCH  50  51
ENDBRANCH  42  45
ENDBRANCH  40  41
ENDBRANCH  39  40
ENDBRANCH  38  39
ENDBRANCH   3  38
TORSDOF 16
ENDMDL
