MODEL 1
REMARK VINA RESULT:     -10.9      0.000      0.000
REMARK SMILES CN(C(=O)C[C@](C)(C(=O)NCCCNC(=O)c1ccc(-c2c3nc(c(-c4ccccc4)c4ccc([nH]4)c(-c4ccccc4)c4nc(c(-c5ccccc5)c5ccc2[nH]5)C=C4)C=C3)cc1)c1ccccc1)[C@@H]1CCSC1
REMARK SMILES IDX 11 1 10 2 8 3 9 4 6 6 7 7 5 8 3 9 4 10 2 11 1 12 71 13 72 14
REMARK SMILES IDX 75 15 73 16 74 17 65 18 66 19 70 20 67 21 69 22 68 23 12 24
REMARK SMILES IDX 13 25 14 26 15 27 16 29 17 30 18 31 64 32 19 33 63 34 20 35
REMARK SMILES IDX 21 36 22 37 57 38 23 39 62 40 56 41 58 42 24 43 61 44 55 45
REMARK SMILES IDX 54 46 25 48 47 49 32 50 46 51 33 52 36 53 45 54 59 55 34 56
REMARK SMILES IDX 35 57 44 59 60 60 37 61 26 62 27 63 31 64 28 65 30 66 29 67
REMARK SMILES IDX 48 68 49 69 53 70 50 71 52 72 51 73 38 74 39 75 43 76 40 77
REMARK SMILES IDX 42 78 41 79
REMARK H PARENT 10 5 14 28 58 47 36 58
REMARK Flexibility Score: inf
ROOT
ATOM      1  C   UNL A   1      31.372  30.174  25.758  1.00  0.00     0.117 C 
ENDROOT
BRANCH   1   2
ATOM      2  N   UNL A   1      32.453  29.880  24.836  1.00  0.00    -0.355 N 
ATOM      3  C   UNL A   1      32.587  28.947  23.847  1.00  0.00     0.230 C 
ATOM      4  O   UNL A   1      33.636  29.022  23.199  1.00  0.00    -0.274 OA
ATOM      5  H   UNL A   1      33.240  30.463  24.944  1.00  0.00     0.163 HD
BRANCH   3   6
ATOM      6  C   UNL A   1      31.509  27.843  23.575  1.00  0.00     0.080 C 
ATOM      7  C   UNL A   1      32.148  26.870  22.551  1.00  0.00     0.027 C 
BRANCH   6   8
ATOM      8  C   UNL A   1      31.088  27.166  24.928  1.00  0.00     0.121 C 
BRANCH   8   9
ATOM      9  C   UNL A   1      32.139  26.449  25.761  1.00  0.00     0.224 C 
ATOM     10  O   UNL A   1      32.778  27.119  26.572  1.00  0.00    -0.275 OA
BRANCH   9  11
ATOM     11  N   UNL A   1      32.337  25.085  25.605  1.00  0.00    -0.342 N 
ATOM     12  C   UNL A   1      31.239  24.134  25.424  1.00  0.00     0.147 C 
BRANCH  11  13
ATOM     13  C   UNL A   1      33.675  24.464  25.776  1.00  0.00     0.095 C 
ATOM     14  C   UNL A   1      34.626  24.785  24.617  1.00  0.00     0.037 C 
ATOM     15  C   UNL A   1      33.751  22.941  26.016  1.00  0.00     0.094 C 
ATOM     16  C   UNL A   1      34.441  23.723  23.551  1.00  0.00     0.072 C 
ATOM     17  S   UNL A   1      34.394  22.177  24.488  1.00  0.00    -0.160 SA
ENDBRANCH  11  13
ENDBRANCH   9  11
ENDBRANCH   8   9
ENDBRANCH   6   8
BRANCH   6  18
ATOM     18  C   UNL A   1      30.229  28.517  22.972  1.00  0.00    -0.032 A 
ATOM     19  C   UNL A   1      30.356  29.604  22.080  1.00  0.00     0.005 A 
ATOM     20  C   UNL A   1      28.923  28.123  23.313  1.00  0.00     0.005 A 
ATOM     21  C   UNL A   1      29.248  30.347  21.666  1.00  0.00     0.000 A 
ATOM     22  C   UNL A   1      27.811  28.857  22.884  1.00  0.00     0.000 A 
ATOM     23  C   UNL A   1      27.975  29.984  22.087  1.00  0.00     0.000 A 
ENDBRANCH   6  18
ENDBRANCH   3   6
ENDBRANCH   1   2
BRANCH   1  24
ATOM     24  C   UNL A   1      31.302  31.640  26.159  1.00  0.00     0.042 C 
BRANCH  24  25
ATOM     25  C   UNL A   1      32.489  32.113  26.982  1.00  0.00     0.118 C 
BRANCH  25  26
ATOM     26  N   UNL A   1      32.337  33.482  27.455  1.00  0.00    -0.352 N 
ATOM     27  C   UNL A   1      33.106  34.213  28.322  1.00  0.00     0.251 C 
ATOM     28  H   UNL A   1      31.554  33.959  27.095  1.00  0.00     0.163 HD
ATOM     29  O   UNL A   1      32.698  35.303  28.727  1.00  0.00    -0.269 OA
BRANCH  27  30
ATOM     30  C   UNL A   1      34.411  33.704  28.789  1.00  0.00     0.039 A 
ATOM     31  C   UNL A   1      34.472  33.015  30.005  1.00  0.00     0.014 A 
ATOM     32  C   UNL A   1      35.578  33.921  28.053  1.00  0.00     0.014 A 
ATOM     33  C   UNL A   1      35.688  32.489  30.445  1.00  0.00     0.010 A 
ATOM     34  C   UNL A   1      36.769  33.319  28.446  1.00  0.00     0.010 A 
ATOM     35  C   UNL A   1      36.840  32.604  29.650  1.00  0.00    -0.014 A 
BRANCH  35  36
ATOM     36  C   UNL A   1      38.129  31.993  30.062  1.00  0.00     0.031 A 
ATOM     37  C   UNL A   1      39.058  32.739  30.981  1.00  0.00     0.074 A 
ATOM     38  C   UNL A   1      38.492  30.798  29.556  1.00  0.00     0.049 A 
ATOM     39  N   UNL A   1      40.256  32.403  31.393  1.00  0.00    -0.248 NA
ATOM     40  C   UNL A   1      38.597  34.044  31.482  1.00  0.00     0.031 C 
ATOM     41  C   UNL A   1      37.698  29.991  28.626  1.00  0.00     0.029 A 
ATOM     42  N   UNL A   1      39.631  30.056  29.749  1.00  0.00    -0.354 N 
ATOM     43  C   UNL A   1      40.694  33.462  32.179  1.00  0.00     0.074 A 
ATOM     44  C   UNL A   1      39.659  34.470  32.148  1.00  0.00     0.031 C 
ATOM     45  C   UNL A   1      38.359  28.854  28.356  1.00  0.00     0.029 A 
ATOM     46  C   UNL A   1      39.641  28.871  29.053  1.00  0.00     0.049 A 
ATOM     47  H   UNL A   1      40.370  30.345  30.331  1.00  0.00     0.167 HD
ATOM     48  C   UNL A   1      41.847  33.576  32.879  1.00  0.00     0.031 A 
ATOM     49  C   UNL A   1      40.580  27.910  28.978  1.00  0.00     0.031 A 
ATOM     50  C   UNL A   1      42.868  32.564  32.928  1.00  0.00     0.049 A 
ATOM     51  C   UNL A   1      41.857  28.070  29.755  1.00  0.00     0.074 A 
ATOM     52  C   UNL A   1      44.042  32.559  33.661  1.00  0.00     0.029 A 
ATOM     53  N   UNL A   1      42.835  31.376  32.215  1.00  0.00    -0.354 N 
ATOM     54  N   UNL A   1      42.225  29.046  30.550  1.00  0.00    -0.248 NA
ATOM     55  C   UNL A   1      42.845  26.988  29.633  1.00  0.00     0.031 C 
ATOM     56  C   UNL A   1      44.746  31.392  33.349  1.00  0.00     0.029 A 
ATOM     57  C   UNL A   1      43.981  30.643  32.469  1.00  0.00     0.049 A 
ATOM     58  H   UNL A   1      42.105  31.095  31.617  1.00  0.00     0.167 HD
ATOM     59  C   UNL A   1      43.469  28.681  31.046  1.00  0.00     0.074 A 
ATOM     60  C   UNL A   1      43.786  27.387  30.477  1.00  0.00     0.031 C 
ATOM     61  C   UNL A   1      44.278  29.355  31.899  1.00  0.00     0.031 A 
BRANCH  48  62
ATOM     62  C   UNL A   1      42.072  34.847  33.651  1.00  0.00    -0.014 A 
ATOM     63  C   UNL A   1      41.579  35.005  34.956  1.00  0.00     0.009 A 
ATOM     64  C   UNL A   1      42.831  35.882  33.084  1.00  0.00     0.009 A 
ATOM     65  C   UNL A   1      41.816  36.184  35.665  1.00  0.00     0.001 A 
ATOM     66  C   UNL A   1      43.092  37.048  33.805  1.00  0.00     0.001 A 
ATOM     67  C   UNL A   1      42.578  37.202  35.091  1.00  0.00     0.000 A 
ENDBRANCH  48  62
BRANCH  49  68
ATOM     68  C   UNL A   1      40.353  26.700  28.143  1.00  0.00    -0.014 A 
ATOM     69  C   UNL A   1      40.892  26.616  26.850  1.00  0.00     0.009 A 
ATOM     70  C   UNL A   1      39.575  25.634  28.623  1.00  0.00     0.009 A 
ATOM     71  C   UNL A   1      40.628  25.508  26.042  1.00  0.00     0.001 A 
ATOM     72  C   UNL A   1      39.338  24.514  27.825  1.00  0.00     0.001 A 
ATOM     73  C   UNL A   1      39.854  24.457  26.531  1.00  0.00     0.000 A 
ENDBRANCH  49  68
BRANCH  61  74
ATOM     74  C   UNL A   1      45.562  28.687  32.302  1.00  0.00    -0.014 A 
ATOM     75  C   UNL A   1      45.621  27.823  33.405  1.00  0.00     0.009 A 
ATOM     76  C   UNL A   1      46.721  28.897  31.538  1.00  0.00     0.009 A 
ATOM     77  C   UNL A   1      46.826  27.209  33.757  1.00  0.00     0.001 A 
ATOM     78  C   UNL A   1      47.915  28.259  31.873  1.00  0.00     0.001 A 
ATOM     79  C   UNL A   1      47.969  27.423  32.987  1.00  0.00     0.000 A 
ENDBRANCH  61  74
ENDBRANCH  35  36
ENDBRANCH  27  30
ENDBRANCH  25  26
ENDBRANCH  24  25
ENDBRANCH   1  24
TORSDOF 15
ENDMDL
MODEL 2
REMARK VINA RESULT:     -10.8      0.479      5.964
REMARK SMILES CN(C(=O)C[C@](C)(C(=O)NCCCNC(=O)c1ccc(-c2c3nc(c(-c4ccccc4)c4ccc([nH]4)c(-c4ccccc4)c4nc(c(-c5ccccc5)c5ccc2[nH]5)C=C4)C=C3)cc1)c1ccccc1)[C@@H]1CCSC1
REMARK SMILES IDX 11 1 10 2 8 3 9 4 6 6 7 7 5 8 3 9 4 10 2 11 1 12 71 13 72 14
REMARK SMILES IDX 75 15 73 16 74 17 65 18 66 19 70 20 67 21 69 22 68 23 12 24
REMARK SMILES IDX 13 25 14 26 15 27 16 29 17 30 18 31 64 32 19 33 63 34 20 35
REMARK SMILES IDX 21 36 22 37 57 38 23 39 62 40 56 41 58 42 24 43 61 44 55 45
REMARK SMILES IDX 54 46 25 48 47 49 32 50 46 51 33 52 36 53 45 54 59 55 34 56
REMARK SMILES IDX 35 57 44 59 60 60 37 61 26 62 27 63 31 64 28 65 30 66 29 67
REMARK SMILES IDX 48 68 49 69 53 70 50 71 52 72 51 73 38 74 39 75 43 76 40 77
REMARK SMILES IDX 42 78 41 79
REMARK H PARENT 10 5 14 28 58 47 36 58
REMARK Flexibility Score: inf
ROOT
ATOM      1  C   UNL A   1      31.023  30.308  25.507  1.00  0.00     0.117 C 
ENDROOT
BRANCH   1   2
ATOM      2  N   UNL A   1      32.182  29.909  24.730  1.00  0.00    -0.355 N 
ATOM      3  C   UNL A   1      32.371  28.918  23.809  1.00  0.00     0.230 C 
ATOM      4  O   UNL A   1      33.488  28.903  23.281  1.00  0.00    -0.274 OA
ATOM      5  H   UNL A   1      32.984  30.456  24.898  1.00  0.00     0.163 HD
BRANCH   3   6
ATOM      6  C   UNL A   1      31.269  27.857  23.469  1.00  0.00     0.080 C 
ATOM      7  C   UNL A   1      31.895  26.920  22.405  1.00  0.00     0.027 C 
BRANCH   6   8
ATOM      8  C   UNL A   1      30.814  27.125  24.782  1.00  0.00     0.121 C 
BRANCH   8   9
ATOM      9  C   UNL A   1      31.862  26.489  25.682  1.00  0.00     0.224 C 
ATOM     10  O   UNL A   1      32.414  27.212  26.513  1.00  0.00    -0.275 OA
BRANCH   9  11
ATOM     11  N   UNL A   1      32.154  25.139  25.563  1.00  0.00    -0.342 N 
ATOM     12  C   UNL A   1      31.123  24.105  25.468  1.00  0.00     0.147 C 
BRANCH  11  13
ATOM     13  C   UNL A   1      33.541  24.624  25.690  1.00  0.00     0.095 C 
ATOM     14  C   UNL A   1      34.454  25.104  24.557  1.00  0.00     0.037 C 
ATOM     15  C   UNL A   1      33.747  23.100  25.824  1.00  0.00     0.094 C 
ATOM     16  C   UNL A   1      34.354  24.107  23.419  1.00  0.00     0.072 C 
ATOM     17  S   UNL A   1      34.443  22.501  24.247  1.00  0.00    -0.160 SA
ENDBRANCH  11  13
ENDBRANCH   9  11
ENDBRANCH   8   9
ENDBRANCH   6   8
BRANCH   6  18
ATOM     18  C   UNL A   1      30.014  28.594  22.887  1.00  0.00    -0.032 A 
ATOM     19  C   UNL A   1      30.181  29.681  22.001  1.00  0.00     0.005 A 
ATOM     20  C   UNL A   1      28.695  28.258  23.241  1.00  0.00     0.005 A 
ATOM     21  C   UNL A   1      29.103  30.477  21.607  1.00  0.00     0.000 A 
ATOM     22  C   UNL A   1      27.613  29.044  22.831  1.00  0.00     0.000 A 
ATOM     23  C   UNL A   1      27.819  30.170  22.040  1.00  0.00     0.000 A 
ENDBRANCH   6  18
ENDBRANCH   3   6
ENDBRANCH   1   2
BRANCH   1  24
ATOM     24  C   UNL A   1      31.066  31.763  25.951  1.00  0.00     0.042 C 
BRANCH  24  25
ATOM     25  C   UNL A   1      32.212  32.087  26.895  1.00  0.00     0.118 C 
BRANCH  25  26
ATOM     26  N   UNL A   1      32.179  33.464  27.369  1.00  0.00    -0.352 N 
ATOM     27  C   UNL A   1      33.030  34.136  28.207  1.00  0.00     0.251 C 
ATOM     28  H   UNL A   1      31.423  33.998  27.033  1.00  0.00     0.163 HD
ATOM     29  O   UNL A   1      32.719  35.254  28.622  1.00  0.00    -0.269 OA
BRANCH  27  30
ATOM     30  C   UNL A   1      34.308  33.530  28.632  1.00  0.00     0.039 A 
ATOM     31  C   UNL A   1      35.470  33.829  27.912  1.00  0.00     0.014 A 
ATOM     32  C   UNL A   1      34.367  32.652  29.716  1.00  0.00     0.014 A 
ATOM     33  C   UNL A   1      36.695  33.300  28.322  1.00  0.00     0.010 A 
ATOM     34  C   UNL A   1      35.599  32.200  30.178  1.00  0.00     0.010 A 
ATOM     35  C   UNL A   1      36.776  32.512  29.481  1.00  0.00    -0.014 A 
BRANCH  35  36
ATOM     36  C   UNL A   1      38.076  31.996  29.978  1.00  0.00     0.031 A 
ATOM     37  C   UNL A   1      38.618  30.690  29.461  1.00  0.00     0.074 A 
ATOM     38  C   UNL A   1      38.737  32.669  30.941  1.00  0.00     0.049 A 
ATOM     39  N   UNL A   1      39.697  30.042  29.826  1.00  0.00    -0.248 NA
ATOM     40  C   UNL A   1      37.833  30.008  28.419  1.00  0.00     0.031 C 
ATOM     41  C   UNL A   1      38.300  33.926  31.552  1.00  0.00     0.029 A 
ATOM     42  N   UNL A   1      39.917  32.382  31.581  1.00  0.00    -0.354 N 
ATOM     43  C   UNL A   1      39.704  28.872  29.077  1.00  0.00     0.074 A 
ATOM     44  C   UNL A   1      38.503  28.875  28.273  1.00  0.00     0.031 C 
ATOM     45  C   UNL A   1      39.214  34.318  32.454  1.00  0.00     0.029 A 
ATOM     46  C   UNL A   1      40.275  33.319  32.520  1.00  0.00     0.049 A 
ATOM     47  H   UNL A   1      40.455  31.581  31.386  1.00  0.00     0.167 HD
ATOM     48  C   UNL A   1      40.639  27.893  29.046  1.00  0.00     0.031 A 
ATOM     49  C   UNL A   1      41.337  33.365  33.347  1.00  0.00     0.031 A 
ATOM     50  C   UNL A   1      41.845  27.900  29.828  1.00  0.00     0.049 A 
ATOM     51  C   UNL A   1      42.351  32.256  33.300  1.00  0.00     0.074 A 
ATOM     52  C   UNL A   1      42.884  26.986  29.818  1.00  0.00     0.029 A 
ATOM     53  N   UNL A   1      42.174  28.872  30.760  1.00  0.00    -0.354 N 
ATOM     54  N   UNL A   1      42.380  31.192  32.535  1.00  0.00    -0.248 NA
ATOM     55  C   UNL A   1      43.487  32.361  34.227  1.00  0.00     0.031 C 
ATOM     56  C   UNL A   1      43.817  27.375  30.784  1.00  0.00     0.029 A 
ATOM     57  C   UNL A   1      43.387  28.564  31.352  1.00  0.00     0.049 A 
ATOM     58  H   UNL A   1      41.626  29.663  30.970  1.00  0.00     0.167 HD
ATOM     59  C   UNL A   1      43.549  30.520  32.863  1.00  0.00     0.074 A 
ATOM     60  C   UNL A   1      44.211  31.304  33.886  1.00  0.00     0.031 C 
ATOM     61  C   UNL A   1      44.035  29.358  32.363  1.00  0.00     0.031 A 
BRANCH  48  62
ATOM     62  C   UNL A   1      40.392  26.722  28.135  1.00  0.00    -0.014 A 
ATOM     63  C   UNL A   1      40.883  26.705  26.820  1.00  0.00     0.009 A 
ATOM     64  C   UNL A   1      39.702  25.598  28.616  1.00  0.00     0.009 A 
ATOM     65  C   UNL A   1      40.662  25.599  25.996  1.00  0.00     0.001 A 
ATOM     66  C   UNL A   1      39.508  24.482  27.800  1.00  0.00     0.001 A 
ATOM     67  C   UNL A   1      39.981  24.486  26.489  1.00  0.00     0.000 A 
ENDBRANCH  48  62
BRANCH  49  68
ATOM     68  C   UNL A   1      41.508  34.503  34.288  1.00  0.00    -0.014 A 
ATOM     69  C   UNL A   1      42.240  35.638  33.906  1.00  0.00     0.009 A 
ATOM     70  C   UNL A   1      40.964  34.452  35.581  1.00  0.00     0.009 A 
ATOM     71  C   UNL A   1      42.454  36.681  34.810  1.00  0.00     0.001 A 
ATOM     72  C   UNL A   1      41.154  35.510  36.472  1.00  0.00     0.001 A 
ATOM     73  C   UNL A   1      41.908  36.618  36.090  1.00  0.00     0.000 A 
ENDBRANCH  49  68
BRANCH  61  74
ATOM     74  C   UNL A   1      45.363  28.887  32.882  1.00  0.00    -0.014 A 
ATOM     75  C   UNL A   1      46.566  29.286  32.280  1.00  0.00     0.009 A 
ATOM     76  C   UNL A   1      45.411  28.063  34.018  1.00  0.00     0.009 A 
ATOM     77  C   UNL A   1      47.789  28.839  32.785  1.00  0.00     0.001 A 
ATOM     78  C   UNL A   1      46.635  27.644  34.538  1.00  0.00     0.001 A 
ATOM     79  C   UNL A   1      47.823  28.024  33.916  1.00  0.00     0.000 A 
ENDBRANCH  61  74
ENDBRANCH  35  36
ENDBRANCH  27  30
ENDBRANCH  25  26
ENDBRANCH  24  25
ENDBRANCH   1  24
TORSDOF 15
ENDMDL
MODEL 3
REMARK VINA RESULT:     -10.7      2.298      3.570
REMARK SMILES CN(C(=O)C[C@](C)(C(=O)NCCCNC(=O)c1ccc(-c2c3nc(c(-c4ccccc4)c4ccc([nH]4)c(-c4ccccc4)c4nc(c(-c5ccccc5)c5ccc2[nH]5)C=C4)C=C3)cc1)c1ccccc1)[C@@H]1CCSC1
REMARK SMILES IDX 11 1 10 2 8 3 9 4 6 6 7 7 5 8 3 9 4 10 2 11 1 12 71 13 72 14
REMARK SMILES IDX 75 15 73 16 74 17 65 18 66 19 70 20 67 21 69 22 68 23 12 24
REMARK SMILES IDX 13 25 14 26 15 27 16 29 17 30 18 31 64 32 19 33 63 34 20 35
REMARK SMILES IDX 21 36 22 37 57 38 23 39 62 40 56 41 58 42 24 43 61 44 55 45
REMARK SMILES IDX 54 46 25 48 47 49 32 50 46 51 33 52 36 53 45 54 59 55 34 56
REMARK SMILES IDX 35 57 44 59 60 60 37 61 26 62 27 63 31 64 28 65 30 66 29 67
REMARK SMILES IDX 48 68 49 69 53 70 50 71 52 72 51 73 38 74 39 75 43 76 40 77
REMARK SMILES IDX 42 78 41 79
REMARK H PARENT 10 5 14 28 58 47 36 58
REMARK Flexibility Score: inf
ROOT
ATOM      1  C   UNL A   1      31.579  28.360  25.844  1.00  0.00     0.117 C 
ENDROOT
BRANCH   1   2
ATOM      2  N   UNL A   1      32.529  28.174  24.762  1.00  0.00    -0.355 N 
ATOM      3  C   UNL A   1      32.395  27.658  23.504  1.00  0.00     0.230 C 
ATOM      4  O   UNL A   1      33.414  27.713  22.807  1.00  0.00    -0.274 OA
ATOM      5  H   UNL A   1      33.441  28.476  24.975  1.00  0.00     0.163 HD
BRANCH   3   6
ATOM      6  C   UNL A   1      31.062  27.013  22.991  1.00  0.00     0.080 C 
ATOM      7  C   UNL A   1      31.407  26.348  21.634  1.00  0.00     0.027 C 
BRANCH   6   8
ATOM      8  C   UNL A   1      30.504  26.018  24.071  1.00  0.00     0.121 C 
BRANCH   8   9
ATOM      9  C   UNL A   1      31.104  24.625  24.181  1.00  0.00     0.224 C 
ATOM     10  O   UNL A   1      30.585  23.727  23.518  1.00  0.00    -0.275 OA
BRANCH   9  11
ATOM     11  N   UNL A   1      32.206  24.406  24.994  1.00  0.00    -0.342 N 
ATOM     12  C   UNL A   1      32.117  24.308  26.451  1.00  0.00     0.147 C 
BRANCH  11  13
ATOM     13  C   UNL A   1      33.590  24.417  24.455  1.00  0.00     0.095 C 
ATOM     14  C   UNL A   1      33.850  23.271  23.471  1.00  0.00     0.037 C 
ATOM     15  C   UNL A   1      34.766  24.432  25.456  1.00  0.00     0.094 C 
ATOM     16  C   UNL A   1      34.335  22.074  24.265  1.00  0.00     0.072 C 
ATOM     17  S   UNL A   1      35.540  22.779  25.415  1.00  0.00    -0.160 SA
ENDBRANCH  11  13
ENDBRANCH   9  11
ENDBRANCH   8   9
ENDBRANCH   6   8
BRANCH   6  18
ATOM     18  C   UNL A   1      29.991  28.141  22.798  1.00  0.00    -0.032 A 
ATOM     19  C   UNL A   1      28.663  27.936  23.231  1.00  0.00     0.005 A 
ATOM     20  C   UNL A   1      30.271  29.362  22.160  1.00  0.00     0.005 A 
ATOM     21  C   UNL A   1      27.642  28.835  22.915  1.00  0.00     0.000 A 
ATOM     22  C   UNL A   1      29.251  30.272  21.859  1.00  0.00     0.000 A 
ATOM     23  C   UNL A   1      27.934  29.995  22.210  1.00  0.00     0.000 A 
ENDBRANCH   6  18
ENDBRANCH   3   6
ENDBRANCH   1   2
BRANCH   1  24
ATOM     24  C   UNL A   1      32.198  28.198  27.225  1.00  0.00     0.042 C 
BRANCH  24  25
ATOM     25  C   UNL A   1      33.615  28.736  27.334  1.00  0.00     0.118 C 
BRANCH  25  26
ATOM     26  N   UNL A   1      33.657  30.127  27.764  1.00  0.00    -0.352 N 
ATOM     27  C   UNL A   1      34.645  30.831  28.400  1.00  0.00     0.251 C 
ATOM     28  H   UNL A   1      32.843  30.645  27.565  1.00  0.00     0.163 HD
ATOM     29  O   UNL A   1      34.406  31.960  28.833  1.00  0.00    -0.269 OA
BRANCH  27  30
ATOM     30  C   UNL A   1      35.989  30.248  28.587  1.00  0.00     0.039 A 
ATOM     31  C   UNL A   1      36.895  30.281  27.522  1.00  0.00     0.014 A 
ATOM     32  C   UNL A   1      36.354  29.646  29.793  1.00  0.00     0.014 A 
ATOM     33  C   UNL A   1      38.184  29.772  27.691  1.00  0.00     0.010 A 
ATOM     34  C   UNL A   1      37.666  29.224  29.989  1.00  0.00     0.010 A 
ATOM     35  C   UNL A   1      38.592  29.274  28.938  1.00  0.00    -0.014 A 
BRANCH  35  36
ATOM     36  C   UNL A   1      39.979  28.793  29.163  1.00  0.00     0.031 A 
ATOM     37  C   UNL A   1      41.008  29.712  29.766  1.00  0.00     0.074 A 
ATOM     38  C   UNL A   1      40.329  27.554  28.765  1.00  0.00     0.049 A 
ATOM     39  N   UNL A   1      42.284  29.498  29.973  1.00  0.00    -0.248 NA
ATOM     40  C   UNL A   1      40.553  31.054  30.164  1.00  0.00     0.031 C 
ATOM     41  C   UNL A   1      39.435  26.581  28.133  1.00  0.00     0.029 A 
ATOM     42  N   UNL A   1      41.536  26.904  28.826  1.00  0.00    -0.354 N 
ATOM     43  C   UNL A   1      42.783  30.683  30.501  1.00  0.00     0.074 A 
ATOM     44  C   UNL A   1      41.687  31.626  30.540  1.00  0.00     0.031 C 
ATOM     45  C   UNL A   1      40.117  25.448  27.895  1.00  0.00     0.029 A 
ATOM     46  C   UNL A   1      41.503  25.631  28.312  1.00  0.00     0.049 A 
ATOM     47  H   UNL A   1      42.349  27.313  29.203  1.00  0.00     0.167 HD
ATOM     48  C   UNL A   1      44.036  30.956  30.933  1.00  0.00     0.031 A 
ATOM     49  C   UNL A   1      42.481  24.715  28.183  1.00  0.00     0.031 A 
ATOM     50  C   UNL A   1      45.121  30.012  30.916  1.00  0.00     0.049 A 
ATOM     51  C   UNL A   1      43.867  25.050  28.660  1.00  0.00     0.074 A 
ATOM     52  C   UNL A   1      46.410  30.173  31.392  1.00  0.00     0.029 A 
ATOM     53  N   UNL A   1      45.043  28.730  30.394  1.00  0.00    -0.354 N 
ATOM     54  N   UNL A   1      44.305  26.150  29.222  1.00  0.00    -0.248 NA
ATOM     55  C   UNL A   1      44.892  24.010  28.492  1.00  0.00     0.031 C 
ATOM     56  C   UNL A   1      47.129  29.007  31.110  1.00  0.00     0.029 A 
ATOM     57  C   UNL A   1      46.269  28.099  30.512  1.00  0.00     0.049 A 
ATOM     58  H   UNL A   1      44.235  28.329  29.999  1.00  0.00     0.167 HD
ATOM     59  C   UNL A   1      45.645  25.923  29.505  1.00  0.00     0.074 A 
ATOM     60  C   UNL A   1      45.944  24.575  29.067  1.00  0.00     0.031 C 
ATOM     61  C   UNL A   1      46.549  26.755  30.077  1.00  0.00     0.031 A 
BRANCH  48  62
ATOM     62  C   UNL A   1      44.307  32.337  31.462  1.00  0.00    -0.014 A 
ATOM     63  C   UNL A   1      44.722  33.375  30.612  1.00  0.00     0.009 A 
ATOM     64  C   UNL A   1      44.096  32.617  32.821  1.00  0.00     0.009 A 
ATOM     65  C   UNL A   1      44.948  34.656  31.118  1.00  0.00     0.001 A 
ATOM     66  C   UNL A   1      44.294  33.906  33.319  1.00  0.00     0.001 A 
ATOM     67  C   UNL A   1      44.728  34.923  32.470  1.00  0.00     0.000 A 
ENDBRANCH  48  62
BRANCH  49  68
ATOM     68  C   UNL A   1      42.191  23.384  27.586  1.00  0.00    -0.014 A 
ATOM     69  C   UNL A   1      42.438  23.146  26.225  1.00  0.00     0.009 A 
ATOM     70  C   UNL A   1      41.642  22.353  28.365  1.00  0.00     0.009 A 
ATOM     71  C   UNL A   1      42.109  21.917  25.649  1.00  0.00     0.001 A 
ATOM     72  C   UNL A   1      41.342  21.116  27.793  1.00  0.00     0.001 A 
ATOM     73  C   UNL A   1      41.564  20.902  26.434  1.00  0.00     0.000 A 
ENDBRANCH  49  68
BRANCH  61  74
ATOM     74  C   UNL A   1      47.933  26.218  30.303  1.00  0.00    -0.014 A 
ATOM     75  C   UNL A   1      48.889  26.207  29.277  1.00  0.00     0.009 A 
ATOM     76  C   UNL A   1      48.296  25.753  31.578  1.00  0.00     0.009 A 
ATOM     77  C   UNL A   1      50.172  25.708  29.514  1.00  0.00     0.001 A 
ATOM     78  C   UNL A   1      49.586  25.283  31.820  1.00  0.00     0.001 A 
ATOM     79  C   UNL A   1      50.521  25.252  30.785  1.00  0.00     0.000 A 
ENDBRANCH  61  74
ENDBRANCH  35  36
ENDBRANCH  27  30
ENDBRANCH  25  26
ENDBRANCH  24  25
ENDBRANCH   1  24
TORSDOF 15
ENDMDL
