MODEL 1
REMARK VINA RESULT:     -12.6      0.000      0.000
REMARK SMILES N#Cc1ccccc1C[C@@H](NC(=O)OCC1c2ccccc2-c2ccccc21)C(=O)NCCCNC(=O)c1ccc(-c2c3nc(c(-c4ccccc4)c4ccc([nH]4)c(-c4ccccc4)c4nc(c(-c5ccccc5)c5ccc2[nH]5)C=C4)C=C3)cc1
REMARK SMILES IDX 32 1 31 2 29 3 30 4 10 6 9 7 8 8 3 9 4 10 5 11 7 12 6 13
REMARK SMILES IDX 2 14 1 15 11 16 12 17 13 19 14 20 15 21 16 22 17 23 28 24
REMARK SMILES IDX 18 25 22 26 23 27 27 28 19 29 21 30 24 31 26 32 20 33 25 34
REMARK SMILES IDX 33 35 34 36 35 37 36 38 37 40 38 41 39 42 85 43 40 44 84 45
REMARK SMILES IDX 41 46 42 47 43 48 78 49 44 50 83 51 77 52 79 53 45 54 82 55
REMARK SMILES IDX 76 56 75 57 46 59 68 60 53 61 67 62 54 63 57 64 66 65 80 66
REMARK SMILES IDX 55 67 56 68 65 70 81 71 58 72 47 73 48 74 52 75 49 76 51 77
REMARK SMILES IDX 50 78 69 79 70 80 74 81 71 82 73 83 72 84 59 85 60 86 64 87
REMARK SMILES IDX 61 88 63 89 62 90
REMARK H PARENT 31 5 11 18 35 39 79 58 57 69
REMARK Flexibility Score: inf
ROOT
ATOM      1  C   UNL A   1      35.630  21.809  26.122  1.00  0.00     0.117 C 
ENDROOT
BRANCH   1   2
ATOM      2  N   UNL A   1      34.784  22.221  27.235  1.00  0.00    -0.354 N 
ATOM      3  C   UNL A   1      33.421  22.168  27.358  1.00  0.00     0.243 C 
ATOM      4  O   UNL A   1      32.919  22.484  28.438  1.00  0.00    -0.273 OA
ATOM      5  H   UNL A   1      35.262  22.593  28.011  1.00  0.00     0.163 HD
BRANCH   3   6
ATOM      6  C   UNL A   1      32.552  21.785  26.143  1.00  0.00     0.179 C 
BRANCH   6   7
ATOM      7  C   UNL A   1      32.918  20.323  25.744  1.00  0.00     0.072 C 
BRANCH   7   8
ATOM      8  C   UNL A   1      32.626  19.891  24.319  1.00  0.00    -0.028 A 
ATOM      9  C   UNL A   1      32.576  18.536  23.939  1.00  0.00     0.055 A 
ATOM     10  C   UNL A   1      32.315  18.190  22.606  1.00  0.00     0.020 A 
ATOM     11  C   UNL A   1      32.083  19.177  21.648  1.00  0.00     0.001 A 
ATOM     12  C   UNL A   1      32.293  20.863  23.356  1.00  0.00     0.005 A 
ATOM     13  C   UNL A   1      32.057  20.513  22.028  1.00  0.00     0.000 A 
BRANCH   9  14
ATOM     14  C   UNL A   1      32.715  17.470  24.897  1.00  0.00     0.099 C 
ATOM     15  N   UNL A   1      32.862  16.628  25.677  1.00  0.00    -0.192 NA
ENDBRANCH   9  14
ENDBRANCH   7   8
ENDBRANCH   6   7
BRANCH   6  16
ATOM     16  N   UNL A   1      31.113  22.029  26.313  1.00  0.00    -0.309 N 
ATOM     17  C   UNL A   1      30.509  23.141  26.811  1.00  0.00     0.407 C 
ATOM     18  H   UNL A   1      30.515  21.300  26.030  1.00  0.00     0.167 HD
ATOM     19  O   UNL A   1      29.573  23.045  27.591  1.00  0.00    -0.225 OA
BRANCH  17  20
ATOM     20  O   UNL A   1      31.036  24.293  26.328  1.00  0.00    -0.449 OA
BRANCH  20  21
ATOM     21  C   UNL A   1      30.120  25.380  26.095  1.00  0.00     0.248 C 
BRANCH  21  22
ATOM     22  C   UNL A   1      30.700  26.406  25.107  1.00  0.00     0.088 C 
ATOM     23  C   UNL A   1      31.673  27.353  25.801  1.00  0.00    -0.029 A 
ATOM     24  C   UNL A   1      31.617  25.713  24.105  1.00  0.00    -0.029 A 
ATOM     25  C   UNL A   1      31.396  28.329  26.747  1.00  0.00     0.005 A 
ATOM     26  C   UNL A   1      32.995  27.056  25.418  1.00  0.00    -0.014 A 
ATOM     27  C   UNL A   1      32.957  26.105  24.328  1.00  0.00    -0.014 A 
ATOM     28  C   UNL A   1      31.283  24.823  23.096  1.00  0.00     0.005 A 
ATOM     29  C   UNL A   1      32.464  28.893  27.440  1.00  0.00     0.000 A 
ATOM     30  C   UNL A   1      34.057  27.636  26.088  1.00  0.00     0.009 A 
ATOM     31  C   UNL A   1      33.973  25.623  23.519  1.00  0.00     0.009 A 
ATOM     32  C   UNL A   1      32.310  24.335  22.284  1.00  0.00     0.000 A 
ATOM     33  C   UNL A   1      33.783  28.532  27.128  1.00  0.00     0.001 A 
ATOM     34  C   UNL A   1      33.641  24.737  22.490  1.00  0.00     0.001 A 
ENDBRANCH  21  22
ENDBRANCH  20  21
ENDBRANCH  17  20
ENDBRANCH   6  16
ENDBRANCH   3   6
ENDBRANCH   1   2
BRANCH   1  35
ATOM     35  C   UNL A   1      35.728  22.879  25.061  1.00  0.00     0.042 C 
BRANCH  35  36
ATOM     36  C   UNL A   1      37.071  23.577  25.110  1.00  0.00     0.118 C 
BRANCH  36  37
ATOM     37  N   UNL A   1      38.154  22.676  25.491  1.00  0.00    -0.352 N 
ATOM     38  C   UNL A   1      39.307  22.949  26.181  1.00  0.00     0.251 C 
ATOM     39  H   UNL A   1      38.041  21.738  25.214  1.00  0.00     0.163 HD
ATOM     40  O   UNL A   1      40.208  22.121  26.247  1.00  0.00    -0.269 OA
BRANCH  38  41
ATOM     41  C   UNL A   1      39.454  24.269  26.818  1.00  0.00     0.039 A 
ATOM     42  C   UNL A   1      38.972  24.458  28.112  1.00  0.00     0.014 A 
ATOM     43  C   UNL A   1      40.126  25.295  26.150  1.00  0.00     0.014 A 
ATOM     44  C   UNL A   1      39.233  25.661  28.763  1.00  0.00     0.010 A 
ATOM     45  C   UNL A   1      40.497  26.433  26.844  1.00  0.00     0.010 A 
ATOM     46  C   UNL A   1      40.036  26.638  28.152  1.00  0.00    -0.014 A 
BRANCH  46  47
ATOM     47  C   UNL A   1      40.393  27.892  28.854  1.00  0.00     0.031 A 
ATOM     48  C   UNL A   1      41.736  28.020  29.518  1.00  0.00     0.074 A 
ATOM     49  C   UNL A   1      39.490  28.887  28.941  1.00  0.00     0.049 A 
ATOM     50  N   UNL A   1      42.219  29.020  30.211  1.00  0.00    -0.248 NA
ATOM     51  C   UNL A   1      42.647  26.866  29.419  1.00  0.00     0.031 C 
ATOM     52  C   UNL A   1      38.135  28.858  28.381  1.00  0.00     0.029 A 
ATOM     53  N   UNL A   1      39.574  30.120  29.536  1.00  0.00    -0.354 N 
ATOM     54  C   UNL A   1      43.474  28.606  30.641  1.00  0.00     0.074 A 
ATOM     55  C   UNL A   1      43.654  27.247  30.189  1.00  0.00     0.031 C 
ATOM     56  C   UNL A   1      37.533  30.032  28.624  1.00  0.00     0.029 A 
ATOM     57  C   UNL A   1      38.434  30.874  29.403  1.00  0.00     0.049 A 
ATOM     58  H   UNL A   1      40.376  30.433  30.014  1.00  0.00     0.167 HD
ATOM     59  C   UNL A   1      44.402  29.304  31.333  1.00  0.00     0.031 A 
ATOM     60  C   UNL A   1      38.144  32.104  29.866  1.00  0.00     0.031 A 
ATOM     61  C   UNL A   1      44.220  30.661  31.775  1.00  0.00     0.049 A 
ATOM     62  C   UNL A   1      39.187  32.851  30.651  1.00  0.00     0.074 A 
ATOM     63  C   UNL A   1      45.124  31.481  32.426  1.00  0.00     0.029 A 
ATOM     64  N   UNL A   1      43.052  31.391  31.619  1.00  0.00    -0.354 N 
ATOM     65  N   UNL A   1      40.403  32.479  30.973  1.00  0.00    -0.248 NA
ATOM     66  C   UNL A   1      38.821  34.192  31.125  1.00  0.00     0.031 C 
ATOM     67  C   UNL A   1      44.477  32.680  32.735  1.00  0.00     0.029 A 
ATOM     68  C   UNL A   1      43.199  32.640  32.199  1.00  0.00     0.049 A 
ATOM     69  H   UNL A   1      42.240  31.071  31.165  1.00  0.00     0.167 HD
ATOM     70  C   UNL A   1      40.957  33.552  31.660  1.00  0.00     0.074 A 
ATOM     71  C   UNL A   1      39.953  34.595  31.686  1.00  0.00     0.031 C 
ATOM     72  C   UNL A   1      42.187  33.665  32.218  1.00  0.00     0.031 A 
BRANCH  59  73
ATOM     73  C   UNL A   1      45.692  28.608  31.671  1.00  0.00    -0.014 A 
ATOM     74  C   UNL A   1      45.858  27.913  32.880  1.00  0.00     0.009 A 
ATOM     75  C   UNL A   1      46.745  28.612  30.743  1.00  0.00     0.009 A 
ATOM     76  C   UNL A   1      47.062  27.266  33.165  1.00  0.00     0.001 A 
ATOM     77  C   UNL A   1      47.934  27.935  31.014  1.00  0.00     0.001 A 
ATOM     78  C   UNL A   1      48.095  27.270  32.229  1.00  0.00     0.000 A 
ENDBRANCH  59  73
BRANCH  60  79
ATOM     79  C   UNL A   1      36.808  32.707  29.608  1.00  0.00    -0.014 A 
ATOM     80  C   UNL A   1      35.791  32.645  30.572  1.00  0.00     0.009 A 
ATOM     81  C   UNL A   1      36.536  33.331  28.380  1.00  0.00     0.009 A 
ATOM     82  C   UNL A   1      34.520  33.157  30.298  1.00  0.00     0.001 A 
ATOM     83  C   UNL A   1      35.277  33.877  28.122  1.00  0.00     0.001 A 
ATOM     84  C   UNL A   1      34.266  33.777  29.075  1.00  0.00     0.000 A 
ENDBRANCH  60  79
BRANCH  72  85
ATOM     85  C   UNL A   1      42.533  34.977  32.867  1.00  0.00    -0.014 A 
ATOM     86  C   UNL A   1      42.160  35.268  34.188  1.00  0.00     0.009 A 
ATOM     87  C   UNL A   1      43.283  35.924  32.150  1.00  0.00     0.009 A 
ATOM     88  C   UNL A   1      42.494  36.496  34.762  1.00  0.00     0.001 A 
ATOM     89  C   UNL A   1      43.649  37.134  32.740  1.00  0.00     0.001 A 
ATOM     90  C   UNL A   1      43.243  37.424  34.041  1.00  0.00     0.000 A 
ENDBRANCH  72  85
ENDBRANCH  46  47
ENDBRANCH  38  41
ENDBRANCH  36  37
ENDBRANCH  35  36
ENDBRANCH   1  35
TORSDOF 17
ENDMDL
MODEL 2
REMARK VINA RESULT:     -12.5      0.682      2.132
REMARK SMILES N#Cc1ccccc1C[C@@H](NC(=O)OCC1c2ccccc2-c2ccccc21)C(=O)NCCCNC(=O)c1ccc(-c2c3nc(c(-c4ccccc4)c4ccc([nH]4)c(-c4ccccc4)c4nc(c(-c5ccccc5)c5ccc2[nH]5)C=C4)C=C3)cc1
REMARK SMILES IDX 32 1 31 2 29 3 30 4 10 6 9 7 8 8 3 9 4 10 5 11 7 12 6 13
REMARK SMILES IDX 2 14 1 15 11 16 12 17 13 19 14 20 15 21 16 22 17 23 28 24
REMARK SMILES IDX 18 25 22 26 23 27 27 28 19 29 21 30 24 31 26 32 20 33 25 34
REMARK SMILES IDX 33 35 34 36 35 37 36 38 37 40 38 41 39 42 85 43 40 44 84 45
REMARK SMILES IDX 41 46 42 47 43 48 78 49 44 50 83 51 77 52 79 53 45 54 82 55
REMARK SMILES IDX 76 56 75 57 46 59 68 60 53 61 67 62 54 63 57 64 66 65 80 66
REMARK SMILES IDX 55 67 56 68 65 70 81 71 58 72 47 73 48 74 52 75 49 76 51 77
REMARK SMILES IDX 50 78 69 79 70 80 74 81 71 82 73 83 72 84 59 85 60 86 64 87
REMARK SMILES IDX 61 88 63 89 62 90
REMARK H PARENT 31 5 11 18 35 39 79 58 57 69
REMARK Flexibility Score: inf
ROOT
ATOM      1  C   UNL A   1      35.968  21.517  25.620  1.00  0.00     0.117 C 
ENDROOT
BRANCH   1   2
ATOM      2  N   UNL A   1      35.298  21.842  26.873  1.00  0.00    -0.354 N 
ATOM      3  C   UNL A   1      33.960  21.850  27.169  1.00  0.00     0.243 C 
ATOM      4  O   UNL A   1      33.620  22.064  28.333  1.00  0.00    -0.273 OA
ATOM      5  H   UNL A   1      35.894  22.093  27.616  1.00  0.00     0.163 HD
BRANCH   3   6
ATOM      6  C   UNL A   1      32.922  21.662  26.044  1.00  0.00     0.179 C 
BRANCH   6   7
ATOM      7  C   UNL A   1      32.780  20.130  25.785  1.00  0.00     0.072 C 
BRANCH   7   8
ATOM      8  C   UNL A   1      32.569  19.678  24.353  1.00  0.00    -0.028 A 
ATOM      9  C   UNL A   1      32.577  18.319  23.984  1.00  0.00     0.055 A 
ATOM     10  C   UNL A   1      32.391  17.954  22.643  1.00  0.00     0.020 A 
ATOM     11  C   UNL A   1      32.178  18.925  21.666  1.00  0.00     0.001 A 
ATOM     12  C   UNL A   1      32.256  20.632  23.365  1.00  0.00     0.005 A 
ATOM     13  C   UNL A   1      32.095  20.263  22.030  1.00  0.00     0.000 A 
BRANCH   9  14
ATOM     14  C   UNL A   1      32.700  17.266  24.958  1.00  0.00     0.099 C 
ATOM     15  N   UNL A   1      32.761  16.422  25.748  1.00  0.00    -0.192 NA
ENDBRANCH   9  14
ENDBRANCH   7   8
ENDBRANCH   6   7
BRANCH   6  16
ATOM     16  N   UNL A   1      31.650  22.366  26.254  1.00  0.00    -0.309 N 
ATOM     17  C   UNL A   1      31.457  23.699  26.440  1.00  0.00     0.407 C 
ATOM     18  H   UNL A   1      30.841  21.804  26.261  1.00  0.00     0.167 HD
ATOM     19  O   UNL A   1      30.676  24.103  27.290  1.00  0.00    -0.225 OA
BRANCH  17  20
ATOM     20  O   UNL A   1      32.178  24.464  25.584  1.00  0.00    -0.449 OA
BRANCH  20  21
ATOM     21  C   UNL A   1      33.415  25.009  26.083  1.00  0.00     0.248 C 
BRANCH  21  22
ATOM     22  C   UNL A   1      33.892  26.198  25.234  1.00  0.00     0.088 C 
ATOM     23  C   UNL A   1      33.356  26.110  23.808  1.00  0.00    -0.029 A 
ATOM     24  C   UNL A   1      33.241  27.489  25.721  1.00  0.00    -0.029 A 
ATOM     25  C   UNL A   1      33.687  25.194  22.821  1.00  0.00     0.005 A 
ATOM     26  C   UNL A   1      32.352  27.076  23.608  1.00  0.00    -0.014 A 
ATOM     27  C   UNL A   1      32.332  27.966  24.749  1.00  0.00    -0.014 A 
ATOM     28  C   UNL A   1      33.445  28.166  26.913  1.00  0.00     0.005 A 
ATOM     29  C   UNL A   1      32.884  25.136  21.685  1.00  0.00     0.000 A 
ATOM     30  C   UNL A   1      31.571  27.036  22.467  1.00  0.00     0.009 A 
ATOM     31  C   UNL A   1      31.636  29.145  24.958  1.00  0.00     0.009 A 
ATOM     32  C   UNL A   1      32.739  29.352  27.123  1.00  0.00     0.000 A 
ATOM     33  C   UNL A   1      31.820  26.035  21.520  1.00  0.00     0.001 A 
ATOM     34  C   UNL A   1      31.848  29.841  26.152  1.00  0.00     0.001 A 
ENDBRANCH  21  22
ENDBRANCH  20  21
ENDBRANCH  17  20
ENDBRANCH   6  16
ENDBRANCH   3   6
ENDBRANCH   1   2
BRANCH   1  35
ATOM     35  C   UNL A   1      36.100  22.723  24.722  1.00  0.00     0.042 C 
BRANCH  35  36
ATOM     36  C   UNL A   1      37.369  23.494  25.022  1.00  0.00     0.118 C 
BRANCH  36  37
ATOM     37  N   UNL A   1      38.474  22.620  25.406  1.00  0.00    -0.352 N 
ATOM     38  C   UNL A   1      39.609  22.918  26.116  1.00  0.00     0.251 C 
ATOM     39  H   UNL A   1      38.393  21.684  25.113  1.00  0.00     0.163 HD
ATOM     40  O   UNL A   1      40.534  22.117  26.182  1.00  0.00    -0.269 OA
BRANCH  38  41
ATOM     41  C   UNL A   1      39.707  24.232  26.773  1.00  0.00     0.039 A 
ATOM     42  C   UNL A   1      39.155  24.401  28.042  1.00  0.00     0.014 A 
ATOM     43  C   UNL A   1      40.402  25.272  26.153  1.00  0.00     0.014 A 
ATOM     44  C   UNL A   1      39.367  25.600  28.719  1.00  0.00     0.010 A 
ATOM     45  C   UNL A   1      40.723  26.406  26.878  1.00  0.00     0.010 A 
ATOM     46  C   UNL A   1      40.191  26.592  28.161  1.00  0.00    -0.014 A 
BRANCH  46  47
ATOM     47  C   UNL A   1      40.496  27.842  28.895  1.00  0.00     0.031 A 
ATOM     48  C   UNL A   1      41.807  27.983  29.618  1.00  0.00     0.074 A 
ATOM     49  C   UNL A   1      39.572  28.820  28.956  1.00  0.00     0.049 A 
ATOM     50  N   UNL A   1      42.243  28.981  30.344  1.00  0.00    -0.248 NA
ATOM     51  C   UNL A   1      42.740  26.846  29.543  1.00  0.00     0.031 C 
ATOM     52  C   UNL A   1      38.243  28.776  28.339  1.00  0.00     0.029 A 
ATOM     53  N   UNL A   1      39.610  30.045  29.571  1.00  0.00    -0.354 N 
ATOM     54  C   UNL A   1      43.485  28.582  30.822  1.00  0.00     0.074 A 
ATOM     55  C   UNL A   1      43.707  27.232  30.360  1.00  0.00     0.031 C 
ATOM     56  C   UNL A   1      37.612  29.937  28.571  1.00  0.00     0.029 A 
ATOM     57  C   UNL A   1      38.464  30.783  29.399  1.00  0.00     0.049 A 
ATOM     58  H   UNL A   1      40.385  30.365  30.087  1.00  0.00     0.167 HD
ATOM     59  C   UNL A   1      44.371  29.285  31.563  1.00  0.00     0.031 A 
ATOM     60  C   UNL A   1      38.133  32.001  29.866  1.00  0.00     0.031 A 
ATOM     61  C   UNL A   1      44.147  30.632  32.014  1.00  0.00     0.049 A 
ATOM     62  C   UNL A   1      39.129  32.754  30.705  1.00  0.00     0.074 A 
ATOM     63  C   UNL A   1      45.007  31.457  32.715  1.00  0.00     0.029 A 
ATOM     64  N   UNL A   1      42.974  31.345  31.819  1.00  0.00    -0.354 N 
ATOM     65  N   UNL A   1      40.336  32.398  31.074  1.00  0.00    -0.248 NA
ATOM     66  C   UNL A   1      38.721  34.082  31.181  1.00  0.00     0.031 C 
ATOM     67  C   UNL A   1      44.328  32.641  33.011  1.00  0.00     0.029 A 
ATOM     68  C   UNL A   1      43.074  32.587  32.421  1.00  0.00     0.049 A 
ATOM     69  H   UNL A   1      42.187  31.017  31.326  1.00  0.00     0.167 HD
ATOM     70  C   UNL A   1      40.843  33.470  31.798  1.00  0.00     0.074 A 
ATOM     71  C   UNL A   1      39.821  34.496  31.795  1.00  0.00     0.031 C 
ATOM     72  C   UNL A   1      42.045  33.595  32.410  1.00  0.00     0.031 A 
BRANCH  59  73
ATOM     73  C   UNL A   1      45.657  28.605  31.947  1.00  0.00    -0.014 A 
ATOM     74  C   UNL A   1      46.802  28.690  31.139  1.00  0.00     0.009 A 
ATOM     75  C   UNL A   1      45.734  27.904  33.160  1.00  0.00     0.009 A 
ATOM     76  C   UNL A   1      47.987  28.059  31.523  1.00  0.00     0.001 A 
ATOM     77  C   UNL A   1      46.929  27.304  33.558  1.00  0.00     0.001 A 
ATOM     78  C   UNL A   1      48.052  27.374  32.735  1.00  0.00     0.000 A 
ENDBRANCH  59  73
BRANCH  60  79
ATOM     79  C   UNL A   1      36.799  32.586  29.559  1.00  0.00    -0.014 A 
ATOM     80  C   UNL A   1      35.721  32.420  30.440  1.00  0.00     0.009 A 
ATOM     81  C   UNL A   1      36.594  33.295  28.365  1.00  0.00     0.009 A 
ATOM     82  C   UNL A   1      34.455  32.917  30.115  1.00  0.00     0.001 A 
ATOM     83  C   UNL A   1      35.338  33.825  28.060  1.00  0.00     0.001 A 
ATOM     84  C   UNL A   1      34.267  33.623  28.927  1.00  0.00     0.000 A 
ENDBRANCH  60  79
BRANCH  72  85
ATOM     85  C   UNL A   1      42.340  34.904  33.090  1.00  0.00    -0.014 A 
ATOM     86  C   UNL A   1      43.115  35.898  32.473  1.00  0.00     0.009 A 
ATOM     87  C   UNL A   1      41.795  35.159  34.359  1.00  0.00     0.009 A 
ATOM     88  C   UNL A   1      43.373  37.102  33.130  1.00  0.00     0.001 A 
ATOM     89  C   UNL A   1      42.021  36.380  34.997  1.00  0.00     0.001 A 
ATOM     90  C   UNL A   1      42.821  37.345  34.387  1.00  0.00     0.000 A 
ENDBRANCH  72  85
ENDBRANCH  46  47
ENDBRANCH  38  41
ENDBRANCH  36  37
ENDBRANCH  35  36
ENDBRANCH   1  35
TORSDOF 17
ENDMDL
MODEL 3
REMARK VINA RESULT:     -12.5      0.316      5.552
REMARK SMILES N#Cc1ccccc1C[C@@H](NC(=O)OCC1c2ccccc2-c2ccccc21)C(=O)NCCCNC(=O)c1ccc(-c2c3nc(c(-c4ccccc4)c4ccc([nH]4)c(-c4ccccc4)c4nc(c(-c5ccccc5)c5ccc2[nH]5)C=C4)C=C3)cc1
REMARK SMILES IDX 32 1 31 2 29 3 30 4 10 6 9 7 8 8 3 9 4 10 5 11 7 12 6 13
REMARK SMILES IDX 2 14 1 15 11 16 12 17 13 19 14 20 15 21 16 22 17 23 28 24
REMARK SMILES IDX 18 25 22 26 23 27 27 28 19 29 21 30 24 31 26 32 20 33 25 34
REMARK SMILES IDX 33 35 34 36 35 37 36 38 37 40 38 41 39 42 85 43 40 44 84 45
REMARK SMILES IDX 41 46 42 47 43 48 78 49 44 50 83 51 77 52 79 53 45 54 82 55
REMARK SMILES IDX 76 56 75 57 46 59 68 60 53 61 67 62 54 63 57 64 66 65 80 66
REMARK SMILES IDX 55 67 56 68 65 70 81 71 58 72 47 73 48 74 52 75 49 76 51 77
REMARK SMILES IDX 50 78 69 79 70 80 74 81 71 82 73 83 72 84 59 85 60 86 64 87
REMARK SMILES IDX 61 88 63 89 62 90
REMARK H PARENT 31 5 11 18 35 39 79 58 57 69
REMARK Flexibility Score: inf
ROOT
ATOM      1  C   UNL A   1      35.630  21.801  26.011  1.00  0.00     0.117 C 
ENDROOT
BRANCH   1   2
ATOM      2  N   UNL A   1      34.809  22.207  27.145  1.00  0.00    -0.354 N 
ATOM      3  C   UNL A   1      33.450  22.138  27.304  1.00  0.00     0.243 C 
ATOM      4  O   UNL A   1      32.972  22.451  28.395  1.00  0.00    -0.273 OA
ATOM      5  H   UNL A   1      35.303  22.586  27.907  1.00  0.00     0.163 HD
BRANCH   3   6
ATOM      6  C   UNL A   1      32.554  21.743  26.112  1.00  0.00     0.179 C 
BRANCH   6   7
ATOM      7  C   UNL A   1      32.908  20.274  25.724  1.00  0.00     0.072 C 
BRANCH   7   8
ATOM      8  C   UNL A   1      32.616  19.836  24.301  1.00  0.00    -0.028 A 
ATOM      9  C   UNL A   1      32.576  18.479  23.925  1.00  0.00     0.055 A 
ATOM     10  C   UNL A   1      32.316  18.127  22.593  1.00  0.00     0.020 A 
ATOM     11  C   UNL A   1      32.075  19.109  21.633  1.00  0.00     0.001 A 
ATOM     12  C   UNL A   1      32.275  20.803  23.335  1.00  0.00     0.005 A 
ATOM     13  C   UNL A   1      32.040  20.447  22.008  1.00  0.00     0.000 A 
BRANCH   9  14
ATOM     14  C   UNL A   1      32.724  17.418  24.886  1.00  0.00     0.099 C 
ATOM     15  N   UNL A   1      32.804  16.561  25.661  1.00  0.00    -0.192 NA
ENDBRANCH   9  14
ENDBRANCH   7   8
ENDBRANCH   6   7
BRANCH   6  16
ATOM     16  N   UNL A   1      31.120  21.994  26.309  1.00  0.00    -0.309 N 
ATOM     17  C   UNL A   1      30.532  23.105  26.826  1.00  0.00     0.407 C 
ATOM     18  H   UNL A   1      30.513  21.270  26.031  1.00  0.00     0.167 HD
ATOM     19  O   UNL A   1      29.609  23.008  27.622  1.00  0.00    -0.225 OA
BRANCH  17  20
ATOM     20  O   UNL A   1      31.057  24.258  26.343  1.00  0.00    -0.449 OA
BRANCH  20  21
ATOM     21  C   UNL A   1      30.147  25.359  26.156  1.00  0.00     0.248 C 
BRANCH  21  22
ATOM     22  C   UNL A   1      30.697  26.382  25.148  1.00  0.00     0.088 C 
ATOM     23  C   UNL A   1      31.674  27.345  25.815  1.00  0.00    -0.029 A 
ATOM     24  C   UNL A   1      31.602  25.689  24.134  1.00  0.00    -0.029 A 
ATOM     25  C   UNL A   1      31.405  28.327  26.758  1.00  0.00     0.005 A 
ATOM     26  C   UNL A   1      32.991  27.057  25.409  1.00  0.00    -0.014 A 
ATOM     27  C   UNL A   1      32.941  26.097  24.327  1.00  0.00    -0.014 A 
ATOM     28  C   UNL A   1      31.257  24.787  23.140  1.00  0.00     0.005 A 
ATOM     29  C   UNL A   1      32.481  28.907  27.425  1.00  0.00     0.000 A 
ATOM     30  C   UNL A   1      34.060  27.654  26.052  1.00  0.00     0.009 A 
ATOM     31  C   UNL A   1      33.947  25.618  23.504  1.00  0.00     0.009 A 
ATOM     32  C   UNL A   1      32.273  24.303  22.312  1.00  0.00     0.000 A 
ATOM     33  C   UNL A   1      33.797  28.556  27.090  1.00  0.00     0.001 A 
ATOM     34  C   UNL A   1      33.604  24.720  22.489  1.00  0.00     0.001 A 
ENDBRANCH  21  22
ENDBRANCH  20  21
ENDBRANCH  17  20
ENDBRANCH   6  16
ENDBRANCH   3   6
ENDBRANCH   1   2
BRANCH   1  35
ATOM     35  C   UNL A   1      35.801  22.918  25.010  1.00  0.00     0.042 C 
BRANCH  35  36
ATOM     36  C   UNL A   1      37.103  23.660  25.233  1.00  0.00     0.118 C 
BRANCH  36  37
ATOM     37  N   UNL A   1      38.212  22.759  25.535  1.00  0.00    -0.352 N 
ATOM     38  C   UNL A   1      39.393  23.025  26.180  1.00  0.00     0.251 C 
ATOM     39  H   UNL A   1      38.096  21.830  25.233  1.00  0.00     0.163 HD
ATOM     40  O   UNL A   1      40.304  22.206  26.178  1.00  0.00    -0.269 OA
BRANCH  38  41
ATOM     41  C   UNL A   1      39.555  24.326  26.851  1.00  0.00     0.039 A 
ATOM     42  C   UNL A   1      39.059  24.491  28.144  1.00  0.00     0.014 A 
ATOM     43  C   UNL A   1      40.254  25.355  26.218  1.00  0.00     0.014 A 
ATOM     44  C   UNL A   1      39.333  25.673  28.828  1.00  0.00     0.010 A 
ATOM     45  C   UNL A   1      40.636  26.469  26.945  1.00  0.00     0.010 A 
ATOM     46  C   UNL A   1      40.162  26.650  28.252  1.00  0.00    -0.014 A 
BRANCH  46  47
ATOM     47  C   UNL A   1      40.531  27.879  28.990  1.00  0.00     0.031 A 
ATOM     48  C   UNL A   1      39.537  29.000  29.120  1.00  0.00     0.074 A 
ATOM     49  C   UNL A   1      41.775  28.007  29.490  1.00  0.00     0.049 A 
ATOM     50  N   UNL A   1      39.683  30.166  29.695  1.00  0.00    -0.248 NA
ATOM     51  C   UNL A   1      38.216  28.800  28.501  1.00  0.00     0.031 C 
ATOM     52  C   UNL A   1      42.844  27.009  29.380  1.00  0.00     0.029 A 
ATOM     53  N   UNL A   1      42.354  29.034  30.191  1.00  0.00    -0.354 N 
ATOM     54  C   UNL A   1      38.485  30.839  29.488  1.00  0.00     0.074 A 
ATOM     55  C   UNL A   1      37.647  29.981  28.684  1.00  0.00     0.031 C 
ATOM     56  C   UNL A   1      43.931  27.455  30.027  1.00  0.00     0.029 A 
ATOM     57  C   UNL A   1      43.658  28.791  30.547  1.00  0.00     0.049 A 
ATOM     58  H   UNL A   1      41.880  29.866  30.417  1.00  0.00     0.167 HD
ATOM     59  C   UNL A   1      38.108  32.054  29.946  1.00  0.00     0.031 A 
ATOM     60  C   UNL A   1      44.539  29.562  31.210  1.00  0.00     0.031 A 
ATOM     61  C   UNL A   1      38.945  32.901  30.752  1.00  0.00     0.049 A 
ATOM     62  C   UNL A   1      44.101  30.918  31.690  1.00  0.00     0.074 A 
ATOM     63  C   UNL A   1      38.636  34.123  31.322  1.00  0.00     0.029 A 
ATOM     64  N   UNL A   1      40.259  32.618  31.093  1.00  0.00    -0.354 N 
ATOM     65  N   UNL A   1      42.934  31.504  31.564  1.00  0.00    -0.248 NA
ATOM     66  C   UNL A   1      45.099  31.716  32.416  1.00  0.00     0.031 C 
ATOM     67  C   UNL A   1      39.786  34.616  31.942  1.00  0.00     0.029 A 
ATOM     68  C   UNL A   1      40.787  33.663  31.832  1.00  0.00     0.049 A 
ATOM     69  H   UNL A   1      40.744  31.799  30.846  1.00  0.00     0.167 HD
ATOM     70  C   UNL A   1      43.048  32.722  32.220  1.00  0.00     0.074 A 
ATOM     71  C   UNL A   1      44.389  32.781  32.762  1.00  0.00     0.031 C 
ATOM     72  C   UNL A   1      42.126  33.706  32.362  1.00  0.00     0.031 A 
BRANCH  59  73
ATOM     73  C   UNL A   1      36.738  32.549  29.571  1.00  0.00    -0.014 A 
ATOM     74  C   UNL A   1      35.654  32.454  30.458  1.00  0.00     0.009 A 
ATOM     75  C   UNL A   1      36.540  33.159  28.323  1.00  0.00     0.009 A 
ATOM     76  C   UNL A   1      34.394  32.930  30.090  1.00  0.00     0.001 A 
ATOM     77  C   UNL A   1      35.289  33.666  27.971  1.00  0.00     0.001 A 
ATOM     78  C   UNL A   1      34.214  33.543  28.851  1.00  0.00     0.000 A 
ENDBRANCH  59  73
BRANCH  60  79
ATOM     79  C   UNL A   1      45.925  29.078  31.456  1.00  0.00    -0.014 A 
ATOM     80  C   UNL A   1      46.244  28.370  32.624  1.00  0.00     0.009 A 
ATOM     81  C   UNL A   1      46.944  29.344  30.527  1.00  0.00     0.009 A 
ATOM     82  C   UNL A   1      47.561  27.974  32.877  1.00  0.00     0.001 A 
ATOM     83  C   UNL A   1      48.252  28.913  30.764  1.00  0.00     0.001 A 
ATOM     84  C   UNL A   1      48.561  28.242  31.945  1.00  0.00     0.000 A 
ENDBRANCH  60  79
BRANCH  72  85
ATOM     85  C   UNL A   1      42.520  34.910  33.173  1.00  0.00    -0.014 A 
ATOM     86  C   UNL A   1      43.144  36.021  32.586  1.00  0.00     0.009 A 
ATOM     87  C   UNL A   1      42.222  34.945  34.544  1.00  0.00     0.009 A 
ATOM     88  C   UNL A   1      43.500  37.124  33.365  1.00  0.00     0.001 A 
ATOM     89  C   UNL A   1      42.543  36.065  35.312  1.00  0.00     0.001 A 
ATOM     90  C   UNL A   1      43.193  37.148  34.724  1.00  0.00     0.000 A 
ENDBRANCH  72  85
ENDBRANCH  46  47
ENDBRANCH  38  41
ENDBRANCH  36  37
ENDBRANCH  35  36
ENDBRANCH   1  35
TORSDOF 17
ENDMDL
