MODEL 1
REMARK VINA RESULT:     -12.0      0.000      0.000
REMARK SMILES O=C(NCCCNC(=O)[C@@H]1[C@H](C(=O)Nc2ccccc2Cc2ccccc2)[C@H]2C=C[C@@H]1O2)c1ccc(-c2c3nc(c(-c4ccccc4)c4ccc([nH]4)c(-c4ccccc4)c4nc(c(-c5ccccc5)c5ccc2[nH]5)C=C4)C=C3)cc1
REMARK SMILES IDX 6 1 5 2 4 3 3 4 1 5 2 6 33 8 34 9 80 10 35 11 79 12 36 13
REMARK SMILES IDX 37 14 38 15 73 16 39 17 78 18 72 19 74 20 40 21 77 22 71 23
REMARK SMILES IDX 70 24 41 26 63 27 48 28 62 29 49 30 52 31 61 32 75 33 50 34
REMARK SMILES IDX 51 35 60 37 76 38 53 39 42 40 43 41 47 42 44 43 46 44 45 45
REMARK SMILES IDX 64 46 65 47 69 48 66 49 68 50 67 51 54 52 55 53 59 54 56 55
REMARK SMILES IDX 58 56 57 57 7 58 8 59 9 61 10 62 11 63 31 64 28 65 30 66
REMARK SMILES IDX 32 67 29 68 12 69 13 70 14 71 15 73 16 74 20 75 17 76 19 77
REMARK SMILES IDX 18 78 21 79 22 80 23 81 27 82 24 83 26 84 25 85
REMARK H PARENT 3 7 74 25 52 36 7 60 14 72
REMARK Flexibility Score: inf
ROOT
ATOM      1  C   UNL A   1      33.359  30.652  27.109  1.00  0.00     0.117 C 
ENDROOT
BRANCH   1   2
ATOM      2  C   UNL A   1      31.930  31.266  27.064  1.00  0.00     0.042 C 
BRANCH   2   3
ATOM      3  C   UNL A   1      31.795  32.659  26.425  1.00  0.00     0.118 C 
BRANCH   3   4
ATOM      4  N   UNL A   1      31.980  33.788  27.339  1.00  0.00    -0.352 N 
ATOM      5  O   UNL A   1      32.649  35.333  28.767  1.00  0.00    -0.269 OA
ATOM      6  C   UNL A   1      32.924  34.243  28.218  1.00  0.00     0.251 C 
ATOM      7  H   UNL A   1      31.203  34.393  27.313  1.00  0.00     0.163 HD
BRANCH   6   8
ATOM      8  C   UNL A   1      34.225  33.608  28.598  1.00  0.00     0.039 A 
ATOM      9  C   UNL A   1      35.458  33.862  28.002  1.00  0.00     0.014 A 
ATOM     10  C   UNL A   1      34.215  32.739  29.713  1.00  0.00     0.014 A 
ATOM     11  C   UNL A   1      36.633  33.253  28.488  1.00  0.00     0.010 A 
ATOM     12  C   UNL A   1      35.391  32.166  30.229  1.00  0.00     0.010 A 
ATOM     13  C   UNL A   1      36.623  32.420  29.622  1.00  0.00    -0.014 A 
BRANCH  13  14
ATOM     14  C   UNL A   1      37.901  31.918  30.211  1.00  0.00     0.031 A 
ATOM     15  C   UNL A   1      38.646  30.747  29.624  1.00  0.00     0.074 A 
ATOM     16  C   UNL A   1      38.399  32.521  31.312  1.00  0.00     0.049 A 
ATOM     17  N   UNL A   1      39.768  30.196  30.026  1.00  0.00    -0.248 NA
ATOM     18  C   UNL A   1      38.053  30.111  28.442  1.00  0.00     0.031 C 
ATOM     19  C   UNL A   1      37.768  33.642  32.009  1.00  0.00     0.029 A 
ATOM     20  N   UNL A   1      39.548  32.289  32.028  1.00  0.00    -0.354 N 
ATOM     21  C   UNL A   1      40.002  29.133  29.163  1.00  0.00     0.074 A 
ATOM     22  C   UNL A   1      38.904  29.103  28.222  1.00  0.00     0.031 C 
ATOM     23  C   UNL A   1      38.560  34.034  33.020  1.00  0.00     0.029 A 
ATOM     24  C   UNL A   1      39.722  33.153  33.083  1.00  0.00     0.049 A 
ATOM     25  H   UNL A   1      40.186  31.572  31.808  1.00  0.00     0.167 HD
ATOM     26  C   UNL A   1      41.040  28.253  29.153  1.00  0.00     0.031 A 
ATOM     27  C   UNL A   1      40.692  33.231  34.016  1.00  0.00     0.031 A 
ATOM     28  C   UNL A   1      42.139  28.272  30.083  1.00  0.00     0.049 A 
ATOM     29  C   UNL A   1      41.826  32.251  33.987  1.00  0.00     0.074 A 
ATOM     30  C   UNL A   1      43.250  27.444  30.123  1.00  0.00     0.029 A 
ATOM     31  N   UNL A   1      42.266  29.157  31.142  1.00  0.00    -0.354 N 
ATOM     32  N   UNL A   1      42.048  31.276  33.139  1.00  0.00    -0.248 NA
ATOM     33  C   UNL A   1      42.839  32.378  35.046  1.00  0.00     0.031 C 
ATOM     34  C   UNL A   1      44.025  27.801  31.232  1.00  0.00     0.029 A 
ATOM     35  C   UNL A   1      43.422  28.883  31.856  1.00  0.00     0.049 A 
ATOM     36  H   UNL A   1      41.628  29.876  31.356  1.00  0.00     0.167 HD
ATOM     37  C   UNL A   1      43.225  30.674  33.557  1.00  0.00     0.074 A 
ATOM     38  C   UNL A   1      43.688  31.398  34.720  1.00  0.00     0.031 C 
ATOM     39  C   UNL A   1      43.867  29.606  33.018  1.00  0.00     0.031 A 
BRANCH  26  40
ATOM     40  C   UNL A   1      41.009  27.163  28.115  1.00  0.00    -0.014 A 
ATOM     41  C   UNL A   1      40.457  25.902  28.392  1.00  0.00     0.009 A 
ATOM     42  C   UNL A   1      41.514  27.414  26.829  1.00  0.00     0.009 A 
ATOM     43  C   UNL A   1      40.452  24.902  27.416  1.00  0.00     0.001 A 
ATOM     44  C   UNL A   1      41.486  26.421  25.849  1.00  0.00     0.001 A 
ATOM     45  C   UNL A   1      40.966  25.162  26.146  1.00  0.00     0.000 A 
ENDBRANCH  26  40
BRANCH  27  46
ATOM     46  C   UNL A   1      40.604  34.278  35.066  1.00  0.00    -0.014 A 
ATOM     47  C   UNL A   1      41.142  35.556  34.853  1.00  0.00     0.009 A 
ATOM     48  C   UNL A   1      39.915  34.020  36.263  1.00  0.00     0.009 A 
ATOM     49  C   UNL A   1      40.987  36.555  35.819  1.00  0.00     0.001 A 
ATOM     50  C   UNL A   1      39.740  35.028  37.212  1.00  0.00     0.001 A 
ATOM     51  C   UNL A   1      40.277  36.294  36.990  1.00  0.00     0.000 A 
ENDBRANCH  27  46
BRANCH  39  52
ATOM     52  C   UNL A   1      45.144  29.172  33.671  1.00  0.00    -0.014 A 
ATOM     53  C   UNL A   1      45.148  28.200  34.684  1.00  0.00     0.009 A 
ATOM     54  C   UNL A   1      46.368  29.703  33.232  1.00  0.00     0.009 A 
ATOM     55  C   UNL A   1      46.351  27.783  35.257  1.00  0.00     0.001 A 
ATOM     56  C   UNL A   1      47.570  29.269  33.792  1.00  0.00     0.001 A 
ATOM     57  C   UNL A   1      47.560  28.314  34.808  1.00  0.00     0.000 A 
ENDBRANCH  39  52
ENDBRANCH  13  14
ENDBRANCH   6   8
ENDBRANCH   3   4
ENDBRANCH   2   3
ENDBRANCH   1   2
BRANCH   1  58
ATOM     58  N   UNL A   1      33.689  29.559  26.144  1.00  0.00    -0.356 N 
ATOM     59  C   UNL A   1      33.252  28.759  25.139  1.00  0.00     0.227 C 
ATOM     60  H   UNL A   1      34.628  29.315  26.309  1.00  0.00     0.163 HD
ATOM     61  O   UNL A   1      34.260  28.183  24.655  1.00  0.00    -0.275 OA
BRANCH  59  62
ATOM     62  C   UNL A   1      31.896  28.357  24.338  1.00  0.00     0.127 C 
ATOM     63  C   UNL A   1      30.760  27.892  25.244  1.00  0.00     0.127 C 
ATOM     64  C   UNL A   1      31.449  27.584  23.064  1.00  0.00     0.155 C 
ATOM     65  C   UNL A   1      29.895  26.939  24.424  1.00  0.00     0.155 C 
ATOM     66  C   UNL A   1      30.138  28.103  22.506  1.00  0.00     0.004 C 
ATOM     67  O   UNL A   1      30.919  26.348  23.616  1.00  0.00    -0.365 OA
ATOM     68  C   UNL A   1      29.179  27.679  23.339  1.00  0.00     0.004 C 
BRANCH  63  69
ATOM     69  C   UNL A   1      31.278  27.211  26.432  1.00  0.00     0.231 C 
ATOM     70  O   UNL A   1      31.286  27.855  27.496  1.00  0.00    -0.274 OA
ATOM     71  N   UNL A   1      31.707  25.952  26.546  1.00  0.00    -0.325 N 
ATOM     72  H   UNL A   1      31.973  25.876  27.491  1.00  0.00     0.169 HD
BRANCH  71  73
ATOM     73  C   UNL A   1      31.979  24.659  26.006  1.00  0.00     0.044 A 
ATOM     74  C   UNL A   1      30.852  23.875  26.455  1.00  0.00     0.026 A 
ATOM     75  C   UNL A   1      33.001  23.956  25.251  1.00  0.00    -0.020 A 
ATOM     76  C   UNL A   1      30.646  22.534  26.193  1.00  0.00     0.002 A 
ATOM     77  C   UNL A   1      32.700  22.574  24.975  1.00  0.00     0.006 A 
ATOM     78  C   UNL A   1      31.569  21.886  25.423  1.00  0.00     0.000 A 
BRANCH  75  79
ATOM     79  C   UNL A   1      34.457  24.264  24.688  1.00  0.00     0.073 C 
BRANCH  79  80
ATOM     80  C   UNL A   1      35.765  23.410  24.885  1.00  0.00    -0.044 A 
ATOM     81  C   UNL A   1      36.064  22.191  24.237  1.00  0.00     0.004 A 
ATOM     82  C   UNL A   1      36.716  23.773  25.852  1.00  0.00     0.004 A 
ATOM     83  C   UNL A   1      37.248  21.455  24.406  1.00  0.00     0.000 A 
ATOM     84  C   UNL A   1      37.898  23.021  26.066  1.00  0.00     0.000 A 
ATOM     85  C   UNL A   1      38.181  21.880  25.321  1.00  0.00     0.000 A 
ENDBRANCH  79  80
ENDBRANCH  75  79
ENDBRANCH  71  73
ENDBRANCH  63  69
ENDBRANCH  59  62
ENDBRANCH   1  58
TORSDOF 14
ENDMDL
MODEL 2
REMARK VINA RESULT:     -12.0      2.478      7.801
REMARK SMILES O=C(NCCCNC(=O)[C@@H]1[C@H](C(=O)Nc2ccccc2Cc2ccccc2)[C@H]2C=C[C@@H]1O2)c1ccc(-c2c3nc(c(-c4ccccc4)c4ccc([nH]4)c(-c4ccccc4)c4nc(c(-c5ccccc5)c5ccc2[nH]5)C=C4)C=C3)cc1
REMARK SMILES IDX 6 1 5 2 4 3 3 4 1 5 2 6 33 8 34 9 80 10 35 11 79 12 36 13
REMARK SMILES IDX 37 14 38 15 73 16 39 17 78 18 72 19 74 20 40 21 77 22 71 23
REMARK SMILES IDX 70 24 41 26 63 27 48 28 62 29 49 30 52 31 61 32 75 33 50 34
REMARK SMILES IDX 51 35 60 37 76 38 53 39 42 40 43 41 47 42 44 43 46 44 45 45
REMARK SMILES IDX 64 46 65 47 69 48 66 49 68 50 67 51 54 52 55 53 59 54 56 55
REMARK SMILES IDX 58 56 57 57 7 58 8 59 9 61 10 62 11 63 31 64 28 65 30 66
REMARK SMILES IDX 32 67 29 68 12 69 13 70 14 71 15 73 16 74 20 75 17 76 19 77
REMARK SMILES IDX 18 78 21 79 22 80 23 81 27 82 24 83 26 84 25 85
REMARK H PARENT 3 7 74 25 52 36 7 60 14 72
REMARK Flexibility Score: inf
ROOT
ATOM      1  C   UNL A   1      37.881  23.472  25.669  1.00  0.00     0.117 C 
ENDROOT
BRANCH   1   2
ATOM      2  C   UNL A   1      38.724  22.249  26.129  1.00  0.00     0.042 C 
BRANCH   2   3
ATOM      3  C   UNL A   1      40.058  22.553  26.833  1.00  0.00     0.118 C 
BRANCH   3   4
ATOM      4  N   UNL A   1      40.946  23.475  26.122  1.00  0.00    -0.352 N 
ATOM      5  O   UNL A   1      42.211  25.125  25.380  1.00  0.00    -0.269 OA
ATOM      6  C   UNL A   1      41.377  24.769  26.241  1.00  0.00     0.251 C 
ATOM      7  H   UNL A   1      41.348  23.041  25.335  1.00  0.00     0.163 HD
BRANCH   6   8
ATOM      8  C   UNL A   1      40.979  25.792  27.257  1.00  0.00     0.039 A 
ATOM      9  C   UNL A   1      40.000  25.631  28.234  1.00  0.00     0.014 A 
ATOM     10  C   UNL A   1      41.721  26.996  27.282  1.00  0.00     0.014 A 
ATOM     11  C   UNL A   1      39.755  26.644  29.184  1.00  0.00     0.010 A 
ATOM     12  C   UNL A   1      41.512  27.988  28.256  1.00  0.00     0.010 A 
ATOM     13  C   UNL A   1      40.522  27.822  29.228  1.00  0.00    -0.014 A 
BRANCH  13  14
ATOM     14  C   UNL A   1      40.350  28.803  30.341  1.00  0.00     0.031 A 
ATOM     15  C   UNL A   1      39.289  29.873  30.308  1.00  0.00     0.074 A 
ATOM     16  C   UNL A   1      41.179  28.741  31.406  1.00  0.00     0.049 A 
ATOM     17  N   UNL A   1      39.020  30.798  31.200  1.00  0.00    -0.248 NA
ATOM     18  C   UNL A   1      38.429  29.914  29.119  1.00  0.00     0.031 C 
ATOM     19  C   UNL A   1      42.274  27.783  31.559  1.00  0.00     0.029 A 
ATOM     20  N   UNL A   1      41.225  29.485  32.561  1.00  0.00    -0.354 N 
ATOM     21  C   UNL A   1      37.976  31.546  30.670  1.00  0.00     0.074 A 
ATOM     22  C   UNL A   1      37.666  30.981  29.375  1.00  0.00     0.031 C 
ATOM     23  C   UNL A   1      42.851  27.961  32.758  1.00  0.00     0.029 A 
ATOM     24  C   UNL A   1      42.210  29.086  33.432  1.00  0.00     0.049 A 
ATOM     25  H   UNL A   1      40.612  30.233  32.746  1.00  0.00     0.167 HD
ATOM     26  C   UNL A   1      37.330  32.614  31.211  1.00  0.00     0.031 A 
ATOM     27  C   UNL A   1      42.582  29.571  34.634  1.00  0.00     0.031 A 
ATOM     28  C   UNL A   1      37.628  33.185  32.499  1.00  0.00     0.049 A 
ATOM     29  C   UNL A   1      41.857  30.750  35.212  1.00  0.00     0.074 A 
ATOM     30  C   UNL A   1      37.001  34.242  33.141  1.00  0.00     0.029 A 
ATOM     31  N   UNL A   1      38.643  32.756  33.341  1.00  0.00    -0.354 N 
ATOM     32  N   UNL A   1      40.848  31.420  34.711  1.00  0.00    -0.248 NA
ATOM     33  C   UNL A   1      42.326  31.242  36.515  1.00  0.00     0.031 C 
ATOM     34  C   UNL A   1      37.665  34.479  34.350  1.00  0.00     0.029 A 
ATOM     35  C   UNL A   1      38.676  33.540  34.484  1.00  0.00     0.049 A 
ATOM     36  H   UNL A   1      39.251  32.005  33.154  1.00  0.00     0.167 HD
ATOM     37  C   UNL A   1      40.557  32.410  35.636  1.00  0.00     0.074 A 
ATOM     38  C   UNL A   1      41.477  32.249  36.741  1.00  0.00     0.031 C 
ATOM     39  C   UNL A   1      39.603  33.375  35.572  1.00  0.00     0.031 A 
BRANCH  26  40
ATOM     40  C   UNL A   1      36.254  33.261  30.382  1.00  0.00    -0.014 A 
ATOM     41  C   UNL A   1      34.910  33.253  30.788  1.00  0.00     0.009 A 
ATOM     42  C   UNL A   1      36.596  33.917  29.188  1.00  0.00     0.009 A 
ATOM     43  C   UNL A   1      33.927  33.850  29.994  1.00  0.00     0.001 A 
ATOM     44  C   UNL A   1      35.616  34.533  28.409  1.00  0.00     0.001 A 
ATOM     45  C   UNL A   1      34.281  34.489  28.806  1.00  0.00     0.000 A 
ENDBRANCH  26  40
BRANCH  27  46
ATOM     46  C   UNL A   1      43.716  28.936  35.351  1.00  0.00    -0.014 A 
ATOM     47  C   UNL A   1      43.501  27.870  36.237  1.00  0.00     0.009 A 
ATOM     48  C   UNL A   1      45.034  29.352  35.096  1.00  0.00     0.009 A 
ATOM     49  C   UNL A   1      44.584  27.232  36.849  1.00  0.00     0.001 A 
ATOM     50  C   UNL A   1      46.113  28.695  35.687  1.00  0.00     0.001 A 
ATOM     51  C   UNL A   1      45.887  27.636  36.565  1.00  0.00     0.000 A 
ENDBRANCH  27  46
BRANCH  39  52
ATOM     52  C   UNL A   1      39.499  34.315  36.735  1.00  0.00    -0.014 A 
ATOM     53  C   UNL A   1      38.801  33.955  37.899  1.00  0.00     0.009 A 
ATOM     54  C   UNL A   1      40.152  35.557  36.689  1.00  0.00     0.009 A 
ATOM     55  C   UNL A   1      38.745  34.829  38.986  1.00  0.00     0.001 A 
ATOM     56  C   UNL A   1      40.111  36.420  37.784  1.00  0.00     0.001 A 
ATOM     57  C   UNL A   1      39.403  36.057  38.930  1.00  0.00     0.000 A 
ENDBRANCH  39  52
ENDBRANCH  13  14
ENDBRANCH   6   8
ENDBRANCH   3   4
ENDBRANCH   2   3
ENDBRANCH   1   2
BRANCH   1  58
ATOM     58  N   UNL A   1      37.028  23.324  24.451  1.00  0.00    -0.356 N 
ATOM     59  C   UNL A   1      35.913  22.779  23.903  1.00  0.00     0.227 C 
ATOM     60  H   UNL A   1      37.462  23.848  23.740  1.00  0.00     0.163 HD
ATOM     61  O   UNL A   1      35.739  23.328  22.784  1.00  0.00    -0.275 OA
BRANCH  59  62
ATOM     62  C   UNL A   1      34.725  21.720  24.236  1.00  0.00     0.127 C 
ATOM     63  C   UNL A   1      33.443  22.373  24.745  1.00  0.00     0.127 C 
ATOM     64  C   UNL A   1      34.518  20.338  24.921  1.00  0.00     0.155 C 
ATOM     65  C   UNL A   1      32.742  21.348  25.633  1.00  0.00     0.155 C 
ATOM     66  C   UNL A   1      33.331  19.586  24.351  1.00  0.00     0.004 C 
ATOM     67  O   UNL A   1      33.896  20.703  26.183  1.00  0.00    -0.365 OA
ATOM     68  C   UNL A   1      32.236  20.202  24.817  1.00  0.00     0.004 C 
BRANCH  63  69
ATOM     69  C   UNL A   1      33.736  23.588  25.506  1.00  0.00     0.231 C 
ATOM     70  O   UNL A   1      34.571  23.495  26.423  1.00  0.00    -0.274 OA
ATOM     71  N   UNL A   1      33.260  24.820  25.317  1.00  0.00    -0.325 N 
ATOM     72  H   UNL A   1      33.688  25.353  26.026  1.00  0.00     0.169 HD
BRANCH  71  73
ATOM     73  C   UNL A   1      32.449  25.766  24.619  1.00  0.00     0.044 A 
ATOM     74  C   UNL A   1      32.486  25.284  23.257  1.00  0.00     0.026 A 
ATOM     75  C   UNL A   1      31.712  26.995  24.854  1.00  0.00    -0.020 A 
ATOM     76  C   UNL A   1      31.849  25.865  22.178  1.00  0.00     0.002 A 
ATOM     77  C   UNL A   1      31.036  27.521  23.695  1.00  0.00     0.006 A 
ATOM     78  C   UNL A   1      31.096  26.982  22.408  1.00  0.00     0.000 A 
BRANCH  75  79
ATOM     79  C   UNL A   1      31.494  28.015  26.056  1.00  0.00     0.073 C 
BRANCH  79  80
ATOM     80  C   UNL A   1      32.540  29.023  26.663  1.00  0.00    -0.044 A 
ATOM     81  C   UNL A   1      32.332  30.404  26.879  1.00  0.00     0.004 A 
ATOM     82  C   UNL A   1      33.853  28.610  26.938  1.00  0.00     0.004 A 
ATOM     83  C   UNL A   1      33.268  31.284  27.445  1.00  0.00     0.000 A 
ATOM     84  C   UNL A   1      34.826  29.493  27.472  1.00  0.00     0.000 A 
ATOM     85  C   UNL A   1      34.524  30.822  27.756  1.00  0.00     0.000 A 
ENDBRANCH  79  80
ENDBRANCH  75  79
ENDBRANCH  71  73
ENDBRANCH  63  69
ENDBRANCH  59  62
ENDBRANCH   1  58
TORSDOF 14
ENDMDL
MODEL 3
REMARK VINA RESULT:     -12.0      0.280      5.733
REMARK SMILES O=C(NCCCNC(=O)[C@@H]1[C@H](C(=O)Nc2ccccc2Cc2ccccc2)[C@H]2C=C[C@@H]1O2)c1ccc(-c2c3nc(c(-c4ccccc4)c4ccc([nH]4)c(-c4ccccc4)c4nc(c(-c5ccccc5)c5ccc2[nH]5)C=C4)C=C3)cc1
REMARK SMILES IDX 6 1 5 2 4 3 3 4 1 5 2 6 33 8 34 9 80 10 35 11 79 12 36 13
REMARK SMILES IDX 37 14 38 15 73 16 39 17 78 18 72 19 74 20 40 21 77 22 71 23
REMARK SMILES IDX 70 24 41 26 63 27 48 28 62 29 49 30 52 31 61 32 75 33 50 34
REMARK SMILES IDX 51 35 60 37 76 38 53 39 42 40 43 41 47 42 44 43 46 44 45 45
REMARK SMILES IDX 64 46 65 47 69 48 66 49 68 50 67 51 54 52 55 53 59 54 56 55
REMARK SMILES IDX 58 56 57 57 7 58 8 59 9 61 10 62 11 63 31 64 28 65 30 66
REMARK SMILES IDX 32 67 29 68 12 69 13 70 14 71 15 73 16 74 20 75 17 76 19 77
REMARK SMILES IDX 18 78 21 79 22 80 23 81 27 82 24 83 26 84 25 85
REMARK H PARENT 3 7 74 25 52 36 7 60 14 72
REMARK Flexibility Score: inf
ROOT
ATOM      1  C   UNL A   1      33.480  30.748  26.951  1.00  0.00     0.117 C 
ENDROOT
BRANCH   1   2
ATOM      2  C   UNL A   1      32.027  31.300  26.990  1.00  0.00     0.042 C 
BRANCH   2   3
ATOM      3  C   UNL A   1      31.799  32.694  26.381  1.00  0.00     0.118 C 
BRANCH   3   4
ATOM      4  N   UNL A   1      31.983  33.818  27.302  1.00  0.00    -0.352 N 
ATOM      5  O   UNL A   1      32.646  35.346  28.751  1.00  0.00    -0.269 OA
ATOM      6  C   UNL A   1      32.913  34.252  28.207  1.00  0.00     0.251 C 
ATOM      7  H   UNL A   1      31.219  34.438  27.258  1.00  0.00     0.163 HD
BRANCH   6   8
ATOM      8  C   UNL A   1      34.190  33.591  28.618  1.00  0.00     0.039 A 
ATOM      9  C   UNL A   1      35.445  33.828  28.061  1.00  0.00     0.014 A 
ATOM     10  C   UNL A   1      34.133  32.712  29.724  1.00  0.00     0.014 A 
ATOM     11  C   UNL A   1      36.594  33.193  28.575  1.00  0.00     0.010 A 
ATOM     12  C   UNL A   1      35.283  32.113  30.269  1.00  0.00     0.010 A 
ATOM     13  C   UNL A   1      36.536  32.350  29.700  1.00  0.00    -0.014 A 
BRANCH  13  14
ATOM     14  C   UNL A   1      37.787  31.819  30.321  1.00  0.00     0.031 A 
ATOM     15  C   UNL A   1      38.384  32.429  31.563  1.00  0.00     0.074 A 
ATOM     16  C   UNL A   1      38.412  30.769  29.746  1.00  0.00     0.049 A 
ATOM     17  N   UNL A   1      39.467  32.078  32.218  1.00  0.00    -0.248 NA
ATOM     18  C   UNL A   1      37.680  33.582  32.137  1.00  0.00     0.031 C 
ATOM     19  C   UNL A   1      37.970  30.100  28.523  1.00  0.00     0.029 A 
ATOM     20  N   UNL A   1      39.539  30.074  30.116  1.00  0.00    -0.354 N 
ATOM     21  C   UNL A   1      39.589  32.982  33.265  1.00  0.00     0.074 A 
ATOM     22  C   UNL A   1      38.482  33.907  33.157  1.00  0.00     0.031 C 
ATOM     23  C   UNL A   1      38.783  29.062  28.270  1.00  0.00     0.029 A 
ATOM     24  C   UNL A   1      39.840  29.030  29.275  1.00  0.00     0.049 A 
ATOM     25  H   UNL A   1      40.079  30.303  30.907  1.00  0.00     0.167 HD
ATOM     26  C   UNL A   1      40.541  33.043  34.235  1.00  0.00     0.031 A 
ATOM     27  C   UNL A   1      40.859  28.146  29.287  1.00  0.00     0.031 A 
ATOM     28  C   UNL A   1      41.648  32.129  34.354  1.00  0.00     0.049 A 
ATOM     29  C   UNL A   1      41.899  28.231  30.364  1.00  0.00     0.074 A 
ATOM     30  C   UNL A   1      42.637  32.093  35.325  1.00  0.00     0.029 A 
ATOM     31  N   UNL A   1      41.920  31.094  33.473  1.00  0.00    -0.354 N 
ATOM     32  N   UNL A   1      41.975  29.071  31.368  1.00  0.00    -0.248 NA
ATOM     33  C   UNL A   1      42.994  27.252  30.307  1.00  0.00     0.031 C 
ATOM     34  C   UNL A   1      43.531  31.065  35.005  1.00  0.00     0.029 A 
ATOM     35  C   UNL A   1      43.072  30.429  33.861  1.00  0.00     0.049 A 
ATOM     36  H   UNL A   1      41.375  30.865  32.686  1.00  0.00     0.167 HD
ATOM     37  C   UNL A   1      43.122  28.723  32.064  1.00  0.00     0.074 A 
ATOM     38  C   UNL A   1      43.705  27.584  31.388  1.00  0.00     0.031 C 
ATOM     39  C   UNL A   1      43.647  29.303  33.174  1.00  0.00     0.031 A 
BRANCH  26  40
ATOM     40  C   UNL A   1      40.445  34.170  35.227  1.00  0.00    -0.014 A 
ATOM     41  C   UNL A   1      39.764  34.020  36.445  1.00  0.00     0.009 A 
ATOM     42  C   UNL A   1      41.073  35.396  34.949  1.00  0.00     0.009 A 
ATOM     43  C   UNL A   1      39.677  35.086  37.344  1.00  0.00     0.001 A 
ATOM     44  C   UNL A   1      41.005  36.451  35.859  1.00  0.00     0.001 A 
ATOM     45  C   UNL A   1      40.297  36.300  37.051  1.00  0.00     0.000 A 
ENDBRANCH  26  40
BRANCH  27  46
ATOM     46  C   UNL A   1      40.937  27.119  28.218  1.00  0.00    -0.014 A 
ATOM     47  C   UNL A   1      40.365  25.851  28.397  1.00  0.00     0.009 A 
ATOM     48  C   UNL A   1      41.530  27.430  26.982  1.00  0.00     0.009 A 
ATOM     49  C   UNL A   1      40.380  24.917  27.356  1.00  0.00     0.001 A 
ATOM     50  C   UNL A   1      41.519  26.505  25.937  1.00  0.00     0.001 A 
ATOM     51  C   UNL A   1      40.945  25.249  26.125  1.00  0.00     0.000 A 
ENDBRANCH  27  46
BRANCH  39  52
ATOM     52  C   UNL A   1      44.903  28.703  33.732  1.00  0.00    -0.014 A 
ATOM     53  C   UNL A   1      46.167  29.188  33.360  1.00  0.00     0.009 A 
ATOM     54  C   UNL A   1      44.821  27.673  34.682  1.00  0.00     0.009 A 
ATOM     55  C   UNL A   1      47.324  28.641  33.917  1.00  0.00     0.001 A 
ATOM     56  C   UNL A   1      45.979  27.141  35.252  1.00  0.00     0.001 A 
ATOM     57  C   UNL A   1      47.229  27.622  34.865  1.00  0.00     0.000 A 
ENDBRANCH  39  52
ENDBRANCH  13  14
ENDBRANCH   6   8
ENDBRANCH   3   4
ENDBRANCH   2   3
ENDBRANCH   1   2
BRANCH   1  58
ATOM     58  N   UNL A   1      33.768  29.581  26.063  1.00  0.00    -0.356 N 
ATOM     59  C   UNL A   1      33.301  28.729  25.115  1.00  0.00     0.227 C 
ATOM     60  H   UNL A   1      34.698  29.315  26.244  1.00  0.00     0.163 HD
ATOM     61  O   UNL A   1      34.287  28.086  24.672  1.00  0.00    -0.275 OA
BRANCH  59  62
ATOM     62  C   UNL A   1      31.930  28.323  24.344  1.00  0.00     0.127 C 
ATOM     63  C   UNL A   1      30.814  27.855  25.274  1.00  0.00     0.127 C 
ATOM     64  C   UNL A   1      31.458  27.546  23.080  1.00  0.00     0.155 C 
ATOM     65  C   UNL A   1      29.935  26.899  24.473  1.00  0.00     0.155 C 
ATOM     66  C   UNL A   1      30.135  28.061  22.549  1.00  0.00     0.004 C 
ATOM     67  O   UNL A   1      30.944  26.310  23.644  1.00  0.00    -0.365 OA
ATOM     68  C   UNL A   1      29.195  27.635  23.402  1.00  0.00     0.004 C 
BRANCH  63  69
ATOM     69  C   UNL A   1      31.360  27.178  26.451  1.00  0.00     0.231 C 
ATOM     70  O   UNL A   1      31.393  27.825  27.513  1.00  0.00    -0.274 OA
ATOM     71  N   UNL A   1      31.790  25.919  26.559  1.00  0.00    -0.325 N 
ATOM     72  H   UNL A   1      32.078  25.845  27.497  1.00  0.00     0.169 HD
BRANCH  71  73
ATOM     73  C   UNL A   1      32.048  24.624  26.017  1.00  0.00     0.044 A 
ATOM     74  C   UNL A   1      30.884  23.866  26.414  1.00  0.00     0.026 A 
ATOM     75  C   UNL A   1      33.080  23.900  25.294  1.00  0.00    -0.020 A 
ATOM     76  C   UNL A   1      30.653  22.534  26.130  1.00  0.00     0.002 A 
ATOM     77  C   UNL A   1      32.753  22.529  24.993  1.00  0.00     0.006 A 
ATOM     78  C   UNL A   1      31.588  21.868  25.390  1.00  0.00     0.000 A 
BRANCH  75  79
ATOM     79  C   UNL A   1      34.564  24.174  24.790  1.00  0.00     0.073 C 
BRANCH  79  80
ATOM     80  C   UNL A   1      35.828  23.253  24.975  1.00  0.00    -0.044 A 
ATOM     81  C   UNL A   1      35.976  21.940  24.475  1.00  0.00     0.004 A 
ATOM     82  C   UNL A   1      36.898  23.663  25.785  1.00  0.00     0.004 A 
ATOM     83  C   UNL A   1      37.121  21.141  24.628  1.00  0.00     0.000 A 
ATOM     84  C   UNL A   1      38.046  22.855  25.985  1.00  0.00     0.000 A 
ATOM     85  C   UNL A   1      38.172  21.608  25.380  1.00  0.00     0.000 A 
ENDBRANCH  79  80
ENDBRANCH  75  79
ENDBRANCH  71  73
ENDBRANCH  63  69
ENDBRANCH  59  62
ENDBRANCH   1  58
TORSDOF 14
ENDMDL
