MODEL 1
REMARK VINA RESULT:     -11.8      0.000      0.000
REMARK SMILES Cc1cc(=O)n2cc(-c3ccccc3)nc2n1[C@H](C)C(=O)NCCCNC(=O)c1ccc(-c2c3nc(c(-c4ccccc4)c4ccc([nH]4)c(-c4ccccc4)c4nc(c(-c5ccccc5)c5ccc2[nH]5)C=C4)C=C3)cc1
REMARK SMILES IDX 24 1 23 2 22 3 20 4 21 5 18 7 19 8 17 9 1 10 2 11 3 12 4 13
REMARK SMILES IDX 16 14 5 15 6 16 15 17 7 18 8 19 9 20 10 21 14 22 11 23 13 24
REMARK SMILES IDX 12 25 25 26 26 27 27 28 28 30 29 31 30 32 76 33 31 34 75 35
REMARK SMILES IDX 32 36 33 37 34 38 69 39 35 40 74 41 68 42 70 43 36 44 73 45
REMARK SMILES IDX 67 46 66 47 37 49 59 50 44 51 58 52 45 53 48 54 57 55 71 56
REMARK SMILES IDX 46 57 47 58 56 60 72 61 49 62 38 63 39 64 43 65 40 66 42 67
REMARK SMILES IDX 41 68 60 69 61 70 65 71 62 72 64 73 63 74 50 75 51 76 55 77
REMARK SMILES IDX 52 78 54 79 53 80
REMARK H PARENT 22 6 26 29 70 48 48 59
REMARK Flexibility Score: inf
ROOT
ATOM      1  C   UNL A   1      33.763  30.516  27.356  1.00  0.00     0.042 C 
ENDROOT
BRANCH   1   2
ATOM      2  C   UNL A   1      34.452  29.304  26.729  1.00  0.00     0.117 C 
BRANCH   2   3
ATOM      3  N   UNL A   1      33.963  28.977  25.405  1.00  0.00    -0.354 N 
ATOM      4  C   UNL A   1      33.132  27.986  24.965  1.00  0.00     0.242 C 
ATOM      5  O   UNL A   1      32.904  27.977  23.747  1.00  0.00    -0.273 OA
ATOM      6  H   UNL A   1      34.289  29.576  24.694  1.00  0.00     0.163 HD
BRANCH   4   7
ATOM      7  C   UNL A   1      32.623  26.830  25.867  1.00  0.00     0.176 C 
ATOM      8  C   UNL A   1      31.658  27.423  26.884  1.00  0.00     0.042 C 
BRANCH   7   9
ATOM      9  N   UNL A   1      32.199  25.605  25.103  1.00  0.00    -0.303 N 
ATOM     10  C   UNL A   1      29.752  26.220  24.591  1.00  0.00     0.065 C 
ATOM     11  C   UNL A   1      30.951  25.310  24.490  1.00  0.00     0.024 A 
ATOM     12  C   UNL A   1      30.789  24.222  23.709  1.00  0.00     0.093 A 
ATOM     13  C   UNL A   1      31.902  23.288  23.455  1.00  0.00     0.259 A 
ATOM     14  C   UNL A   1      33.234  24.697  24.959  1.00  0.00     0.218 A 
ATOM     15  O   UNL A   1      31.838  22.326  22.719  1.00  0.00    -0.269 OA
ATOM     16  N   UNL A   1      33.071  23.605  24.130  1.00  0.00    -0.251 N 
ATOM     17  N   UNL A   1      34.439  24.698  25.494  1.00  0.00    -0.212 NA
ATOM     18  C   UNL A   1      34.264  22.928  24.099  1.00  0.00     0.127 A 
ATOM     19  C   UNL A   1      35.090  23.610  24.961  1.00  0.00     0.091 A 
BRANCH  19  20
ATOM     20  C   UNL A   1      36.435  23.190  25.294  1.00  0.00     0.002 A 
ATOM     21  C   UNL A   1      36.891  21.910  24.944  1.00  0.00     0.010 A 
ATOM     22  C   UNL A   1      37.271  24.034  26.032  1.00  0.00     0.010 A 
ATOM     23  C   UNL A   1      38.154  21.474  25.349  1.00  0.00     0.001 A 
ATOM     24  C   UNL A   1      38.529  23.589  26.449  1.00  0.00     0.001 A 
ATOM     25  C   UNL A   1      38.968  22.309  26.111  1.00  0.00     0.000 A 
ENDBRANCH  19  20
ENDBRANCH   7   9
ENDBRANCH   4   7
ENDBRANCH   2   3
ENDBRANCH   1   2
BRANCH   1  26
ATOM     26  C   UNL A   1      34.767  31.592  27.715  1.00  0.00     0.118 C 
BRANCH  26  27
ATOM     27  N   UNL A   1      34.624  32.056  29.101  1.00  0.00    -0.352 N 
ATOM     28  C   UNL A   1      35.356  31.678  30.213  1.00  0.00     0.251 C 
ATOM     29  H   UNL A   1      33.916  32.721  29.261  1.00  0.00     0.163 HD
ATOM     30  O   UNL A   1      34.963  31.915  31.348  1.00  0.00    -0.269 OA
BRANCH  28  31
ATOM     31  C   UNL A   1      36.626  30.975  29.988  1.00  0.00     0.039 A 
ATOM     32  C   UNL A   1      37.830  31.657  29.808  1.00  0.00     0.014 A 
ATOM     33  C   UNL A   1      36.590  29.590  30.072  1.00  0.00     0.014 A 
ATOM     34  C   UNL A   1      39.013  30.921  29.803  1.00  0.00     0.010 A 
ATOM     35  C   UNL A   1      37.750  28.913  30.314  1.00  0.00     0.010 A 
ATOM     36  C   UNL A   1      38.962  29.547  30.081  1.00  0.00    -0.014 A 
BRANCH  36  37
ATOM     37  C   UNL A   1      40.166  28.735  30.163  1.00  0.00     0.031 A 
ATOM     38  C   UNL A   1      40.766  28.595  31.515  1.00  0.00     0.074 A 
ATOM     39  C   UNL A   1      40.595  27.984  29.125  1.00  0.00     0.049 A 
ATOM     40  N   UNL A   1      41.909  29.041  31.915  1.00  0.00    -0.248 NA
ATOM     41  C   UNL A   1      39.963  27.969  32.576  1.00  0.00     0.031 C 
ATOM     42  C   UNL A   1      39.949  27.740  27.824  1.00  0.00     0.029 A 
ATOM     43  N   UNL A   1      41.673  27.165  29.072  1.00  0.00    -0.354 N 
ATOM     44  C   UNL A   1      42.055  28.616  33.232  1.00  0.00     0.074 A 
ATOM     45  C   UNL A   1      40.774  28.086  33.629  1.00  0.00     0.031 C 
ATOM     46  C   UNL A   1      40.504  26.658  27.236  1.00  0.00     0.029 A 
ATOM     47  C   UNL A   1      41.667  26.274  28.009  1.00  0.00     0.049 A 
ATOM     48  H   UNL A   1      42.402  27.200  29.733  1.00  0.00     0.167 HD
ATOM     49  C   UNL A   1      43.277  28.550  33.831  1.00  0.00     0.031 A 
ATOM     50  C   UNL A   1      42.554  25.274  27.797  1.00  0.00     0.031 A 
ATOM     51  C   UNL A   1      44.281  29.251  33.073  1.00  0.00     0.049 A 
ATOM     52  C   UNL A   1      43.770  25.608  28.572  1.00  0.00     0.074 A 
ATOM     53  C   UNL A   1      44.472  30.564  32.693  1.00  0.00     0.029 A 
ATOM     54  N   UNL A   1      45.075  28.499  32.238  1.00  0.00    -0.354 N 
ATOM     55  N   UNL A   1      44.524  26.638  28.316  1.00  0.00    -0.248 NA
ATOM     56  C   UNL A   1      43.895  25.059  29.913  1.00  0.00     0.031 C 
ATOM     57  C   UNL A   1      44.966  30.488  31.356  1.00  0.00     0.029 A 
ATOM     58  C   UNL A   1      45.112  29.139  31.025  1.00  0.00     0.049 A 
ATOM     59  H   UNL A   1      45.532  27.659  32.469  1.00  0.00     0.167 HD
ATOM     60  C   UNL A   1      44.886  27.132  29.560  1.00  0.00     0.074 A 
ATOM     61  C   UNL A   1      44.557  26.060  30.501  1.00  0.00     0.031 C 
ATOM     62  C   UNL A   1      45.152  28.459  29.746  1.00  0.00     0.031 A 
BRANCH  49  63
ATOM     63  C   UNL A   1      43.643  27.559  34.904  1.00  0.00    -0.014 A 
ATOM     64  C   UNL A   1      43.565  26.183  34.617  1.00  0.00     0.009 A 
ATOM     65  C   UNL A   1      43.804  27.916  36.256  1.00  0.00     0.009 A 
ATOM     66  C   UNL A   1      43.589  25.224  35.636  1.00  0.00     0.001 A 
ATOM     67  C   UNL A   1      43.870  26.957  37.272  1.00  0.00     0.001 A 
ATOM     68  C   UNL A   1      43.736  25.611  36.964  1.00  0.00     0.000 A 
ENDBRANCH  49  63
BRANCH  50  69
ATOM     69  C   UNL A   1      42.291  23.922  27.264  1.00  0.00    -0.014 A 
ATOM     70  C   UNL A   1      42.612  23.610  25.935  1.00  0.00     0.009 A 
ATOM     71  C   UNL A   1      42.003  22.856  28.139  1.00  0.00     0.009 A 
ATOM     72  C   UNL A   1      42.705  22.278  25.512  1.00  0.00     0.001 A 
ATOM     73  C   UNL A   1      42.092  21.527  27.715  1.00  0.00     0.001 A 
ATOM     74  C   UNL A   1      42.463  21.238  26.406  1.00  0.00     0.000 A 
ENDBRANCH  50  69
BRANCH  62  75
ATOM     75  C   UNL A   1      45.233  29.345  28.522  1.00  0.00    -0.014 A 
ATOM     76  C   UNL A   1      44.109  29.973  27.954  1.00  0.00     0.009 A 
ATOM     77  C   UNL A   1      46.501  29.695  28.036  1.00  0.00     0.009 A 
ATOM     78  C   UNL A   1      44.251  30.906  26.920  1.00  0.00     0.001 A 
ATOM     79  C   UNL A   1      46.644  30.640  27.017  1.00  0.00     0.001 A 
ATOM     80  C   UNL A   1      45.520  31.245  26.458  1.00  0.00     0.000 A 
ENDBRANCH  62  75
ENDBRANCH  36  37
ENDBRANCH  28  31
ENDBRANCH  26  27
ENDBRANCH   1  26
TORSDOF 12
ENDMDL
MODEL 2
REMARK VINA RESULT:     -11.7      2.395      7.837
REMARK SMILES Cc1cc(=O)n2cc(-c3ccccc3)nc2n1[C@H](C)C(=O)NCCCNC(=O)c1ccc(-c2c3nc(c(-c4ccccc4)c4ccc([nH]4)c(-c4ccccc4)c4nc(c(-c5ccccc5)c5ccc2[nH]5)C=C4)C=C3)cc1
REMARK SMILES IDX 24 1 23 2 22 3 20 4 21 5 18 7 19 8 17 9 1 10 2 11 3 12 4 13
REMARK SMILES IDX 16 14 5 15 6 16 15 17 7 18 8 19 9 20 10 21 14 22 11 23 13 24
REMARK SMILES IDX 12 25 25 26 26 27 27 28 28 30 29 31 30 32 76 33 31 34 75 35
REMARK SMILES IDX 32 36 33 37 34 38 69 39 35 40 74 41 68 42 70 43 36 44 73 45
REMARK SMILES IDX 67 46 66 47 37 49 59 50 44 51 58 52 45 53 48 54 57 55 71 56
REMARK SMILES IDX 46 57 47 58 56 60 72 61 49 62 38 63 39 64 43 65 40 66 42 67
REMARK SMILES IDX 41 68 60 69 61 70 65 71 62 72 64 73 63 74 50 75 51 76 55 77
REMARK SMILES IDX 52 78 54 79 53 80
REMARK H PARENT 22 6 26 29 70 48 48 59
REMARK Flexibility Score: inf
ROOT
ATOM      1  C   UNL A   1      38.347  22.391  25.696  1.00  0.00     0.042 C 
ENDROOT
BRANCH   1   2
ATOM      2  C   UNL A   1      37.342  23.460  26.123  1.00  0.00     0.117 C 
BRANCH   2   3
ATOM      3  N   UNL A   1      36.013  22.941  26.378  1.00  0.00    -0.354 N 
ATOM      4  C   UNL A   1      34.861  23.000  25.645  1.00  0.00     0.242 C 
ATOM      5  O   UNL A   1      33.875  22.448  26.150  1.00  0.00    -0.273 OA
ATOM      6  H   UNL A   1      35.923  22.461  27.233  1.00  0.00     0.163 HD
BRANCH   4   7
ATOM      7  C   UNL A   1      34.713  23.836  24.346  1.00  0.00     0.176 C 
ATOM      8  C   UNL A   1      35.549  23.170  23.264  1.00  0.00     0.042 C 
BRANCH   7   9
ATOM      9  N   UNL A   1      33.292  24.214  24.025  1.00  0.00    -0.303 N 
ATOM     10  C   UNL A   1      32.554  22.119  22.725  1.00  0.00     0.065 C 
ATOM     11  C   UNL A   1      32.291  23.469  23.344  1.00  0.00     0.024 A 
ATOM     12  C   UNL A   1      31.015  23.901  23.276  1.00  0.00     0.093 A 
ATOM     13  C   UNL A   1      30.599  25.166  23.910  1.00  0.00     0.259 A 
ATOM     14  C   UNL A   1      32.951  25.450  24.548  1.00  0.00     0.218 A 
ATOM     15  O   UNL A   1      29.459  25.580  23.934  1.00  0.00    -0.269 OA
ATOM     16  N   UNL A   1      31.636  25.867  24.506  1.00  0.00    -0.251 N 
ATOM     17  N   UNL A   1      33.707  26.356  25.137  1.00  0.00    -0.212 NA
ATOM     18  C   UNL A   1      31.562  27.069  25.164  1.00  0.00     0.127 A 
ATOM     19  C   UNL A   1      32.854  27.360  25.531  1.00  0.00     0.091 A 
BRANCH  19  20
ATOM     20  C   UNL A   1      33.250  28.589  26.188  1.00  0.00     0.002 A 
ATOM     21  C   UNL A   1      34.471  28.670  26.874  1.00  0.00     0.010 A 
ATOM     22  C   UNL A   1      32.385  29.687  26.202  1.00  0.00     0.010 A 
ATOM     23  C   UNL A   1      34.807  29.824  27.586  1.00  0.00     0.001 A 
ATOM     24  C   UNL A   1      32.717  30.836  26.927  1.00  0.00     0.001 A 
ATOM     25  C   UNL A   1      33.925  30.901  27.621  1.00  0.00     0.000 A 
ENDBRANCH  19  20
ENDBRANCH   7   9
ENDBRANCH   4   7
ENDBRANCH   2   3
ENDBRANCH   1   2
BRANCH   1  26
ATOM     26  C   UNL A   1      39.442  22.224  26.730  1.00  0.00     0.118 C 
BRANCH  26  27
ATOM     27  N   UNL A   1      40.784  22.212  26.131  1.00  0.00    -0.352 N 
ATOM     28  C   UNL A   1      41.672  23.264  25.994  1.00  0.00     0.251 C 
ATOM     29  H   UNL A   1      41.091  21.345  25.783  1.00  0.00     0.163 HD
ATOM     30  O   UNL A   1      42.629  23.198  25.233  1.00  0.00    -0.269 OA
BRANCH  28  31
ATOM     31  C   UNL A   1      41.427  24.474  26.790  1.00  0.00     0.039 A 
ATOM     32  C   UNL A   1      41.959  24.642  28.069  1.00  0.00     0.014 A 
ATOM     33  C   UNL A   1      40.726  25.496  26.164  1.00  0.00     0.014 A 
ATOM     34  C   UNL A   1      41.850  25.892  28.673  1.00  0.00     0.010 A 
ATOM     35  C   UNL A   1      40.840  26.767  26.648  1.00  0.00     0.010 A 
ATOM     36  C   UNL A   1      41.306  26.958  27.941  1.00  0.00    -0.014 A 
BRANCH  36  37
ATOM     37  C   UNL A   1      41.230  28.304  28.485  1.00  0.00     0.031 A 
ATOM     38  C   UNL A   1      42.328  29.226  28.098  1.00  0.00     0.074 A 
ATOM     39  C   UNL A   1      40.130  28.755  29.127  1.00  0.00     0.049 A 
ATOM     40  N   UNL A   1      43.226  29.744  28.868  1.00  0.00    -0.248 NA
ATOM     41  C   UNL A   1      42.511  29.538  26.672  1.00  0.00     0.031 C 
ATOM     42  C   UNL A   1      38.826  28.096  29.314  1.00  0.00     0.029 A 
ATOM     43  N   UNL A   1      39.912  29.983  29.655  1.00  0.00    -0.354 N 
ATOM     44  C   UNL A   1      43.996  30.579  28.065  1.00  0.00     0.074 A 
ATOM     45  C   UNL A   1      43.602  30.306  26.704  1.00  0.00     0.031 C 
ATOM     46  C   UNL A   1      37.900  29.012  29.670  1.00  0.00     0.029 A 
ATOM     47  C   UNL A   1      38.584  30.260  29.942  1.00  0.00     0.049 A 
ATOM     48  H   UNL A   1      40.638  30.628  29.823  1.00  0.00     0.167 HD
ATOM     49  C   UNL A   1      44.757  31.577  28.594  1.00  0.00     0.031 A 
ATOM     50  C   UNL A   1      38.083  31.447  30.355  1.00  0.00     0.031 A 
ATOM     51  C   UNL A   1      44.903  31.437  30.020  1.00  0.00     0.049 A 
ATOM     52  C   UNL A   1      39.214  32.215  30.922  1.00  0.00     0.074 A 
ATOM     53  C   UNL A   1      45.463  30.489  30.851  1.00  0.00     0.029 A 
ATOM     54  N   UNL A   1      44.061  32.181  30.813  1.00  0.00    -0.354 N 
ATOM     55  N   UNL A   1      39.860  31.855  31.994  1.00  0.00    -0.248 NA
ATOM     56  C   UNL A   1      39.921  33.135  30.046  1.00  0.00     0.031 C 
ATOM     57  C   UNL A   1      44.564  30.396  31.956  1.00  0.00     0.029 A 
ATOM     58  C   UNL A   1      43.550  31.339  31.768  1.00  0.00     0.049 A 
ATOM     59  H   UNL A   1      43.862  33.140  30.713  1.00  0.00     0.167 HD
ATOM     60  C   UNL A   1      41.189  32.143  31.722  1.00  0.00     0.074 A 
ATOM     61  C   UNL A   1      41.152  33.023  30.554  1.00  0.00     0.031 C 
ATOM     62  C   UNL A   1      42.201  31.420  32.288  1.00  0.00     0.031 A 
BRANCH  49  63
ATOM     63  C   UNL A   1      45.069  32.870  27.888  1.00  0.00    -0.014 A 
ATOM     64  C   UNL A   1      44.014  33.744  27.566  1.00  0.00     0.009 A 
ATOM     65  C   UNL A   1      46.318  33.141  27.296  1.00  0.00     0.009 A 
ATOM     66  C   UNL A   1      44.187  34.793  26.656  1.00  0.00     0.001 A 
ATOM     67  C   UNL A   1      46.504  34.213  26.419  1.00  0.00     0.001 A 
ATOM     68  C   UNL A   1      45.431  35.024  26.078  1.00  0.00     0.000 A 
ENDBRANCH  49  63
BRANCH  50  69
ATOM     69  C   UNL A   1      36.799  32.073  29.982  1.00  0.00    -0.014 A 
ATOM     70  C   UNL A   1      35.707  32.025  30.860  1.00  0.00     0.009 A 
ATOM     71  C   UNL A   1      36.733  32.971  28.899  1.00  0.00     0.009 A 
ATOM     72  C   UNL A   1      34.616  32.889  30.698  1.00  0.00     0.001 A 
ATOM     73  C   UNL A   1      35.642  33.830  28.735  1.00  0.00     0.001 A 
ATOM     74  C   UNL A   1      34.592  33.803  29.647  1.00  0.00     0.000 A 
ENDBRANCH  50  69
BRANCH  62  75
ATOM     75  C   UNL A   1      41.843  30.425  33.371  1.00  0.00    -0.014 A 
ATOM     76  C   UNL A   1      41.430  29.108  33.096  1.00  0.00     0.009 A 
ATOM     77  C   UNL A   1      42.098  30.772  34.705  1.00  0.00     0.009 A 
ATOM     78  C   UNL A   1      41.260  28.177  34.127  1.00  0.00     0.001 A 
ATOM     79  C   UNL A   1      41.947  29.837  35.733  1.00  0.00     0.001 A 
ATOM     80  C   UNL A   1      41.527  28.540  35.444  1.00  0.00     0.000 A 
ENDBRANCH  62  75
ENDBRANCH  36  37
ENDBRANCH  28  31
ENDBRANCH  26  27
ENDBRANCH   1  26
TORSDOF 12
ENDMDL
MODEL 3
REMARK VINA RESULT:     -11.7      3.829      6.412
REMARK SMILES Cc1cc(=O)n2cc(-c3ccccc3)nc2n1[C@H](C)C(=O)NCCCNC(=O)c1ccc(-c2c3nc(c(-c4ccccc4)c4ccc([nH]4)c(-c4ccccc4)c4nc(c(-c5ccccc5)c5ccc2[nH]5)C=C4)C=C3)cc1
REMARK SMILES IDX 24 1 23 2 22 3 20 4 21 5 18 7 19 8 17 9 1 10 2 11 3 12 4 13
REMARK SMILES IDX 16 14 5 15 6 16 15 17 7 18 8 19 9 20 10 21 14 22 11 23 13 24
REMARK SMILES IDX 12 25 25 26 26 27 27 28 28 30 29 31 30 32 76 33 31 34 75 35
REMARK SMILES IDX 32 36 33 37 34 38 69 39 35 40 74 41 68 42 70 43 36 44 73 45
REMARK SMILES IDX 67 46 66 47 37 49 59 50 44 51 58 52 45 53 48 54 57 55 71 56
REMARK SMILES IDX 46 57 47 58 56 60 72 61 49 62 38 63 39 64 43 65 40 66 42 67
REMARK SMILES IDX 41 68 60 69 61 70 65 71 62 72 64 73 63 74 50 75 51 76 55 77
REMARK SMILES IDX 52 78 54 79 53 80
REMARK H PARENT 22 6 26 29 70 48 48 59
REMARK Flexibility Score: inf
ROOT
ATOM      1  C   UNL A   1      39.504  33.513  33.708  1.00  0.00     0.042 C 
ENDROOT
BRANCH   1   2
ATOM      2  C   UNL A   1      38.141  33.390  33.026  1.00  0.00     0.117 C 
BRANCH   2   3
ATOM      3  N   UNL A   1      37.249  34.497  33.304  1.00  0.00    -0.354 N 
ATOM      4  C   UNL A   1      35.886  34.593  33.275  1.00  0.00     0.242 C 
ATOM      5  O   UNL A   1      35.420  35.702  33.570  1.00  0.00    -0.273 OA
ATOM      6  H   UNL A   1      37.707  35.331  33.560  1.00  0.00     0.163 HD
BRANCH   4   7
ATOM      7  C   UNL A   1      34.958  33.466  32.747  1.00  0.00     0.176 C 
ATOM      8  C   UNL A   1      33.655  33.532  33.529  1.00  0.00     0.042 C 
BRANCH   7   9
ATOM      9  N   UNL A   1      34.894  33.385  31.246  1.00  0.00    -0.303 N 
ATOM     10  C   UNL A   1      33.521  35.504  30.742  1.00  0.00     0.065 C 
ATOM     11  C   UNL A   1      34.301  34.284  30.318  1.00  0.00     0.024 A 
ATOM     12  C   UNL A   1      34.468  34.135  28.988  1.00  0.00     0.093 A 
ATOM     13  C   UNL A   1      35.277  33.033  28.436  1.00  0.00     0.259 A 
ATOM     14  C   UNL A   1      35.578  32.288  30.754  1.00  0.00     0.218 A 
ATOM     15  O   UNL A   1      35.513  32.877  27.255  1.00  0.00    -0.269 OA
ATOM     16  N   UNL A   1      35.775  32.162  29.393  1.00  0.00    -0.251 N 
ATOM     17  N   UNL A   1      36.132  31.279  31.398  1.00  0.00    -0.212 NA
ATOM     18  C   UNL A   1      36.551  31.049  29.188  1.00  0.00     0.127 A 
ATOM     19  C   UNL A   1      36.746  30.509  30.437  1.00  0.00     0.091 A 
BRANCH  19  20
ATOM     20  C   UNL A   1      37.451  29.268  30.680  1.00  0.00     0.002 A 
ATOM     21  C   UNL A   1      37.794  28.884  31.984  1.00  0.00     0.010 A 
ATOM     22  C   UNL A   1      37.860  28.472  29.605  1.00  0.00     0.010 A 
ATOM     23  C   UNL A   1      38.557  27.736  32.208  1.00  0.00     0.001 A 
ATOM     24  C   UNL A   1      38.635  27.330  29.829  1.00  0.00     0.001 A 
ATOM     25  C   UNL A   1      38.986  26.966  31.129  1.00  0.00     0.000 A 
ENDBRANCH  19  20
ENDBRANCH   7   9
ENDBRANCH   4   7
ENDBRANCH   2   3
ENDBRANCH   1   2
BRANCH   1  26
ATOM     26  C   UNL A   1      40.632  33.298  32.719  1.00  0.00     0.118 C 
BRANCH  26  27
ATOM     27  N   UNL A   1      40.551  34.205  31.566  1.00  0.00    -0.352 N 
ATOM     28  C   UNL A   1      41.055  34.019  30.291  1.00  0.00     0.251 C 
ATOM     29  H   UNL A   1      40.078  35.054  31.720  1.00  0.00     0.163 HD
ATOM     30  O   UNL A   1      41.173  34.952  29.508  1.00  0.00    -0.269 OA
BRANCH  28  31
ATOM     31  C   UNL A   1      41.451  32.658  29.905  1.00  0.00     0.039 A 
ATOM     32  C   UNL A   1      42.771  32.329  29.595  1.00  0.00     0.014 A 
ATOM     33  C   UNL A   1      40.464  31.684  29.968  1.00  0.00     0.014 A 
ATOM     34  C   UNL A   1      43.099  30.984  29.437  1.00  0.00     0.010 A 
ATOM     35  C   UNL A   1      40.834  30.374  30.058  1.00  0.00     0.010 A 
ATOM     36  C   UNL A   1      42.122  30.010  29.694  1.00  0.00    -0.014 A 
BRANCH  36  37
ATOM     37  C   UNL A   1      42.417  28.588  29.618  1.00  0.00     0.031 A 
ATOM     38  C   UNL A   1      43.049  27.989  30.822  1.00  0.00     0.074 A 
ATOM     39  C   UNL A   1      41.959  27.815  28.609  1.00  0.00     0.049 A 
ATOM     40  N   UNL A   1      44.238  27.494  30.919  1.00  0.00    -0.248 NA
ATOM     41  C   UNL A   1      42.312  28.029  32.094  1.00  0.00     0.031 C 
ATOM     42  C   UNL A   1      41.045  28.166  27.510  1.00  0.00     0.029 A 
ATOM     43  N   UNL A   1      42.132  26.483  28.429  1.00  0.00    -0.354 N 
ATOM     44  C   UNL A   1      44.354  27.007  32.218  1.00  0.00     0.074 A 
ATOM     45  C   UNL A   1      43.197  27.488  32.933  1.00  0.00     0.031 C 
ATOM     46  C   UNL A   1      40.551  27.040  26.952  1.00  0.00     0.029 A 
ATOM     47  C   UNL A   1      41.272  25.911  27.503  1.00  0.00     0.049 A 
ATOM     48  H   UNL A   1      42.813  25.963  28.915  1.00  0.00     0.167 HD
ATOM     49  C   UNL A   1      45.291  26.077  32.551  1.00  0.00     0.031 A 
ATOM     50  C   UNL A   1      41.150  24.591  27.231  1.00  0.00     0.031 A 
ATOM     51  C   UNL A   1      46.289  25.933  31.523  1.00  0.00     0.049 A 
ATOM     52  C   UNL A   1      42.399  23.942  27.690  1.00  0.00     0.074 A 
ATOM     53  C   UNL A   1      47.232  26.769  30.959  1.00  0.00     0.029 A 
ATOM     54  N   UNL A   1      46.130  24.894  30.636  1.00  0.00    -0.354 N 
ATOM     55  N   UNL A   1      43.566  24.178  27.162  1.00  0.00    -0.248 NA
ATOM     56  C   UNL A   1      42.421  23.379  29.030  1.00  0.00     0.031 C 
ATOM     57  C   UNL A   1      47.212  26.455  29.567  1.00  0.00     0.029 A 
ATOM     58  C   UNL A   1      46.312  25.404  29.374  1.00  0.00     0.049 A 
ATOM     59  H   UNL A   1      45.925  23.960  30.863  1.00  0.00     0.167 HD
ATOM     60  C   UNL A   1      44.443  24.206  28.237  1.00  0.00     0.074 A 
ATOM     61  C   UNL A   1      43.700  23.605  29.345  1.00  0.00     0.031 C 
ATOM     62  C   UNL A   1      45.578  24.965  28.205  1.00  0.00     0.031 A 
BRANCH  49  63
ATOM     63  C   UNL A   1      45.115  25.045  33.634  1.00  0.00    -0.014 A 
ATOM     64  C   UNL A   1      44.299  23.926  33.382  1.00  0.00     0.009 A 
ATOM     65  C   UNL A   1      45.500  25.260  34.970  1.00  0.00     0.009 A 
ATOM     66  C   UNL A   1      43.849  23.103  34.422  1.00  0.00     0.001 A 
ATOM     67  C   UNL A   1      45.085  24.416  36.005  1.00  0.00     0.001 A 
ATOM     68  C   UNL A   1      44.238  23.352  35.734  1.00  0.00     0.000 A 
ENDBRANCH  49  63
BRANCH  50  69
ATOM     69  C   UNL A   1      39.920  23.834  26.928  1.00  0.00    -0.014 A 
ATOM     70  C   UNL A   1      38.699  24.504  26.761  1.00  0.00     0.009 A 
ATOM     71  C   UNL A   1      39.996  22.491  26.509  1.00  0.00     0.009 A 
ATOM     72  C   UNL A   1      37.613  23.875  26.140  1.00  0.00     0.001 A 
ATOM     73  C   UNL A   1      38.910  21.862  25.893  1.00  0.00     0.001 A 
ATOM     74  C   UNL A   1      37.724  22.561  25.690  1.00  0.00     0.000 A 
ENDBRANCH  50  69
BRANCH  62  75
ATOM     75  C   UNL A   1      45.957  25.622  26.896  1.00  0.00    -0.014 A 
ATOM     76  C   UNL A   1      45.452  26.871  26.490  1.00  0.00     0.009 A 
ATOM     77  C   UNL A   1      46.984  25.046  26.134  1.00  0.00     0.009 A 
ATOM     78  C   UNL A   1      45.948  27.512  25.348  1.00  0.00     0.001 A 
ATOM     79  C   UNL A   1      47.492  25.693  25.005  1.00  0.00     0.001 A 
ATOM     80  C   UNL A   1      46.974  26.926  24.611  1.00  0.00     0.000 A 
ENDBRANCH  62  75
ENDBRANCH  36  37
ENDBRANCH  28  31
ENDBRANCH  26  27
ENDBRANCH   1  26
TORSDOF 12
ENDMDL
