MODEL 1
REMARK VINA RESULT:     -10.5      0.000      0.000
REMARK SMILES CC(C)[C@H]([NH2+]Cc1ccc(N(C)C)cc1)C(=O)NCCCNC(=O)c1ccc(-c2c3nc(c(-c4ccccc4)c4ccc([nH]4)c(-c4ccccc4)c4nc(c(-c5ccccc5)c5ccc2[nH]5)C=C4)C=C3)cc1
REMARK SMILES IDX 19 1 18 2 16 3 17 4 4 6 2 7 1 8 3 9 5 10 6 13 7 14 8 15
REMARK SMILES IDX 15 16 9 17 14 18 10 19 11 20 12 21 13 22 20 23 21 24 22 25
REMARK SMILES IDX 23 26 24 28 25 29 26 30 72 31 27 32 71 33 28 34 29 35 30 36
REMARK SMILES IDX 65 37 31 38 70 39 64 40 66 41 32 42 69 43 63 44 62 45 33 47
REMARK SMILES IDX 55 48 40 49 54 50 41 51 44 52 53 53 67 54 42 55 43 56 52 58
REMARK SMILES IDX 68 59 45 60 34 61 35 62 39 63 36 64 38 65 37 66 56 67 57 68
REMARK SMILES IDX 61 69 58 70 60 71 59 72 46 73 47 74 51 75 48 76 50 77 49 78
REMARK H PARENT 18 5 5 11 5 12 22 27 66 46 44 57
REMARK Flexibility Score: inf
ROOT
ATOM      1  C   UNL A   1      36.707  20.733  25.221  1.00  0.00     0.118 C 
ENDROOT
BRANCH   1   2
ATOM      2  N   UNL A   1      35.502  19.954  25.000  1.00  0.00    -0.351 N 
ATOM      3  C   UNL A   1      34.204  20.361  24.881  1.00  0.00     0.278 C 
ATOM      4  O   UNL A   1      33.365  19.516  24.560  1.00  0.00    -0.268 OA
ATOM      5  H   UNL A   1      35.643  18.983  24.926  1.00  0.00     0.163 HD
BRANCH   3   6
ATOM      6  C   UNL A   1      33.820  21.840  25.124  1.00  0.00     0.275 C 
BRANCH   6   7
ATOM      7  C   UNL A   1      32.498  22.019  25.942  1.00  0.00     0.051 C 
ATOM      8  C   UNL A   1      32.605  22.820  27.250  1.00  0.00     0.014 C 
ATOM      9  C   UNL A   1      31.448  22.717  25.064  1.00  0.00     0.014 C 
ENDBRANCH   6   7
BRANCH   6  10
ATOM     10  N   UNL A   1      33.989  22.564  23.842  1.00  0.00    -0.332 N 
ATOM     11  H   UNL A   1      33.076  22.941  23.588  1.00  0.00     0.347 HD
ATOM     12  H   UNL A   1      34.381  21.864  23.213  1.00  0.00     0.347 HD
BRANCH  10  13
ATOM     13  C   UNL A   1      34.936  23.661  23.778  1.00  0.00     0.297 C 
BRANCH  13  14
ATOM     14  C   UNL A   1      34.225  24.971  24.054  1.00  0.00     0.006 A 
ATOM     15  C   UNL A   1      33.603  25.676  23.018  1.00  0.00     0.012 A 
ATOM     16  C   UNL A   1      34.207  25.537  25.325  1.00  0.00     0.012 A 
ATOM     17  C   UNL A   1      32.977  26.911  23.257  1.00  0.00     0.026 A 
ATOM     18  C   UNL A   1      33.575  26.772  25.550  1.00  0.00     0.026 A 
ATOM     19  C   UNL A   1      32.943  27.507  24.528  1.00  0.00     0.036 A 
BRANCH  19  20
ATOM     20  N   UNL A   1      32.354  28.741  24.769  1.00  0.00    -0.378 N 
ATOM     21  C   UNL A   1      31.072  29.157  24.210  1.00  0.00     0.143 C 
ATOM     22  C   UNL A   1      32.939  29.662  25.741  1.00  0.00     0.143 C 
ENDBRANCH  19  20
ENDBRANCH  13  14
ENDBRANCH  10  13
ENDBRANCH   6  10
ENDBRANCH   3   6
ENDBRANCH   1   2
BRANCH   1  23
ATOM     23  C   UNL A   1      37.962  19.950  24.881  1.00  0.00     0.042 C 
BRANCH  23  24
ATOM     24  C   UNL A   1      39.144  20.295  25.778  1.00  0.00     0.118 C 
BRANCH  24  25
ATOM     25  N   UNL A   1      40.107  19.204  25.889  1.00  0.00    -0.352 N 
ATOM     26  C   UNL A   1      41.468  19.242  26.063  1.00  0.00     0.251 C 
ATOM     27  H   UNL A   1      39.721  18.301  25.830  1.00  0.00     0.163 HD
ATOM     28  O   UNL A   1      42.135  18.219  25.931  1.00  0.00    -0.269 OA
BRANCH  26  29
ATOM     29  C   UNL A   1      42.130  20.520  26.388  1.00  0.00     0.039 A 
ATOM     30  C   UNL A   1      42.612  21.321  25.350  1.00  0.00     0.014 A 
ATOM     31  C   UNL A   1      42.260  20.931  27.715  1.00  0.00     0.014 A 
ATOM     32  C   UNL A   1      43.151  22.574  25.644  1.00  0.00     0.010 A 
ATOM     33  C   UNL A   1      42.701  22.217  27.996  1.00  0.00     0.010 A 
ATOM     34  C   UNL A   1      43.157  23.050  26.965  1.00  0.00    -0.014 A 
BRANCH  34  35
ATOM     35  C   UNL A   1      43.633  24.415  27.295  1.00  0.00     0.031 A 
ATOM     36  C   UNL A   1      42.652  25.468  27.734  1.00  0.00     0.074 A 
ATOM     37  C   UNL A   1      44.931  24.728  27.120  1.00  0.00     0.049 A 
ATOM     38  N   UNL A   1      42.862  26.733  27.993  1.00  0.00    -0.248 NA
ATOM     39  C   UNL A   1      41.246  25.052  27.872  1.00  0.00     0.031 C 
ATOM     40  C   UNL A   1      45.970  23.809  26.647  1.00  0.00     0.029 A 
ATOM     41  N   UNL A   1      45.598  25.911  27.312  1.00  0.00    -0.354 N 
ATOM     42  C   UNL A   1      41.615  27.266  28.297  1.00  0.00     0.074 A 
ATOM     43  C   UNL A   1      40.649  26.203  28.139  1.00  0.00     0.031 C 
ATOM     44  C   UNL A   1      47.147  24.456  26.618  1.00  0.00     0.029 A 
ATOM     45  C   UNL A   1      46.939  25.841  27.023  1.00  0.00     0.049 A 
ATOM     46  H   UNL A   1      45.156  26.734  27.626  1.00  0.00     0.167 HD
ATOM     47  C   UNL A   1      41.306  28.522  28.696  1.00  0.00     0.031 A 
ATOM     48  C   UNL A   1      47.894  26.789  27.072  1.00  0.00     0.031 A 
ATOM     49  C   UNL A   1      42.270  29.573  28.868  1.00  0.00     0.049 A 
ATOM     50  C   UNL A   1      47.523  28.176  27.515  1.00  0.00     0.074 A 
ATOM     51  C   UNL A   1      42.068  30.862  29.330  1.00  0.00     0.029 A 
ATOM     52  N   UNL A   1      43.622  29.457  28.581  1.00  0.00    -0.354 N 
ATOM     53  N   UNL A   1      46.352  28.644  27.874  1.00  0.00    -0.248 NA
ATOM     54  C   UNL A   1      48.610  29.163  27.571  1.00  0.00     0.031 C 
ATOM     55  C   UNL A   1      43.289  31.541  29.272  1.00  0.00     0.029 A 
ATOM     56  C   UNL A   1      44.262  30.658  28.833  1.00  0.00     0.049 A 
ATOM     57  H   UNL A   1      44.061  28.641  28.249  1.00  0.00     0.167 HD
ATOM     58  C   UNL A   1      46.566  29.971  28.224  1.00  0.00     0.074 A 
ATOM     59  C   UNL A   1      47.981  30.227  28.052  1.00  0.00     0.031 C 
ATOM     60  C   UNL A   1      45.671  30.894  28.652  1.00  0.00     0.031 A 
BRANCH  47  61
ATOM     61  C   UNL A   1      39.857  28.824  28.966  1.00  0.00    -0.014 A 
ATOM     62  C   UNL A   1      39.298  28.638  30.241  1.00  0.00     0.009 A 
ATOM     63  C   UNL A   1      39.045  29.328  27.938  1.00  0.00     0.009 A 
ATOM     64  C   UNL A   1      37.948  28.912  30.470  1.00  0.00     0.001 A 
ATOM     65  C   UNL A   1      37.704  29.632  28.177  1.00  0.00     0.001 A 
ATOM     66  C   UNL A   1      37.153  29.413  29.439  1.00  0.00     0.000 A 
ENDBRANCH  47  61
BRANCH  48  67
ATOM     67  C   UNL A   1      49.295  26.454  26.708  1.00  0.00    -0.014 A 
ATOM     68  C   UNL A   1      49.757  26.653  25.398  1.00  0.00     0.009 A 
ATOM     69  C   UNL A   1      50.179  25.933  27.667  1.00  0.00     0.009 A 
ATOM     70  C   UNL A   1      51.065  26.309  25.048  1.00  0.00     0.001 A 
ATOM     71  C   UNL A   1      51.495  25.619  27.321  1.00  0.00     0.001 A 
ATOM     72  C   UNL A   1      51.934  25.797  26.010  1.00  0.00     0.000 A 
ENDBRANCH  48  67
BRANCH  60  73
ATOM     73  C   UNL A   1      46.203  32.257  28.997  1.00  0.00    -0.014 A 
ATOM     74  C   UNL A   1      46.243  33.287  28.045  1.00  0.00     0.009 A 
ATOM     75  C   UNL A   1      46.628  32.523  30.307  1.00  0.00     0.009 A 
ATOM     76  C   UNL A   1      46.734  34.548  28.392  1.00  0.00     0.001 A 
ATOM     77  C   UNL A   1      47.088  33.792  30.660  1.00  0.00     0.001 A 
ATOM     78  C   UNL A   1      47.150  34.801  29.699  1.00  0.00     0.000 A 
ENDBRANCH  60  73
ENDBRANCH  34  35
ENDBRANCH  26  29
ENDBRANCH  24  25
ENDBRANCH  23  24
ENDBRANCH   1  23
TORSDOF 15
ENDMDL
MODEL 2
REMARK VINA RESULT:     -10.4      1.811      6.301
REMARK SMILES CC(C)[C@H]([NH2+]Cc1ccc(N(C)C)cc1)C(=O)NCCCNC(=O)c1ccc(-c2c3nc(c(-c4ccccc4)c4ccc([nH]4)c(-c4ccccc4)c4nc(c(-c5ccccc5)c5ccc2[nH]5)C=C4)C=C3)cc1
REMARK SMILES IDX 19 1 18 2 16 3 17 4 4 6 2 7 1 8 3 9 5 10 6 13 7 14 8 15
REMARK SMILES IDX 15 16 9 17 14 18 10 19 11 20 12 21 13 22 20 23 21 24 22 25
REMARK SMILES IDX 23 26 24 28 25 29 26 30 72 31 27 32 71 33 28 34 29 35 30 36
REMARK SMILES IDX 65 37 31 38 70 39 64 40 66 41 32 42 69 43 63 44 62 45 33 47
REMARK SMILES IDX 55 48 40 49 54 50 41 51 44 52 53 53 67 54 42 55 43 56 52 58
REMARK SMILES IDX 68 59 45 60 34 61 35 62 39 63 36 64 38 65 37 66 56 67 57 68
REMARK SMILES IDX 61 69 58 70 60 71 59 72 46 73 47 74 51 75 48 76 50 77 49 78
REMARK H PARENT 18 5 5 11 5 12 22 27 66 46 44 57
REMARK Flexibility Score: inf
ROOT
ATOM      1  C   UNL A   1      36.520  20.787  24.992  1.00  0.00     0.118 C 
ENDROOT
BRANCH   1   2
ATOM      2  N   UNL A   1      35.342  19.991  25.286  1.00  0.00    -0.351 N 
ATOM      3  C   UNL A   1      34.019  20.322  25.218  1.00  0.00     0.278 C 
ATOM      4  O   UNL A   1      33.192  19.424  25.391  1.00  0.00    -0.268 OA
ATOM      5  H   UNL A   1      35.526  19.070  25.581  1.00  0.00     0.163 HD
BRANCH   3   6
ATOM      6  C   UNL A   1      33.590  21.778  24.913  1.00  0.00     0.275 C 
BRANCH   6   7
ATOM      7  C   UNL A   1      33.724  22.741  26.139  1.00  0.00     0.051 C 
ATOM      8  C   UNL A   1      34.463  24.065  25.892  1.00  0.00     0.014 C 
ATOM      9  C   UNL A   1      32.323  23.091  26.665  1.00  0.00     0.014 C 
ENDBRANCH   6   7
BRANCH   6  10
ATOM     10  N   UNL A   1      32.313  21.722  24.164  1.00  0.00    -0.332 N 
ATOM     11  H   UNL A   1      31.595  22.127  24.766  1.00  0.00     0.347 HD
ATOM     12  H   UNL A   1      32.205  20.735  23.933  1.00  0.00     0.347 HD
BRANCH  10  13
ATOM     13  C   UNL A   1      32.223  22.394  22.881  1.00  0.00     0.297 C 
BRANCH  13  14
ATOM     14  C   UNL A   1      31.826  23.842  23.086  1.00  0.00     0.006 A 
ATOM     15  C   UNL A   1      30.553  24.171  23.565  1.00  0.00     0.012 A 
ATOM     16  C   UNL A   1      32.687  24.887  22.763  1.00  0.00     0.012 A 
ATOM     17  C   UNL A   1      30.161  25.511  23.720  1.00  0.00     0.026 A 
ATOM     18  C   UNL A   1      32.281  26.224  22.925  1.00  0.00     0.026 A 
ATOM     19  C   UNL A   1      31.007  26.586  23.401  1.00  0.00     0.036 A 
BRANCH  19  20
ATOM     20  N   UNL A   1      30.619  27.914  23.521  1.00  0.00    -0.378 N 
ATOM     21  C   UNL A   1      31.433  28.949  24.150  1.00  0.00     0.143 C 
ATOM     22  C   UNL A   1      29.398  28.388  22.874  1.00  0.00     0.143 C 
ENDBRANCH  19  20
ENDBRANCH  13  14
ENDBRANCH  10  13
ENDBRANCH   6  10
ENDBRANCH   3   6
ENDBRANCH   1   2
BRANCH   1  23
ATOM     23  C   UNL A   1      37.764  19.931  24.840  1.00  0.00     0.042 C 
BRANCH  23  24
ATOM     24  C   UNL A   1      38.921  20.397  25.713  1.00  0.00     0.118 C 
BRANCH  24  25
ATOM     25  N   UNL A   1      40.002  19.420  25.789  1.00  0.00    -0.352 N 
ATOM     26  C   UNL A   1      41.331  19.594  26.084  1.00  0.00     0.251 C 
ATOM     27  H   UNL A   1      39.738  18.491  25.598  1.00  0.00     0.163 HD
ATOM     28  O   UNL A   1      42.128  18.678  25.901  1.00  0.00    -0.269 OA
BRANCH  26  29
ATOM     29  C   UNL A   1      41.802  20.892  26.604  1.00  0.00     0.039 A 
ATOM     30  C   UNL A   1      42.296  21.845  25.710  1.00  0.00     0.014 A 
ATOM     31  C   UNL A   1      41.742  21.171  27.970  1.00  0.00     0.014 A 
ATOM     32  C   UNL A   1      42.652  23.109  26.182  1.00  0.00     0.010 A 
ATOM     33  C   UNL A   1      41.998  22.459  28.421  1.00  0.00     0.010 A 
ATOM     34  C   UNL A   1      42.462  23.440  27.534  1.00  0.00    -0.014 A 
BRANCH  34  35
ATOM     35  C   UNL A   1      42.738  24.804  28.044  1.00  0.00     0.031 A 
ATOM     36  C   UNL A   1      44.128  25.175  28.484  1.00  0.00     0.074 A 
ATOM     37  C   UNL A   1      41.724  25.679  28.190  1.00  0.00     0.049 A 
ATOM     38  N   UNL A   1      44.551  26.288  29.028  1.00  0.00    -0.248 NA
ATOM     39  C   UNL A   1      45.174  24.151  28.321  1.00  0.00     0.031 C 
ATOM     40  C   UNL A   1      40.323  25.419  27.850  1.00  0.00     0.029 A 
ATOM     41  N   UNL A   1      41.716  26.963  28.670  1.00  0.00    -0.354 N 
ATOM     42  C   UNL A   1      45.901  26.087  29.292  1.00  0.00     0.074 A 
ATOM     43  C   UNL A   1      46.213  24.730  28.901  1.00  0.00     0.031 C 
ATOM     44  C   UNL A   1      39.599  26.522  28.102  1.00  0.00     0.029 A 
ATOM     45  C   UNL A   1      40.472  27.546  28.664  1.00  0.00     0.049 A 
ATOM     46  H   UNL A   1      42.526  27.424  28.991  1.00  0.00     0.167 HD
ATOM     47  C   UNL A   1      46.804  26.961  29.793  1.00  0.00     0.031 A 
ATOM     48  C   UNL A   1      40.077  28.767  29.071  1.00  0.00     0.031 A 
ATOM     49  C   UNL A   1      46.496  28.314  30.167  1.00  0.00     0.049 A 
ATOM     50  C   UNL A   1      41.100  29.718  29.626  1.00  0.00     0.074 A 
ATOM     51  C   UNL A   1      47.353  29.299  30.624  1.00  0.00     0.029 A 
ATOM     52  N   UNL A   1      45.226  28.871  30.129  1.00  0.00    -0.354 N 
ATOM     53  N   UNL A   1      42.388  29.539  29.798  1.00  0.00    -0.248 NA
ATOM     54  C   UNL A   1      40.616  31.043  30.034  1.00  0.00     0.031 C 
ATOM     55  C   UNL A   1      46.592  30.437  30.913  1.00  0.00     0.029 A 
ATOM     56  C   UNL A   1      45.273  30.179  30.578  1.00  0.00     0.049 A 
ATOM     57  H   UNL A   1      44.413  28.405  29.827  1.00  0.00     0.167 HD
ATOM     58  C   UNL A   1      42.872  30.737  30.307  1.00  0.00     0.074 A 
ATOM     59  C   UNL A   1      41.742  31.640  30.399  1.00  0.00     0.031 C 
ATOM     60  C   UNL A   1      44.138  31.061  30.664  1.00  0.00     0.031 A 
BRANCH  47  61
ATOM     61  C   UNL A   1      48.216  26.470  29.972  1.00  0.00    -0.014 A 
ATOM     62  C   UNL A   1      48.622  25.833  31.156  1.00  0.00     0.009 A 
ATOM     63  C   UNL A   1      49.144  26.621  28.930  1.00  0.00     0.009 A 
ATOM     64  C   UNL A   1      49.940  25.395  31.308  1.00  0.00     0.001 A 
ATOM     65  C   UNL A   1      50.452  26.153  29.073  1.00  0.00     0.001 A 
ATOM     66  C   UNL A   1      50.852  25.551  30.265  1.00  0.00     0.000 A 
ENDBRANCH  47  61
BRANCH  48  67
ATOM     67  C   UNL A   1      38.651  29.167  28.952  1.00  0.00    -0.014 A 
ATOM     68  C   UNL A   1      37.783  29.040  30.048  1.00  0.00     0.009 A 
ATOM     69  C   UNL A   1      38.147  29.674  27.744  1.00  0.00     0.009 A 
ATOM     70  C   UNL A   1      36.435  29.386  29.928  1.00  0.00     0.001 A 
ATOM     71  C   UNL A   1      36.806  30.048  27.636  1.00  0.00     0.001 A 
ATOM     72  C   UNL A   1      35.949  29.894  28.724  1.00  0.00     0.000 A 
ENDBRANCH  48  67
BRANCH  60  73
ATOM     73  C   UNL A   1      44.375  32.462  31.155  1.00  0.00    -0.014 A 
ATOM     74  C   UNL A   1      44.671  33.507  30.266  1.00  0.00     0.009 A 
ATOM     75  C   UNL A   1      44.255  32.745  32.524  1.00  0.00     0.009 A 
ATOM     76  C   UNL A   1      44.878  34.802  30.747  1.00  0.00     0.001 A 
ATOM     77  C   UNL A   1      44.430  34.046  32.997  1.00  0.00     0.001 A 
ATOM     78  C   UNL A   1      44.752  35.072  32.109  1.00  0.00     0.000 A 
ENDBRANCH  60  73
ENDBRANCH  34  35
ENDBRANCH  26  29
ENDBRANCH  24  25
ENDBRANCH  23  24
ENDBRANCH   1  23
TORSDOF 15
ENDMDL
MODEL 3
REMARK VINA RESULT:     -10.4      2.774      7.748
REMARK SMILES CC(C)[C@H]([NH2+]Cc1ccc(N(C)C)cc1)C(=O)NCCCNC(=O)c1ccc(-c2c3nc(c(-c4ccccc4)c4ccc([nH]4)c(-c4ccccc4)c4nc(c(-c5ccccc5)c5ccc2[nH]5)C=C4)C=C3)cc1
REMARK SMILES IDX 19 1 18 2 16 3 17 4 4 6 2 7 1 8 3 9 5 10 6 13 7 14 8 15
REMARK SMILES IDX 15 16 9 17 14 18 10 19 11 20 12 21 13 22 20 23 21 24 22 25
REMARK SMILES IDX 23 26 24 28 25 29 26 30 72 31 27 32 71 33 28 34 29 35 30 36
REMARK SMILES IDX 65 37 31 38 70 39 64 40 66 41 32 42 69 43 63 44 62 45 33 47
REMARK SMILES IDX 55 48 40 49 54 50 41 51 44 52 53 53 67 54 42 55 43 56 52 58
REMARK SMILES IDX 68 59 45 60 34 61 35 62 39 63 36 64 38 65 37 66 56 67 57 68
REMARK SMILES IDX 61 69 58 70 60 71 59 72 46 73 47 74 51 75 48 76 50 77 49 78
REMARK H PARENT 18 5 5 11 5 12 22 27 66 46 44 57
REMARK Flexibility Score: inf
ROOT
ATOM      1  C   UNL A   1      31.703  28.235  27.489  1.00  0.00     0.118 C 
ENDROOT
BRANCH   1   2
ATOM      2  N   UNL A   1      31.086  27.043  26.937  1.00  0.00    -0.351 N 
ATOM      3  C   UNL A   1      30.980  26.629  25.639  1.00  0.00     0.278 C 
ATOM      4  O   UNL A   1      30.524  25.503  25.430  1.00  0.00    -0.268 OA
ATOM      5  H   UNL A   1      30.680  26.440  27.600  1.00  0.00     0.163 HD
BRANCH   3   6
ATOM      6  C   UNL A   1      31.442  27.550  24.484  1.00  0.00     0.275 C 
BRANCH   6   7
ATOM      7  C   UNL A   1      30.274  28.349  23.815  1.00  0.00     0.051 C 
ATOM      8  C   UNL A   1      30.279  29.872  24.024  1.00  0.00     0.014 C 
ATOM      9  C   UNL A   1      30.289  28.097  22.299  1.00  0.00     0.014 C 
ENDBRANCH   6   7
BRANCH   6  10
ATOM     10  N   UNL A   1      32.374  26.772  23.635  1.00  0.00    -0.332 N 
ATOM     11  H   UNL A   1      32.341  27.181  22.701  1.00  0.00     0.347 HD
ATOM     12  H   UNL A   1      32.042  25.812  23.720  1.00  0.00     0.347 HD
BRANCH  10  13
ATOM     13  C   UNL A   1      33.771  26.695  24.018  1.00  0.00     0.297 C 
BRANCH  13  14
ATOM     14  C   UNL A   1      34.155  25.252  24.276  1.00  0.00     0.006 A 
ATOM     15  C   UNL A   1      34.256  24.342  23.219  1.00  0.00     0.012 A 
ATOM     16  C   UNL A   1      34.372  24.775  25.565  1.00  0.00     0.012 A 
ATOM     17  C   UNL A   1      34.570  22.992  23.452  1.00  0.00     0.026 A 
ATOM     18  C   UNL A   1      34.688  23.422  25.784  1.00  0.00     0.026 A 
ATOM     19  C   UNL A   1      34.794  22.482  24.742  1.00  0.00     0.036 A 
BRANCH  19  20
ATOM     20  N   UNL A   1      35.075  21.144  24.986  1.00  0.00    -0.378 N 
ATOM     21  C   UNL A   1      34.071  20.085  24.983  1.00  0.00     0.143 C 
ATOM     22  C   UNL A   1      36.458  20.693  25.122  1.00  0.00     0.143 C 
ENDBRANCH  19  20
ENDBRANCH  13  14
ENDBRANCH  10  13
ENDBRANCH   6  10
ENDBRANCH   3   6
ENDBRANCH   1   2
BRANCH   1  23
ATOM     23  C   UNL A   1      33.217  28.187  27.398  1.00  0.00     0.042 C 
BRANCH  23  24
ATOM     24  C   UNL A   1      33.813  29.401  26.696  1.00  0.00     0.118 C 
BRANCH  24  25
ATOM     25  N   UNL A   1      33.792  30.601  27.527  1.00  0.00    -0.352 N 
ATOM     26  C   UNL A   1      34.691  31.040  28.466  1.00  0.00     0.251 C 
ATOM     27  H   UNL A   1      33.012  31.186  27.393  1.00  0.00     0.163 HD
ATOM     28  O   UNL A   1      34.400  31.975  29.208  1.00  0.00    -0.269 OA
BRANCH  26  29
ATOM     29  C   UNL A   1      36.001  30.373  28.595  1.00  0.00     0.039 A 
ATOM     30  C   UNL A   1      36.907  30.441  27.534  1.00  0.00     0.014 A 
ATOM     31  C   UNL A   1      36.336  29.693  29.767  1.00  0.00     0.014 A 
ATOM     32  C   UNL A   1      38.182  29.895  27.685  1.00  0.00     0.010 A 
ATOM     33  C   UNL A   1      37.636  29.243  29.952  1.00  0.00     0.010 A 
ATOM     34  C   UNL A   1      38.571  29.333  28.912  1.00  0.00    -0.014 A 
BRANCH  34  35
ATOM     35  C   UNL A   1      39.950  28.834  29.134  1.00  0.00     0.031 A 
ATOM     36  C   UNL A   1      40.995  29.746  29.715  1.00  0.00     0.074 A 
ATOM     37  C   UNL A   1      40.280  27.590  28.735  1.00  0.00     0.049 A 
ATOM     38  N   UNL A   1      42.269  29.520  29.913  1.00  0.00    -0.248 NA
ATOM     39  C   UNL A   1      40.560  31.101  30.095  1.00  0.00     0.031 C 
ATOM     40  C   UNL A   1      39.369  26.629  28.109  1.00  0.00     0.029 A 
ATOM     41  N   UNL A   1      41.477  26.924  28.792  1.00  0.00    -0.354 N 
ATOM     42  C   UNL A   1      42.788  30.707  30.415  1.00  0.00     0.074 A 
ATOM     43  C   UNL A   1      41.706  31.666  30.440  1.00  0.00     0.031 C 
ATOM     44  C   UNL A   1      40.033  25.487  27.870  1.00  0.00     0.029 A 
ATOM     45  C   UNL A   1      41.422  25.649  28.281  1.00  0.00     0.049 A 
ATOM     46  H   UNL A   1      42.298  27.321  29.163  1.00  0.00     0.167 HD
ATOM     47  C   UNL A   1      44.046  30.969  30.839  1.00  0.00     0.031 A 
ATOM     48  C   UNL A   1      42.386  24.718  28.152  1.00  0.00     0.031 A 
ATOM     49  C   UNL A   1      45.116  30.009  30.827  1.00  0.00     0.049 A 
ATOM     50  C   UNL A   1      43.776  25.035  28.628  1.00  0.00     0.074 A 
ATOM     51  C   UNL A   1      46.410  30.155  31.295  1.00  0.00     0.029 A 
ATOM     52  N   UNL A   1      45.015  28.723  30.318  1.00  0.00    -0.354 N 
ATOM     53  N   UNL A   1      44.232  26.137  29.172  1.00  0.00    -0.248 NA
ATOM     54  C   UNL A   1      44.781  23.973  28.482  1.00  0.00     0.031 C 
ATOM     55  C   UNL A   1      47.107  28.974  31.020  1.00  0.00     0.029 A 
ATOM     56  C   UNL A   1      46.231  28.073  30.437  1.00  0.00     0.049 A 
ATOM     57  H   UNL A   1      44.200  28.331  29.929  1.00  0.00     0.167 HD
ATOM     58  C   UNL A   1      45.569  25.892  29.459  1.00  0.00     0.074 A 
ATOM     59  C   UNL A   1      45.844  24.532  29.045  1.00  0.00     0.031 C 
ATOM     60  C   UNL A   1      46.486  26.720  30.017  1.00  0.00     0.031 A 
BRANCH  47  61
ATOM     61  C   UNL A   1      44.331  32.357  31.345  1.00  0.00    -0.014 A 
ATOM     62  C   UNL A   1      44.782  33.370  30.483  1.00  0.00     0.009 A 
ATOM     63  C   UNL A   1      44.118  32.663  32.698  1.00  0.00     0.009 A 
ATOM     64  C   UNL A   1      45.052  34.649  30.974  1.00  0.00     0.001 A 
ATOM     65  C   UNL A   1      44.359  33.952  33.180  1.00  0.00     0.001 A 
ATOM     66  C   UNL A   1      44.836  34.940  32.320  1.00  0.00     0.000 A 
ENDBRANCH  47  61
BRANCH  48  67
ATOM     67  C   UNL A   1      42.066  23.392  27.562  1.00  0.00    -0.014 A 
ATOM     68  C   UNL A   1      41.499  22.381  28.351  1.00  0.00     0.009 A 
ATOM     69  C   UNL A   1      42.329  23.129  26.208  1.00  0.00     0.009 A 
ATOM     70  C   UNL A   1      41.227  21.124  27.805  1.00  0.00     0.001 A 
ATOM     71  C   UNL A   1      42.028  21.882  25.657  1.00  0.00     0.001 A 
ATOM     72  C   UNL A   1      41.487  20.877  26.457  1.00  0.00     0.000 A 
ENDBRANCH  48  67
BRANCH  60  73
ATOM     73  C   UNL A   1      47.864  26.163  30.243  1.00  0.00    -0.014 A 
ATOM     74  C   UNL A   1      48.809  26.108  29.207  1.00  0.00     0.009 A 
ATOM     75  C   UNL A   1      48.232  25.728  31.525  1.00  0.00     0.009 A 
ATOM     76  C   UNL A   1      50.086  25.595  29.445  1.00  0.00     0.001 A 
ATOM     77  C   UNL A   1      49.519  25.246  31.768  1.00  0.00     0.001 A 
ATOM     78  C   UNL A   1      50.441  25.170  30.725  1.00  0.00     0.000 A 
ENDBRANCH  60  73
ENDBRANCH  34  35
ENDBRANCH  26  29
ENDBRANCH  24  25
ENDBRANCH  23  24
ENDBRANCH   1  23
TORSDOF 15
ENDMDL
