MODEL 1
REMARK VINA RESULT:     -13.1      0.000      0.000
REMARK SMILES Cc1ccc(C(=O)NCCCNC(=O)c2ccc(-c3c4nc(c(-c5ccccc5)c5ccc([nH]5)c(-c5ccccc5)c5nc(c(-c6ccccc6)c6ccc3[nH]6)C=C5)C=C4)cc2)cc1CNC(=O)C[N@@H+]1CCC[C@]2(CCOC2)C1
REMARK SMILES IDX 9 1 8 2 6 3 7 4 5 6 1 7 2 8 3 9 64 10 4 11 63 12 65 13 66 14
REMARK SMILES IDX 67 15 68 17 69 18 70 19 71 20 79 21 72 23 74 24 73 25 75 26
REMARK SMILES IDX 78 27 76 28 77 29 10 30 11 31 12 32 13 33 14 35 15 36 16 37
REMARK SMILES IDX 62 38 17 39 61 40 18 41 19 42 20 43 55 44 21 45 60 46 54 47
REMARK SMILES IDX 56 48 22 49 59 50 53 51 52 52 23 54 45 55 30 56 44 57 31 58
REMARK SMILES IDX 34 59 43 60 57 61 32 62 33 63 42 65 58 66 35 67 24 68 25 69
REMARK SMILES IDX 29 70 26 71 28 72 27 73 46 74 47 75 51 76 48 77 50 78 49 79
REMARK SMILES IDX 36 80 37 81 41 82 38 83 40 84 39 85
REMARK H PARENT 8 5 66 16 70 22 12 34 56 53 34 64
REMARK Flexibility Score: inf
ROOT
ATOM      1  C   UNL A   1      38.229  22.830  26.117  1.00  0.00     0.118 C 
ENDROOT
BRANCH   1   2
ATOM      2  N   UNL A   1      37.775  23.144  24.777  1.00  0.00    -0.352 N 
ATOM      3  C   UNL A   1      36.725  22.778  23.981  1.00  0.00     0.251 C 
ATOM      4  O   UNL A   1      36.701  23.309  22.865  1.00  0.00    -0.269 OA
ATOM      5  H   UNL A   1      38.373  23.783  24.326  1.00  0.00     0.163 HD
BRANCH   3   6
ATOM      6  C   UNL A   1      35.639  21.806  24.322  1.00  0.00     0.040 A 
ATOM      7  C   UNL A   1      32.875  18.581  25.305  1.00  0.00     0.044 C 
ATOM      8  C   UNL A   1      33.772  19.743  24.970  1.00  0.00    -0.046 A 
ATOM      9  C   UNL A   1      35.149  19.491  24.942  1.00  0.00     0.004 A 
ATOM     10  C   UNL A   1      33.319  21.034  24.638  1.00  0.00    -0.025 A 
ATOM     11  C   UNL A   1      36.061  20.501  24.626  1.00  0.00     0.014 A 
ATOM     12  C   UNL A   1      34.266  22.050  24.333  1.00  0.00     0.019 A 
BRANCH  10  13
ATOM     13  C   UNL A   1      31.857  21.421  24.587  1.00  0.00     0.152 C 
BRANCH  13  14
ATOM     14  N   UNL A   1      31.420  21.922  25.871  1.00  0.00    -0.347 N 
ATOM     15  C   UNL A   1      30.902  23.150  26.162  1.00  0.00     0.275 C 
ATOM     16  H   UNL A   1      31.506  21.299  26.628  1.00  0.00     0.164 HD
ATOM     17  O   UNL A   1      30.591  23.396  27.331  1.00  0.00    -0.268 OA
BRANCH  15  18
ATOM     18  C   UNL A   1      30.757  24.206  25.051  1.00  0.00     0.363 C 
BRANCH  18  19
ATOM     19  N   UNL A   1      31.554  25.401  25.372  1.00  0.00    -0.327 N 
ATOM     20  C   UNL A   1      30.716  26.558  25.670  1.00  0.00     0.262 C 
ATOM     21  C   UNL A   1      32.608  25.746  24.398  1.00  0.00     0.272 C 
ATOM     22  H   UNL A   1      32.059  25.131  26.216  1.00  0.00     0.348 HD
ATOM     23  C   UNL A   1      30.147  27.251  24.441  1.00  0.00     0.062 C 
ATOM     24  C   UNL A   1      32.206  26.625  23.172  1.00  0.00     0.045 C 
ATOM     25  C   UNL A   1      31.298  27.784  23.605  1.00  0.00     0.021 C 
ATOM     26  C   UNL A   1      31.573  25.790  22.057  1.00  0.00     0.043 C 
ATOM     27  C   UNL A   1      33.459  27.164  22.483  1.00  0.00     0.173 C 
ATOM     28  C   UNL A   1      32.695  25.535  21.066  1.00  0.00     0.161 C 
ATOM     29  O   UNL A   1      33.882  26.120  21.605  1.00  0.00    -0.381 OA
ENDBRANCH  18  19
ENDBRANCH  15  18
ENDBRANCH  13  14
ENDBRANCH  10  13
ENDBRANCH   3   6
ENDBRANCH   1   2
BRANCH   1  30
ATOM     30  C   UNL A   1      39.699  22.430  26.158  1.00  0.00     0.042 C 
BRANCH  30  31
ATOM     31  C   UNL A   1      40.333  22.626  27.539  1.00  0.00     0.118 C 
BRANCH  31  32
ATOM     32  N   UNL A   1      41.513  23.493  27.588  1.00  0.00    -0.352 N 
ATOM     33  C   UNL A   1      41.635  24.869  27.466  1.00  0.00     0.251 C 
ATOM     34  H   UNL A   1      42.364  23.019  27.731  1.00  0.00     0.163 HD
ATOM     35  O   UNL A   1      42.711  25.426  27.596  1.00  0.00    -0.269 OA
BRANCH  33  36
ATOM     36  C   UNL A   1      40.396  25.667  27.426  1.00  0.00     0.039 A 
ATOM     37  C   UNL A   1      40.557  26.889  26.763  1.00  0.00     0.014 A 
ATOM     38  C   UNL A   1      39.465  25.499  28.443  1.00  0.00     0.014 A 
ATOM     39  C   UNL A   1      40.070  28.029  27.374  1.00  0.00     0.010 A 
ATOM     40  C   UNL A   1      39.050  26.641  29.096  1.00  0.00     0.010 A 
ATOM     41  C   UNL A   1      39.451  27.895  28.616  1.00  0.00    -0.014 A 
BRANCH  41  42
ATOM     42  C   UNL A   1      39.322  29.033  29.513  1.00  0.00     0.031 A 
ATOM     43  C   UNL A   1      38.340  30.073  29.180  1.00  0.00     0.074 A 
ATOM     44  C   UNL A   1      40.159  29.228  30.558  1.00  0.00     0.049 A 
ATOM     45  N   UNL A   1      38.577  31.339  29.264  1.00  0.00    -0.248 NA
ATOM     46  C   UNL A   1      37.028  29.745  28.641  1.00  0.00     0.031 C 
ATOM     47  C   UNL A   1      40.063  30.294  31.554  1.00  0.00     0.029 A 
ATOM     48  N   UNL A   1      41.405  28.647  30.801  1.00  0.00    -0.354 N 
ATOM     49  C   UNL A   1      37.376  31.976  29.071  1.00  0.00     0.074 A 
ATOM     50  C   UNL A   1      36.471  30.956  28.589  1.00  0.00     0.031 C 
ATOM     51  C   UNL A   1      41.284  30.506  32.071  1.00  0.00     0.029 A 
ATOM     52  C   UNL A   1      42.219  29.640  31.370  1.00  0.00     0.049 A 
ATOM     53  H   UNL A   1      41.663  27.717  30.609  1.00  0.00     0.167 HD
ATOM     54  C   UNL A   1      37.205  33.260  29.488  1.00  0.00     0.031 A 
ATOM     55  C   UNL A   1      43.442  30.001  30.892  1.00  0.00     0.031 A 
ATOM     56  C   UNL A   1      38.403  33.806  30.120  1.00  0.00     0.049 A 
ATOM     57  C   UNL A   1      43.530  31.467  30.525  1.00  0.00     0.074 A 
ATOM     58  C   UNL A   1      38.769  33.953  31.449  1.00  0.00     0.029 A 
ATOM     59  N   UNL A   1      39.553  34.017  29.369  1.00  0.00    -0.354 N 
ATOM     60  N   UNL A   1      42.498  32.262  30.466  1.00  0.00    -0.248 NA
ATOM     61  C   UNL A   1      44.763  32.122  30.087  1.00  0.00     0.031 C 
ATOM     62  C   UNL A   1      40.162  34.211  31.497  1.00  0.00     0.029 A 
ATOM     63  C   UNL A   1      40.639  34.233  30.199  1.00  0.00     0.049 A 
ATOM     64  H   UNL A   1      39.590  34.014  28.386  1.00  0.00     0.167 HD
ATOM     65  C   UNL A   1      42.879  33.464  29.930  1.00  0.00     0.074 A 
ATOM     66  C   UNL A   1      44.313  33.342  29.743  1.00  0.00     0.031 C 
ATOM     67  C   UNL A   1      41.969  34.438  29.643  1.00  0.00     0.031 A 
BRANCH  54  68
ATOM     68  C   UNL A   1      35.830  33.859  29.632  1.00  0.00    -0.014 A 
ATOM     69  C   UNL A   1      35.173  34.380  28.504  1.00  0.00     0.009 A 
ATOM     70  C   UNL A   1      35.162  34.002  30.861  1.00  0.00     0.009 A 
ATOM     71  C   UNL A   1      33.987  35.115  28.614  1.00  0.00     0.001 A 
ATOM     72  C   UNL A   1      34.005  34.784  30.987  1.00  0.00     0.001 A 
ATOM     73  C   UNL A   1      33.427  35.353  29.862  1.00  0.00     0.000 A 
ENDBRANCH  54  68
BRANCH  55  74
ATOM     74  C   UNL A   1      44.158  28.921  30.166  1.00  0.00    -0.014 A 
ATOM     75  C   UNL A   1      43.977  28.826  28.773  1.00  0.00     0.009 A 
ATOM     76  C   UNL A   1      45.253  28.273  30.752  1.00  0.00     0.009 A 
ATOM     77  C   UNL A   1      44.934  28.197  27.972  1.00  0.00     0.001 A 
ATOM     78  C   UNL A   1      46.207  27.643  29.946  1.00  0.00     0.001 A 
ATOM     79  C   UNL A   1      46.067  27.638  28.558  1.00  0.00     0.000 A 
ENDBRANCH  55  74
BRANCH  67  80
ATOM     80  C   UNL A   1      42.245  35.702  28.870  1.00  0.00    -0.014 A 
ATOM     81  C   UNL A   1      43.011  36.771  29.353  1.00  0.00     0.009 A 
ATOM     82  C   UNL A   1      41.819  35.782  27.526  1.00  0.00     0.009 A 
ATOM     83  C   UNL A   1      43.293  37.886  28.550  1.00  0.00     0.001 A 
ATOM     84  C   UNL A   1      42.134  36.871  26.709  1.00  0.00     0.001 A 
ATOM     85  C   UNL A   1      42.861  37.932  27.227  1.00  0.00     0.000 A 
ENDBRANCH  67  80
ENDBRANCH  41  42
ENDBRANCH  33  36
ENDBRANCH  31  32
ENDBRANCH  30  31
ENDBRANCH   1  30
TORSDOF 14
ENDMDL
MODEL 2
REMARK VINA RESULT:     -13.0      5.809      9.932
REMARK SMILES Cc1ccc(C(=O)NCCCNC(=O)c2ccc(-c3c4nc(c(-c5ccccc5)c5ccc([nH]5)c(-c5ccccc5)c5nc(c(-c6ccccc6)c6ccc3[nH]6)C=C5)C=C4)cc2)cc1CNC(=O)C[N@@H+]1CCC[C@]2(CCOC2)C1
REMARK SMILES IDX 9 1 8 2 6 3 7 4 5 6 1 7 2 8 3 9 64 10 4 11 63 12 65 13 66 14
REMARK SMILES IDX 67 15 68 17 69 18 70 19 71 20 79 21 72 23 74 24 73 25 75 26
REMARK SMILES IDX 78 27 76 28 77 29 10 30 11 31 12 32 13 33 14 35 15 36 16 37
REMARK SMILES IDX 62 38 17 39 61 40 18 41 19 42 20 43 55 44 21 45 60 46 54 47
REMARK SMILES IDX 56 48 22 49 59 50 53 51 52 52 23 54 45 55 30 56 44 57 31 58
REMARK SMILES IDX 34 59 43 60 57 61 32 62 33 63 42 65 58 66 35 67 24 68 25 69
REMARK SMILES IDX 29 70 26 71 28 72 27 73 46 74 47 75 51 76 48 77 50 78 49 79
REMARK SMILES IDX 36 80 37 81 41 82 38 83 40 84 39 85
REMARK H PARENT 8 5 66 16 70 22 12 34 56 53 34 64
REMARK Flexibility Score: inf
ROOT
ATOM      1  C   UNL A   1      38.124  23.000  25.982  1.00  0.00     0.118 C 
ENDROOT
BRANCH   1   2
ATOM      2  N   UNL A   1      37.628  23.257  24.645  1.00  0.00    -0.352 N 
ATOM      3  C   UNL A   1      36.567  22.838  23.889  1.00  0.00     0.251 C 
ATOM      4  O   UNL A   1      36.502  23.330  22.758  1.00  0.00    -0.269 OA
ATOM      5  H   UNL A   1      38.198  23.894  24.157  1.00  0.00     0.163 HD
BRANCH   3   6
ATOM      6  C   UNL A   1      35.516  21.852  24.291  1.00  0.00     0.040 A 
ATOM      7  C   UNL A   1      32.859  18.596  25.452  1.00  0.00     0.044 C 
ATOM      8  C   UNL A   1      33.717  19.767  25.056  1.00  0.00    -0.046 A 
ATOM      9  C   UNL A   1      35.099  19.546  24.994  1.00  0.00     0.004 A 
ATOM     10  C   UNL A   1      33.224  21.037  24.701  1.00  0.00    -0.025 A 
ATOM     11  C   UNL A   1      35.976  20.567  24.620  1.00  0.00     0.014 A 
ATOM     12  C   UNL A   1      34.138  22.065  24.338  1.00  0.00     0.019 A 
BRANCH  10  13
ATOM     13  C   UNL A   1      31.753  21.389  24.683  1.00  0.00     0.152 C 
BRANCH  13  14
ATOM     14  N   UNL A   1      31.334  21.883  25.976  1.00  0.00    -0.347 N 
ATOM     15  C   UNL A   1      30.944  23.148  26.307  1.00  0.00     0.275 C 
ATOM     16  H   UNL A   1      31.329  21.225  26.707  1.00  0.00     0.164 HD
ATOM     17  O   UNL A   1      30.626  23.380  27.477  1.00  0.00    -0.268 OA
BRANCH  15  18
ATOM     18  C   UNL A   1      30.949  24.258  25.239  1.00  0.00     0.363 C 
BRANCH  18  19
ATOM     19  N   UNL A   1      32.058  25.195  25.478  1.00  0.00    -0.327 N 
ATOM     20  C   UNL A   1      31.607  26.435  26.101  1.00  0.00     0.262 C 
ATOM     21  C   UNL A   1      32.924  25.470  24.315  1.00  0.00     0.272 C 
ATOM     22  H   UNL A   1      32.657  24.694  26.134  1.00  0.00     0.348 HD
ATOM     23  C   UNL A   1      30.963  27.421  25.137  1.00  0.00     0.062 C 
ATOM     24  C   UNL A   1      32.484  26.600  23.332  1.00  0.00     0.045 C 
ATOM     25  C   UNL A   1      31.997  27.834  24.103  1.00  0.00     0.021 C 
ATOM     26  C   UNL A   1      31.441  26.107  22.327  1.00  0.00     0.043 C 
ATOM     27  C   UNL A   1      33.647  26.975  22.414  1.00  0.00     0.173 C 
ATOM     28  C   UNL A   1      32.225  25.791  21.065  1.00  0.00     0.161 C 
ATOM     29  O   UNL A   1      33.605  26.024  21.350  1.00  0.00    -0.381 OA
ENDBRANCH  18  19
ENDBRANCH  15  18
ENDBRANCH  13  14
ENDBRANCH  10  13
ENDBRANCH   3   6
ENDBRANCH   1   2
BRANCH   1  30
ATOM     30  C   UNL A   1      38.890  21.686  26.080  1.00  0.00     0.042 C 
BRANCH  30  31
ATOM     31  C   UNL A   1      40.270  21.845  26.725  1.00  0.00     0.118 C 
BRANCH  31  32
ATOM     32  N   UNL A   1      41.353  22.267  25.833  1.00  0.00    -0.352 N 
ATOM     33  C   UNL A   1      42.410  23.141  26.037  1.00  0.00     0.251 C 
ATOM     34  H   UNL A   1      41.325  21.861  24.936  1.00  0.00     0.163 HD
ATOM     35  O   UNL A   1      43.258  23.322  25.181  1.00  0.00    -0.269 OA
BRANCH  33  36
ATOM     36  C   UNL A   1      42.624  23.653  27.402  1.00  0.00     0.039 A 
ATOM     37  C   UNL A   1      42.472  25.041  27.492  1.00  0.00     0.014 A 
ATOM     38  C   UNL A   1      43.469  22.949  28.250  1.00  0.00     0.014 A 
ATOM     39  C   UNL A   1      43.445  25.759  28.160  1.00  0.00     0.010 A 
ATOM     40  C   UNL A   1      44.485  23.666  28.847  1.00  0.00     0.010 A 
ATOM     41  C   UNL A   1      44.523  25.060  28.701  1.00  0.00    -0.014 A 
BRANCH  41  42
ATOM     42  C   UNL A   1      45.775  25.735  29.007  1.00  0.00     0.031 A 
ATOM     43  C   UNL A   1      46.937  25.466  28.153  1.00  0.00     0.074 A 
ATOM     44  C   UNL A   1      45.936  26.490  30.119  1.00  0.00     0.049 A 
ATOM     45  N   UNL A   1      48.128  25.254  28.604  1.00  0.00    -0.248 NA
ATOM     46  C   UNL A   1      46.814  25.334  26.708  1.00  0.00     0.031 C 
ATOM     47  C   UNL A   1      47.123  27.264  30.474  1.00  0.00     0.029 A 
ATOM     48  N   UNL A   1      45.151  26.524  31.274  1.00  0.00    -0.354 N 
ATOM     49  C   UNL A   1      48.965  25.246  27.515  1.00  0.00     0.074 A 
ATOM     50  C   UNL A   1      48.094  25.197  26.360  1.00  0.00     0.031 C 
ATOM     51  C   UNL A   1      47.150  27.418  31.807  1.00  0.00     0.029 A 
ATOM     52  C   UNL A   1      46.025  26.683  32.361  1.00  0.00     0.049 A 
ATOM     53  H   UNL A   1      44.171  26.450  31.316  1.00  0.00     0.167 HD
ATOM     54  C   UNL A   1      50.301  25.448  27.673  1.00  0.00     0.031 A 
ATOM     55  C   UNL A   1      46.061  25.862  33.448  1.00  0.00     0.031 A 
ATOM     56  C   UNL A   1      50.672  25.655  29.070  1.00  0.00     0.049 A 
ATOM     57  C   UNL A   1      47.415  25.221  33.667  1.00  0.00     0.074 A 
ATOM     58  C   UNL A   1      50.921  26.804  29.806  1.00  0.00     0.029 A 
ATOM     59  N   UNL A   1      50.540  24.621  29.988  1.00  0.00    -0.354 N 
ATOM     60  N   UNL A   1      48.387  25.270  32.800  1.00  0.00    -0.248 NA
ATOM     61  C   UNL A   1      47.739  24.381  34.820  1.00  0.00     0.031 C 
ATOM     62  C   UNL A   1      50.893  26.461  31.181  1.00  0.00     0.029 A 
ATOM     63  C   UNL A   1      50.641  25.105  31.280  1.00  0.00     0.049 A 
ATOM     64  H   UNL A   1      50.396  23.676  29.753  1.00  0.00     0.167 HD
ATOM     65  C   UNL A   1      49.402  24.444  33.206  1.00  0.00     0.074 A 
ATOM     66  C   UNL A   1      48.967  23.938  34.495  1.00  0.00     0.031 C 
ATOM     67  C   UNL A   1      50.493  24.213  32.421  1.00  0.00     0.031 A 
BRANCH  54  68
ATOM     68  C   UNL A   1      51.182  25.810  26.506  1.00  0.00    -0.014 A 
ATOM     69  C   UNL A   1      52.155  24.901  26.056  1.00  0.00     0.009 A 
ATOM     70  C   UNL A   1      51.148  27.055  25.855  1.00  0.00     0.009 A 
ATOM     71  C   UNL A   1      53.120  25.261  25.108  1.00  0.00     0.001 A 
ATOM     72  C   UNL A   1      52.142  27.443  24.947  1.00  0.00     0.001 A 
ATOM     73  C   UNL A   1      53.139  26.548  24.586  1.00  0.00     0.000 A 
ENDBRANCH  54  68
BRANCH  55  74
ATOM     74  C   UNL A   1      44.770  25.196  33.754  1.00  0.00    -0.014 A 
ATOM     75  C   UNL A   1      44.604  23.856  33.353  1.00  0.00     0.009 A 
ATOM     76  C   UNL A   1      43.906  25.724  34.722  1.00  0.00     0.009 A 
ATOM     77  C   UNL A   1      43.674  23.032  33.994  1.00  0.00     0.001 A 
ATOM     78  C   UNL A   1      42.976  24.896  35.357  1.00  0.00     0.001 A 
ATOM     79  C   UNL A   1      42.886  23.545  35.021  1.00  0.00     0.000 A 
ENDBRANCH  55  74
BRANCH  67  80
ATOM     80  C   UNL A   1      51.557  23.176  32.674  1.00  0.00    -0.014 A 
ATOM     81  C   UNL A   1      52.919  23.465  32.834  1.00  0.00     0.009 A 
ATOM     82  C   UNL A   1      51.162  21.837  32.891  1.00  0.00     0.009 A 
ATOM     83  C   UNL A   1      53.846  22.459  33.144  1.00  0.00     0.001 A 
ATOM     84  C   UNL A   1      52.075  20.840  33.242  1.00  0.00     0.001 A 
ATOM     85  C   UNL A   1      53.422  21.149  33.355  1.00  0.00     0.000 A 
ENDBRANCH  67  80
ENDBRANCH  41  42
ENDBRANCH  33  36
ENDBRANCH  31  32
ENDBRANCH  30  31
ENDBRANCH   1  30
TORSDOF 14
ENDMDL
MODEL 3
REMARK VINA RESULT:     -12.5      1.519      2.444
REMARK SMILES Cc1ccc(C(=O)NCCCNC(=O)c2ccc(-c3c4nc(c(-c5ccccc5)c5ccc([nH]5)c(-c5ccccc5)c5nc(c(-c6ccccc6)c6ccc3[nH]6)C=C5)C=C4)cc2)cc1CNC(=O)C[N@@H+]1CCC[C@]2(CCOC2)C1
REMARK SMILES IDX 9 1 8 2 6 3 7 4 5 6 1 7 2 8 3 9 64 10 4 11 63 12 65 13 66 14
REMARK SMILES IDX 67 15 68 17 69 18 70 19 71 20 79 21 72 23 74 24 73 25 75 26
REMARK SMILES IDX 78 27 76 28 77 29 10 30 11 31 12 32 13 33 14 35 15 36 16 37
REMARK SMILES IDX 62 38 17 39 61 40 18 41 19 42 20 43 55 44 21 45 60 46 54 47
REMARK SMILES IDX 56 48 22 49 59 50 53 51 52 52 23 54 45 55 30 56 44 57 31 58
REMARK SMILES IDX 34 59 43 60 57 61 32 62 33 63 42 65 58 66 35 67 24 68 25 69
REMARK SMILES IDX 29 70 26 71 28 72 27 73 46 74 47 75 51 76 48 77 50 78 49 79
REMARK SMILES IDX 36 80 37 81 41 82 38 83 40 84 39 85
REMARK H PARENT 8 5 66 16 70 22 12 34 56 53 34 64
REMARK Flexibility Score: inf
ROOT
ATOM      1  C   UNL A   1      38.702  22.403  25.774  1.00  0.00     0.118 C 
ENDROOT
BRANCH   1   2
ATOM      2  N   UNL A   1      37.859  21.285  25.400  1.00  0.00    -0.352 N 
ATOM      3  C   UNL A   1      36.514  21.055  25.300  1.00  0.00     0.251 C 
ATOM      4  O   UNL A   1      36.203  19.922  24.917  1.00  0.00    -0.269 OA
ATOM      5  H   UNL A   1      38.387  20.492  25.155  1.00  0.00     0.163 HD
BRANCH   3   6
ATOM      6  C   UNL A   1      35.415  22.018  25.620  1.00  0.00     0.040 A 
ATOM      7  C   UNL A   1      31.956  24.395  26.803  1.00  0.00     0.044 C 
ATOM      8  C   UNL A   1      33.180  23.637  26.364  1.00  0.00    -0.046 A 
ATOM      9  C   UNL A   1      33.319  22.328  26.843  1.00  0.00     0.004 A 
ATOM     10  C   UNL A   1      34.153  24.132  25.475  1.00  0.00    -0.025 A 
ATOM     11  C   UNL A   1      34.413  21.539  26.479  1.00  0.00     0.014 A 
ATOM     12  C   UNL A   1      35.266  23.316  25.130  1.00  0.00     0.019 A 
BRANCH  10  13
ATOM     13  C   UNL A   1      34.095  25.510  24.852  1.00  0.00     0.152 C 
BRANCH  13  14
ATOM     14  N   UNL A   1      34.158  25.418  23.411  1.00  0.00    -0.347 N 
ATOM     15  C   UNL A   1      33.302  25.956  22.495  1.00  0.00     0.275 C 
ATOM     16  H   UNL A   1      34.914  24.904  23.045  1.00  0.00     0.164 HD
ATOM     17  O   UNL A   1      33.522  25.760  21.296  1.00  0.00    -0.268 OA
BRANCH  15  18
ATOM     18  C   UNL A   1      32.070  26.751  22.968  1.00  0.00     0.363 C 
BRANCH  18  19
ATOM     19  N   UNL A   1      32.309  28.196  22.829  1.00  0.00    -0.327 N 
ATOM     20  C   UNL A   1      32.736  28.806  24.083  1.00  0.00     0.262 C 
ATOM     21  C   UNL A   1      31.214  28.968  22.209  1.00  0.00     0.272 C 
ATOM     22  H   UNL A   1      33.075  28.248  22.157  1.00  0.00     0.348 HD
ATOM     23  C   UNL A   1      31.606  29.073  25.066  1.00  0.00     0.062 C 
ATOM     24  C   UNL A   1      30.069  29.478  23.139  1.00  0.00     0.045 C 
ATOM     25  C   UNL A   1      30.639  30.063  24.438  1.00  0.00     0.021 C 
ATOM     26  C   UNL A   1      29.028  28.390  23.411  1.00  0.00     0.043 C 
ATOM     27  C   UNL A   1      29.233  30.530  22.408  1.00  0.00     0.173 C 
ATOM     28  C   UNL A   1      27.895  28.672  22.439  1.00  0.00     0.161 C 
ATOM     29  O   UNL A   1      28.288  29.788  21.638  1.00  0.00    -0.381 OA
ENDBRANCH  18  19
ENDBRANCH  15  18
ENDBRANCH  13  14
ENDBRANCH  10  13
ENDBRANCH   3   6
ENDBRANCH   1   2
BRANCH   1  30
ATOM     30  C   UNL A   1      40.050  21.960  26.329  1.00  0.00     0.042 C 
BRANCH  30  31
ATOM     31  C   UNL A   1      40.400  22.634  27.659  1.00  0.00     0.118 C 
BRANCH  31  32
ATOM     32  N   UNL A   1      41.580  23.504  27.649  1.00  0.00    -0.352 N 
ATOM     33  C   UNL A   1      41.696  24.874  27.467  1.00  0.00     0.251 C 
ATOM     34  H   UNL A   1      42.434  23.037  27.794  1.00  0.00     0.163 HD
ATOM     35  O   UNL A   1      42.773  25.436  27.553  1.00  0.00    -0.269 OA
BRANCH  33  36
ATOM     36  C   UNL A   1      40.455  25.668  27.419  1.00  0.00     0.039 A 
ATOM     37  C   UNL A   1      40.613  26.884  26.745  1.00  0.00     0.014 A 
ATOM     38  C   UNL A   1      39.524  25.507  28.438  1.00  0.00     0.014 A 
ATOM     39  C   UNL A   1      40.123  28.028  27.344  1.00  0.00     0.010 A 
ATOM     40  C   UNL A   1      39.105  26.655  29.080  1.00  0.00     0.010 A 
ATOM     41  C   UNL A   1      39.504  27.905  28.588  1.00  0.00    -0.014 A 
BRANCH  41  42
ATOM     42  C   UNL A   1      39.371  29.051  29.474  1.00  0.00     0.031 A 
ATOM     43  C   UNL A   1      38.387  30.085  29.130  1.00  0.00     0.074 A 
ATOM     44  C   UNL A   1      40.207  29.258  30.518  1.00  0.00     0.049 A 
ATOM     45  N   UNL A   1      38.621  31.353  29.203  1.00  0.00    -0.248 NA
ATOM     46  C   UNL A   1      37.076  29.749  28.593  1.00  0.00     0.031 C 
ATOM     47  C   UNL A   1      40.108  30.333  31.503  1.00  0.00     0.029 A 
ATOM     48  N   UNL A   1      41.454  28.682  30.767  1.00  0.00    -0.354 N 
ATOM     49  C   UNL A   1      37.419  31.985  29.002  1.00  0.00     0.074 A 
ATOM     50  C   UNL A   1      36.516  30.958  28.529  1.00  0.00     0.031 C 
ATOM     51  C   UNL A   1      41.328  30.553  32.019  1.00  0.00     0.029 A 
ATOM     52  C   UNL A   1      42.265  29.683  31.327  1.00  0.00     0.049 A 
ATOM     53  H   UNL A   1      41.715  27.751  30.584  1.00  0.00     0.167 HD
ATOM     54  C   UNL A   1      37.244  33.273  29.407  1.00  0.00     0.031 A 
ATOM     55  C   UNL A   1      43.488  30.042  30.847  1.00  0.00     0.031 A 
ATOM     56  C   UNL A   1      38.440  33.827  30.034  1.00  0.00     0.049 A 
ATOM     57  C   UNL A   1      43.573  31.505  30.466  1.00  0.00     0.074 A 
ATOM     58  C   UNL A   1      38.805  33.988  31.362  1.00  0.00     0.029 A 
ATOM     59  N   UNL A   1      39.590  34.034  29.283  1.00  0.00    -0.354 N 
ATOM     60  N   UNL A   1      42.539  32.296  30.398  1.00  0.00    -0.248 NA
ATOM     61  C   UNL A   1      44.804  32.158  30.022  1.00  0.00     0.031 C 
ATOM     62  C   UNL A   1      40.197  34.249  31.408  1.00  0.00     0.029 A 
ATOM     63  C   UNL A   1      40.675  34.260  30.111  1.00  0.00     0.049 A 
ATOM     64  H   UNL A   1      39.628  34.021  28.299  1.00  0.00     0.167 HD
ATOM     65  C   UNL A   1      42.917  33.494  29.851  1.00  0.00     0.074 A 
ATOM     66  C   UNL A   1      44.352  33.374  29.667  1.00  0.00     0.031 C 
ATOM     67  C   UNL A   1      42.005  34.463  29.554  1.00  0.00     0.031 A 
BRANCH  54  68
ATOM     68  C   UNL A   1      35.868  33.870  29.544  1.00  0.00    -0.014 A 
ATOM     69  C   UNL A   1      35.267  34.502  28.442  1.00  0.00     0.009 A 
ATOM     70  C   UNL A   1      35.144  33.902  30.748  1.00  0.00     0.009 A 
ATOM     71  C   UNL A   1      34.082  35.236  28.567  1.00  0.00     0.001 A 
ATOM     72  C   UNL A   1      33.987  34.680  30.896  1.00  0.00     0.001 A 
ATOM     73  C   UNL A   1      33.465  35.360  29.805  1.00  0.00     0.000 A 
ENDBRANCH  54  68
BRANCH  55  74
ATOM     74  C   UNL A   1      44.207  28.957  30.131  1.00  0.00    -0.014 A 
ATOM     75  C   UNL A   1      44.017  28.840  28.741  1.00  0.00     0.009 A 
ATOM     76  C   UNL A   1      45.311  28.326  30.719  1.00  0.00     0.009 A 
ATOM     77  C   UNL A   1      44.974  28.206  27.943  1.00  0.00     0.001 A 
ATOM     78  C   UNL A   1      46.264  27.691  29.916  1.00  0.00     0.001 A 
ATOM     79  C   UNL A   1      46.115  27.664  28.529  1.00  0.00     0.000 A 
ENDBRANCH  55  74
BRANCH  67  80
ATOM     80  C   UNL A   1      42.279  35.720  28.769  1.00  0.00    -0.014 A 
ATOM     81  C   UNL A   1      41.770  35.977  27.489  1.00  0.00     0.009 A 
ATOM     82  C   UNL A   1      42.988  36.770  29.394  1.00  0.00     0.009 A 
ATOM     83  C   UNL A   1      42.002  37.202  26.846  1.00  0.00     0.001 A 
ATOM     84  C   UNL A   1      43.184  38.007  28.774  1.00  0.00     0.001 A 
ATOM     85  C   UNL A   1      42.701  38.218  27.491  1.00  0.00     0.000 A 
ENDBRANCH  67  80
ENDBRANCH  41  42
ENDBRANCH  33  36
ENDBRANCH  31  32
ENDBRANCH  30  31
ENDBRANCH   1  30
TORSDOF 14
ENDMDL
