MODEL 1
REMARK VINA RESULT:      -9.1      0.000      0.000
REMARK SMILES CCCCCNc1cncc(C(=O)NCCCNC(=O)c2ccc(-c3c4nc(c(-c5ccccc5)c5ccc([nH]5)c(-c5ccccc5)c5nc(c(-c6ccccc6)c6ccc3[nH]6)C=C5)C=C4)cc2)n1
REMARK SMILES IDX 12 1 13 2 14 3 11 5 7 6 8 7 69 8 9 9 10 10 6 11 5 13 4 14
REMARK SMILES IDX 3 15 2 16 1 17 15 18 16 19 17 20 18 21 19 22 20 24 21 25
REMARK SMILES IDX 22 26 68 27 23 28 67 29 24 30 25 31 26 32 61 33 27 34 66 35
REMARK SMILES IDX 60 36 62 37 28 38 65 39 59 40 58 41 29 43 51 44 36 45 50 46
REMARK SMILES IDX 37 47 40 48 49 49 63 50 38 51 39 52 48 54 64 55 41 56 30 57
REMARK SMILES IDX 31 58 35 59 32 60 34 61 33 62 52 63 53 64 57 65 54 66 56 67
REMARK SMILES IDX 55 68 42 69 43 70 47 71 44 72 46 73 45 74
REMARK H PARENT 14 4 6 12 18 23 62 42 40 53
REMARK Flexibility Score: inf
ROOT
ATOM      1  C   UNL A   1      33.509  28.393  23.510  1.00  0.00     0.271 C 
ATOM      2  O   UNL A   1      34.445  28.695  22.767  1.00  0.00    -0.267 OA
ATOM      3  N   UNL A   1      33.005  29.381  24.327  1.00  0.00    -0.351 N 
ATOM      4  H   UNL A   1      33.458  30.251  24.235  1.00  0.00     0.163 HD
ENDROOT
BRANCH   1   5
ATOM      5  C   UNL A   1      32.985  26.996  23.488  1.00  0.00     0.148 A 
ATOM      6  C   UNL A   1      32.954  24.847  24.317  1.00  0.00     0.145 A 
ATOM      7  C   UNL A   1      32.009  24.514  23.349  1.00  0.00     0.157 A 
ATOM      8  N   UNL A   1      33.444  26.098  24.392  1.00  0.00    -0.223 NA
ATOM      9  N   UNL A   1      31.534  25.393  22.432  1.00  0.00    -0.258 NA
ATOM     10  C   UNL A   1      32.047  26.646  22.526  1.00  0.00     0.145 A 
BRANCH   6  11
ATOM     11  N   UNL A   1      33.458  23.982  25.257  1.00  0.00    -0.369 N 
ATOM     12  H   UNL A   1      33.138  24.045  26.186  1.00  0.00     0.162 HD
BRANCH  11  13
ATOM     13  C   UNL A   1      34.450  22.979  24.920  1.00  0.00     0.114 C 
BRANCH  13  14
ATOM     14  C   UNL A   1      35.502  22.883  26.032  1.00  0.00     0.021 C 
BRANCH  14  15
ATOM     15  C   UNL A   1      36.702  23.830  25.889  1.00  0.00     0.002 C 
BRANCH  15  16
ATOM     16  C   UNL A   1      38.079  23.170  25.986  1.00  0.00    -0.003 C 
ATOM     17  C   UNL A   1      38.085  21.719  25.531  1.00  0.00     0.004 C 
ENDBRANCH  15  16
ENDBRANCH  14  15
ENDBRANCH  13  14
ENDBRANCH  11  13
ENDBRANCH   6  11
ENDBRANCH   1   5
BRANCH   3  18
ATOM     18  C   UNL A   1      31.923  29.373  25.301  1.00  0.00     0.118 C 
BRANCH  18  19
ATOM     19  C   UNL A   1      32.299  28.618  26.574  1.00  0.00     0.042 C 
BRANCH  19  20
ATOM     20  C   UNL A   1      33.666  29.010  27.139  1.00  0.00     0.118 C 
BRANCH  20  21
ATOM     21  N   UNL A   1      33.666  30.347  27.724  1.00  0.00    -0.352 N 
ATOM     22  C   UNL A   1      34.596  30.990  28.496  1.00  0.00     0.251 C 
ATOM     23  H   UNL A   1      32.861  30.877  27.528  1.00  0.00     0.163 HD
ATOM     24  O   UNL A   1      34.291  32.049  29.048  1.00  0.00    -0.269 OA
BRANCH  22  25
ATOM     25  C   UNL A   1      35.952  30.437  28.689  1.00  0.00     0.039 A 
ATOM     26  C   UNL A   1      36.865  30.516  27.630  1.00  0.00     0.014 A 
ATOM     27  C   UNL A   1      36.315  29.788  29.871  1.00  0.00     0.014 A 
ATOM     28  C   UNL A   1      38.153  29.999  27.779  1.00  0.00     0.010 A 
ATOM     29  C   UNL A   1      37.620  29.330  30.043  1.00  0.00     0.010 A 
ATOM     30  C   UNL A   1      38.551  29.428  28.998  1.00  0.00    -0.014 A 
BRANCH  30  31
ATOM     31  C   UNL A   1      39.938  28.938  29.201  1.00  0.00     0.031 A 
ATOM     32  C   UNL A   1      40.991  29.843  29.778  1.00  0.00     0.074 A 
ATOM     33  C   UNL A   1      40.266  27.693  28.802  1.00  0.00     0.049 A 
ATOM     34  N   UNL A   1      42.266  29.611  29.965  1.00  0.00    -0.248 NA
ATOM     35  C   UNL A   1      40.561  31.192  30.175  1.00  0.00     0.031 C 
ATOM     36  C   UNL A   1      39.348  26.726  28.196  1.00  0.00     0.029 A 
ATOM     37  N   UNL A   1      41.467  27.031  28.841  1.00  0.00    -0.354 N 
ATOM     38  C   UNL A   1      42.793  30.790  30.479  1.00  0.00     0.074 A 
ATOM     39  C   UNL A   1      41.709  31.746  30.539  1.00  0.00     0.031 C 
ATOM     40  C   UNL A   1      40.012  25.587  27.945  1.00  0.00     0.029 A 
ATOM     41  C   UNL A   1      41.409  25.756  28.333  1.00  0.00     0.049 A 
ATOM     42  H   UNL A   1      42.292  27.431  29.199  1.00  0.00     0.167 HD
ATOM     43  C   UNL A   1      44.062  31.049  30.877  1.00  0.00     0.031 A 
ATOM     44  C   UNL A   1      42.372  24.827  28.189  1.00  0.00     0.031 A 
ATOM     45  C   UNL A   1      45.137  30.093  30.836  1.00  0.00     0.049 A 
ATOM     46  C   UNL A   1      43.772  25.143  28.634  1.00  0.00     0.074 A 
ATOM     47  C   UNL A   1      46.439  30.243  31.280  1.00  0.00     0.029 A 
ATOM     48  N   UNL A   1      45.033  28.812  30.321  1.00  0.00    -0.354 N 
ATOM     49  N   UNL A   1      44.238  26.241  29.177  1.00  0.00    -0.248 NA
ATOM     50  C   UNL A   1      44.776  24.085  28.452  1.00  0.00     0.031 C 
ATOM     51  C   UNL A   1      47.137  29.065  30.992  1.00  0.00     0.029 A 
ATOM     52  C   UNL A   1      46.255  28.166  30.414  1.00  0.00     0.049 A 
ATOM     53  H   UNL A   1      44.213  28.418  29.946  1.00  0.00     0.167 HD
ATOM     54  C   UNL A   1      45.582  25.997  29.428  1.00  0.00     0.074 A 
ATOM     55  C   UNL A   1      45.853  24.642  28.989  1.00  0.00     0.031 C 
ATOM     56  C   UNL A   1      46.509  26.820  29.974  1.00  0.00     0.031 A 
BRANCH  43  57
ATOM     57  C   UNL A   1      44.359  32.431  31.385  1.00  0.00    -0.014 A 
ATOM     58  C   UNL A   1      44.267  32.740  32.752  1.00  0.00     0.009 A 
ATOM     59  C   UNL A   1      44.773  33.430  30.489  1.00  0.00     0.009 A 
ATOM     60  C   UNL A   1      44.552  34.030  33.206  1.00  0.00     0.001 A 
ATOM     61  C   UNL A   1      45.082  34.712  30.950  1.00  0.00     0.001 A 
ATOM     62  C   UNL A   1      44.962  35.013  32.306  1.00  0.00     0.000 A 
ENDBRANCH  43  57
BRANCH  44  63
ATOM     63  C   UNL A   1      42.044  23.498  27.614  1.00  0.00    -0.014 A 
ATOM     64  C   UNL A   1      42.279  23.237  26.255  1.00  0.00     0.009 A 
ATOM     65  C   UNL A   1      41.489  22.488  28.414  1.00  0.00     0.009 A 
ATOM     66  C   UNL A   1      41.940  22.001  25.704  1.00  0.00     0.001 A 
ATOM     67  C   UNL A   1      41.175  21.243  27.864  1.00  0.00     0.001 A 
ATOM     68  C   UNL A   1      41.392  21.003  26.508  1.00  0.00     0.000 A 
ENDBRANCH  44  63
BRANCH  56  69
ATOM     69  C   UNL A   1      47.893  26.266  30.159  1.00  0.00    -0.014 A 
ATOM     70  C   UNL A   1      48.307  25.740  31.393  1.00  0.00     0.009 A 
ATOM     71  C   UNL A   1      48.782  26.242  29.073  1.00  0.00     0.009 A 
ATOM     72  C   UNL A   1      49.598  25.229  31.542  1.00  0.00     0.001 A 
ATOM     73  C   UNL A   1      50.062  25.706  29.218  1.00  0.00     0.001 A 
ATOM     74  C   UNL A   1      50.472  25.209  30.454  1.00  0.00     0.000 A 
ENDBRANCH  56  69
ENDBRANCH  30  31
ENDBRANCH  22  25
ENDBRANCH  20  21
ENDBRANCH  19  20
ENDBRANCH  18  19
ENDBRANCH   3  18
TORSDOF 15
ENDMDL
MODEL 2
REMARK VINA RESULT:      -9.1      4.103      8.903
REMARK SMILES CCCCCNc1cncc(C(=O)NCCCNC(=O)c2ccc(-c3c4nc(c(-c5ccccc5)c5ccc([nH]5)c(-c5ccccc5)c5nc(c(-c6ccccc6)c6ccc3[nH]6)C=C5)C=C4)cc2)n1
REMARK SMILES IDX 12 1 13 2 14 3 11 5 7 6 8 7 69 8 9 9 10 10 6 11 5 13 4 14
REMARK SMILES IDX 3 15 2 16 1 17 15 18 16 19 17 20 18 21 19 22 20 24 21 25
REMARK SMILES IDX 22 26 68 27 23 28 67 29 24 30 25 31 26 32 61 33 27 34 66 35
REMARK SMILES IDX 60 36 62 37 28 38 65 39 59 40 58 41 29 43 51 44 36 45 50 46
REMARK SMILES IDX 37 47 40 48 49 49 63 50 38 51 39 52 48 54 64 55 41 56 30 57
REMARK SMILES IDX 31 58 35 59 32 60 34 61 33 62 52 63 53 64 57 65 54 66 56 67
REMARK SMILES IDX 55 68 42 69 43 70 47 71 44 72 46 73 45 74
REMARK H PARENT 14 4 6 12 18 23 62 42 40 53
REMARK Flexibility Score: inf
ROOT
ATOM      1  C   UNL A   1      32.919  35.746  29.368  1.00  0.00     0.271 C 
ATOM      2  O   UNL A   1      32.139  36.465  28.741  1.00  0.00    -0.267 OA
ATOM      3  N   UNL A   1      33.421  34.639  28.718  1.00  0.00    -0.351 N 
ATOM      4  H   UNL A   1      33.093  34.530  27.796  1.00  0.00     0.163 HD
ENDROOT
BRANCH   1   5
ATOM      5  C   UNL A   1      33.270  36.105  30.773  1.00  0.00     0.148 A 
ATOM      6  C   UNL A   1      33.851  35.498  32.918  1.00  0.00     0.145 A 
ATOM      7  C   UNL A   1      33.856  36.846  33.272  1.00  0.00     0.157 A 
ATOM      8  N   UNL A   1      33.560  35.122  31.660  1.00  0.00    -0.223 NA
ATOM      9  N   UNL A   1      33.569  37.849  32.404  1.00  0.00    -0.258 NA
ATOM     10  C   UNL A   1      33.275  37.443  31.143  1.00  0.00     0.145 A 
BRANCH   6  11
ATOM     11  N   UNL A   1      34.133  34.459  33.770  1.00  0.00    -0.369 N 
ATOM     12  H   UNL A   1      34.150  34.626  34.740  1.00  0.00     0.162 HD
BRANCH  11  13
ATOM     13  C   UNL A   1      34.408  33.121  33.281  1.00  0.00     0.114 C 
BRANCH  13  14
ATOM     14  C   UNL A   1      35.922  32.886  33.212  1.00  0.00     0.021 C 
BRANCH  14  15
ATOM     15  C   UNL A   1      36.705  33.879  32.342  1.00  0.00     0.002 C 
BRANCH  15  16
ATOM     16  C   UNL A   1      38.010  33.349  31.745  1.00  0.00    -0.003 C 
ATOM     17  C   UNL A   1      38.140  33.613  30.253  1.00  0.00     0.004 C 
ENDBRANCH  15  16
ENDBRANCH  14  15
ENDBRANCH  13  14
ENDBRANCH  11  13
ENDBRANCH   6  11
ENDBRANCH   1   5
BRANCH   3  18
ATOM     18  C   UNL A   1      34.349  33.603  29.148  1.00  0.00     0.118 C 
BRANCH  18  19
ATOM     19  C   UNL A   1      35.168  33.045  27.986  1.00  0.00     0.042 C 
BRANCH  19  20
ATOM     20  C   UNL A   1      35.548  31.573  28.154  1.00  0.00     0.118 C 
BRANCH  20  21
ATOM     21  N   UNL A   1      35.450  31.125  29.540  1.00  0.00    -0.352 N 
ATOM     22  C   UNL A   1      36.286  30.347  30.295  1.00  0.00     0.251 C 
ATOM     23  H   UNL A   1      34.646  31.438  30.013  1.00  0.00     0.163 HD
ATOM     24  O   UNL A   1      35.897  29.931  31.388  1.00  0.00    -0.269 OA
BRANCH  22  25
ATOM     25  C   UNL A   1      37.640  29.990  29.824  1.00  0.00     0.039 A 
ATOM     26  C   UNL A   1      38.644  29.770  30.774  1.00  0.00     0.014 A 
ATOM     27  C   UNL A   1      37.948  29.932  28.463  1.00  0.00     0.014 A 
ATOM     28  C   UNL A   1      39.935  29.435  30.361  1.00  0.00     0.010 A 
ATOM     29  C   UNL A   1      39.219  29.536  28.052  1.00  0.00     0.010 A 
ATOM     30  C   UNL A   1      40.226  29.286  28.996  1.00  0.00    -0.014 A 
BRANCH  30  31
ATOM     31  C   UNL A   1      41.573  28.860  28.539  1.00  0.00     0.031 A 
ATOM     32  C   UNL A   1      41.831  27.432  28.149  1.00  0.00     0.074 A 
ATOM     33  C   UNL A   1      42.585  29.751  28.540  1.00  0.00     0.049 A 
ATOM     34  N   UNL A   1      42.956  26.864  27.790  1.00  0.00    -0.248 NA
ATOM     35  C   UNL A   1      40.681  26.515  28.189  1.00  0.00     0.031 C 
ATOM     36  C   UNL A   1      42.477  31.159  28.928  1.00  0.00     0.029 A 
ATOM     37  N   UNL A   1      43.907  29.599  28.207  1.00  0.00    -0.354 N 
ATOM     38  C   UNL A   1      42.653  25.523  27.585  1.00  0.00     0.074 A 
ATOM     39  C   UNL A   1      41.250  25.354  27.895  1.00  0.00     0.031 C 
ATOM     40  C   UNL A   1      43.676  31.747  28.786  1.00  0.00     0.029 A 
ATOM     41  C   UNL A   1      44.644  30.751  28.338  1.00  0.00     0.049 A 
ATOM     42  H   UNL A   1      44.292  28.745  27.904  1.00  0.00     0.167 HD
ATOM     43  C   UNL A   1      43.467  24.525  27.163  1.00  0.00     0.031 A 
ATOM     44  C   UNL A   1      45.953  30.981  28.126  1.00  0.00     0.031 A 
ATOM     45  C   UNL A   1      44.858  24.695  26.836  1.00  0.00     0.049 A 
ATOM     46  C   UNL A   1      46.833  29.855  27.665  1.00  0.00     0.074 A 
ATOM     47  C   UNL A   1      45.745  23.757  26.337  1.00  0.00     0.029 A 
ATOM     48  N   UNL A   1      45.561  25.880  26.976  1.00  0.00    -0.354 N 
ATOM     49  N   UNL A   1      46.516  28.609  27.414  1.00  0.00    -0.248 NA
ATOM     50  C   UNL A   1      48.252  30.174  27.449  1.00  0.00     0.031 C 
ATOM     51  C   UNL A   1      47.000  24.365  26.217  1.00  0.00     0.029 A 
ATOM     52  C   UNL A   1      46.879  25.692  26.595  1.00  0.00     0.049 A 
ATOM     53  H   UNL A   1      45.181  26.729  27.297  1.00  0.00     0.167 HD
ATOM     54  C   UNL A   1      47.689  28.001  26.985  1.00  0.00     0.074 A 
ATOM     55  C   UNL A   1      48.720  29.018  26.997  1.00  0.00     0.031 C 
ATOM     56  C   UNL A   1      47.893  26.714  26.612  1.00  0.00     0.031 A 
BRANCH  43  57
ATOM     57  C   UNL A   1      42.871  23.151  27.042  1.00  0.00    -0.014 A 
ATOM     58  C   UNL A   1      42.326  22.698  25.829  1.00  0.00     0.009 A 
ATOM     59  C   UNL A   1      42.887  22.283  28.145  1.00  0.00     0.009 A 
ATOM     60  C   UNL A   1      41.781  21.416  25.735  1.00  0.00     0.001 A 
ATOM     61  C   UNL A   1      42.365  20.992  28.039  1.00  0.00     0.001 A 
ATOM     62  C   UNL A   1      41.803  20.564  26.837  1.00  0.00     0.000 A 
ENDBRANCH  43  57
BRANCH  44  63
ATOM     63  C   UNL A   1      46.511  32.343  28.330  1.00  0.00    -0.014 A 
ATOM     64  C   UNL A   1      47.019  32.718  29.582  1.00  0.00     0.009 A 
ATOM     65  C   UNL A   1      46.532  33.273  27.280  1.00  0.00     0.009 A 
ATOM     66  C   UNL A   1      47.512  34.008  29.787  1.00  0.00     0.001 A 
ATOM     67  C   UNL A   1      47.051  34.554  27.481  1.00  0.00     0.001 A 
ATOM     68  C   UNL A   1      47.532  34.923  28.736  1.00  0.00     0.000 A 
ENDBRANCH  44  63
BRANCH  56  69
ATOM     69  C   UNL A   1      49.275  26.344  26.154  1.00  0.00    -0.014 A 
ATOM     70  C   UNL A   1      49.747  26.720  24.887  1.00  0.00     0.009 A 
ATOM     71  C   UNL A   1      50.126  25.638  27.018  1.00  0.00     0.009 A 
ATOM     72  C   UNL A   1      51.036  26.366  24.483  1.00  0.00     0.001 A 
ATOM     73  C   UNL A   1      51.423  25.310  26.622  1.00  0.00     0.001 A 
ATOM     74  C   UNL A   1      51.873  25.666  25.352  1.00  0.00     0.000 A 
ENDBRANCH  56  69
ENDBRANCH  30  31
ENDBRANCH  22  25
ENDBRANCH  20  21
ENDBRANCH  19  20
ENDBRANCH  18  19
ENDBRANCH   3  18
TORSDOF 15
ENDMDL
MODEL 3
REMARK VINA RESULT:      -9.1      3.174      7.687
REMARK SMILES CCCCCNc1cncc(C(=O)NCCCNC(=O)c2ccc(-c3c4nc(c(-c5ccccc5)c5ccc([nH]5)c(-c5ccccc5)c5nc(c(-c6ccccc6)c6ccc3[nH]6)C=C5)C=C4)cc2)n1
REMARK SMILES IDX 12 1 13 2 14 3 11 5 7 6 8 7 69 8 9 9 10 10 6 11 5 13 4 14
REMARK SMILES IDX 3 15 2 16 1 17 15 18 16 19 17 20 18 21 19 22 20 24 21 25
REMARK SMILES IDX 22 26 68 27 23 28 67 29 24 30 25 31 26 32 61 33 27 34 66 35
REMARK SMILES IDX 60 36 62 37 28 38 65 39 59 40 58 41 29 43 51 44 36 45 50 46
REMARK SMILES IDX 37 47 40 48 49 49 63 50 38 51 39 52 48 54 64 55 41 56 30 57
REMARK SMILES IDX 31 58 35 59 32 60 34 61 33 62 52 63 53 64 57 65 54 66 56 67
REMARK SMILES IDX 55 68 42 69 43 70 47 71 44 72 46 73 45 74
REMARK H PARENT 14 4 6 12 18 23 62 42 40 53
REMARK Flexibility Score: inf
ROOT
ATOM      1  C   UNL A   1      36.138  22.880  24.954  1.00  0.00     0.271 C 
ATOM      2  O   UNL A   1      36.581  23.940  25.398  1.00  0.00    -0.267 OA
ATOM      3  N   UNL A   1      36.779  21.719  25.331  1.00  0.00    -0.351 N 
ATOM      4  H   UNL A   1      37.549  21.860  25.929  1.00  0.00     0.163 HD
ENDROOT
BRANCH   1   5
ATOM      5  C   UNL A   1      34.954  22.909  24.047  1.00  0.00     0.148 A 
ATOM      6  C   UNL A   1      33.039  21.942  23.209  1.00  0.00     0.145 A 
ATOM      7  C   UNL A   1      32.882  23.041  22.366  1.00  0.00     0.157 A 
ATOM      8  N   UNL A   1      34.079  21.875  24.060  1.00  0.00    -0.223 NA
ATOM      9  N   UNL A   1      33.744  24.088  22.333  1.00  0.00    -0.258 NA
ATOM     10  C   UNL A   1      34.786  23.994  23.197  1.00  0.00     0.145 A 
BRANCH   6  11
ATOM     11  N   UNL A   1      32.189  20.865  23.266  1.00  0.00    -0.369 N 
ATOM     12  H   UNL A   1      31.305  20.930  22.838  1.00  0.00     0.162 HD
BRANCH  11  13
ATOM     13  C   UNL A   1      32.556  19.634  23.940  1.00  0.00     0.114 C 
BRANCH  13  14
ATOM     14  C   UNL A   1      32.521  18.461  22.953  1.00  0.00     0.021 C 
BRANCH  14  15
ATOM     15  C   UNL A   1      33.446  17.285  23.292  1.00  0.00     0.002 C 
BRANCH  15  16
ATOM     16  C   UNL A   1      33.806  17.133  24.772  1.00  0.00    -0.003 C 
ATOM     17  C   UNL A   1      34.899  16.106  25.023  1.00  0.00     0.004 C 
ENDBRANCH  15  16
ENDBRANCH  14  15
ENDBRANCH  13  14
ENDBRANCH  11  13
ENDBRANCH   6  11
ENDBRANCH   1   5
BRANCH   3  18
ATOM     18  C   UNL A   1      36.522  20.323  25.007  1.00  0.00     0.118 C 
BRANCH  18  19
ATOM     19  C   UNL A   1      37.813  19.521  24.855  1.00  0.00     0.042 C 
BRANCH  19  20
ATOM     20  C   UNL A   1      38.967  20.046  25.712  1.00  0.00     0.118 C 
BRANCH  20  21
ATOM     21  N   UNL A   1      40.064  19.091  25.817  1.00  0.00    -0.352 N 
ATOM     22  C   UNL A   1      41.406  19.281  26.013  1.00  0.00     0.251 C 
ATOM     23  H   UNL A   1      39.793  18.148  25.734  1.00  0.00     0.163 HD
ATOM     24  O   UNL A   1      42.176  18.330  25.866  1.00  0.00    -0.269 OA
BRANCH  22  25
ATOM     25  C   UNL A   1      41.950  20.602  26.390  1.00  0.00     0.039 A 
ATOM     26  C   UNL A   1      42.295  21.499  25.373  1.00  0.00     0.014 A 
ATOM     27  C   UNL A   1      42.182  20.942  27.724  1.00  0.00     0.014 A 
ATOM     28  C   UNL A   1      42.816  22.754  25.696  1.00  0.00     0.010 A 
ATOM     29  C   UNL A   1      42.641  22.217  28.049  1.00  0.00     0.010 A 
ATOM     30  C   UNL A   1      42.964  23.135  27.039  1.00  0.00    -0.014 A 
BRANCH  30  31
ATOM     31  C   UNL A   1      43.448  24.491  27.404  1.00  0.00     0.031 A 
ATOM     32  C   UNL A   1      42.480  25.553  27.845  1.00  0.00     0.074 A 
ATOM     33  C   UNL A   1      44.757  24.785  27.274  1.00  0.00     0.049 A 
ATOM     34  N   UNL A   1      42.710  26.809  28.139  1.00  0.00    -0.248 NA
ATOM     35  C   UNL A   1      41.066  25.161  27.948  1.00  0.00     0.031 C 
ATOM     36  C   UNL A   1      45.795  23.855  26.824  1.00  0.00     0.029 A 
ATOM     37  N   UNL A   1      45.436  25.954  27.503  1.00  0.00    -0.354 N 
ATOM     38  C   UNL A   1      41.470  27.360  28.437  1.00  0.00     0.074 A 
ATOM     39  C   UNL A   1      40.487  26.314  28.253  1.00  0.00     0.031 C 
ATOM     40  C   UNL A   1      46.982  24.483  26.835  1.00  0.00     0.029 A 
ATOM     41  C   UNL A   1      46.784  25.867  27.253  1.00  0.00     0.049 A 
ATOM     42  H   UNL A   1      44.998  26.779  27.817  1.00  0.00     0.167 HD
ATOM     43  C   UNL A   1      41.177  28.620  28.841  1.00  0.00     0.031 A 
ATOM     44  C   UNL A   1      47.752  26.798  27.344  1.00  0.00     0.031 A 
ATOM     45  C   UNL A   1      42.155  29.656  29.043  1.00  0.00     0.049 A 
ATOM     46  C   UNL A   1      47.398  28.188  27.788  1.00  0.00     0.074 A 
ATOM     47  C   UNL A   1      41.961  30.942  29.515  1.00  0.00     0.029 A 
ATOM     48  N   UNL A   1      43.509  29.523  28.785  1.00  0.00    -0.354 N 
ATOM     49  N   UNL A   1      46.230  28.674  28.128  1.00  0.00    -0.248 NA
ATOM     50  C   UNL A   1      48.502  29.156  27.869  1.00  0.00     0.031 C 
ATOM     51  C   UNL A   1      43.194  31.604  29.499  1.00  0.00     0.029 A 
ATOM     52  C   UNL A   1      44.161  30.712  29.065  1.00  0.00     0.049 A 
ATOM     53  H   UNL A   1      43.944  28.705  28.453  1.00  0.00     0.167 HD
ATOM     54  C   UNL A   1      46.461  29.995  28.490  1.00  0.00     0.074 A 
ATOM     55  C   UNL A   1      47.884  30.230  28.340  1.00  0.00     0.031 C 
ATOM     56  C   UNL A   1      45.575  30.930  28.911  1.00  0.00     0.031 A 
BRANCH  43  57
ATOM     57  C   UNL A   1      39.731  28.950  29.083  1.00  0.00    -0.014 A 
ATOM     58  C   UNL A   1      38.916  29.448  28.054  1.00  0.00     0.009 A 
ATOM     59  C   UNL A   1      39.166  28.725  30.348  1.00  0.00     0.009 A 
ATOM     60  C   UNL A   1      37.573  29.745  28.297  1.00  0.00     0.001 A 
ATOM     61  C   UNL A   1      37.816  28.998  30.581  1.00  0.00     0.001 A 
ATOM     62  C   UNL A   1      37.024  29.517  29.557  1.00  0.00     0.000 A 
ENDBRANCH  43  57
BRANCH  44  63
ATOM     63  C   UNL A   1      49.158  26.441  27.024  1.00  0.00    -0.014 A 
ATOM     64  C   UNL A   1      50.022  25.996  28.036  1.00  0.00     0.009 A 
ATOM     65  C   UNL A   1      49.645  26.551  25.713  1.00  0.00     0.009 A 
ATOM     66  C   UNL A   1      51.354  25.693  27.745  1.00  0.00     0.001 A 
ATOM     67  C   UNL A   1      50.970  26.222  25.421  1.00  0.00     0.001 A 
ATOM     68  C   UNL A   1      51.826  25.802  26.439  1.00  0.00     0.000 A 
ENDBRANCH  44  63
BRANCH  56  69
ATOM     69  C   UNL A   1      46.124  32.281  29.271  1.00  0.00    -0.014 A 
ATOM     70  C   UNL A   1      46.159  33.326  28.336  1.00  0.00     0.009 A 
ATOM     71  C   UNL A   1      46.583  32.517  30.577  1.00  0.00     0.009 A 
ATOM     72  C   UNL A   1      46.672  34.574  28.694  1.00  0.00     0.001 A 
ATOM     73  C   UNL A   1      47.071  33.774  30.939  1.00  0.00     0.001 A 
ATOM     74  C   UNL A   1      47.123  34.797  29.995  1.00  0.00     0.000 A 
ENDBRANCH  56  69
ENDBRANCH  30  31
ENDBRANCH  22  25
ENDBRANCH  20  21
ENDBRANCH  19  20
ENDBRANCH  18  19
ENDBRANCH   3  18
TORSDOF 15
ENDMDL
