MODEL 1
REMARK VINA RESULT:     -11.2      0.000      0.000
REMARK SMILES O=C(CC1CC[NH+](C[C@@H]2Cc3ccccc32)CC1)NCCCNC(=O)c1ccc(-c2c3nc(c(-c4ccccc4)c4ccc([nH]4)c(-c4ccccc4)c4nc(c(-c5ccccc5)c5ccc2[nH]5)C=C4)C=C3)cc1
REMARK SMILES IDX 20 1 19 2 1 3 2 4 3 6 4 7 5 8 18 9 6 10 17 11 7 12 8 14 9 15
REMARK SMILES IDX 10 16 16 17 11 18 15 19 12 20 14 21 13 22 21 23 22 24 23 25
REMARK SMILES IDX 24 26 25 28 26 29 27 30 73 31 28 32 72 33 29 34 30 35 31 36
REMARK SMILES IDX 66 37 32 38 71 39 65 40 67 41 33 42 70 43 64 44 63 45 34 47
REMARK SMILES IDX 56 48 41 49 55 50 42 51 45 52 54 53 68 54 43 55 44 56 53 58
REMARK SMILES IDX 69 59 46 60 35 61 36 62 40 63 37 64 39 65 38 66 57 67 58 68
REMARK SMILES IDX 62 69 59 70 61 71 60 72 47 73 48 74 52 75 49 76 51 77 50 78
REMARK H PARENT 19 5 7 13 23 27 67 46 45 57
REMARK Flexibility Score: inf
ROOT
ATOM      1  C   UNL A   1      36.694  19.354  24.962  1.00  0.00     0.117 C 
ENDROOT
BRANCH   1   2
ATOM      2  N   UNL A   1      35.452  20.079  25.139  1.00  0.00    -0.356 N 
ATOM      3  O   UNL A   1      34.114  18.514  24.178  1.00  0.00    -0.275 OA
ATOM      4  C   UNL A   1      34.234  19.501  24.895  1.00  0.00     0.220 C 
ATOM      5  H   UNL A   1      35.485  21.014  25.444  1.00  0.00     0.163 HD
BRANCH   4   6
ATOM      6  C   UNL A   1      33.033  20.220  25.489  1.00  0.00     0.104 C 
BRANCH   6   7
ATOM      7  C   UNL A   1      32.068  21.061  24.604  1.00  0.00     0.009 C 
ATOM      8  C   UNL A   1      32.596  21.725  23.323  1.00  0.00     0.066 C 
ATOM      9  C   UNL A   1      31.364  22.171  25.408  1.00  0.00     0.066 C 
ATOM     10  C   UNL A   1      33.507  22.928  23.600  1.00  0.00     0.262 C 
ATOM     11  C   UNL A   1      32.301  23.350  25.684  1.00  0.00     0.262 C 
ATOM     12  N   UNL A   1      32.864  23.911  24.458  1.00  0.00    -0.334 N 
ATOM     13  H   UNL A   1      32.044  24.211  23.933  1.00  0.00     0.348 HD
BRANCH  12  14
ATOM     14  C   UNL A   1      33.615  25.171  24.626  1.00  0.00     0.270 C 
BRANCH  14  15
ATOM     15  C   UNL A   1      32.978  26.553  24.364  1.00  0.00     0.079 C 
ATOM     16  C   UNL A   1      33.800  27.853  24.024  1.00  0.00     0.050 C 
ATOM     17  C   UNL A   1      32.452  27.324  25.548  1.00  0.00    -0.036 A 
ATOM     18  C   UNL A   1      33.248  28.417  25.300  1.00  0.00    -0.043 A 
ATOM     19  C   UNL A   1      31.618  27.259  26.643  1.00  0.00     0.004 A 
ATOM     20  C   UNL A   1      33.290  29.493  26.154  1.00  0.00     0.004 A 
ATOM     21  C   UNL A   1      31.653  28.333  27.538  1.00  0.00     0.000 A 
ATOM     22  C   UNL A   1      32.492  29.438  27.300  1.00  0.00     0.000 A 
ENDBRANCH  14  15
ENDBRANCH  12  14
ENDBRANCH   6   7
ENDBRANCH   4   6
ENDBRANCH   1   2
BRANCH   1  23
ATOM     23  C   UNL A   1      37.876  20.252  24.652  1.00  0.00     0.042 C 
BRANCH  23  24
ATOM     24  C   UNL A   1      38.871  20.384  25.793  1.00  0.00     0.118 C 
BRANCH  24  25
ATOM     25  N   UNL A   1      39.962  19.419  25.744  1.00  0.00    -0.352 N 
ATOM     26  C   UNL A   1      41.283  19.587  26.080  1.00  0.00     0.251 C 
ATOM     27  H   UNL A   1      39.717  18.519  25.426  1.00  0.00     0.163 HD
ATOM     28  O   UNL A   1      42.086  18.676  25.899  1.00  0.00    -0.269 OA
BRANCH  26  29
ATOM     29  C   UNL A   1      41.745  20.884  26.620  1.00  0.00     0.039 A 
ATOM     30  C   UNL A   1      42.211  21.853  25.727  1.00  0.00     0.014 A 
ATOM     31  C   UNL A   1      41.691  21.155  27.989  1.00  0.00     0.014 A 
ATOM     32  C   UNL A   1      42.554  23.120  26.203  1.00  0.00     0.010 A 
ATOM     33  C   UNL A   1      41.954  22.441  28.449  1.00  0.00     0.010 A 
ATOM     34  C   UNL A   1      42.391  23.435  27.562  1.00  0.00    -0.014 A 
BRANCH  34  35
ATOM     35  C   UNL A   1      42.677  24.798  28.074  1.00  0.00     0.031 A 
ATOM     36  C   UNL A   1      44.076  25.176  28.472  1.00  0.00     0.074 A 
ATOM     37  C   UNL A   1      41.666  25.674  28.240  1.00  0.00     0.049 A 
ATOM     38  N   UNL A   1      44.513  26.298  28.985  1.00  0.00    -0.248 NA
ATOM     39  C   UNL A   1      45.116  24.149  28.298  1.00  0.00     0.031 C 
ATOM     40  C   UNL A   1      40.256  25.414  27.941  1.00  0.00     0.029 A 
ATOM     41  N   UNL A   1      41.674  26.963  28.710  1.00  0.00    -0.354 N 
ATOM     42  C   UNL A   1      45.870  26.105  29.211  1.00  0.00     0.074 A 
ATOM     43  C   UNL A   1      46.174  24.744  28.829  1.00  0.00     0.031 C 
ATOM     44  C   UNL A   1      39.541  26.519  28.204  1.00  0.00     0.029 A 
ATOM     45  C   UNL A   1      40.432  27.551  28.723  1.00  0.00     0.049 A 
ATOM     46  H   UNL A   1      42.491  27.423  29.010  1.00  0.00     0.167 HD
ATOM     47  C   UNL A   1      46.787  26.987  29.676  1.00  0.00     0.031 A 
ATOM     48  C   UNL A   1      40.054  28.785  29.108  1.00  0.00     0.031 A 
ATOM     49  C   UNL A   1      46.491  28.345  30.040  1.00  0.00     0.049 A 
ATOM     50  C   UNL A   1      41.093  29.748  29.610  1.00  0.00     0.074 A 
ATOM     51  C   UNL A   1      47.361  29.333  30.466  1.00  0.00     0.029 A 
ATOM     52  N   UNL A   1      45.225  28.909  30.017  1.00  0.00    -0.354 N 
ATOM     53  N   UNL A   1      42.384  29.570  29.754  1.00  0.00    -0.248 NA
ATOM     54  C   UNL A   1      40.621  31.087  29.989  1.00  0.00     0.031 C 
ATOM     55  C   UNL A   1      46.614  30.484  30.741  1.00  0.00     0.029 A 
ATOM     56  C   UNL A   1      45.287  30.226  30.437  1.00  0.00     0.049 A 
ATOM     57  H   UNL A   1      44.402  28.440  29.744  1.00  0.00     0.167 HD
ATOM     58  C   UNL A   1      42.883  30.783  30.212  1.00  0.00     0.074 A 
ATOM     59  C   UNL A   1      41.758  31.691  30.307  1.00  0.00     0.031 C 
ATOM     60  C   UNL A   1      44.159  31.115  30.526  1.00  0.00     0.031 A 
BRANCH  47  61
ATOM     61  C   UNL A   1      48.201  26.498  29.816  1.00  0.00    -0.014 A 
ATOM     62  C   UNL A   1      49.129  26.649  28.773  1.00  0.00     0.009 A 
ATOM     63  C   UNL A   1      48.619  25.899  31.015  1.00  0.00     0.009 A 
ATOM     64  C   UNL A   1      50.434  26.175  28.912  1.00  0.00     0.001 A 
ATOM     65  C   UNL A   1      49.933  25.453  31.162  1.00  0.00     0.001 A 
ATOM     66  C   UNL A   1      50.837  25.582  30.108  1.00  0.00     0.000 A 
ENDBRANCH  47  61
BRANCH  48  67
ATOM     67  C   UNL A   1      38.629  29.192  29.007  1.00  0.00    -0.014 A 
ATOM     68  C   UNL A   1      37.787  29.110  30.126  1.00  0.00     0.009 A 
ATOM     69  C   UNL A   1      38.103  29.657  27.792  1.00  0.00     0.009 A 
ATOM     70  C   UNL A   1      36.439  29.460  30.024  1.00  0.00     0.001 A 
ATOM     71  C   UNL A   1      36.760  30.031  27.699  1.00  0.00     0.001 A 
ATOM     72  C   UNL A   1      35.928  29.923  28.813  1.00  0.00     0.000 A 
ENDBRANCH  48  67
BRANCH  60  73
ATOM     73  C   UNL A   1      44.408  32.530  30.963  1.00  0.00    -0.014 A 
ATOM     74  C   UNL A   1      44.743  33.530  30.038  1.00  0.00     0.009 A 
ATOM     75  C   UNL A   1      44.275  32.871  32.318  1.00  0.00     0.009 A 
ATOM     76  C   UNL A   1      44.976  34.838  30.469  1.00  0.00     0.001 A 
ATOM     77  C   UNL A   1      44.481  34.183  32.741  1.00  0.00     0.001 A 
ATOM     78  C   UNL A   1      44.842  35.164  31.818  1.00  0.00     0.000 A 
ENDBRANCH  60  73
ENDBRANCH  34  35
ENDBRANCH  26  29
ENDBRANCH  24  25
ENDBRANCH  23  24
ENDBRANCH   1  23
TORSDOF 13
ENDMDL
MODEL 2
REMARK VINA RESULT:     -11.2      2.544      7.787
REMARK SMILES O=C(CC1CC[NH+](C[C@@H]2Cc3ccccc32)CC1)NCCCNC(=O)c1ccc(-c2c3nc(c(-c4ccccc4)c4ccc([nH]4)c(-c4ccccc4)c4nc(c(-c5ccccc5)c5ccc2[nH]5)C=C4)C=C3)cc1
REMARK SMILES IDX 20 1 19 2 1 3 2 4 3 6 4 7 5 8 18 9 6 10 17 11 7 12 8 14 9 15
REMARK SMILES IDX 10 16 16 17 11 18 15 19 12 20 14 21 13 22 21 23 22 24 23 25
REMARK SMILES IDX 24 26 25 28 26 29 27 30 73 31 28 32 72 33 29 34 30 35 31 36
REMARK SMILES IDX 66 37 32 38 71 39 65 40 67 41 33 42 70 43 64 44 63 45 34 47
REMARK SMILES IDX 56 48 41 49 55 50 42 51 45 52 54 53 68 54 43 55 44 56 53 58
REMARK SMILES IDX 69 59 46 60 35 61 36 62 40 63 37 64 39 65 38 66 57 67 58 68
REMARK SMILES IDX 62 69 59 70 61 71 60 72 47 73 48 74 52 75 49 76 51 77 50 78
REMARK H PARENT 19 5 7 13 23 27 67 46 45 57
REMARK Flexibility Score: inf
ROOT
ATOM      1  C   UNL A   1      33.099  29.191  24.783  1.00  0.00     0.117 C 
ENDROOT
BRANCH   1   2
ATOM      2  N   UNL A   1      31.763  28.638  24.710  1.00  0.00    -0.356 N 
ATOM      3  O   UNL A   1      31.986  27.727  22.640  1.00  0.00    -0.275 OA
ATOM      4  C   UNL A   1      31.386  27.783  23.708  1.00  0.00     0.220 C 
ATOM      5  H   UNL A   1      31.106  28.882  25.401  1.00  0.00     0.163 HD
BRANCH   4   6
ATOM      6  C   UNL A   1      30.119  26.982  23.965  1.00  0.00     0.104 C 
BRANCH   6   7
ATOM      7  C   UNL A   1      30.169  25.554  24.581  1.00  0.00     0.009 C 
ATOM      8  C   UNL A   1      30.969  25.310  25.870  1.00  0.00     0.066 C 
ATOM      9  C   UNL A   1      30.658  24.503  23.565  1.00  0.00     0.066 C 
ATOM     10  C   UNL A   1      32.487  25.350  25.655  1.00  0.00     0.262 C 
ATOM     11  C   UNL A   1      32.172  24.578  23.357  1.00  0.00     0.262 C 
ATOM     12  N   UNL A   1      32.912  24.434  24.609  1.00  0.00    -0.334 N 
ATOM     13  H   UNL A   1      32.634  23.513  24.947  1.00  0.00     0.348 HD
BRANCH  12  14
ATOM     14  C   UNL A   1      34.376  24.294  24.466  1.00  0.00     0.270 C 
BRANCH  14  15
ATOM     15  C   UNL A   1      35.257  23.675  25.572  1.00  0.00     0.079 C 
ATOM     16  C   UNL A   1      36.774  24.037  25.797  1.00  0.00     0.050 C 
ATOM     17  C   UNL A   1      35.733  22.257  25.386  1.00  0.00    -0.036 A 
ATOM     18  C   UNL A   1      37.061  22.598  25.484  1.00  0.00    -0.043 A 
ATOM     19  C   UNL A   1      35.327  20.966  25.129  1.00  0.00     0.004 A 
ATOM     20  C   UNL A   1      38.064  21.679  25.289  1.00  0.00     0.004 A 
ATOM     21  C   UNL A   1      36.325  20.013  24.910  1.00  0.00     0.000 A 
ATOM     22  C   UNL A   1      37.685  20.370  24.979  1.00  0.00     0.000 A 
ENDBRANCH  14  15
ENDBRANCH  12  14
ENDBRANCH   6   7
ENDBRANCH   4   6
ENDBRANCH   1   2
BRANCH   1  23
ATOM     23  C   UNL A   1      33.969  28.529  25.834  1.00  0.00     0.042 C 
BRANCH  23  24
ATOM     24  C   UNL A   1      33.478  28.724  27.259  1.00  0.00     0.118 C 
BRANCH  24  25
ATOM     25  N   UNL A   1      33.495  30.110  27.709  1.00  0.00    -0.352 N 
ATOM     26  C   UNL A   1      34.521  30.822  28.281  1.00  0.00     0.251 C 
ATOM     27  H   UNL A   1      32.654  30.606  27.583  1.00  0.00     0.163 HD
ATOM     28  O   UNL A   1      34.331  31.970  28.673  1.00  0.00    -0.269 OA
BRANCH  26  29
ATOM     29  C   UNL A   1      35.844  30.187  28.465  1.00  0.00     0.039 A 
ATOM     30  C   UNL A   1      36.762  30.238  27.412  1.00  0.00     0.014 A 
ATOM     31  C   UNL A   1      36.189  29.575  29.672  1.00  0.00     0.014 A 
ATOM     32  C   UNL A   1      38.052  29.737  27.598  1.00  0.00     0.010 A 
ATOM     33  C   UNL A   1      37.498  29.153  29.882  1.00  0.00     0.010 A 
ATOM     34  C   UNL A   1      38.441  29.226  28.847  1.00  0.00    -0.014 A 
BRANCH  34  35
ATOM     35  C   UNL A   1      39.828  28.760  29.089  1.00  0.00     0.031 A 
ATOM     36  C   UNL A   1      40.834  29.682  29.719  1.00  0.00     0.074 A 
ATOM     37  C   UNL A   1      40.199  27.530  28.684  1.00  0.00     0.049 A 
ATOM     38  N   UNL A   1      42.103  29.474  29.965  1.00  0.00    -0.248 NA
ATOM     39  C   UNL A   1      40.362  31.024  30.095  1.00  0.00     0.031 C 
ATOM     40  C   UNL A   1      39.333  26.556  28.015  1.00  0.00     0.029 A 
ATOM     41  N   UNL A   1      41.410  26.890  28.773  1.00  0.00    -0.354 N 
ATOM     42  C   UNL A   1      42.581  30.662  30.505  1.00  0.00     0.074 A 
ATOM     43  C   UNL A   1      41.482  31.601  30.503  1.00  0.00     0.031 C 
ATOM     44  C   UNL A   1      40.031  25.433  27.784  1.00  0.00     0.029 A 
ATOM     45  C   UNL A   1      41.400  25.618  28.254  1.00  0.00     0.049 A 
ATOM     46  H   UNL A   1      42.210  27.303  29.172  1.00  0.00     0.167 HD
ATOM     47  C   UNL A   1      43.818  30.940  30.980  1.00  0.00     0.031 A 
ATOM     48  C   UNL A   1      42.383  24.702  28.168  1.00  0.00     0.031 A 
ATOM     49  C   UNL A   1      44.908  30.004  30.999  1.00  0.00     0.049 A 
ATOM     50  C   UNL A   1      43.744  25.033  28.712  1.00  0.00     0.074 A 
ATOM     51  C   UNL A   1      46.182  30.172  31.512  1.00  0.00     0.029 A 
ATOM     52  N   UNL A   1      44.850  28.718  30.483  1.00  0.00    -0.354 N 
ATOM     53  N   UNL A   1      44.161  26.137  29.281  1.00  0.00    -0.248 NA
ATOM     54  C   UNL A   1      44.767  23.982  28.613  1.00  0.00     0.031 C 
ATOM     55  C   UNL A   1      46.909  29.002  31.270  1.00  0.00     0.029 A 
ATOM     56  C   UNL A   1      46.071  28.088  30.651  1.00  0.00     0.049 A 
ATOM     57  H   UNL A   1      44.058  28.314  30.060  1.00  0.00     0.167 HD
ATOM     58  C   UNL A   1      45.484  25.905  29.635  1.00  0.00     0.074 A 
ATOM     59  C   UNL A   1      45.794  24.549  29.229  1.00  0.00     0.031 C 
ATOM     60  C   UNL A   1      46.363  26.739  30.242  1.00  0.00     0.031 A 
BRANCH  47  61
ATOM     61  C   UNL A   1      44.053  32.325  31.517  1.00  0.00    -0.014 A 
ATOM     62  C   UNL A   1      44.539  33.351  30.691  1.00  0.00     0.009 A 
ATOM     63  C   UNL A   1      43.762  32.613  32.859  1.00  0.00     0.009 A 
ATOM     64  C   UNL A   1      44.768  34.627  31.209  1.00  0.00     0.001 A 
ATOM     65  C   UNL A   1      43.963  33.898  33.366  1.00  0.00     0.001 A 
ATOM     66  C   UNL A   1      44.475  34.901  32.545  1.00  0.00     0.000 A 
ENDBRANCH  47  61
BRANCH  48  67
ATOM     67  C   UNL A   1      42.110  23.371  27.568  1.00  0.00    -0.014 A 
ATOM     68  C   UNL A   1      42.467  23.106  26.237  1.00  0.00     0.009 A 
ATOM     69  C   UNL A   1      41.486  22.363  28.318  1.00  0.00     0.009 A 
ATOM     70  C   UNL A   1      42.180  21.867  25.661  1.00  0.00     0.001 A 
ATOM     71  C   UNL A   1      41.223  21.115  27.747  1.00  0.00     0.001 A 
ATOM     72  C   UNL A   1      41.562  20.872  26.416  1.00  0.00     0.000 A 
ENDBRANCH  48  67
BRANCH  60  73
ATOM     73  C   UNL A   1      47.730  26.193  30.536  1.00  0.00    -0.014 A 
ATOM     74  C   UNL A   1      48.733  26.170  29.556  1.00  0.00     0.009 A 
ATOM     75  C   UNL A   1      48.026  25.722  31.825  1.00  0.00     0.009 A 
ATOM     76  C   UNL A   1      49.996  25.652  29.852  1.00  0.00     0.001 A 
ATOM     77  C   UNL A   1      49.296  25.231  32.125  1.00  0.00     0.001 A 
ATOM     78  C   UNL A   1      50.277  25.187  31.136  1.00  0.00     0.000 A 
ENDBRANCH  60  73
ENDBRANCH  34  35
ENDBRANCH  26  29
ENDBRANCH  24  25
ENDBRANCH  23  24
ENDBRANCH   1  23
TORSDOF 13
ENDMDL
MODEL 3
REMARK VINA RESULT:     -11.1      1.454      3.733
REMARK SMILES O=C(CC1CC[NH+](C[C@@H]2Cc3ccccc32)CC1)NCCCNC(=O)c1ccc(-c2c3nc(c(-c4ccccc4)c4ccc([nH]4)c(-c4ccccc4)c4nc(c(-c5ccccc5)c5ccc2[nH]5)C=C4)C=C3)cc1
REMARK SMILES IDX 20 1 19 2 1 3 2 4 3 6 4 7 5 8 18 9 6 10 17 11 7 12 8 14 9 15
REMARK SMILES IDX 10 16 16 17 11 18 15 19 12 20 14 21 13 22 21 23 22 24 23 25
REMARK SMILES IDX 24 26 25 28 26 29 27 30 73 31 28 32 72 33 29 34 30 35 31 36
REMARK SMILES IDX 66 37 32 38 71 39 65 40 67 41 33 42 70 43 64 44 63 45 34 47
REMARK SMILES IDX 56 48 41 49 55 50 42 51 45 52 54 53 68 54 43 55 44 56 53 58
REMARK SMILES IDX 69 59 46 60 35 61 36 62 40 63 37 64 39 65 38 66 57 67 58 68
REMARK SMILES IDX 62 69 59 70 61 71 60 72 47 73 48 74 52 75 49 76 51 77 50 78
REMARK H PARENT 19 5 7 13 23 27 67 46 45 57
REMARK Flexibility Score: inf
ROOT
ATOM      1  C   UNL A   1      37.150  21.085  24.360  1.00  0.00     0.117 C 
ENDROOT
BRANCH   1   2
ATOM      2  N   UNL A   1      36.506  21.963  25.316  1.00  0.00    -0.356 N 
ATOM      3  O   UNL A   1      37.887  23.738  24.989  1.00  0.00    -0.275 OA
ATOM      4  C   UNL A   1      36.824  23.292  25.409  1.00  0.00     0.220 C 
ATOM      5  H   UNL A   1      35.820  21.593  25.917  1.00  0.00     0.163 HD
BRANCH   4   6
ATOM      6  C   UNL A   1      35.820  24.160  26.152  1.00  0.00     0.104 C 
BRANCH   6   7
ATOM      7  C   UNL A   1      34.657  24.878  25.408  1.00  0.00     0.009 C 
ATOM      8  C   UNL A   1      33.215  24.708  25.910  1.00  0.00     0.066 C 
ATOM      9  C   UNL A   1      34.634  24.539  23.905  1.00  0.00     0.066 C 
ATOM     10  C   UNL A   1      32.636  23.317  25.623  1.00  0.00     0.262 C 
ATOM     11  C   UNL A   1      34.069  23.139  23.650  1.00  0.00     0.262 C 
ATOM     12  N   UNL A   1      32.732  22.968  24.214  1.00  0.00    -0.334 N 
ATOM     13  H   UNL A   1      32.178  23.679  23.737  1.00  0.00     0.348 HD
BRANCH  12  14
ATOM     14  C   UNL A   1      32.040  21.719  23.838  1.00  0.00     0.270 C 
BRANCH  14  15
ATOM     15  C   UNL A   1      32.184  20.418  24.656  1.00  0.00     0.079 C 
ATOM     16  C   UNL A   1      33.395  20.107  25.615  1.00  0.00     0.050 C 
ATOM     17  C   UNL A   1      32.580  19.162  23.923  1.00  0.00    -0.036 A 
ATOM     18  C   UNL A   1      33.693  18.954  24.703  1.00  0.00    -0.043 A 
ATOM     19  C   UNL A   1      32.268  18.340  22.862  1.00  0.00     0.004 A 
ATOM     20  C   UNL A   1      34.583  17.939  24.444  1.00  0.00     0.004 A 
ATOM     21  C   UNL A   1      33.164  17.309  22.565  1.00  0.00     0.000 A 
ATOM     22  C   UNL A   1      34.320  17.117  23.345  1.00  0.00     0.000 A 
ENDBRANCH  14  15
ENDBRANCH  12  14
ENDBRANCH   6   7
ENDBRANCH   4   6
ENDBRANCH   1   2
BRANCH   1  23
ATOM     23  C   UNL A   1      37.856  19.908  25.004  1.00  0.00     0.042 C 
BRANCH  23  24
ATOM     24  C   UNL A   1      39.054  20.295  25.858  1.00  0.00     0.118 C 
BRANCH  24  25
ATOM     25  N   UNL A   1      40.164  19.353  25.785  1.00  0.00    -0.352 N 
ATOM     26  C   UNL A   1      41.488  19.551  26.090  1.00  0.00     0.251 C 
ATOM     27  H   UNL A   1      39.931  18.448  25.474  1.00  0.00     0.163 HD
ATOM     28  O   UNL A   1      42.306  18.656  25.892  1.00  0.00    -0.269 OA
BRANCH  26  29
ATOM     29  C   UNL A   1      41.934  20.858  26.618  1.00  0.00     0.039 A 
ATOM     30  C   UNL A   1      42.352  21.838  25.713  1.00  0.00     0.014 A 
ATOM     31  C   UNL A   1      41.913  21.128  27.988  1.00  0.00     0.014 A 
ATOM     32  C   UNL A   1      42.678  23.113  26.179  1.00  0.00     0.010 A 
ATOM     33  C   UNL A   1      42.158  22.420  28.441  1.00  0.00     0.010 A 
ATOM     34  C   UNL A   1      42.546  23.424  27.542  1.00  0.00    -0.014 A 
BRANCH  34  35
ATOM     35  C   UNL A   1      42.814  24.793  28.047  1.00  0.00     0.031 A 
ATOM     36  C   UNL A   1      44.210  25.195  28.431  1.00  0.00     0.074 A 
ATOM     37  C   UNL A   1      41.791  25.653  28.219  1.00  0.00     0.049 A 
ATOM     38  N   UNL A   1      44.633  26.327  28.936  1.00  0.00    -0.248 NA
ATOM     39  C   UNL A   1      45.265  24.185  28.252  1.00  0.00     0.031 C 
ATOM     40  C   UNL A   1      40.383  25.369  27.932  1.00  0.00     0.029 A 
ATOM     41  N   UNL A   1      41.781  26.944  28.684  1.00  0.00    -0.354 N 
ATOM     42  C   UNL A   1      45.995  26.156  29.152  1.00  0.00     0.074 A 
ATOM     43  C   UNL A   1      46.318  24.799  28.772  1.00  0.00     0.031 C 
ATOM     44  C   UNL A   1      39.651  26.464  28.197  1.00  0.00     0.029 A 
ATOM     45  C   UNL A   1      40.530  27.512  28.705  1.00  0.00     0.049 A 
ATOM     46  H   UNL A   1      42.593  27.418  28.975  1.00  0.00     0.167 HD
ATOM     47  C   UNL A   1      46.901  27.055  29.605  1.00  0.00     0.031 A 
ATOM     48  C   UNL A   1      40.135  28.740  29.089  1.00  0.00     0.031 A 
ATOM     49  C   UNL A   1      46.587  28.410  29.966  1.00  0.00     0.049 A 
ATOM     50  C   UNL A   1      41.163  29.722  29.578  1.00  0.00     0.074 A 
ATOM     51  C   UNL A   1      47.444  29.413  30.381  1.00  0.00     0.029 A 
ATOM     52  N   UNL A   1      45.311  28.952  29.953  1.00  0.00    -0.354 N 
ATOM     53  N   UNL A   1      42.457  29.567  29.712  1.00  0.00    -0.248 NA
ATOM     54  C   UNL A   1      40.672  31.055  29.956  1.00  0.00     0.031 C 
ATOM     55  C   UNL A   1      46.681  30.553  30.658  1.00  0.00     0.029 A 
ATOM     56  C   UNL A   1      45.355  30.272  30.368  1.00  0.00     0.049 A 
ATOM     57  H   UNL A   1      44.494  28.470  29.688  1.00  0.00     0.167 HD
ATOM     58  C   UNL A   1      42.940  30.789  30.161  1.00  0.00     0.074 A 
ATOM     59  C   UNL A   1      41.802  31.678  30.262  1.00  0.00     0.031 C 
ATOM     60  C   UNL A   1      44.213  31.143  30.462  1.00  0.00     0.031 A 
BRANCH  47  61
ATOM     61  C   UNL A   1      48.325  26.590  29.735  1.00  0.00    -0.014 A 
ATOM     62  C   UNL A   1      49.242  26.755  28.684  1.00  0.00     0.009 A 
ATOM     63  C   UNL A   1      48.761  26.000  30.931  1.00  0.00     0.009 A 
ATOM     64  C   UNL A   1      50.556  26.302  28.814  1.00  0.00     0.001 A 
ATOM     65  C   UNL A   1      50.084  25.576  31.069  1.00  0.00     0.001 A 
ATOM     66  C   UNL A   1      50.977  25.718  30.008  1.00  0.00     0.000 A 
ENDBRANCH  47  61
BRANCH  48  67
ATOM     67  C   UNL A   1      38.703  29.124  28.998  1.00  0.00    -0.014 A 
ATOM     68  C   UNL A   1      38.175  29.612  27.793  1.00  0.00     0.009 A 
ATOM     69  C   UNL A   1      37.861  29.014  30.114  1.00  0.00     0.009 A 
ATOM     70  C   UNL A   1      36.838  30.006  27.715  1.00  0.00     0.001 A 
ATOM     71  C   UNL A   1      36.516  29.384  30.026  1.00  0.00     0.001 A 
ATOM     72  C   UNL A   1      36.009  29.889  28.829  1.00  0.00     0.000 A 
ENDBRANCH  48  67
BRANCH  60  73
ATOM     73  C   UNL A   1      44.443  32.563  30.892  1.00  0.00    -0.014 A 
ATOM     74  C   UNL A   1      44.696  33.576  29.955  1.00  0.00     0.009 A 
ATOM     75  C   UNL A   1      44.375  32.896  32.254  1.00  0.00     0.009 A 
ATOM     76  C   UNL A   1      44.913  34.890  30.379  1.00  0.00     0.001 A 
ATOM     77  C   UNL A   1      44.563  34.212  32.672  1.00  0.00     0.001 A 
ATOM     78  C   UNL A   1      44.843  35.207  31.735  1.00  0.00     0.000 A 
ENDBRANCH  60  73
ENDBRANCH  34  35
ENDBRANCH  26  29
ENDBRANCH  24  25
ENDBRANCH  23  24
ENDBRANCH   1  23
TORSDOF 13
ENDMDL
