MODEL 1
REMARK VINA RESULT:     -11.4      0.000      0.000
REMARK SMILES Cc1nn(C)c(C)c1CNC(=O)NCC(=O)NCC(=O)NCCCNC(=O)c1ccc(-c2c3nc(c(-c4ccccc4)c4ccc([nH]4)c(-c4ccccc4)c4nc(c(-c5ccccc5)c5ccc2[nH]5)C=C4)C=C3)cc1
REMARK SMILES IDX 19 1 20 2 21 3 18 5 17 6 15 7 16 8 14 10 13 11 10 12 11 13
REMARK SMILES IDX 12 15 9 17 8 18 1 19 2 20 3 21 4 22 6 23 5 24 7 25 22 26
REMARK SMILES IDX 23 27 24 28 25 29 26 30 27 32 28 33 29 34 75 35 30 36 74 37
REMARK SMILES IDX 31 38 32 39 33 40 68 41 34 42 73 43 67 44 69 45 35 46 72 47
REMARK SMILES IDX 66 48 65 49 36 51 58 52 43 53 57 54 44 55 47 56 56 57 70 58
REMARK SMILES IDX 45 59 46 60 55 62 71 63 48 64 37 65 38 66 42 67 39 68 41 69
REMARK SMILES IDX 40 70 59 71 60 72 64 73 61 74 63 75 62 76 49 77 50 78 54 79
REMARK SMILES IDX 51 80 53 81 52 82
REMARK H PARENT 21 4 17 9 10 14 13 16 25 31 69 50 47 61
REMARK Flexibility Score: inf
ROOT
ATOM      1  C   UNL A   1      33.965  19.633  24.960  1.00  0.00     0.239 C 
ATOM      2  O   UNL A   1      33.314  18.615  24.720  1.00  0.00    -0.273 OA
ATOM      3  N   UNL A   1      35.327  19.538  25.036  1.00  0.00    -0.355 N 
ATOM      4  H   UNL A   1      35.705  18.629  25.013  1.00  0.00     0.163 HD
ENDROOT
BRANCH   1   5
ATOM      5  C   UNL A   1      33.282  21.001  25.116  1.00  0.00     0.216 C 
BRANCH   5   6
ATOM      6  N   UNL A   1      33.109  21.373  26.512  1.00  0.00    -0.346 N 
ATOM      7  C   UNL A   1      32.798  22.549  27.115  1.00  0.00     0.239 C 
ATOM      8  O   UNL A   1      32.567  22.501  28.329  1.00  0.00    -0.273 OA
ATOM      9  H   UNL A   1      33.244  20.628  27.141  1.00  0.00     0.164 HD
BRANCH   7  10
ATOM     10  C   UNL A   1      32.600  23.871  26.357  1.00  0.00     0.217 C 
BRANCH  10  11
ATOM     11  N   UNL A   1      31.385  24.599  26.678  1.00  0.00    -0.329 N 
ATOM     12  N   UNL A   1      30.094  24.851  24.716  1.00  0.00    -0.334 N 
ATOM     13  C   UNL A   1      30.315  25.041  26.014  1.00  0.00     0.315 C 
ATOM     14  H   UNL A   1      29.256  25.267  24.410  1.00  0.00     0.165 HD
ATOM     15  O   UNL A   1      29.480  25.683  26.656  1.00  0.00    -0.249 OA
ATOM     16  H   UNL A   1      31.337  24.823  27.635  1.00  0.00     0.165 HD
BRANCH  12  17
ATOM     17  C   UNL A   1      30.795  24.177  23.653  1.00  0.00     0.157 C 
BRANCH  17  18
ATOM     18  C   UNL A   1      31.807  25.066  23.015  1.00  0.00     0.015 A 
ATOM     19  C   UNL A   1      33.411  23.201  22.092  1.00  0.00     0.069 C 
ATOM     20  C   UNL A   1      32.979  24.599  22.347  1.00  0.00     0.065 A 
ATOM     21  N   UNL A   1      33.752  25.604  21.930  1.00  0.00    -0.178 NA
ATOM     22  N   UNL A   1      33.098  26.709  22.316  1.00  0.00    -0.272 N 
ATOM     23  C   UNL A   1      31.878  26.453  22.889  1.00  0.00     0.040 A 
ATOM     24  C   UNL A   1      33.749  27.984  22.115  1.00  0.00     0.174 C 
ATOM     25  C   UNL A   1      30.948  27.546  23.281  1.00  0.00     0.067 C 
ENDBRANCH  17  18
ENDBRANCH  12  17
ENDBRANCH  10  11
ENDBRANCH   7  10
ENDBRANCH   5   6
ENDBRANCH   1   5
BRANCH   3  26
ATOM     26  C   UNL A   1      36.276  20.624  25.146  1.00  0.00     0.117 C 
BRANCH  26  27
ATOM     27  C   UNL A   1      37.672  20.247  24.676  1.00  0.00     0.042 C 
BRANCH  27  28
ATOM     28  C   UNL A   1      38.729  20.527  25.733  1.00  0.00     0.118 C 
BRANCH  28  29
ATOM     29  N   UNL A   1      39.756  19.491  25.781  1.00  0.00    -0.352 N 
ATOM     30  C   UNL A   1      41.089  19.594  26.107  1.00  0.00     0.251 C 
ATOM     31  H   UNL A   1      39.450  18.585  25.545  1.00  0.00     0.163 HD
ATOM     32  O   UNL A   1      41.840  18.641  25.957  1.00  0.00    -0.269 OA
BRANCH  30  33
ATOM     33  C   UNL A   1      41.615  20.881  26.605  1.00  0.00     0.039 A 
ATOM     34  C   UNL A   1      42.157  21.791  25.692  1.00  0.00     0.014 A 
ATOM     35  C   UNL A   1      41.537  21.203  27.960  1.00  0.00     0.014 A 
ATOM     36  C   UNL A   1      42.537  23.061  26.129  1.00  0.00     0.010 A 
ATOM     37  C   UNL A   1      41.833  22.493  28.377  1.00  0.00     0.010 A 
ATOM     38  C   UNL A   1      42.332  23.437  27.465  1.00  0.00    -0.014 A 
BRANCH  38  39
ATOM     39  C   UNL A   1      42.621  24.809  27.950  1.00  0.00     0.031 A 
ATOM     40  C   UNL A   1      44.012  25.160  28.401  1.00  0.00     0.074 A 
ATOM     41  C   UNL A   1      41.617  25.695  28.095  1.00  0.00     0.049 A 
ATOM     42  N   UNL A   1      44.434  26.234  29.015  1.00  0.00    -0.248 NA
ATOM     43  C   UNL A   1      45.056  24.151  28.162  1.00  0.00     0.031 C 
ATOM     44  C   UNL A   1      40.217  25.466  27.732  1.00  0.00     0.029 A 
ATOM     45  N   UNL A   1      41.622  26.968  28.607  1.00  0.00    -0.354 N 
ATOM     46  C   UNL A   1      45.780  26.010  29.276  1.00  0.00     0.074 A 
ATOM     47  C   UNL A   1      46.095  24.687  28.785  1.00  0.00     0.031 C 
ATOM     48  C   UNL A   1      39.504  26.570  28.010  1.00  0.00     0.029 A 
ATOM     49  C   UNL A   1      40.384  27.563  28.614  1.00  0.00     0.049 A 
ATOM     50  H   UNL A   1      42.436  27.413  28.937  1.00  0.00     0.167 HD
ATOM     51  C   UNL A   1      46.677  26.837  29.863  1.00  0.00     0.031 A 
ATOM     52  C   UNL A   1      39.999  28.770  29.069  1.00  0.00     0.031 A 
ATOM     53  C   UNL A   1      46.374  28.167  30.314  1.00  0.00     0.049 A 
ATOM     54  C   UNL A   1      41.019  29.678  29.697  1.00  0.00     0.074 A 
ATOM     55  C   UNL A   1      47.229  29.110  30.854  1.00  0.00     0.029 A 
ATOM     56  N   UNL A   1      45.114  28.744  30.269  1.00  0.00    -0.354 N 
ATOM     57  N   UNL A   1      42.297  29.471  29.895  1.00  0.00    -0.248 NA
ATOM     58  C   UNL A   1      40.539  30.988  30.161  1.00  0.00     0.031 C 
ATOM     59  C   UNL A   1      46.480  30.250  31.166  1.00  0.00     0.029 A 
ATOM     60  C   UNL A   1      45.167  30.029  30.782  1.00  0.00     0.049 A 
ATOM     61  H   UNL A   1      44.303  28.306  29.923  1.00  0.00     0.167 HD
ATOM     62  C   UNL A   1      42.782  30.633  30.478  1.00  0.00     0.074 A 
ATOM     63  C   UNL A   1      41.661  31.545  30.594  1.00  0.00     0.031 C 
ATOM     64  C   UNL A   1      44.044  30.921  30.880  1.00  0.00     0.031 A 
BRANCH  51  65
ATOM     65  C   UNL A   1      48.072  26.316  30.052  1.00  0.00    -0.014 A 
ATOM     66  C   UNL A   1      48.482  25.758  31.274  1.00  0.00     0.009 A 
ATOM     67  C   UNL A   1      48.984  26.364  28.987  1.00  0.00     0.009 A 
ATOM     68  C   UNL A   1      49.791  25.298  31.437  1.00  0.00     0.001 A 
ATOM     69  C   UNL A   1      50.284  25.877  29.144  1.00  0.00     0.001 A 
ATOM     70  C   UNL A   1      50.688  25.354  30.372  1.00  0.00     0.000 A 
ENDBRANCH  51  65
BRANCH  52  71
ATOM     71  C   UNL A   1      38.586  29.202  28.930  1.00  0.00    -0.014 A 
ATOM     72  C   UNL A   1      37.710  29.106  30.024  1.00  0.00     0.009 A 
ATOM     73  C   UNL A   1      38.102  29.708  27.714  1.00  0.00     0.009 A 
ATOM     74  C   UNL A   1      36.373  29.486  29.895  1.00  0.00     0.001 A 
ATOM     75  C   UNL A   1      36.770  30.110  27.597  1.00  0.00     0.001 A 
ATOM     76  C   UNL A   1      35.904  29.991  28.683  1.00  0.00     0.000 A 
ENDBRANCH  52  71
BRANCH  64  77
ATOM     77  C   UNL A   1      44.287  32.292  31.439  1.00  0.00    -0.014 A 
ATOM     78  C   UNL A   1      44.190  32.546  32.815  1.00  0.00     0.009 A 
ATOM     79  C   UNL A   1      44.663  33.333  30.576  1.00  0.00     0.009 A 
ATOM     80  C   UNL A   1      44.440  33.826  33.314  1.00  0.00     0.001 A 
ATOM     81  C   UNL A   1      44.935  34.606  31.080  1.00  0.00     0.001 A 
ATOM     82  C   UNL A   1      44.816  34.852  32.447  1.00  0.00     0.000 A 
ENDBRANCH  64  77
ENDBRANCH  38  39
ENDBRANCH  30  33
ENDBRANCH  28  29
ENDBRANCH  27  28
ENDBRANCH  26  27
ENDBRANCH   3  26
TORSDOF 15
ENDMDL
MODEL 2
REMARK VINA RESULT:     -11.4      1.264      6.171
REMARK SMILES Cc1nn(C)c(C)c1CNC(=O)NCC(=O)NCC(=O)NCCCNC(=O)c1ccc(-c2c3nc(c(-c4ccccc4)c4ccc([nH]4)c(-c4ccccc4)c4nc(c(-c5ccccc5)c5ccc2[nH]5)C=C4)C=C3)cc1
REMARK SMILES IDX 19 1 20 2 21 3 18 5 17 6 15 7 16 8 14 10 13 11 10 12 11 13
REMARK SMILES IDX 12 15 9 17 8 18 1 19 2 20 3 21 4 22 6 23 5 24 7 25 22 26
REMARK SMILES IDX 23 27 24 28 25 29 26 30 27 32 28 33 29 34 75 35 30 36 74 37
REMARK SMILES IDX 31 38 32 39 33 40 68 41 34 42 73 43 67 44 69 45 35 46 72 47
REMARK SMILES IDX 66 48 65 49 36 51 58 52 43 53 57 54 44 55 47 56 56 57 70 58
REMARK SMILES IDX 45 59 46 60 55 62 71 63 48 64 37 65 38 66 42 67 39 68 41 69
REMARK SMILES IDX 40 70 59 71 60 72 64 73 61 74 63 75 62 76 49 77 50 78 54 79
REMARK SMILES IDX 51 80 53 81 52 82
REMARK H PARENT 21 4 17 9 10 14 13 16 25 31 69 50 47 61
REMARK Flexibility Score: inf
ROOT
ATOM      1  C   UNL A   1      34.458  18.392  24.559  1.00  0.00     0.239 C 
ATOM      2  O   UNL A   1      34.424  17.303  23.983  1.00  0.00    -0.273 OA
ATOM      3  N   UNL A   1      35.663  19.021  24.703  1.00  0.00    -0.355 N 
ATOM      4  H   UNL A   1      36.461  18.505  24.441  1.00  0.00     0.163 HD
ENDROOT
BRANCH   1   5
ATOM      5  C   UNL A   1      33.173  19.071  25.061  1.00  0.00     0.216 C 
BRANCH   5   6
ATOM      6  N   UNL A   1      32.583  19.941  24.056  1.00  0.00    -0.346 N 
ATOM      7  C   UNL A   1      32.276  21.264  24.056  1.00  0.00     0.239 C 
ATOM      8  O   UNL A   1      31.924  21.747  22.974  1.00  0.00    -0.273 OA
ATOM      9  H   UNL A   1      32.366  19.484  23.211  1.00  0.00     0.164 HD
BRANCH   7  10
ATOM     10  C   UNL A   1      32.462  22.184  25.273  1.00  0.00     0.217 C 
BRANCH  10  11
ATOM     11  N   UNL A   1      31.305  22.310  26.142  1.00  0.00    -0.329 N 
ATOM     12  N   UNL A   1      31.144  24.543  26.897  1.00  0.00    -0.334 N 
ATOM     13  C   UNL A   1      30.727  23.280  26.854  1.00  0.00     0.315 C 
ATOM     14  H   UNL A   1      30.594  25.102  27.491  1.00  0.00     0.165 HD
ATOM     15  O   UNL A   1      29.740  22.972  27.527  1.00  0.00    -0.249 OA
ATOM     16  H   UNL A   1      30.820  21.458  26.228  1.00  0.00     0.165 HD
BRANCH  12  17
ATOM     17  C   UNL A   1      32.215  25.281  26.277  1.00  0.00     0.157 C 
BRANCH  17  18
ATOM     18  C   UNL A   1      31.693  26.355  25.384  1.00  0.00     0.015 A 
ATOM     19  C   UNL A   1      31.989  28.382  27.029  1.00  0.00     0.069 C 
ATOM     20  C   UNL A   1      31.582  27.727  25.760  1.00  0.00     0.065 A 
ATOM     21  N   UNL A   1      31.017  28.464  24.802  1.00  0.00    -0.178 NA
ATOM     22  N   UNL A   1      30.764  27.592  23.816  1.00  0.00    -0.272 N 
ATOM     23  C   UNL A   1      31.233  26.328  24.068  1.00  0.00     0.040 A 
ATOM     24  C   UNL A   1      30.030  28.067  22.665  1.00  0.00     0.174 C 
ATOM     25  C   UNL A   1      31.155  25.243  23.054  1.00  0.00     0.067 C 
ENDBRANCH  17  18
ENDBRANCH  12  17
ENDBRANCH  10  11
ENDBRANCH   7  10
ENDBRANCH   5   6
ENDBRANCH   1   5
BRANCH   3  26
ATOM     26  C   UNL A   1      35.899  20.360  25.197  1.00  0.00     0.117 C 
BRANCH  26  27
ATOM     27  C   UNL A   1      37.120  21.018  24.576  1.00  0.00     0.042 C 
BRANCH  27  28
ATOM     28  C   UNL A   1      38.259  21.172  25.572  1.00  0.00     0.118 C 
BRANCH  28  29
ATOM     29  N   UNL A   1      39.154  20.019  25.575  1.00  0.00    -0.352 N 
ATOM     30  C   UNL A   1      40.476  19.938  25.952  1.00  0.00     0.251 C 
ATOM     31  H   UNL A   1      38.755  19.176  25.261  1.00  0.00     0.163 HD
ATOM     32  O   UNL A   1      41.115  18.915  25.755  1.00  0.00    -0.269 OA
BRANCH  30  33
ATOM     33  C   UNL A   1      41.128  21.114  26.564  1.00  0.00     0.039 A 
ATOM     34  C   UNL A   1      41.696  22.083  25.732  1.00  0.00     0.014 A 
ATOM     35  C   UNL A   1      41.141  21.276  27.950  1.00  0.00     0.014 A 
ATOM     36  C   UNL A   1      42.198  23.260  26.290  1.00  0.00     0.010 A 
ATOM     37  C   UNL A   1      41.560  22.482  28.495  1.00  0.00     0.010 A 
ATOM     38  C   UNL A   1      42.089  23.488  27.670  1.00  0.00    -0.014 A 
BRANCH  38  39
ATOM     39  C   UNL A   1      42.511  24.766  28.293  1.00  0.00     0.031 A 
ATOM     40  C   UNL A   1      41.497  25.852  28.523  1.00  0.00     0.074 A 
ATOM     41  C   UNL A   1      43.816  24.993  28.542  1.00  0.00     0.049 A 
ATOM     42  N   UNL A   1      41.684  27.094  28.888  1.00  0.00    -0.248 NA
ATOM     43  C   UNL A   1      40.089  25.503  28.271  1.00  0.00     0.031 C 
ATOM     44  C   UNL A   1      44.904  24.037  28.327  1.00  0.00     0.029 A 
ATOM     45  N   UNL A   1      44.448  26.115  29.015  1.00  0.00    -0.354 N 
ATOM     46  C   UNL A   1      40.427  27.684  28.865  1.00  0.00     0.074 A 
ATOM     47  C   UNL A   1      39.491  26.676  28.418  1.00  0.00     0.031 C 
ATOM     48  C   UNL A   1      46.066  24.605  28.690  1.00  0.00     0.029 A 
ATOM     49  C   UNL A   1      45.811  25.976  29.115  1.00  0.00     0.049 A 
ATOM     50  H   UNL A   1      43.971  26.940  29.259  1.00  0.00     0.167 HD
ATOM     51  C   UNL A   1      40.080  28.950  29.197  1.00  0.00     0.031 A 
ATOM     52  C   UNL A   1      46.752  26.861  29.495  1.00  0.00     0.031 A 
ATOM     53  C   UNL A   1      41.004  29.939  29.680  1.00  0.00     0.049 A 
ATOM     54  C   UNL A   1      46.338  28.254  29.879  1.00  0.00     0.074 A 
ATOM     55  C   UNL A   1      40.740  31.227  30.112  1.00  0.00     0.029 A 
ATOM     56  N   UNL A   1      42.371  29.745  29.801  1.00  0.00    -0.354 N 
ATOM     57  N   UNL A   1      45.141  28.783  29.896  1.00  0.00    -0.248 NA
ATOM     58  C   UNL A   1      47.410  29.168  30.300  1.00  0.00     0.031 C 
ATOM     59  C   UNL A   1      41.954  31.824  30.466  1.00  0.00     0.029 A 
ATOM     60  C   UNL A   1      42.967  30.894  30.292  1.00  0.00     0.049 A 
ATOM     61  H   UNL A   1      42.847  28.914  29.573  1.00  0.00     0.167 HD
ATOM     62  C   UNL A   1      45.309  30.082  30.356  1.00  0.00     0.074 A 
ATOM     63  C   UNL A   1      46.723  30.257  30.615  1.00  0.00     0.031 C 
ATOM     64  C   UNL A   1      44.373  31.045  30.550  1.00  0.00     0.031 A 
BRANCH  51  65
ATOM     65  C   UNL A   1      38.636  29.331  29.040  1.00  0.00    -0.014 A 
ATOM     66  C   UNL A   1      38.120  29.735  27.798  1.00  0.00     0.009 A 
ATOM     67  C   UNL A   1      37.775  29.267  30.145  1.00  0.00     0.009 A 
ATOM     68  C   UNL A   1      36.779  30.106  27.677  1.00  0.00     0.001 A 
ATOM     69  C   UNL A   1      36.428  29.612  30.016  1.00  0.00     0.001 A 
ATOM     70  C   UNL A   1      35.935  30.041  28.784  1.00  0.00     0.000 A 
ENDBRANCH  51  65
BRANCH  52  71
ATOM     71  C   UNL A   1      48.178  26.453  29.553  1.00  0.00    -0.014 A 
ATOM     72  C   UNL A   1      48.697  25.871  30.720  1.00  0.00     0.009 A 
ATOM     73  C   UNL A   1      49.027  26.641  28.452  1.00  0.00     0.009 A 
ATOM     74  C   UNL A   1      50.043  25.509  30.792  1.00  0.00     0.001 A 
ATOM     75  C   UNL A   1      50.367  26.254  28.519  1.00  0.00     0.001 A 
ATOM     76  C   UNL A   1      50.877  25.697  29.691  1.00  0.00     0.000 A 
ENDBRANCH  52  71
BRANCH  64  77
ATOM     77  C   UNL A   1      44.846  32.354  31.109  1.00  0.00    -0.014 A 
ATOM     78  C   UNL A   1      44.868  32.590  32.491  1.00  0.00     0.009 A 
ATOM     79  C   UNL A   1      45.318  33.348  30.238  1.00  0.00     0.009 A 
ATOM     80  C   UNL A   1      45.330  33.810  32.990  1.00  0.00     0.001 A 
ATOM     81  C   UNL A   1      45.801  34.557  30.739  1.00  0.00     0.001 A 
ATOM     82  C   UNL A   1      45.800  34.789  32.114  1.00  0.00     0.000 A 
ENDBRANCH  64  77
ENDBRANCH  38  39
ENDBRANCH  30  33
ENDBRANCH  28  29
ENDBRANCH  27  28
ENDBRANCH  26  27
ENDBRANCH   3  26
TORSDOF 15
ENDMDL
MODEL 3
REMARK VINA RESULT:     -11.4      1.192      6.147
REMARK SMILES Cc1nn(C)c(C)c1CNC(=O)NCC(=O)NCC(=O)NCCCNC(=O)c1ccc(-c2c3nc(c(-c4ccccc4)c4ccc([nH]4)c(-c4ccccc4)c4nc(c(-c5ccccc5)c5ccc2[nH]5)C=C4)C=C3)cc1
REMARK SMILES IDX 19 1 20 2 21 3 18 5 17 6 15 7 16 8 14 10 13 11 10 12 11 13
REMARK SMILES IDX 12 15 9 17 8 18 1 19 2 20 3 21 4 22 6 23 5 24 7 25 22 26
REMARK SMILES IDX 23 27 24 28 25 29 26 30 27 32 28 33 29 34 75 35 30 36 74 37
REMARK SMILES IDX 31 38 32 39 33 40 68 41 34 42 73 43 67 44 69 45 35 46 72 47
REMARK SMILES IDX 66 48 65 49 36 51 58 52 43 53 57 54 44 55 47 56 56 57 70 58
REMARK SMILES IDX 45 59 46 60 55 62 71 63 48 64 37 65 38 66 42 67 39 68 41 69
REMARK SMILES IDX 40 70 59 71 60 72 64 73 61 74 63 75 62 76 49 77 50 78 54 79
REMARK SMILES IDX 51 80 53 81 52 82
REMARK H PARENT 21 4 17 9 10 14 13 16 25 31 69 50 47 61
REMARK Flexibility Score: inf
ROOT
ATOM      1  C   UNL A   1      34.411  22.179  26.794  1.00  0.00     0.239 C 
ATOM      2  O   UNL A   1      34.401  22.636  27.938  1.00  0.00    -0.273 OA
ATOM      3  N   UNL A   1      35.614  21.869  26.222  1.00  0.00    -0.355 N 
ATOM      4  H   UNL A   1      36.419  22.145  26.718  1.00  0.00     0.163 HD
ENDROOT
BRANCH   1   5
ATOM      5  C   UNL A   1      33.106  21.903  26.031  1.00  0.00     0.216 C 
BRANCH   5   6
ATOM      6  N   UNL A   1      31.929  22.143  26.852  1.00  0.00    -0.346 N 
ATOM      7  C   UNL A   1      30.971  23.105  26.821  1.00  0.00     0.239 C 
ATOM      8  O   UNL A   1      30.000  22.938  27.568  1.00  0.00    -0.273 OA
ATOM      9  H   UNL A   1      31.801  21.479  27.568  1.00  0.00     0.164 HD
BRANCH   7  10
ATOM     10  C   UNL A   1      30.979  24.287  25.839  1.00  0.00     0.217 C 
BRANCH  10  11
ATOM     11  N   UNL A   1      30.934  25.604  26.448  1.00  0.00    -0.329 N 
ATOM     12  N   UNL A   1      33.016  26.675  26.128  1.00  0.00    -0.334 N 
ATOM     13  C   UNL A   1      31.773  26.631  26.603  1.00  0.00     0.315 C 
ATOM     14  H   UNL A   1      33.479  27.512  26.360  1.00  0.00     0.165 HD
ATOM     15  O   UNL A   1      31.362  27.602  27.243  1.00  0.00    -0.249 OA
ATOM     16  H   UNL A   1      30.056  25.789  26.851  1.00  0.00     0.165 HD
BRANCH  12  17
ATOM     17  C   UNL A   1      33.840  25.783  25.355  1.00  0.00     0.157 C 
BRANCH  17  18
ATOM     18  C   UNL A   1      33.639  25.983  23.891  1.00  0.00     0.015 A 
ATOM     19  C   UNL A   1      34.068  28.574  23.808  1.00  0.00     0.069 C 
ATOM     20  C   UNL A   1      33.723  27.248  23.235  1.00  0.00     0.065 A 
ATOM     21  N   UNL A   1      33.429  27.160  21.937  1.00  0.00    -0.178 NA
ATOM     22  N   UNL A   1      33.159  25.860  21.744  1.00  0.00    -0.272 N 
ATOM     23  C   UNL A   1      33.361  25.087  22.860  1.00  0.00     0.040 A 
ATOM     24  C   UNL A   1      32.680  25.455  20.442  1.00  0.00     0.174 C 
ATOM     25  C   UNL A   1      33.227  23.606  22.825  1.00  0.00     0.067 C 
ENDBRANCH  17  18
ENDBRANCH  12  17
ENDBRANCH  10  11
ENDBRANCH   7  10
ENDBRANCH   5   6
ENDBRANCH   1   5
BRANCH   3  26
ATOM     26  C   UNL A   1      35.837  21.181  24.970  1.00  0.00     0.117 C 
BRANCH  26  27
ATOM     27  C   UNL A   1      37.296  21.171  24.546  1.00  0.00     0.042 C 
BRANCH  27  28
ATOM     28  C   UNL A   1      38.240  21.119  25.736  1.00  0.00     0.118 C 
BRANCH  28  29
ATOM     29  N   UNL A   1      39.168  19.994  25.662  1.00  0.00    -0.352 N 
ATOM     30  C   UNL A   1      40.510  19.945  25.964  1.00  0.00     0.251 C 
ATOM     31  H   UNL A   1      38.776  19.147  25.350  1.00  0.00     0.163 HD
ATOM     32  O   UNL A   1      41.167  18.946  25.707  1.00  0.00    -0.269 OA
BRANCH  30  33
ATOM     33  C   UNL A   1      41.161  21.126  26.567  1.00  0.00     0.039 A 
ATOM     34  C   UNL A   1      41.728  22.090  25.728  1.00  0.00     0.014 A 
ATOM     35  C   UNL A   1      41.174  21.298  27.951  1.00  0.00     0.014 A 
ATOM     36  C   UNL A   1      42.229  23.271  26.277  1.00  0.00     0.010 A 
ATOM     37  C   UNL A   1      41.592  22.509  28.488  1.00  0.00     0.010 A 
ATOM     38  C   UNL A   1      42.119  23.509  27.656  1.00  0.00    -0.014 A 
BRANCH  38  39
ATOM     39  C   UNL A   1      42.540  24.792  28.269  1.00  0.00     0.031 A 
ATOM     40  C   UNL A   1      41.521  25.870  28.512  1.00  0.00     0.074 A 
ATOM     41  C   UNL A   1      43.847  25.031  28.497  1.00  0.00     0.049 A 
ATOM     42  N   UNL A   1      41.703  27.114  28.872  1.00  0.00    -0.248 NA
ATOM     43  C   UNL A   1      40.112  25.508  28.283  1.00  0.00     0.031 C 
ATOM     44  C   UNL A   1      44.940  24.083  28.268  1.00  0.00     0.029 A 
ATOM     45  N   UNL A   1      44.477  26.159  28.958  1.00  0.00    -0.354 N 
ATOM     46  C   UNL A   1      40.441  27.694  28.867  1.00  0.00     0.074 A 
ATOM     47  C   UNL A   1      39.507  26.677  28.436  1.00  0.00     0.031 C 
ATOM     48  C   UNL A   1      46.102  24.662  28.612  1.00  0.00     0.029 A 
ATOM     49  C   UNL A   1      45.843  26.032  29.038  1.00  0.00     0.049 A 
ATOM     50  H   UNL A   1      43.997  26.981  29.208  1.00  0.00     0.167 HD
ATOM     51  C   UNL A   1      40.088  28.958  29.201  1.00  0.00     0.031 A 
ATOM     52  C   UNL A   1      46.781  26.925  29.401  1.00  0.00     0.031 A 
ATOM     53  C   UNL A   1      41.011  29.955  29.668  1.00  0.00     0.049 A 
ATOM     54  C   UNL A   1      46.362  28.316  29.788  1.00  0.00     0.074 A 
ATOM     55  C   UNL A   1      40.743  31.242  30.101  1.00  0.00     0.029 A 
ATOM     56  N   UNL A   1      42.382  29.774  29.768  1.00  0.00    -0.354 N 
ATOM     57  N   UNL A   1      45.160  28.835  29.823  1.00  0.00    -0.248 NA
ATOM     58  C   UNL A   1      47.433  29.240  30.190  1.00  0.00     0.031 C 
ATOM     59  C   UNL A   1      41.958  31.850  30.435  1.00  0.00     0.029 A 
ATOM     60  C   UNL A   1      42.975  30.928  30.247  1.00  0.00     0.049 A 
ATOM     61  H   UNL A   1      42.861  28.946  29.534  1.00  0.00     0.167 HD
ATOM     62  C   UNL A   1      45.325  30.137  30.277  1.00  0.00     0.074 A 
ATOM     63  C   UNL A   1      46.742  30.324  30.514  1.00  0.00     0.031 C 
ATOM     64  C   UNL A   1      44.384  31.091  30.483  1.00  0.00     0.031 A 
BRANCH  51  65
ATOM     65  C   UNL A   1      38.640  29.326  29.066  1.00  0.00    -0.014 A 
ATOM     66  C   UNL A   1      37.762  29.247  30.159  1.00  0.00     0.009 A 
ATOM     67  C   UNL A   1      38.149  29.779  27.832  1.00  0.00     0.009 A 
ATOM     68  C   UNL A   1      36.413  29.574  30.008  1.00  0.00     0.001 A 
ATOM     69  C   UNL A   1      36.804  30.132  27.690  1.00  0.00     0.001 A 
ATOM     70  C   UNL A   1      35.937  30.019  28.775  1.00  0.00     0.000 A 
ENDBRANCH  51  65
BRANCH  52  71
ATOM     71  C   UNL A   1      48.212  26.529  29.438  1.00  0.00    -0.014 A 
ATOM     72  C   UNL A   1      49.042  26.790  28.336  1.00  0.00     0.009 A 
ATOM     73  C   UNL A   1      48.756  25.892  30.563  1.00  0.00     0.009 A 
ATOM     74  C   UNL A   1      50.382  26.397  28.351  1.00  0.00     0.001 A 
ATOM     75  C   UNL A   1      50.102  25.523  30.584  1.00  0.00     0.001 A 
ATOM     76  C   UNL A   1      50.912  25.768  29.477  1.00  0.00     0.000 A 
ENDBRANCH  52  71
BRANCH  64  77
ATOM     77  C   UNL A   1      44.854  32.406  31.032  1.00  0.00    -0.014 A 
ATOM     78  C   UNL A   1      45.211  33.464  30.183  1.00  0.00     0.009 A 
ATOM     79  C   UNL A   1      44.896  32.599  32.422  1.00  0.00     0.009 A 
ATOM     80  C   UNL A   1      45.627  34.685  30.718  1.00  0.00     0.001 A 
ATOM     81  C   UNL A   1      45.290  33.829  32.953  1.00  0.00     0.001 A 
ATOM     82  C   UNL A   1      45.662  34.867  32.100  1.00  0.00     0.000 A 
ENDBRANCH  64  77
ENDBRANCH  38  39
ENDBRANCH  30  33
ENDBRANCH  28  29
ENDBRANCH  27  28
ENDBRANCH  26  27
ENDBRANCH   3  26
TORSDOF 15
ENDMDL
