MODEL 1
REMARK VINA RESULT:     -10.3      0.000      0.000
REMARK SMILES O=C(CSc1ccnc(C(=O)NCCCNC(=O)c2ccc(-c3c4nc(c(-c5ccccc5)c5ccc([nH]5)c(-c5ccccc5)c5nc(c(-c6ccccc6)c6ccc3[nH]6)C=C5)C=C4)cc2)c1)NCC(F)(F)F
REMARK SMILES IDX 10 1 11 2 12 3 9 5 5 6 6 7 67 8 7 9 8 10 4 11 3 12 2 13 1 14
REMARK SMILES IDX 68 15 69 17 70 18 71 19 72 20 73 21 13 22 14 23 15 24 16 25
REMARK SMILES IDX 17 26 18 28 19 29 20 30 66 31 21 32 65 33 22 34 23 35 24 36
REMARK SMILES IDX 59 37 25 38 64 39 58 40 60 41 26 42 63 43 57 44 56 45 27 47
REMARK SMILES IDX 49 48 34 49 48 50 35 51 38 52 47 53 61 54 36 55 37 56 46 58
REMARK SMILES IDX 62 59 39 60 28 61 29 62 33 63 30 64 32 65 31 66 50 67 51 68
REMARK SMILES IDX 55 69 52 70 54 71 53 72 40 73 41 74 45 75 42 76 44 77 43 78
REMARK H PARENT 12 4 68 16 16 27 60 46 38 57
REMARK Flexibility Score: inf
ROOT
ATOM      1  C   UNL A   1      33.726  29.202  26.782  1.00  0.00     0.269 C 
ATOM      2  O   UNL A   1      34.776  29.135  27.426  1.00  0.00    -0.268 OA
ATOM      3  N   UNL A   1      32.913  30.277  27.069  1.00  0.00    -0.351 N 
ATOM      4  H   UNL A   1      33.255  30.854  27.789  1.00  0.00     0.163 HD
ENDROOT
BRANCH   1   5
ATOM      5  C   UNL A   1      33.411  28.147  25.749  1.00  0.00     0.129 A 
ATOM      6  C   UNL A   1      32.272  27.240  23.837  1.00  0.00     0.012 A 
ATOM      7  C   UNL A   1      32.864  26.009  24.105  1.00  0.00     0.035 A 
ATOM      8  C   UNL A   1      32.529  28.320  24.688  1.00  0.00     0.049 A 
ATOM      9  C   UNL A   1      33.712  25.913  25.189  1.00  0.00     0.113 A 
ATOM     10  N   UNL A   1      34.003  26.948  25.997  1.00  0.00    -0.251 NA
BRANCH   6  11
ATOM     11  S   UNL A   1      31.112  27.332  22.478  1.00  0.00    -0.116 SA
BRANCH  11  12
ATOM     12  C   UNL A   1      29.508  27.419  23.355  1.00  0.00     0.174 C 
BRANCH  12  13
ATOM     13  C   UNL A   1      28.723  28.664  22.977  1.00  0.00     0.230 C 
ATOM     14  O   UNL A   1      27.495  28.678  23.013  1.00  0.00    -0.274 OA
ATOM     15  N   UNL A   1      29.471  29.766  22.633  1.00  0.00    -0.346 N 
ATOM     16  H   UNL A   1      30.451  29.708  22.710  1.00  0.00     0.163 HD
BRANCH  15  17
ATOM     17  C   UNL A   1      28.882  31.023  22.159  1.00  0.00     0.231 C 
BRANCH  17  18
ATOM     18  C   UNL A   1      28.476  32.013  23.248  1.00  0.00     0.405 C 
ATOM     19  F   UNL A   1      28.601  33.286  22.807  1.00  0.00    -0.169 F 
ATOM     20  F   UNL A   1      27.183  31.828  23.599  1.00  0.00    -0.169 F 
ATOM     21  F   UNL A   1      29.231  31.879  24.357  1.00  0.00    -0.169 F 
ENDBRANCH  17  18
ENDBRANCH  15  17
ENDBRANCH  12  13
ENDBRANCH  11  12
ENDBRANCH   6  11
ENDBRANCH   1   5
BRANCH   3  22
ATOM     22  C   UNL A   1      31.651  30.720  26.513  1.00  0.00     0.118 C 
BRANCH  22  23
ATOM     23  C   UNL A   1      31.336  32.147  26.959  1.00  0.00     0.042 C 
BRANCH  23  24
ATOM     24  C   UNL A   1      32.504  33.122  26.897  1.00  0.00     0.118 C 
BRANCH  24  25
ATOM     25  N   UNL A   1      32.383  34.189  27.877  1.00  0.00    -0.352 N 
ATOM     26  C   UNL A   1      33.171  34.561  28.934  1.00  0.00     0.251 C 
ATOM     27  H   UNL A   1      31.584  34.751  27.759  1.00  0.00     0.163 HD
ATOM     28  O   UNL A   1      32.749  35.443  29.687  1.00  0.00    -0.269 OA
BRANCH  26  29
ATOM     29  C   UNL A   1      34.489  33.944  29.222  1.00  0.00     0.039 A 
ATOM     30  C   UNL A   1      34.556  33.019  30.273  1.00  0.00     0.014 A 
ATOM     31  C   UNL A   1      35.666  34.298  28.557  1.00  0.00     0.014 A 
ATOM     32  C   UNL A   1      35.777  32.443  30.636  1.00  0.00     0.010 A 
ATOM     33  C   UNL A   1      36.872  33.661  28.865  1.00  0.00     0.010 A 
ATOM     34  C   UNL A   1      36.946  32.743  29.920  1.00  0.00    -0.014 A 
BRANCH  34  35
ATOM     35  C   UNL A   1      38.240  32.113  30.295  1.00  0.00     0.031 A 
ATOM     36  C   UNL A   1      39.145  32.757  31.313  1.00  0.00     0.074 A 
ATOM     37  C   UNL A   1      38.611  30.958  29.709  1.00  0.00     0.049 A 
ATOM     38  N   UNL A   1      40.292  32.332  31.784  1.00  0.00    -0.248 NA
ATOM     39  C   UNL A   1      38.717  34.055  31.860  1.00  0.00     0.031 C 
ATOM     40  C   UNL A   1      37.851  30.249  28.678  1.00  0.00     0.029 A 
ATOM     41  N   UNL A   1      39.718  30.171  29.906  1.00  0.00    -0.354 N 
ATOM     42  C   UNL A   1      40.728  33.315  32.665  1.00  0.00     0.074 A 
ATOM     43  C   UNL A   1      39.746  34.378  32.628  1.00  0.00     0.031 C 
ATOM     44  C   UNL A   1      38.491  29.111  28.364  1.00  0.00     0.029 A 
ATOM     45  C   UNL A   1      39.719  29.026  29.149  1.00  0.00     0.049 A 
ATOM     46  H   UNL A   1      40.441  30.405  30.531  1.00  0.00     0.167 HD
ATOM     47  C   UNL A   1      41.832  33.327  33.450  1.00  0.00     0.031 A 
ATOM     48  C   UNL A   1      40.603  28.011  29.096  1.00  0.00     0.031 A 
ATOM     49  C   UNL A   1      42.805  32.268  33.502  1.00  0.00     0.049 A 
ATOM     50  C   UNL A   1      41.810  28.037  29.991  1.00  0.00     0.074 A 
ATOM     51  C   UNL A   1      43.932  32.167  34.299  1.00  0.00     0.029 A 
ATOM     52  N   UNL A   1      42.763  31.121  32.724  1.00  0.00    -0.354 N 
ATOM     53  N   UNL A   1      42.174  28.947  30.863  1.00  0.00    -0.248 NA
ATOM     54  C   UNL A   1      42.717  26.885  29.906  1.00  0.00     0.031 C 
ATOM     55  C   UNL A   1      44.595  30.978  33.976  1.00  0.00     0.029 A 
ATOM     56  C   UNL A   1      43.852  30.314  33.012  1.00  0.00     0.049 A 
ATOM     57  H   UNL A   1      42.063  30.911  32.064  1.00  0.00     0.167 HD
ATOM     58  C   UNL A   1      43.336  28.464  31.449  1.00  0.00     0.074 A 
ATOM     59  C   UNL A   1      43.604  27.173  30.847  1.00  0.00     0.031 C 
ATOM     60  C   UNL A   1      44.110  29.037  32.402  1.00  0.00     0.031 A 
BRANCH  47  61
ATOM     61  C   UNL A   1      42.050  34.537  34.318  1.00  0.00    -0.014 A 
ATOM     62  C   UNL A   1      42.735  35.664  33.836  1.00  0.00     0.009 A 
ATOM     63  C   UNL A   1      41.538  34.563  35.624  1.00  0.00     0.009 A 
ATOM     64  C   UNL A   1      42.938  36.776  34.657  1.00  0.00     0.001 A 
ATOM     65  C   UNL A   1      41.718  35.686  36.434  1.00  0.00     0.001 A 
ATOM     66  C   UNL A   1      42.427  36.786  35.954  1.00  0.00     0.000 A 
ENDBRANCH  47  61
BRANCH  48  67
ATOM     67  C   UNL A   1      40.358  26.861  28.190  1.00  0.00    -0.014 A 
ATOM     68  C   UNL A   1      40.876  26.860  26.886  1.00  0.00     0.009 A 
ATOM     69  C   UNL A   1      39.605  25.758  28.623  1.00  0.00     0.009 A 
ATOM     70  C   UNL A   1      40.624  25.790  26.024  1.00  0.00     0.001 A 
ATOM     71  C   UNL A   1      39.378  24.678  27.768  1.00  0.00     0.001 A 
ATOM     72  C   UNL A   1      39.879  24.699  26.467  1.00  0.00     0.000 A 
ENDBRANCH  48  67
BRANCH  60  73
ATOM     73  C   UNL A   1      45.302  28.252  32.874  1.00  0.00    -0.014 A 
ATOM     74  C   UNL A   1      46.554  28.381  32.252  1.00  0.00     0.009 A 
ATOM     75  C   UNL A   1      45.171  27.378  33.963  1.00  0.00     0.009 A 
ATOM     76  C   UNL A   1      47.639  27.616  32.685  1.00  0.00     0.001 A 
ATOM     77  C   UNL A   1      46.264  26.636  34.413  1.00  0.00     0.001 A 
ATOM     78  C   UNL A   1      47.494  26.747  33.765  1.00  0.00     0.000 A 
ENDBRANCH  60  73
ENDBRANCH  34  35
ENDBRANCH  26  29
ENDBRANCH  24  25
ENDBRANCH  23  24
ENDBRANCH  22  23
ENDBRANCH   3  22
TORSDOF 15
ENDMDL
MODEL 2
REMARK VINA RESULT:     -10.1      4.794      6.258
REMARK SMILES O=C(CSc1ccnc(C(=O)NCCCNC(=O)c2ccc(-c3c4nc(c(-c5ccccc5)c5ccc([nH]5)c(-c5ccccc5)c5nc(c(-c6ccccc6)c6ccc3[nH]6)C=C5)C=C4)cc2)c1)NCC(F)(F)F
REMARK SMILES IDX 10 1 11 2 12 3 9 5 5 6 6 7 67 8 7 9 8 10 4 11 3 12 2 13 1 14
REMARK SMILES IDX 68 15 69 17 70 18 71 19 72 20 73 21 13 22 14 23 15 24 16 25
REMARK SMILES IDX 17 26 18 28 19 29 20 30 66 31 21 32 65 33 22 34 23 35 24 36
REMARK SMILES IDX 59 37 25 38 64 39 58 40 60 41 26 42 63 43 57 44 56 45 27 47
REMARK SMILES IDX 49 48 34 49 48 50 35 51 38 52 47 53 61 54 36 55 37 56 46 58
REMARK SMILES IDX 62 59 39 60 28 61 29 62 33 63 30 64 32 65 31 66 50 67 51 68
REMARK SMILES IDX 55 69 52 70 54 71 53 72 40 73 41 74 45 75 42 76 44 77 43 78
REMARK H PARENT 12 4 68 16 16 27 60 46 38 57
REMARK Flexibility Score: inf
ROOT
ATOM      1  C   UNL A   1      30.720  26.741  25.079  1.00  0.00     0.269 C 
ATOM      2  O   UNL A   1      30.096  26.987  24.044  1.00  0.00    -0.268 OA
ATOM      3  N   UNL A   1      31.138  27.837  25.802  1.00  0.00    -0.351 N 
ATOM      4  H   UNL A   1      30.916  28.699  25.382  1.00  0.00     0.163 HD
ENDROOT
BRANCH   1   5
ATOM      5  C   UNL A   1      30.970  25.308  25.481  1.00  0.00     0.129 A 
ATOM      6  C   UNL A   1      31.988  23.139  25.299  1.00  0.00     0.012 A 
ATOM      7  C   UNL A   1      31.109  22.676  26.274  1.00  0.00     0.035 A 
ATOM      8  C   UNL A   1      31.899  24.469  24.877  1.00  0.00     0.049 A 
ATOM      9  C   UNL A   1      30.201  23.566  26.811  1.00  0.00     0.113 A 
ATOM     10  N   UNL A   1      30.125  24.859  26.448  1.00  0.00    -0.251 NA
BRANCH   6  11
ATOM     11  S   UNL A   1      33.104  21.957  24.552  1.00  0.00    -0.116 SA
BRANCH  11  12
ATOM     12  C   UNL A   1      32.272  20.367  24.915  1.00  0.00     0.174 C 
BRANCH  12  13
ATOM     13  C   UNL A   1      32.975  19.195  24.253  1.00  0.00     0.230 C 
ATOM     14  O   UNL A   1      32.544  18.696  23.216  1.00  0.00    -0.274 OA
ATOM     15  N   UNL A   1      34.129  18.763  24.864  1.00  0.00    -0.346 N 
ATOM     16  H   UNL A   1      34.462  19.264  25.643  1.00  0.00     0.163 HD
BRANCH  15  17
ATOM     17  C   UNL A   1      34.889  17.592  24.413  1.00  0.00     0.231 C 
BRANCH  17  18
ATOM     18  C   UNL A   1      34.418  16.248  24.962  1.00  0.00     0.405 C 
ATOM     19  F   UNL A   1      33.669  15.592  24.045  1.00  0.00    -0.169 F 
ATOM     20  F   UNL A   1      35.475  15.461  25.263  1.00  0.00    -0.169 F 
ATOM     21  F   UNL A   1      33.676  16.392  26.079  1.00  0.00    -0.169 F 
ENDBRANCH  17  18
ENDBRANCH  15  17
ENDBRANCH  12  13
ENDBRANCH  11  12
ENDBRANCH   6  11
ENDBRANCH   1   5
BRANCH   3  22
ATOM     22  C   UNL A   1      31.842  27.962  27.061  1.00  0.00     0.118 C 
BRANCH  22  23
ATOM     23  C   UNL A   1      33.348  27.805  26.857  1.00  0.00     0.042 C 
BRANCH  23  24
ATOM     24  C   UNL A   1      34.011  28.899  26.030  1.00  0.00     0.118 C 
BRANCH  24  25
ATOM     25  N   UNL A   1      33.853  30.214  26.629  1.00  0.00    -0.352 N 
ATOM     26  C   UNL A   1      34.579  30.887  27.576  1.00  0.00     0.251 C 
ATOM     27  H   UNL A   1      33.079  30.717  26.289  1.00  0.00     0.163 HD
ATOM     28  O   UNL A   1      34.131  31.958  27.994  1.00  0.00    -0.269 OA
BRANCH  26  29
ATOM     29  C   UNL A   1      35.859  30.380  28.130  1.00  0.00     0.039 A 
ATOM     30  C   UNL A   1      37.009  30.526  27.342  1.00  0.00     0.014 A 
ATOM     31  C   UNL A   1      35.955  29.700  29.347  1.00  0.00     0.014 A 
ATOM     32  C   UNL A   1      38.237  30.019  27.777  1.00  0.00     0.010 A 
ATOM     33  C   UNL A   1      37.197  29.266  29.819  1.00  0.00     0.010 A 
ATOM     34  C   UNL A   1      38.348  29.401  29.031  1.00  0.00    -0.014 A 
BRANCH  34  35
ATOM     35  C   UNL A   1      39.659  28.881  29.500  1.00  0.00     0.031 A 
ATOM     36  C   UNL A   1      40.464  29.634  30.528  1.00  0.00     0.074 A 
ATOM     37  C   UNL A   1      40.137  27.728  28.993  1.00  0.00     0.049 A 
ATOM     38  N   UNL A   1      41.611  29.312  31.076  1.00  0.00    -0.248 NA
ATOM     39  C   UNL A   1      39.923  30.923  30.986  1.00  0.00     0.031 C 
ATOM     40  C   UNL A   1      39.481  26.920  27.963  1.00  0.00     0.029 A 
ATOM     41  N   UNL A   1      41.283  27.030  29.284  1.00  0.00    -0.354 N 
ATOM     42  C   UNL A   1      41.933  30.364  31.926  1.00  0.00     0.074 A 
ATOM     43  C   UNL A   1      40.886  31.353  31.787  1.00  0.00     0.031 C 
ATOM     44  C   UNL A   1      40.212  25.816  27.740  1.00  0.00     0.029 A 
ATOM     45  C   UNL A   1      41.400  25.853  28.587  1.00  0.00     0.049 A 
ATOM     46  H   UNL A   1      41.955  27.343  29.932  1.00  0.00     0.167 HD
ATOM     47  C   UNL A   1      42.991  30.489  32.763  1.00  0.00     0.031 A 
ATOM     48  C   UNL A   1      42.352  24.901  28.630  1.00  0.00     0.031 A 
ATOM     49  C   UNL A   1      44.029  29.504  32.917  1.00  0.00     0.049 A 
ATOM     50  C   UNL A   1      43.505  25.053  29.581  1.00  0.00     0.074 A 
ATOM     51  C   UNL A   1      45.117  29.520  33.773  1.00  0.00     0.029 A 
ATOM     52  N   UNL A   1      44.104  28.321  32.197  1.00  0.00    -0.354 N 
ATOM     53  N   UNL A   1      43.761  26.026  30.422  1.00  0.00    -0.248 NA
ATOM     54  C   UNL A   1      44.490  23.963  29.600  1.00  0.00     0.031 C 
ATOM     55  C   UNL A   1      45.873  28.365  33.543  1.00  0.00     0.029 A 
ATOM     56  C   UNL A   1      45.228  27.607  32.579  1.00  0.00     0.049 A 
ATOM     57  H   UNL A   1      43.456  28.032  31.515  1.00  0.00     0.167 HD
ATOM     58  C   UNL A   1      44.920  25.652  31.089  1.00  0.00     0.074 A 
ATOM     59  C   UNL A   1      45.305  24.357  30.567  1.00  0.00     0.031 C 
ATOM     60  C   UNL A   1      45.603  26.322  32.049  1.00  0.00     0.031 A 
BRANCH  47  61
ATOM     61  C   UNL A   1      43.082  31.752  33.578  1.00  0.00    -0.014 A 
ATOM     62  C   UNL A   1      42.492  31.841  34.848  1.00  0.00     0.009 A 
ATOM     63  C   UNL A   1      43.791  32.856  33.080  1.00  0.00     0.009 A 
ATOM     64  C   UNL A   1      42.576  33.023  35.588  1.00  0.00     0.001 A 
ATOM     65  C   UNL A   1      43.897  34.027  33.833  1.00  0.00     0.001 A 
ATOM     66  C   UNL A   1      43.281  34.114  35.080  1.00  0.00     0.000 A 
ENDBRANCH  47  61
BRANCH  48  67
ATOM     67  C   UNL A   1      42.232  23.694  27.773  1.00  0.00    -0.014 A 
ATOM     68  C   UNL A   1      41.577  22.547  28.246  1.00  0.00     0.009 A 
ATOM     69  C   UNL A   1      42.772  23.682  26.477  1.00  0.00     0.009 A 
ATOM     70  C   UNL A   1      41.487  21.404  27.450  1.00  0.00     0.001 A 
ATOM     71  C   UNL A   1      42.657  22.546  25.674  1.00  0.00     0.001 A 
ATOM     72  C   UNL A   1      42.024  21.405  26.164  1.00  0.00     0.000 A 
ENDBRANCH  48  67
BRANCH  60  73
ATOM     73  C   UNL A   1      46.818  25.645  32.618  1.00  0.00    -0.014 A 
ATOM     74  C   UNL A   1      46.728  24.797  33.732  1.00  0.00     0.009 A 
ATOM     75  C   UNL A   1      48.072  25.854  32.022  1.00  0.00     0.009 A 
ATOM     76  C   UNL A   1      47.875  24.206  34.265  1.00  0.00     0.001 A 
ATOM     77  C   UNL A   1      49.213  25.240  32.538  1.00  0.00     0.001 A 
ATOM     78  C   UNL A   1      49.115  24.426  33.667  1.00  0.00     0.000 A 
ENDBRANCH  60  73
ENDBRANCH  34  35
ENDBRANCH  26  29
ENDBRANCH  24  25
ENDBRANCH  23  24
ENDBRANCH  22  23
ENDBRANCH   3  22
TORSDOF 15
ENDMDL
MODEL 3
REMARK VINA RESULT:     -10.0      5.187      8.277
REMARK SMILES O=C(CSc1ccnc(C(=O)NCCCNC(=O)c2ccc(-c3c4nc(c(-c5ccccc5)c5ccc([nH]5)c(-c5ccccc5)c5nc(c(-c6ccccc6)c6ccc3[nH]6)C=C5)C=C4)cc2)c1)NCC(F)(F)F
REMARK SMILES IDX 10 1 11 2 12 3 9 5 5 6 6 7 67 8 7 9 8 10 4 11 3 12 2 13 1 14
REMARK SMILES IDX 68 15 69 17 70 18 71 19 72 20 73 21 13 22 14 23 15 24 16 25
REMARK SMILES IDX 17 26 18 28 19 29 20 30 66 31 21 32 65 33 22 34 23 35 24 36
REMARK SMILES IDX 59 37 25 38 64 39 58 40 60 41 26 42 63 43 57 44 56 45 27 47
REMARK SMILES IDX 49 48 34 49 48 50 35 51 38 52 47 53 61 54 36 55 37 56 46 58
REMARK SMILES IDX 62 59 39 60 28 61 29 62 33 63 30 64 32 65 31 66 50 67 51 68
REMARK SMILES IDX 55 69 52 70 54 71 53 72 40 73 41 74 45 75 42 76 44 77 43 78
REMARK H PARENT 12 4 68 16 16 27 60 46 38 57
REMARK Flexibility Score: inf
ROOT
ATOM      1  C   UNL A   1      35.658  34.846  32.900  1.00  0.00     0.269 C 
ATOM      2  O   UNL A   1      35.061  35.510  33.750  1.00  0.00    -0.268 OA
ATOM      3  N   UNL A   1      35.146  34.905  31.622  1.00  0.00    -0.351 N 
ATOM      4  H   UNL A   1      34.331  35.451  31.546  1.00  0.00     0.163 HD
ENDROOT
BRANCH   1   5
ATOM      5  C   UNL A   1      36.877  34.047  33.293  1.00  0.00     0.129 A 
ATOM      6  C   UNL A   1      38.131  32.034  33.684  1.00  0.00     0.012 A 
ATOM      7  C   UNL A   1      39.144  32.807  34.244  1.00  0.00     0.035 A 
ATOM      8  C   UNL A   1      36.968  32.661  33.225  1.00  0.00     0.049 A 
ATOM      9  C   UNL A   1      38.970  34.176  34.293  1.00  0.00     0.113 A 
ATOM     10  N   UNL A   1      37.877  34.802  33.823  1.00  0.00    -0.251 NA
BRANCH   6  11
ATOM     11  S   UNL A   1      38.332  30.256  33.699  1.00  0.00    -0.116 SA
BRANCH  11  12
ATOM     12  C   UNL A   1      40.040  30.074  34.331  1.00  0.00     0.174 C 
BRANCH  12  13
ATOM     13  C   UNL A   1      40.667  28.759  33.900  1.00  0.00     0.230 C 
ATOM     14  O   UNL A   1      40.044  27.951  33.215  1.00  0.00    -0.274 OA
ATOM     15  N   UNL A   1      41.970  28.556  34.291  1.00  0.00    -0.346 N 
ATOM     16  H   UNL A   1      42.434  29.284  34.765  1.00  0.00     0.163 HD
BRANCH  15  17
ATOM     17  C   UNL A   1      42.702  27.311  34.038  1.00  0.00     0.231 C 
BRANCH  17  18
ATOM     18  C   UNL A   1      42.544  26.225  35.099  1.00  0.00     0.405 C 
ATOM     19  F   UNL A   1      41.238  26.039  35.403  1.00  0.00    -0.169 F 
ATOM     20  F   UNL A   1      43.028  25.046  34.647  1.00  0.00    -0.169 F 
ATOM     21  F   UNL A   1      43.196  26.534  36.237  1.00  0.00    -0.169 F 
ENDBRANCH  17  18
ENDBRANCH  15  17
ENDBRANCH  12  13
ENDBRANCH  11  12
ENDBRANCH   6  11
ENDBRANCH   1   5
BRANCH   3  22
ATOM     22  C   UNL A   1      35.578  34.319  30.371  1.00  0.00     0.118 C 
BRANCH  22  23
ATOM     23  C   UNL A   1      34.544  33.318  29.858  1.00  0.00     0.042 C 
BRANCH  23  24
ATOM     24  C   UNL A   1      34.553  33.087  28.352  1.00  0.00     0.118 C 
BRANCH  24  25
ATOM     25  N   UNL A   1      33.892  31.846  27.982  1.00  0.00    -0.352 N 
ATOM     26  C   UNL A   1      34.343  30.556  27.884  1.00  0.00     0.251 C 
ATOM     27  H   UNL A   1      32.939  31.952  27.760  1.00  0.00     0.163 HD
ATOM     28  O   UNL A   1      33.578  29.710  27.415  1.00  0.00    -0.269 OA
BRANCH  26  29
ATOM     29  C   UNL A   1      35.706  30.140  28.298  1.00  0.00     0.039 A 
ATOM     30  C   UNL A   1      36.718  30.180  27.329  1.00  0.00     0.014 A 
ATOM     31  C   UNL A   1      36.005  29.637  29.567  1.00  0.00     0.014 A 
ATOM     32  C   UNL A   1      38.012  29.746  27.634  1.00  0.00     0.010 A 
ATOM     33  C   UNL A   1      37.316  29.281  29.897  1.00  0.00     0.010 A 
ATOM     34  C   UNL A   1      38.329  29.311  28.929  1.00  0.00    -0.014 A 
BRANCH  34  35
ATOM     35  C   UNL A   1      39.711  28.870  29.257  1.00  0.00     0.031 A 
ATOM     36  C   UNL A   1      40.620  29.737  30.089  1.00  0.00     0.074 A 
ATOM     37  C   UNL A   1      40.157  27.685  28.797  1.00  0.00     0.049 A 
ATOM     38  N   UNL A   1      41.842  29.497  30.499  1.00  0.00    -0.248 NA
ATOM     39  C   UNL A   1      40.099  31.051  30.497  1.00  0.00     0.031 C 
ATOM     40  C   UNL A   1      39.397  26.766  27.947  1.00  0.00     0.029 A 
ATOM     41  N   UNL A   1      41.356  27.046  28.989  1.00  0.00    -0.354 N 
ATOM     42  C   UNL A   1      42.238  30.633  31.196  1.00  0.00     0.074 A 
ATOM     43  C   UNL A   1      41.147  31.579  31.113  1.00  0.00     0.031 C 
ATOM     44  C   UNL A   1      40.130  25.663  27.727  1.00  0.00     0.029 A 
ATOM     45  C   UNL A   1      41.420  25.810  28.394  1.00  0.00     0.049 A 
ATOM     46  H   UNL A   1      42.098  27.435  29.505  1.00  0.00     0.167 HD
ATOM     47  C   UNL A   1      43.395  30.863  31.862  1.00  0.00     0.031 A 
ATOM     48  C   UNL A   1      42.403  24.889  28.392  1.00  0.00     0.031 A 
ATOM     49  C   UNL A   1      44.479  29.922  31.960  1.00  0.00     0.049 A 
ATOM     50  C   UNL A   1      43.669  25.159  29.154  1.00  0.00     0.074 A 
ATOM     51  C   UNL A   1      45.673  30.046  32.651  1.00  0.00     0.029 A 
ATOM     52  N   UNL A   1      44.500  28.677  31.349  1.00  0.00    -0.354 N 
ATOM     53  N   UNL A   1      44.001  26.214  29.858  1.00  0.00    -0.248 NA
ATOM     54  C   UNL A   1      44.686  24.100  29.136  1.00  0.00     0.031 C 
ATOM     55  C   UNL A   1      46.433  28.892  32.425  1.00  0.00     0.029 A 
ATOM     56  C   UNL A   1      45.691  28.030  31.635  1.00  0.00     0.049 A 
ATOM     57  H   UNL A   1      43.775  28.308  30.793  1.00  0.00     0.167 HD
ATOM     58  C   UNL A   1      45.253  25.934  30.389  1.00  0.00     0.074 A 
ATOM     59  C   UNL A   1      45.611  24.604  29.940  1.00  0.00     0.031 C 
ATOM     60  C   UNL A   1      46.036  26.709  31.178  1.00  0.00     0.031 A 
BRANCH  47  61
ATOM     61  C   UNL A   1      43.550  32.200  32.536  1.00  0.00    -0.014 A 
ATOM     62  C   UNL A   1      43.115  32.403  33.855  1.00  0.00     0.009 A 
ATOM     63  C   UNL A   1      44.164  33.261  31.853  1.00  0.00     0.009 A 
ATOM     64  C   UNL A   1      43.256  33.653  34.463  1.00  0.00     0.001 A 
ATOM     65  C   UNL A   1      44.329  34.501  32.473  1.00  0.00     0.001 A 
ATOM     66  C   UNL A   1      43.866  34.699  33.773  1.00  0.00     0.000 A 
ENDBRANCH  47  61
BRANCH  48  67
ATOM     67  C   UNL A   1      42.212  23.603  27.674  1.00  0.00    -0.014 A 
ATOM     68  C   UNL A   1      41.617  22.509  28.321  1.00  0.00     0.009 A 
ATOM     69  C   UNL A   1      42.624  23.461  26.339  1.00  0.00     0.009 A 
ATOM     70  C   UNL A   1      41.460  21.292  27.654  1.00  0.00     0.001 A 
ATOM     71  C   UNL A   1      42.441  22.251  25.668  1.00  0.00     0.001 A 
ATOM     72  C   UNL A   1      41.869  21.165  26.328  1.00  0.00     0.000 A 
ENDBRANCH  48  67
BRANCH  60  73
ATOM     73  C   UNL A   1      47.342  26.119  31.632  1.00  0.00    -0.014 A 
ATOM     74  C   UNL A   1      48.490  26.179  30.827  1.00  0.00     0.009 A 
ATOM     75  C   UNL A   1      47.424  25.502  32.889  1.00  0.00     0.009 A 
ATOM     76  C   UNL A   1      49.683  25.594  31.255  1.00  0.00     0.001 A 
ATOM     77  C   UNL A   1      48.625  24.943  33.327  1.00  0.00     0.001 A 
ATOM     78  C   UNL A   1      49.750  24.979  32.504  1.00  0.00     0.000 A 
ENDBRANCH  60  73
ENDBRANCH  34  35
ENDBRANCH  26  29
ENDBRANCH  24  25
ENDBRANCH  23  24
ENDBRANCH  22  23
ENDBRANCH   3  22
TORSDOF 15
ENDMDL
