MODEL 1
REMARK VINA RESULT:     -12.1      0.000      0.000
REMARK SMILES O=C(NCCCNC(=O)[C@H]1C[NH2+]C[C@H]1c1ccc(C2CC2)cc1)c1ccc(-c2c3nc(c(-c4ccccc4)c4ccc([nH]4)c(-c4ccccc4)c4nc(c(-c5ccccc5)c5ccc2[nH]5)C=C4)C=C3)cc1
REMARK SMILES IDX 5 1 4 2 3 3 1 4 2 5 24 7 25 8 71 9 26 10 70 11 27 12 28 13
REMARK SMILES IDX 29 14 64 15 30 16 69 17 63 18 65 19 31 20 68 21 62 22 61 23
REMARK SMILES IDX 32 25 54 26 39 27 53 28 40 29 43 30 52 31 66 32 41 33 42 34
REMARK SMILES IDX 51 36 67 37 44 38 33 39 34 40 38 41 35 42 37 43 36 44 55 45
REMARK SMILES IDX 56 46 60 47 57 48 59 49 58 50 45 51 46 52 50 53 47 54 49 55
REMARK SMILES IDX 48 56 6 57 7 58 8 59 9 61 10 62 11 63 14 64 12 65 13 66
REMARK SMILES IDX 15 69 16 70 23 71 17 72 22 73 18 74 19 75 20 76 21 77
REMARK H PARENT 3 6 65 24 43 35 7 60 12 67 12 68
REMARK Flexibility Score: inf
ROOT
ATOM      1  C   UNL A   1      31.506  31.740  26.522  1.00  0.00     0.042 C 
ENDROOT
BRANCH   1   2
ATOM      2  C   UNL A   1      32.680  32.356  27.260  1.00  0.00     0.118 C 
BRANCH   2   3
ATOM      3  N   UNL A   1      32.443  33.768  27.550  1.00  0.00    -0.352 N 
ATOM      4  O   UNL A   1      32.485  35.701  28.695  1.00  0.00    -0.269 OA
ATOM      5  C   UNL A   1      33.019  34.612  28.466  1.00  0.00     0.251 C 
ATOM      6  H   UNL A   1      31.749  34.187  26.992  1.00  0.00     0.163 HD
BRANCH   5   7
ATOM      7  C   UNL A   1      34.268  34.258  29.178  1.00  0.00     0.039 A 
ATOM      8  C   UNL A   1      34.231  33.539  30.371  1.00  0.00     0.014 A 
ATOM      9  C   UNL A   1      35.508  34.551  28.593  1.00  0.00     0.014 A 
ATOM     10  C   UNL A   1      35.405  33.232  31.044  1.00  0.00     0.010 A 
ATOM     11  C   UNL A   1      36.696  34.130  29.205  1.00  0.00     0.010 A 
ATOM     12  C   UNL A   1      36.649  33.462  30.436  1.00  0.00    -0.014 A 
BRANCH  12  13
ATOM     13  C   UNL A   1      37.838  32.804  31.033  1.00  0.00     0.031 A 
ATOM     14  C   UNL A   1      38.407  33.230  32.351  1.00  0.00     0.074 A 
ATOM     15  C   UNL A   1      38.361  31.755  30.365  1.00  0.00     0.049 A 
ATOM     16  N   UNL A   1      39.376  32.677  33.036  1.00  0.00    -0.248 NA
ATOM     17  C   UNL A   1      37.829  34.425  32.984  1.00  0.00     0.031 C 
ATOM     18  C   UNL A   1      37.893  31.271  29.059  1.00  0.00     0.029 A 
ATOM     19  N   UNL A   1      39.361  30.879  30.697  1.00  0.00    -0.354 N 
ATOM     20  C   UNL A   1      39.535  33.458  34.172  1.00  0.00     0.074 A 
ATOM     21  C   UNL A   1      38.575  34.538  34.078  1.00  0.00     0.031 C 
ATOM     22  C   UNL A   1      38.548  30.148  28.743  1.00  0.00     0.029 A 
ATOM     23  C   UNL A   1      39.538  29.875  29.775  1.00  0.00     0.049 A 
ATOM     24  H   UNL A   1      39.899  30.961  31.518  1.00  0.00     0.167 HD
ATOM     25  C   UNL A   1      40.406  33.285  35.194  1.00  0.00     0.031 A 
ATOM     26  C   UNL A   1      40.413  28.855  29.749  1.00  0.00     0.031 A 
ATOM     27  C   UNL A   1      41.363  32.210  35.271  1.00  0.00     0.049 A 
ATOM     28  C   UNL A   1      41.381  28.714  30.884  1.00  0.00     0.074 A 
ATOM     29  C   UNL A   1      42.264  31.930  36.284  1.00  0.00     0.029 A 
ATOM     30  N   UNL A   1      41.550  31.244  34.293  1.00  0.00    -0.354 N 
ATOM     31  N   UNL A   1      41.477  29.431  31.977  1.00  0.00    -0.248 NA
ATOM     32  C   UNL A   1      42.361  27.628  30.780  1.00  0.00     0.031 C 
ATOM     33  C   UNL A   1      43.038  30.834  35.891  1.00  0.00     0.029 A 
ATOM     34  C   UNL A   1      42.576  30.390  34.662  1.00  0.00     0.049 A 
ATOM     35  H   UNL A   1      41.030  31.176  33.458  1.00  0.00     0.167 HD
ATOM     36  C   UNL A   1      42.522  28.876  32.699  1.00  0.00     0.074 A 
ATOM     37  C   UNL A   1      43.003  27.741  31.934  1.00  0.00     0.031 C 
ATOM     38  C   UNL A   1      43.044  29.273  33.884  1.00  0.00     0.031 A 
BRANCH  25  39
ATOM     39  C   UNL A   1      40.396  34.295  36.309  1.00  0.00    -0.014 A 
ATOM     40  C   UNL A   1      41.199  35.445  36.262  1.00  0.00     0.009 A 
ATOM     41  C   UNL A   1      39.506  34.133  37.384  1.00  0.00     0.009 A 
ATOM     42  C   UNL A   1      41.121  36.404  37.276  1.00  0.00     0.001 A 
ATOM     43  C   UNL A   1      39.413  35.104  38.383  1.00  0.00     0.001 A 
ATOM     44  C   UNL A   1      40.223  36.236  38.330  1.00  0.00     0.000 A 
ENDBRANCH  25  39
BRANCH  26  45
ATOM     45  C   UNL A   1      40.438  27.919  28.594  1.00  0.00    -0.014 A 
ATOM     46  C   UNL A   1      39.728  26.710  28.627  1.00  0.00     0.009 A 
ATOM     47  C   UNL A   1      41.188  28.233  27.448  1.00  0.00     0.009 A 
ATOM     48  C   UNL A   1      39.797  25.821  27.551  1.00  0.00     0.001 A 
ATOM     49  C   UNL A   1      41.225  27.360  26.360  1.00  0.00     0.001 A 
ATOM     50  C   UNL A   1      40.541  26.148  26.419  1.00  0.00     0.000 A 
ENDBRANCH  26  45
BRANCH  38  51
ATOM     51  C   UNL A   1      44.178  28.453  34.430  1.00  0.00    -0.014 A 
ATOM     52  C   UNL A   1      43.940  27.333  35.242  1.00  0.00     0.009 A 
ATOM     53  C   UNL A   1      45.500  28.797  34.113  1.00  0.00     0.009 A 
ATOM     54  C   UNL A   1      45.008  26.598  35.760  1.00  0.00     0.001 A 
ATOM     55  C   UNL A   1      46.565  28.041  34.604  1.00  0.00     0.001 A 
ATOM     56  C   UNL A   1      46.318  26.951  35.436  1.00  0.00     0.000 A 
ENDBRANCH  38  51
ENDBRANCH  12  13
ENDBRANCH   5   7
ENDBRANCH   2   3
ENDBRANCH   1   2
BRANCH   1  57
ATOM     57  C   UNL A   1      31.810  30.361  25.953  1.00  0.00     0.117 C 
BRANCH  57  58
ATOM     58  N   UNL A   1      31.770  29.384  27.009  1.00  0.00    -0.356 N 
ATOM     59  C   UNL A   1      31.662  28.035  26.988  1.00  0.00     0.229 C 
ATOM     60  H   UNL A   1      31.833  29.767  27.914  1.00  0.00     0.163 HD
ATOM     61  O   UNL A   1      31.414  27.554  28.102  1.00  0.00    -0.275 OA
BRANCH  59  62
ATOM     62  C   UNL A   1      31.959  27.132  25.760  1.00  0.00     0.146 C 
ATOM     63  C   UNL A   1      32.332  25.752  26.348  1.00  0.00     0.274 C 
ATOM     64  C   UNL A   1      30.884  26.624  24.768  1.00  0.00     0.092 C 
ATOM     65  N   UNL A   1      31.042  25.062  26.581  1.00  0.00    -0.345 N 
ATOM     66  C   UNL A   1      30.070  25.679  25.658  1.00  0.00     0.269 C 
ATOM     67  H   UNL A   1      30.742  25.191  27.547  1.00  0.00     0.346 HD
ATOM     68  H   UNL A   1      31.124  24.058  26.417  1.00  0.00     0.346 HD
BRANCH  64  69
ATOM     69  C   UNL A   1      30.150  27.549  23.829  1.00  0.00    -0.038 A 
ATOM     70  C   UNL A   1      28.770  27.476  23.622  1.00  0.00     0.004 A 
ATOM     71  C   UNL A   1      30.859  28.496  23.077  1.00  0.00     0.004 A 
ATOM     72  C   UNL A   1      28.104  28.478  22.904  1.00  0.00     0.004 A 
ATOM     73  C   UNL A   1      30.186  29.514  22.383  1.00  0.00     0.004 A 
ATOM     74  C   UNL A   1      28.786  29.590  22.382  1.00  0.00    -0.045 A 
BRANCH  74  75
ATOM     75  C   UNL A   1      27.996  30.841  22.046  1.00  0.00     0.019 C 
ATOM     76  C   UNL A   1      27.699  31.895  23.091  1.00  0.00     0.009 C 
ATOM     77  C   UNL A   1      28.612  32.205  21.940  1.00  0.00     0.009 C 
ENDBRANCH  74  75
ENDBRANCH  64  69
ENDBRANCH  59  62
ENDBRANCH  57  58
ENDBRANCH   1  57
TORSDOF 12
ENDMDL
MODEL 2
REMARK VINA RESULT:     -12.0      3.757      6.173
REMARK SMILES O=C(NCCCNC(=O)[C@H]1C[NH2+]C[C@H]1c1ccc(C2CC2)cc1)c1ccc(-c2c3nc(c(-c4ccccc4)c4ccc([nH]4)c(-c4ccccc4)c4nc(c(-c5ccccc5)c5ccc2[nH]5)C=C4)C=C3)cc1
REMARK SMILES IDX 5 1 4 2 3 3 1 4 2 5 24 7 25 8 71 9 26 10 70 11 27 12 28 13
REMARK SMILES IDX 29 14 64 15 30 16 69 17 63 18 65 19 31 20 68 21 62 22 61 23
REMARK SMILES IDX 32 25 54 26 39 27 53 28 40 29 43 30 52 31 66 32 41 33 42 34
REMARK SMILES IDX 51 36 67 37 44 38 33 39 34 40 38 41 35 42 37 43 36 44 55 45
REMARK SMILES IDX 56 46 60 47 57 48 59 49 58 50 45 51 46 52 50 53 47 54 49 55
REMARK SMILES IDX 48 56 6 57 7 58 8 59 9 61 10 62 11 63 14 64 12 65 13 66
REMARK SMILES IDX 15 69 16 70 23 71 17 72 22 73 18 74 19 75 20 76 21 77
REMARK H PARENT 3 6 65 24 43 35 7 60 12 67 12 68
REMARK Flexibility Score: inf
ROOT
ATOM      1  C   UNL A   1      33.904  28.891  25.905  1.00  0.00     0.042 C 
ENDROOT
BRANCH   1   2
ATOM      2  C   UNL A   1      33.375  29.054  27.319  1.00  0.00     0.118 C 
BRANCH   2   3
ATOM      3  N   UNL A   1      33.572  30.418  27.805  1.00  0.00    -0.352 N 
ATOM      4  O   UNL A   1      34.452  32.099  29.008  1.00  0.00    -0.269 OA
ATOM      5  C   UNL A   1      34.615  30.991  28.487  1.00  0.00     0.251 C 
ATOM      6  H   UNL A   1      32.827  31.031  27.611  1.00  0.00     0.163 HD
BRANCH   5   7
ATOM      7  C   UNL A   1      35.932  30.327  28.607  1.00  0.00     0.039 A 
ATOM      8  C   UNL A   1      36.868  30.404  27.577  1.00  0.00     0.014 A 
ATOM      9  C   UNL A   1      36.290  29.705  29.812  1.00  0.00     0.014 A 
ATOM     10  C   UNL A   1      38.091  29.759  27.688  1.00  0.00     0.010 A 
ATOM     11  C   UNL A   1      37.572  29.164  29.976  1.00  0.00     0.010 A 
ATOM     12  C   UNL A   1      38.483  29.192  28.911  1.00  0.00    -0.014 A 
BRANCH  12  13
ATOM     13  C   UNL A   1      39.914  28.836  29.077  1.00  0.00     0.031 A 
ATOM     14  C   UNL A   1      40.894  29.755  29.737  1.00  0.00     0.074 A 
ATOM     15  C   UNL A   1      40.296  27.611  28.659  1.00  0.00     0.049 A 
ATOM     16  N   UNL A   1      42.147  29.528  30.040  1.00  0.00    -0.248 NA
ATOM     17  C   UNL A   1      40.421  31.100  30.101  1.00  0.00     0.031 C 
ATOM     18  C   UNL A   1      39.422  26.643  27.982  1.00  0.00     0.029 A 
ATOM     19  N   UNL A   1      41.489  26.948  28.773  1.00  0.00    -0.354 N 
ATOM     20  C   UNL A   1      42.619  30.699  30.616  1.00  0.00     0.074 A 
ATOM     21  C   UNL A   1      41.522  31.645  30.607  1.00  0.00     0.031 C 
ATOM     22  C   UNL A   1      40.083  25.491  27.814  1.00  0.00     0.029 A 
ATOM     23  C   UNL A   1      41.448  25.660  28.292  1.00  0.00     0.049 A 
ATOM     24  H   UNL A   1      42.297  27.353  29.162  1.00  0.00     0.167 HD
ATOM     25  C   UNL A   1      43.855  30.955  31.106  1.00  0.00     0.031 A 
ATOM     26  C   UNL A   1      42.406  24.721  28.222  1.00  0.00     0.031 A 
ATOM     27  C   UNL A   1      44.941  30.006  31.102  1.00  0.00     0.049 A 
ATOM     28  C   UNL A   1      43.771  25.051  28.748  1.00  0.00     0.074 A 
ATOM     29  C   UNL A   1      46.221  30.160  31.607  1.00  0.00     0.029 A 
ATOM     30  N   UNL A   1      44.878  28.732  30.557  1.00  0.00    -0.354 N 
ATOM     31  N   UNL A   1      44.181  26.145  29.342  1.00  0.00    -0.248 NA
ATOM     32  C   UNL A   1      44.803  24.020  28.589  1.00  0.00     0.031 C 
ATOM     33  C   UNL A   1      46.950  29.004  31.312  1.00  0.00     0.029 A 
ATOM     34  C   UNL A   1      46.106  28.103  30.682  1.00  0.00     0.049 A 
ATOM     35  H   UNL A   1      44.078  28.333  30.143  1.00  0.00     0.167 HD
ATOM     36  C   UNL A   1      45.518  25.931  29.639  1.00  0.00     0.074 A 
ATOM     37  C   UNL A   1      45.837  24.590  29.192  1.00  0.00     0.031 C 
ATOM     38  C   UNL A   1      46.405  26.772  30.223  1.00  0.00     0.031 A 
BRANCH  25  39
ATOM     39  C   UNL A   1      44.125  32.325  31.665  1.00  0.00    -0.014 A 
ATOM     40  C   UNL A   1      43.945  32.608  33.028  1.00  0.00     0.009 A 
ATOM     41  C   UNL A   1      44.650  33.324  30.828  1.00  0.00     0.009 A 
ATOM     42  C   UNL A   1      44.269  33.869  33.537  1.00  0.00     0.001 A 
ATOM     43  C   UNL A   1      44.995  34.574  31.344  1.00  0.00     0.001 A 
ATOM     44  C   UNL A   1      44.801  34.847  32.696  1.00  0.00     0.000 A 
ENDBRANCH  25  39
BRANCH  26  45
ATOM     45  C   UNL A   1      42.119  23.402  27.598  1.00  0.00    -0.014 A 
ATOM     46  C   UNL A   1      41.583  22.347  28.351  1.00  0.00     0.009 A 
ATOM     47  C   UNL A   1      42.393  23.191  26.236  1.00  0.00     0.009 A 
ATOM     48  C   UNL A   1      41.360  21.100  27.761  1.00  0.00     0.001 A 
ATOM     49  C   UNL A   1      42.134  21.956  25.641  1.00  0.00     0.001 A 
ATOM     50  C   UNL A   1      41.631  20.908  26.407  1.00  0.00     0.000 A 
ENDBRANCH  26  45
BRANCH  38  51
ATOM     51  C   UNL A   1      47.797  26.246  30.430  1.00  0.00    -0.014 A 
ATOM     52  C   UNL A   1      48.740  26.258  29.390  1.00  0.00     0.009 A 
ATOM     53  C   UNL A   1      48.173  25.748  31.686  1.00  0.00     0.009 A 
ATOM     54  C   UNL A   1      50.021  25.742  29.595  1.00  0.00     0.001 A 
ATOM     55  C   UNL A   1      49.463  25.264  31.897  1.00  0.00     0.001 A 
ATOM     56  C   UNL A   1      50.382  25.250  30.849  1.00  0.00     0.000 A 
ENDBRANCH  38  51
ENDBRANCH  12  13
ENDBRANCH   5   7
ENDBRANCH   2   3
ENDBRANCH   1   2
BRANCH   1  57
ATOM     57  C   UNL A   1      33.024  29.554  24.854  1.00  0.00     0.117 C 
BRANCH  57  58
ATOM     58  N   UNL A   1      33.487  29.194  23.540  1.00  0.00    -0.356 N 
ATOM     59  C   UNL A   1      33.441  28.028  22.856  1.00  0.00     0.229 C 
ATOM     60  H   UNL A   1      33.915  29.931  23.049  1.00  0.00     0.163 HD
ATOM     61  O   UNL A   1      34.161  28.033  21.846  1.00  0.00    -0.275 OA
BRANCH  59  62
ATOM     62  C   UNL A   1      32.493  26.840  23.172  1.00  0.00     0.146 C 
ATOM     63  C   UNL A   1      31.297  27.003  22.206  1.00  0.00     0.274 C 
ATOM     64  C   UNL A   1      32.802  25.360  22.832  1.00  0.00     0.092 C 
ATOM     65  N   UNL A   1      31.724  26.364  20.940  1.00  0.00    -0.345 N 
ATOM     66  C   UNL A   1      32.767  25.385  21.301  1.00  0.00     0.269 C 
ATOM     67  H   UNL A   1      32.101  27.063  20.301  1.00  0.00     0.346 HD
ATOM     68  H   UNL A   1      30.938  25.912  20.469  1.00  0.00     0.346 HD
BRANCH  64  69
ATOM     69  C   UNL A   1      33.898  24.585  23.521  1.00  0.00    -0.038 A 
ATOM     70  C   UNL A   1      34.428  23.401  23.001  1.00  0.00     0.004 A 
ATOM     71  C   UNL A   1      34.389  25.014  24.762  1.00  0.00     0.004 A 
ATOM     72  C   UNL A   1      35.576  22.828  23.564  1.00  0.00     0.004 A 
ATOM     73  C   UNL A   1      35.556  24.455  25.306  1.00  0.00     0.004 A 
ATOM     74  C   UNL A   1      36.240  23.421  24.651  1.00  0.00    -0.045 A 
BRANCH  74  75
ATOM     75  C   UNL A   1      37.689  23.053  24.911  1.00  0.00     0.019 C 
ATOM     76  C   UNL A   1      38.248  22.976  26.315  1.00  0.00     0.009 C 
ATOM     77  C   UNL A   1      38.118  21.733  25.482  1.00  0.00     0.009 C 
ENDBRANCH  74  75
ENDBRANCH  64  69
ENDBRANCH  59  62
ENDBRANCH  57  58
ENDBRANCH   1  57
TORSDOF 12
ENDMDL
MODEL 3
REMARK VINA RESULT:     -11.9      3.287      7.615
REMARK SMILES O=C(NCCCNC(=O)[C@H]1C[NH2+]C[C@H]1c1ccc(C2CC2)cc1)c1ccc(-c2c3nc(c(-c4ccccc4)c4ccc([nH]4)c(-c4ccccc4)c4nc(c(-c5ccccc5)c5ccc2[nH]5)C=C4)C=C3)cc1
REMARK SMILES IDX 5 1 4 2 3 3 1 4 2 5 24 7 25 8 71 9 26 10 70 11 27 12 28 13
REMARK SMILES IDX 29 14 64 15 30 16 69 17 63 18 65 19 31 20 68 21 62 22 61 23
REMARK SMILES IDX 32 25 54 26 39 27 53 28 40 29 43 30 52 31 66 32 41 33 42 34
REMARK SMILES IDX 51 36 67 37 44 38 33 39 34 40 38 41 35 42 37 43 36 44 55 45
REMARK SMILES IDX 56 46 60 47 57 48 59 49 58 50 45 51 46 52 50 53 47 54 49 55
REMARK SMILES IDX 48 56 6 57 7 58 8 59 9 61 10 62 11 63 14 64 12 65 13 66
REMARK SMILES IDX 15 69 16 70 23 71 17 72 22 73 18 74 19 75 20 76 21 77
REMARK H PARENT 3 6 65 24 43 35 7 60 12 67 12 68
REMARK Flexibility Score: inf
ROOT
ATOM      1  C   UNL A   1      36.261  23.187  25.876  1.00  0.00     0.042 C 
ENDROOT
BRANCH   1   2
ATOM      2  C   UNL A   1      37.503  23.178  25.004  1.00  0.00     0.118 C 
BRANCH   2   3
ATOM      3  N   UNL A   1      38.595  22.448  25.643  1.00  0.00    -0.352 N 
ATOM      4  O   UNL A   1      40.587  22.108  26.624  1.00  0.00    -0.269 OA
ATOM      5  C   UNL A   1      39.655  22.885  26.396  1.00  0.00     0.251 C 
ATOM      6  H   UNL A   1      38.566  21.473  25.508  1.00  0.00     0.163 HD
BRANCH   5   7
ATOM      7  C   UNL A   1      39.708  24.255  26.952  1.00  0.00     0.039 A 
ATOM      8  C   UNL A   1      39.231  24.525  28.233  1.00  0.00     0.014 A 
ATOM      9  C   UNL A   1      40.346  25.274  26.230  1.00  0.00     0.014 A 
ATOM     10  C   UNL A   1      39.262  25.818  28.738  1.00  0.00     0.010 A 
ATOM     11  C   UNL A   1      40.495  26.550  26.789  1.00  0.00     0.010 A 
ATOM     12  C   UNL A   1      39.956  26.827  28.052  1.00  0.00    -0.014 A 
BRANCH  12  13
ATOM     13  C   UNL A   1      40.257  28.078  28.791  1.00  0.00     0.031 A 
ATOM     14  C   UNL A   1      39.259  29.187  28.923  1.00  0.00     0.074 A 
ATOM     15  C   UNL A   1      41.458  28.160  29.401  1.00  0.00     0.049 A 
ATOM     16  N   UNL A   1      39.352  30.287  29.626  1.00  0.00    -0.248 NA
ATOM     17  C   UNL A   1      38.000  29.057  28.173  1.00  0.00     0.031 C 
ATOM     18  C   UNL A   1      42.514  27.141  29.317  1.00  0.00     0.029 A 
ATOM     19  N   UNL A   1      41.985  29.106  30.239  1.00  0.00    -0.354 N 
ATOM     20  C   UNL A   1      38.177  30.988  29.396  1.00  0.00     0.074 A 
ATOM     21  C   UNL A   1      37.389  30.198  28.473  1.00  0.00     0.031 C 
ATOM     22  C   UNL A   1      43.521  27.480  30.132  1.00  0.00     0.029 A 
ATOM     23  C   UNL A   1      43.225  28.774  30.729  1.00  0.00     0.049 A 
ATOM     24  H   UNL A   1      41.519  29.943  30.469  1.00  0.00     0.167 HD
ATOM     25  C   UNL A   1      37.796  32.181  29.912  1.00  0.00     0.031 A 
ATOM     26  C   UNL A   1      44.048  29.443  31.556  1.00  0.00     0.031 A 
ATOM     27  C   UNL A   1      38.595  32.961  30.824  1.00  0.00     0.049 A 
ATOM     28  C   UNL A   1      43.605  30.775  32.082  1.00  0.00     0.074 A 
ATOM     29  C   UNL A   1      38.281  34.167  31.428  1.00  0.00     0.029 A 
ATOM     30  N   UNL A   1      39.868  32.619  31.255  1.00  0.00    -0.354 N 
ATOM     31  N   UNL A   1      42.465  31.393  31.898  1.00  0.00    -0.248 NA
ATOM     32  C   UNL A   1      44.562  31.500  32.924  1.00  0.00     0.031 C 
ATOM     33  C   UNL A   1      39.387  34.584  32.174  1.00  0.00     0.029 A 
ATOM     34  C   UNL A   1      40.367  33.608  32.088  1.00  0.00     0.049 A 
ATOM     35  H   UNL A   1      40.347  31.795  31.005  1.00  0.00     0.167 HD
ATOM     36  C   UNL A   1      42.562  32.578  32.611  1.00  0.00     0.074 A 
ATOM     37  C   UNL A   1      43.859  32.572  33.259  1.00  0.00     0.031 C 
ATOM     38  C   UNL A   1      41.662  33.585  32.715  1.00  0.00     0.031 A 
BRANCH  25  39
ATOM     39  C   UNL A   1      36.469  32.745  29.484  1.00  0.00    -0.014 A 
ATOM     40  C   UNL A   1      35.326  32.616  30.288  1.00  0.00     0.009 A 
ATOM     41  C   UNL A   1      36.383  33.492  28.297  1.00  0.00     0.009 A 
ATOM     42  C   UNL A   1      34.120  33.209  29.902  1.00  0.00     0.001 A 
ATOM     43  C   UNL A   1      35.184  34.103  27.927  1.00  0.00     0.001 A 
ATOM     44  C   UNL A   1      34.053  33.958  28.727  1.00  0.00     0.000 A 
ENDBRANCH  25  39
BRANCH  26  45
ATOM     45  C   UNL A   1      45.382  28.884  31.898  1.00  0.00    -0.014 A 
ATOM     46  C   UNL A   1      46.504  29.149  31.100  1.00  0.00     0.009 A 
ATOM     47  C   UNL A   1      45.535  28.066  33.030  1.00  0.00     0.009 A 
ATOM     48  C   UNL A   1      47.743  28.580  31.409  1.00  0.00     0.001 A 
ATOM     49  C   UNL A   1      46.781  27.529  33.358  1.00  0.00     0.001 A 
ATOM     50  C   UNL A   1      47.880  27.776  32.539  1.00  0.00     0.000 A 
ENDBRANCH  26  45
BRANCH  38  51
ATOM     51  C   UNL A   1      42.050  34.748  33.584  1.00  0.00    -0.014 A 
ATOM     52  C   UNL A   1      42.755  35.844  33.059  1.00  0.00     0.009 A 
ATOM     53  C   UNL A   1      41.689  34.755  34.939  1.00  0.00     0.009 A 
ATOM     54  C   UNL A   1      43.127  36.904  33.888  1.00  0.00     0.001 A 
ATOM     55  C   UNL A   1      42.034  35.830  35.757  1.00  0.00     0.001 A 
ATOM     56  C   UNL A   1      42.762  36.897  35.234  1.00  0.00     0.000 A 
ENDBRANCH  38  51
ENDBRANCH  12  13
ENDBRANCH   5   7
ENDBRANCH   2   3
ENDBRANCH   1   2
BRANCH   1  57
ATOM     57  C   UNL A   1      35.686  21.798  26.117  1.00  0.00     0.117 C 
BRANCH  57  58
ATOM     58  N   UNL A   1      34.644  21.872  27.108  1.00  0.00    -0.356 N 
ATOM     59  C   UNL A   1      33.431  22.470  27.098  1.00  0.00     0.229 C 
ATOM     60  H   UNL A   1      34.853  21.399  27.946  1.00  0.00     0.163 HD
ATOM     61  O   UNL A   1      32.913  22.526  28.223  1.00  0.00    -0.275 OA
BRANCH  59  62
ATOM     62  C   UNL A   1      32.662  22.916  25.826  1.00  0.00     0.146 C 
ATOM     63  C   UNL A   1      31.648  21.785  25.542  1.00  0.00     0.274 C 
ATOM     64  C   UNL A   1      31.647  24.086  25.782  1.00  0.00     0.092 C 
ATOM     65  N   UNL A   1      30.474  22.087  26.394  1.00  0.00    -0.345 N 
ATOM     66  C   UNL A   1      30.512  23.538  26.654  1.00  0.00     0.269 C 
ATOM     67  H   UNL A   1      30.531  21.569  27.271  1.00  0.00     0.346 HD
ATOM     68  H   UNL A   1      29.604  21.815  25.935  1.00  0.00     0.346 HD
BRANCH  64  69
ATOM     69  C   UNL A   1      32.066  25.525  25.956  1.00  0.00    -0.038 A 
ATOM     70  C   UNL A   1      31.154  26.551  26.216  1.00  0.00     0.004 A 
ATOM     71  C   UNL A   1      33.411  25.890  25.803  1.00  0.00     0.004 A 
ATOM     72  C   UNL A   1      31.604  27.830  26.570  1.00  0.00     0.004 A 
ATOM     73  C   UNL A   1      33.860  27.163  26.187  1.00  0.00     0.004 A 
ATOM     74  C   UNL A   1      32.972  28.125  26.692  1.00  0.00    -0.045 A 
BRANCH  74  75
ATOM     75  C   UNL A   1      33.391  29.330  27.513  1.00  0.00     0.019 C 
ATOM     76  C   UNL A   1      34.243  30.433  26.924  1.00  0.00     0.009 C 
ATOM     77  C   UNL A   1      32.819  30.703  27.317  1.00  0.00     0.009 C 
ENDBRANCH  74  75
ENDBRANCH  64  69
ENDBRANCH  59  62
ENDBRANCH  57  58
ENDBRANCH   1  57
TORSDOF 12
ENDMDL
