MODEL 1
REMARK VINA RESULT:     -12.3      0.000      0.000
REMARK SMILES C[C@@]12CCC[C@](C)(C(=O)NCCCNC(=O)c3ccc(-c4c5nc(c(-c6ccccc6)c6ccc([nH]6)c(-c6ccccc6)c6nc(c(-c7ccccc7)c7ccc4[nH]7)C=C6)C=C5)cc3)[C@H]1CC[C@@]13C=C(CO)[C@@H](CC[C@@H]12)C3
REMARK SMILES IDX 12 1 11 2 10 3 8 4 9 5 6 7 1 8 2 9 3 10 65 11 76 12 4 13
REMARK SMILES IDX 66 14 68 15 75 16 5 17 7 18 67 19 69 20 77 21 74 22 70 23
REMARK SMILES IDX 73 24 71 25 72 26 13 28 14 29 15 30 16 32 17 33 18 34 64 35
REMARK SMILES IDX 19 36 63 37 20 38 21 39 22 40 57 41 23 42 62 43 56 44 58 45
REMARK SMILES IDX 24 46 61 47 55 48 54 49 25 51 47 52 32 53 46 54 33 55 36 56
REMARK SMILES IDX 45 57 59 58 34 59 35 60 44 62 60 63 37 64 26 65 27 66 31 67
REMARK SMILES IDX 28 68 30 69 29 70 48 71 49 72 53 73 50 74 52 75 51 76 38 77
REMARK SMILES IDX 39 78 43 79 40 80 42 81 41 82
REMARK H PARENT 10 6 72 27 14 31 58 50 36 61
REMARK Flexibility Score: inf
ROOT
ATOM      1  C   UNL A   1      33.910  28.257  25.764  1.00  0.00     0.042 C 
ENDROOT
BRANCH   1   2
ATOM      2  C   UNL A   1      32.675  28.438  24.890  1.00  0.00     0.117 C 
BRANCH   2   3
ATOM      3  N   UNL A   1      31.521  27.706  25.410  1.00  0.00    -0.356 N 
ATOM      4  C   UNL A   1      30.930  26.516  25.083  1.00  0.00     0.226 C 
ATOM      5  O   UNL A   1      29.902  26.235  25.704  1.00  0.00    -0.274 OA
ATOM      6  H   UNL A   1      31.074  28.168  26.155  1.00  0.00     0.163 HD
BRANCH   4   7
ATOM      7  C   UNL A   1      31.537  25.553  24.035  1.00  0.00     0.050 C 
ATOM      8  C   UNL A   1      32.372  22.720  23.254  1.00  0.00     0.012 C 
ATOM      9  C   UNL A   1      33.452  23.817  23.558  1.00  0.00    -0.025 C 
ATOM     10  C   UNL A   1      33.812  24.588  22.263  1.00  0.00     0.007 C 
ATOM     11  C   UNL A   1      32.875  24.847  24.567  1.00  0.00     0.010 C 
ATOM     12  C   UNL A   1      34.701  23.031  24.084  1.00  0.00     0.005 C 
ATOM     13  C   UNL A   1      32.710  25.506  21.722  1.00  0.00     0.002 C 
ATOM     14  C   UNL A   1      32.884  24.333  26.009  1.00  0.00     0.006 C 
ATOM     15  C   UNL A   1      34.677  22.605  25.607  1.00  0.00    -0.008 C 
ATOM     16  C   UNL A   1      36.156  23.253  23.689  1.00  0.00     0.006 C 
ATOM     17  C   UNL A   1      32.042  26.377  22.799  1.00  0.00     0.017 C 
ATOM     18  C   UNL A   1      30.316  24.763  23.478  1.00  0.00     0.022 C 
ATOM     19  C   UNL A   1      34.196  23.729  26.495  1.00  0.00     0.012 C 
ATOM     20  C   UNL A   1      33.973  21.281  25.589  1.00  0.00    -0.018 C 
ATOM     21  C   UNL A   1      36.035  22.050  26.118  1.00  0.00     0.019 C 
ATOM     22  C   UNL A   1      36.816  21.823  23.821  1.00  0.00     0.008 C 
ATOM     23  C   UNL A   1      34.848  20.392  25.065  1.00  0.00    -0.045 C 
ATOM     24  C   UNL A   1      36.282  20.988  25.049  1.00  0.00     0.018 C 
BRANCH  23  25
ATOM     25  C   UNL A   1      34.475  19.048  24.546  1.00  0.00     0.187 C 
BRANCH  25  26
ATOM     26  O   UNL A   1      35.501  18.109  24.858  1.00  0.00    -0.392 OA
ATOM     27  H   UNL A   1      36.162  18.104  24.147  1.00  0.00     0.211 HD
ENDBRANCH  25  26
ENDBRANCH  23  25
ENDBRANCH   4   7
ENDBRANCH   2   3
ENDBRANCH   1   2
BRANCH   1  28
ATOM     28  C   UNL A   1      33.625  28.488  27.229  1.00  0.00     0.118 C 
BRANCH  28  29
ATOM     29  N   UNL A   1      33.533  29.903  27.526  1.00  0.00    -0.352 N 
ATOM     30  C   UNL A   1      34.435  30.703  28.185  1.00  0.00     0.251 C 
ATOM     31  H   UNL A   1      32.715  30.353  27.215  1.00  0.00     0.163 HD
ATOM     32  O   UNL A   1      34.084  31.802  28.599  1.00  0.00    -0.269 OA
BRANCH  30  33
ATOM     33  C   UNL A   1      35.823  30.233  28.409  1.00  0.00     0.039 A 
ATOM     34  C   UNL A   1      36.163  29.700  29.655  1.00  0.00     0.014 A 
ATOM     35  C   UNL A   1      36.798  30.337  27.412  1.00  0.00     0.014 A 
ATOM     36  C   UNL A   1      37.463  29.246  29.884  1.00  0.00     0.010 A 
ATOM     37  C   UNL A   1      38.054  29.773  27.600  1.00  0.00     0.010 A 
ATOM     38  C   UNL A   1      38.414  29.258  28.851  1.00  0.00    -0.014 A 
BRANCH  38  39
ATOM     39  C   UNL A   1      39.807  28.795  29.075  1.00  0.00     0.031 A 
ATOM     40  C   UNL A   1      40.807  29.714  29.729  1.00  0.00     0.074 A 
ATOM     41  C   UNL A   1      40.184  27.570  28.662  1.00  0.00     0.049 A 
ATOM     42  N   UNL A   1      42.075  29.509  29.984  1.00  0.00    -0.248 NA
ATOM     43  C   UNL A   1      40.328  31.049  30.125  1.00  0.00     0.031 C 
ATOM     44  C   UNL A   1      39.323  26.600  27.982  1.00  0.00     0.029 A 
ATOM     45  N   UNL A   1      41.393  26.929  28.759  1.00  0.00    -0.354 N 
ATOM     46  C   UNL A   1      42.543  30.689  30.546  1.00  0.00     0.074 A 
ATOM     47  C   UNL A   1      41.445  31.629  30.539  1.00  0.00     0.031 C 
ATOM     48  C   UNL A   1      40.020  25.473  27.763  1.00  0.00     0.029 A 
ATOM     49  C   UNL A   1      41.385  25.656  28.243  1.00  0.00     0.049 A 
ATOM     50  H   UNL A   1      42.192  27.344  29.159  1.00  0.00     0.167 HD
ATOM     51  C   UNL A   1      43.767  30.964  31.054  1.00  0.00     0.031 A 
ATOM     52  C   UNL A   1      42.368  24.740  28.167  1.00  0.00     0.031 A 
ATOM     53  C   UNL A   1      44.856  30.026  31.077  1.00  0.00     0.049 A 
ATOM     54  C   UNL A   1      43.724  25.073  28.720  1.00  0.00     0.074 A 
ATOM     55  C   UNL A   1      46.122  30.186  31.613  1.00  0.00     0.029 A 
ATOM     56  N   UNL A   1      44.806  28.749  30.540  1.00  0.00    -0.354 N 
ATOM     57  N   UNL A   1      44.132  26.173  29.307  1.00  0.00    -0.248 NA
ATOM     58  C   UNL A   1      44.756  24.032  28.609  1.00  0.00     0.031 C 
ATOM     59  C   UNL A   1      46.855  29.025  31.352  1.00  0.00     0.029 A 
ATOM     60  C   UNL A   1      46.027  28.119  30.710  1.00  0.00     0.049 A 
ATOM     61  H   UNL A   1      44.020  28.350  30.103  1.00  0.00     0.167 HD
ATOM     62  C   UNL A   1      45.455  25.945  29.662  1.00  0.00     0.074 A 
ATOM     63  C   UNL A   1      45.775  24.597  29.240  1.00  0.00     0.031 C 
ATOM     64  C   UNL A   1      46.328  26.777  30.282  1.00  0.00     0.031 A 
BRANCH  51  65
ATOM     65  C   UNL A   1      43.990  32.339  31.622  1.00  0.00    -0.014 A 
ATOM     66  C   UNL A   1      43.743  32.618  32.976  1.00  0.00     0.009 A 
ATOM     67  C   UNL A   1      44.479  33.365  30.798  1.00  0.00     0.009 A 
ATOM     68  C   UNL A   1      43.942  33.904  33.483  1.00  0.00     0.001 A 
ATOM     69  C   UNL A   1      44.708  34.642  31.316  1.00  0.00     0.001 A 
ATOM     70  C   UNL A   1      44.429  34.913  32.654  1.00  0.00     0.000 A 
ENDBRANCH  51  65
BRANCH  52  71
ATOM     71  C   UNL A   1      42.100  23.408  27.560  1.00  0.00    -0.014 A 
ATOM     72  C   UNL A   1      41.482  22.396  28.310  1.00  0.00     0.009 A 
ATOM     73  C   UNL A   1      42.465  23.141  26.232  1.00  0.00     0.009 A 
ATOM     74  C   UNL A   1      41.261  21.134  27.752  1.00  0.00     0.001 A 
ATOM     75  C   UNL A   1      42.214  21.889  25.666  1.00  0.00     0.001 A 
ATOM     76  C   UNL A   1      41.623  20.883  26.430  1.00  0.00     0.000 A 
ENDBRANCH  52  71
BRANCH  64  77
ATOM     77  C   UNL A   1      47.700  26.239  30.574  1.00  0.00    -0.014 A 
ATOM     78  C   UNL A   1      48.715  26.260  29.606  1.00  0.00     0.009 A 
ATOM     79  C   UNL A   1      47.989  25.739  31.854  1.00  0.00     0.009 A 
ATOM     80  C   UNL A   1      49.984  25.757  29.904  1.00  0.00     0.001 A 
ATOM     81  C   UNL A   1      49.267  25.267  32.158  1.00  0.00     0.001 A 
ATOM     82  C   UNL A   1      50.259  25.266  31.179  1.00  0.00     0.000 A 
ENDBRANCH  64  77
ENDBRANCH  38  39
ENDBRANCH  30  33
ENDBRANCH  28  29
ENDBRANCH   1  28
TORSDOF 12
ENDMDL
MODEL 2
REMARK VINA RESULT:     -12.0      0.403      5.863
REMARK SMILES C[C@@]12CCC[C@](C)(C(=O)NCCCNC(=O)c3ccc(-c4c5nc(c(-c6ccccc6)c6ccc([nH]6)c(-c6ccccc6)c6nc(c(-c7ccccc7)c7ccc4[nH]7)C=C6)C=C5)cc3)[C@H]1CC[C@@]13C=C(CO)[C@@H](CC[C@@H]12)C3
REMARK SMILES IDX 12 1 11 2 10 3 8 4 9 5 6 7 1 8 2 9 3 10 65 11 76 12 4 13
REMARK SMILES IDX 66 14 68 15 75 16 5 17 7 18 67 19 69 20 77 21 74 22 70 23
REMARK SMILES IDX 73 24 71 25 72 26 13 28 14 29 15 30 16 32 17 33 18 34 64 35
REMARK SMILES IDX 19 36 63 37 20 38 21 39 22 40 57 41 23 42 62 43 56 44 58 45
REMARK SMILES IDX 24 46 61 47 55 48 54 49 25 51 47 52 32 53 46 54 33 55 36 56
REMARK SMILES IDX 45 57 59 58 34 59 35 60 44 62 60 63 37 64 26 65 27 66 31 67
REMARK SMILES IDX 28 68 30 69 29 70 48 71 49 72 53 73 50 74 52 75 51 76 38 77
REMARK SMILES IDX 39 78 43 79 40 80 42 81 41 82
REMARK H PARENT 10 6 72 27 14 31 58 50 36 61
REMARK Flexibility Score: inf
ROOT
ATOM      1  C   UNL A   1      33.794  28.119  25.686  1.00  0.00     0.042 C 
ENDROOT
BRANCH   1   2
ATOM      2  C   UNL A   1      32.487  28.426  24.966  1.00  0.00     0.117 C 
BRANCH   2   3
ATOM      3  N   UNL A   1      31.374  27.633  25.485  1.00  0.00    -0.356 N 
ATOM      4  C   UNL A   1      30.846  26.415  25.152  1.00  0.00     0.226 C 
ATOM      5  O   UNL A   1      29.835  26.077  25.774  1.00  0.00    -0.274 OA
ATOM      6  H   UNL A   1      30.905  28.067  26.234  1.00  0.00     0.163 HD
BRANCH   4   7
ATOM      7  C   UNL A   1      31.499  25.491  24.098  1.00  0.00     0.050 C 
ATOM      8  C   UNL A   1      32.395  22.692  23.262  1.00  0.00     0.012 C 
ATOM      9  C   UNL A   1      33.451  23.792  23.636  1.00  0.00    -0.025 C 
ATOM     10  C   UNL A   1      33.845  24.605  22.378  1.00  0.00     0.007 C 
ATOM     11  C   UNL A   1      32.827  24.784  24.654  1.00  0.00     0.010 C 
ATOM     12  C   UNL A   1      34.690  23.004  24.181  1.00  0.00     0.005 C 
ATOM     13  C   UNL A   1      32.751  25.526  21.826  1.00  0.00     0.002 C 
ATOM     14  C   UNL A   1      32.794  24.226  26.080  1.00  0.00     0.006 C 
ATOM     15  C   UNL A   1      34.619  22.532  25.688  1.00  0.00    -0.008 C 
ATOM     16  C   UNL A   1      36.155  23.254  23.843  1.00  0.00     0.006 C 
ATOM     17  C   UNL A   1      32.036  26.358  22.905  1.00  0.00     0.017 C 
ATOM     18  C   UNL A   1      30.308  24.704  23.476  1.00  0.00     0.022 C 
ATOM     19  C   UNL A   1      34.095  23.623  26.593  1.00  0.00     0.012 C 
ATOM     20  C   UNL A   1      33.933  21.201  25.607  1.00  0.00    -0.018 C 
ATOM     21  C   UNL A   1      35.966  21.976  26.229  1.00  0.00     0.019 C 
ATOM     22  C   UNL A   1      36.827  21.828  23.955  1.00  0.00     0.008 C 
ATOM     23  C   UNL A   1      34.836  20.338  25.088  1.00  0.00    -0.045 C 
ATOM     24  C   UNL A   1      36.262  20.950  25.138  1.00  0.00     0.018 C 
BRANCH  23  25
ATOM     25  C   UNL A   1      34.496  19.006  24.516  1.00  0.00     0.187 C 
BRANCH  25  26
ATOM     26  O   UNL A   1      33.774  18.240  25.476  1.00  0.00    -0.392 OA
ATOM     27  H   UNL A   1      34.002  17.302  25.379  1.00  0.00     0.211 HD
ENDBRANCH  25  26
ENDBRANCH  23  25
ENDBRANCH   4   7
ENDBRANCH   2   3
ENDBRANCH   1   2
BRANCH   1  28
ATOM     28  C   UNL A   1      33.708  28.354  27.176  1.00  0.00     0.118 C 
BRANCH  28  29
ATOM     29  N   UNL A   1      33.578  29.766  27.475  1.00  0.00    -0.352 N 
ATOM     30  C   UNL A   1      34.457  30.589  28.137  1.00  0.00     0.251 C 
ATOM     31  H   UNL A   1      32.749  30.193  27.163  1.00  0.00     0.163 HD
ATOM     32  O   UNL A   1      34.076  31.677  28.551  1.00  0.00    -0.269 OA
BRANCH  30  33
ATOM     33  C   UNL A   1      35.857  30.156  28.362  1.00  0.00     0.039 A 
ATOM     34  C   UNL A   1      36.221  29.677  29.622  1.00  0.00     0.014 A 
ATOM     35  C   UNL A   1      36.819  30.243  27.351  1.00  0.00     0.014 A 
ATOM     36  C   UNL A   1      37.533  29.259  29.853  1.00  0.00     0.010 A 
ATOM     37  C   UNL A   1      38.088  29.712  27.544  1.00  0.00     0.010 A 
ATOM     38  C   UNL A   1      38.473  29.251  28.810  1.00  0.00    -0.014 A 
BRANCH  38  39
ATOM     39  C   UNL A   1      39.877  28.826  29.035  1.00  0.00     0.031 A 
ATOM     40  C   UNL A   1      40.311  27.435  28.649  1.00  0.00     0.074 A 
ATOM     41  C   UNL A   1      40.751  29.670  29.616  1.00  0.00     0.049 A 
ATOM     42  N   UNL A   1      41.481  26.864  28.793  1.00  0.00    -0.248 NA
ATOM     43  C   UNL A   1      39.291  26.559  28.047  1.00  0.00     0.031 C 
ATOM     44  C   UNL A   1      40.446  31.028  30.071  1.00  0.00     0.029 A 
ATOM     45  N   UNL A   1      42.079  29.508  29.920  1.00  0.00    -0.354 N 
ATOM     46  C   UNL A   1      41.328  25.567  28.320  1.00  0.00     0.074 A 
ATOM     47  C   UNL A   1      39.942  25.411  27.945  1.00  0.00     0.031 C 
ATOM     48  C   UNL A   1      41.566  31.589  30.556  1.00  0.00     0.029 A 
ATOM     49  C   UNL A   1      42.653  30.619  30.488  1.00  0.00     0.049 A 
ATOM     50  H   UNL A   1      42.573  28.674  29.748  1.00  0.00     0.167 HD
ATOM     51  C   UNL A   1      42.262  24.597  28.180  1.00  0.00     0.031 A 
ATOM     52  C   UNL A   1      43.915  30.831  30.907  1.00  0.00     0.031 A 
ATOM     53  C   UNL A   1      43.645  24.755  28.537  1.00  0.00     0.049 A 
ATOM     54  C   UNL A   1      44.930  29.733  30.759  1.00  0.00     0.074 A 
ATOM     55  C   UNL A   1      44.683  23.852  28.389  1.00  0.00     0.029 A 
ATOM     56  N   UNL A   1      44.184  25.895  29.114  1.00  0.00    -0.354 N 
ATOM     57  N   UNL A   1      44.783  28.533  30.251  1.00  0.00    -0.248 NA
ATOM     58  C   UNL A   1      46.290  30.024  31.233  1.00  0.00     0.031 C 
ATOM     59  C   UNL A   1      45.839  24.426  28.926  1.00  0.00     0.029 A 
ATOM     60  C   UNL A   1      45.535  25.710  29.350  1.00  0.00     0.049 A 
ATOM     61  H   UNL A   1      43.680  26.714  29.324  1.00  0.00     0.167 HD
ATOM     62  C   UNL A   1      46.036  27.938  30.316  1.00  0.00     0.074 A 
ATOM     63  C   UNL A   1      46.933  28.916  30.897  1.00  0.00     0.031 C 
ATOM     64  C   UNL A   1      46.412  26.694  29.931  1.00  0.00     0.031 A 
BRANCH  51  65
ATOM     65  C   UNL A   1      41.811  23.276  27.618  1.00  0.00    -0.014 A 
ATOM     66  C   UNL A   1      41.731  23.062  26.233  1.00  0.00     0.009 A 
ATOM     67  C   UNL A   1      41.485  22.222  28.487  1.00  0.00     0.009 A 
ATOM     68  C   UNL A   1      41.296  21.834  25.729  1.00  0.00     0.001 A 
ATOM     69  C   UNL A   1      41.082  20.984  27.979  1.00  0.00     0.001 A 
ATOM     70  C   UNL A   1      40.978  20.795  26.602  1.00  0.00     0.000 A 
ENDBRANCH  51  65
BRANCH  52  71
ATOM     71  C   UNL A   1      44.295  32.146  31.490  1.00  0.00    -0.014 A 
ATOM     72  C   UNL A   1      44.182  32.373  32.870  1.00  0.00     0.009 A 
ATOM     73  C   UNL A   1      44.768  33.182  30.669  1.00  0.00     0.009 A 
ATOM     74  C   UNL A   1      44.508  33.619  33.413  1.00  0.00     0.001 A 
ATOM     75  C   UNL A   1      45.122  34.416  31.218  1.00  0.00     0.001 A 
ATOM     76  C   UNL A   1      44.981  34.637  32.587  1.00  0.00     0.000 A 
ENDBRANCH  52  71
BRANCH  64  77
ATOM     77  C   UNL A   1      47.862  26.333  30.089  1.00  0.00    -0.014 A 
ATOM     78  C   UNL A   1      48.350  25.775  31.281  1.00  0.00     0.009 A 
ATOM     79  C   UNL A   1      48.744  26.522  29.013  1.00  0.00     0.009 A 
ATOM     80  C   UNL A   1      49.702  25.446  31.402  1.00  0.00     0.001 A 
ATOM     81  C   UNL A   1      50.087  26.162  29.127  1.00  0.00     0.001 A 
ATOM     82  C   UNL A   1      50.567  25.635  30.325  1.00  0.00     0.000 A 
ENDBRANCH  64  77
ENDBRANCH  38  39
ENDBRANCH  30  33
ENDBRANCH  28  29
ENDBRANCH   1  28
TORSDOF 12
ENDMDL
MODEL 3
REMARK VINA RESULT:     -11.9      2.101      7.542
REMARK SMILES C[C@@]12CCC[C@](C)(C(=O)NCCCNC(=O)c3ccc(-c4c5nc(c(-c6ccccc6)c6ccc([nH]6)c(-c6ccccc6)c6nc(c(-c7ccccc7)c7ccc4[nH]7)C=C6)C=C5)cc3)[C@H]1CC[C@@]13C=C(CO)[C@@H](CC[C@@H]12)C3
REMARK SMILES IDX 12 1 11 2 10 3 8 4 9 5 6 7 1 8 2 9 3 10 65 11 76 12 4 13
REMARK SMILES IDX 66 14 68 15 75 16 5 17 7 18 67 19 69 20 77 21 74 22 70 23
REMARK SMILES IDX 73 24 71 25 72 26 13 28 14 29 15 30 16 32 17 33 18 34 64 35
REMARK SMILES IDX 19 36 63 37 20 38 21 39 22 40 57 41 23 42 62 43 56 44 58 45
REMARK SMILES IDX 24 46 61 47 55 48 54 49 25 51 47 52 32 53 46 54 33 55 36 56
REMARK SMILES IDX 45 57 59 58 34 59 35 60 44 62 60 63 37 64 26 65 27 66 31 67
REMARK SMILES IDX 28 68 30 69 29 70 48 71 49 72 53 73 50 74 52 75 51 76 38 77
REMARK SMILES IDX 39 78 43 79 40 80 42 81 41 82
REMARK H PARENT 10 6 72 27 14 31 58 50 36 61
REMARK Flexibility Score: inf
ROOT
ATOM      1  C   UNL A   1      37.753  19.610  24.759  1.00  0.00     0.042 C 
ENDROOT
BRANCH   1   2
ATOM      2  C   UNL A   1      36.382  20.221  25.021  1.00  0.00     0.117 C 
BRANCH   2   3
ATOM      3  N   UNL A   1      36.473  21.484  25.751  1.00  0.00    -0.356 N 
ATOM      4  C   UNL A   1      35.918  22.722  25.573  1.00  0.00     0.226 C 
ATOM      5  O   UNL A   1      36.280  23.596  26.365  1.00  0.00    -0.274 OA
ATOM      6  H   UNL A   1      37.058  21.433  26.541  1.00  0.00     0.163 HD
BRANCH   4   7
ATOM      7  C   UNL A   1      34.861  23.004  24.478  1.00  0.00     0.050 C 
ATOM      8  C   UNL A   1      33.574  24.965  22.521  1.00  0.00     0.012 C 
ATOM      9  C   UNL A   1      32.802  24.491  23.803  1.00  0.00    -0.025 C 
ATOM     10  C   UNL A   1      31.991  23.208  23.497  1.00  0.00     0.007 C 
ATOM     11  C   UNL A   1      33.821  24.141  24.922  1.00  0.00     0.010 C 
ATOM     12  C   UNL A   1      31.835  25.671  24.160  1.00  0.00     0.005 C 
ATOM     13  C   UNL A   1      32.828  21.946  23.263  1.00  0.00     0.002 C 
ATOM     14  C   UNL A   1      34.378  25.381  25.625  1.00  0.00     0.006 C 
ATOM     15  C   UNL A   1      32.463  26.881  24.962  1.00  0.00    -0.008 C 
ATOM     16  C   UNL A   1      30.368  25.563  24.560  1.00  0.00     0.006 C 
ATOM     17  C   UNL A   1      33.946  21.741  24.300  1.00  0.00     0.017 C 
ATOM     18  C   UNL A   1      35.676  23.059  23.153  1.00  0.00     0.022 C 
ATOM     19  C   UNL A   1      33.351  26.406  26.089  1.00  0.00     0.012 C 
ATOM     20  C   UNL A   1      32.997  27.776  23.883  1.00  0.00    -0.018 C 
ATOM     21  C   UNL A   1      31.406  27.891  25.490  1.00  0.00     0.019 C 
ATOM     22  C   UNL A   1      29.723  26.905  24.030  1.00  0.00     0.008 C 
ATOM     23  C   UNL A   1      31.922  28.355  23.302  1.00  0.00    -0.045 C 
ATOM     24  C   UNL A   1      30.659  28.166  24.186  1.00  0.00     0.018 C 
BRANCH  23  25
ATOM     25  C   UNL A   1      31.946  29.043  21.982  1.00  0.00     0.187 C 
BRANCH  25  26
ATOM     26  O   UNL A   1      30.878  29.985  21.911  1.00  0.00    -0.392 OA
ATOM     27  H   UNL A   1      30.171  29.631  21.348  1.00  0.00     0.211 HD
ENDBRANCH  25  26
ENDBRANCH  23  25
ENDBRANCH   4   7
ENDBRANCH   2   3
ENDBRANCH   1   2
BRANCH   1  28
ATOM     28  C   UNL A   1      38.828  20.190  25.648  1.00  0.00     0.118 C 
BRANCH  28  29
ATOM     29  N   UNL A   1      39.917  19.252  25.832  1.00  0.00    -0.352 N 
ATOM     30  C   UNL A   1      41.230  19.510  26.139  1.00  0.00     0.251 C 
ATOM     31  H   UNL A   1      39.684  18.302  25.722  1.00  0.00     0.163 HD
ATOM     32  O   UNL A   1      42.074  18.635  25.981  1.00  0.00    -0.269 OA
BRANCH  30  33
ATOM     33  C   UNL A   1      41.629  20.845  26.645  1.00  0.00     0.039 A 
ATOM     34  C   UNL A   1      42.048  21.816  25.732  1.00  0.00     0.014 A 
ATOM     35  C   UNL A   1      41.619  21.140  28.012  1.00  0.00     0.014 A 
ATOM     36  C   UNL A   1      42.422  23.081  26.188  1.00  0.00     0.010 A 
ATOM     37  C   UNL A   1      41.871  22.434  28.451  1.00  0.00     0.010 A 
ATOM     38  C   UNL A   1      42.315  23.409  27.549  1.00  0.00    -0.014 A 
BRANCH  38  39
ATOM     39  C   UNL A   1      42.721  24.742  28.059  1.00  0.00     0.031 A 
ATOM     40  C   UNL A   1      41.680  25.808  28.285  1.00  0.00     0.074 A 
ATOM     41  C   UNL A   1      44.022  25.010  28.285  1.00  0.00     0.049 A 
ATOM     42  N   UNL A   1      41.836  27.043  28.694  1.00  0.00    -0.248 NA
ATOM     43  C   UNL A   1      40.282  25.452  27.986  1.00  0.00     0.031 C 
ATOM     44  C   UNL A   1      45.130  24.077  28.069  1.00  0.00     0.029 A 
ATOM     45  N   UNL A   1      44.630  26.147  28.751  1.00  0.00    -0.354 N 
ATOM     46  C   UNL A   1      40.567  27.607  28.681  1.00  0.00     0.074 A 
ATOM     47  C   UNL A   1      39.661  26.607  28.165  1.00  0.00     0.031 C 
ATOM     48  C   UNL A   1      46.277  24.667  28.443  1.00  0.00     0.029 A 
ATOM     49  C   UNL A   1      45.993  26.029  28.881  1.00  0.00     0.049 A 
ATOM     50  H   UNL A   1      44.137  26.970  28.970  1.00  0.00     0.167 HD
ATOM     51  C   UNL A   1      40.179  28.838  29.090  1.00  0.00     0.031 A 
ATOM     52  C   UNL A   1      46.909  26.919  29.305  1.00  0.00     0.031 A 
ATOM     53  C   UNL A   1      41.075  29.829  29.620  1.00  0.00     0.049 A 
ATOM     54  C   UNL A   1      46.457  28.285  29.736  1.00  0.00     0.074 A 
ATOM     55  C   UNL A   1      40.777  31.089  30.109  1.00  0.00     0.029 A 
ATOM     56  N   UNL A   1      42.448  29.670  29.730  1.00  0.00    -0.354 N 
ATOM     57  N   UNL A   1      45.244  28.781  29.778  1.00  0.00    -0.248 NA
ATOM     58  C   UNL A   1      47.503  29.213  30.191  1.00  0.00     0.031 C 
ATOM     59  C   UNL A   1      41.977  31.712  30.465  1.00  0.00     0.029 A 
ATOM     60  C   UNL A   1      43.014  30.817  30.257  1.00  0.00     0.049 A 
ATOM     61  H   UNL A   1      42.945  28.861  29.471  1.00  0.00     0.167 HD
ATOM     62  C   UNL A   1      45.377  30.065  30.291  1.00  0.00     0.074 A 
ATOM     63  C   UNL A   1      46.786  30.264  30.560  1.00  0.00     0.031 C 
ATOM     64  C   UNL A   1      44.419  30.997  30.517  1.00  0.00     0.031 A 
BRANCH  51  65
ATOM     65  C   UNL A   1      38.717  29.179  28.975  1.00  0.00    -0.014 A 
ATOM     66  C   UNL A   1      37.844  29.019  30.063  1.00  0.00     0.009 A 
ATOM     67  C   UNL A   1      38.211  29.690  27.769  1.00  0.00     0.009 A 
ATOM     68  C   UNL A   1      36.487  29.326  29.934  1.00  0.00     0.001 A 
ATOM     69  C   UNL A   1      36.861  30.027  27.654  1.00  0.00     0.001 A 
ATOM     70  C   UNL A   1      35.998  29.835  28.732  1.00  0.00     0.000 A 
ENDBRANCH  51  65
BRANCH  52  71
ATOM     71  C   UNL A   1      48.346  26.539  29.362  1.00  0.00    -0.014 A 
ATOM     72  C   UNL A   1      49.190  26.776  28.267  1.00  0.00     0.009 A 
ATOM     73  C   UNL A   1      48.880  25.933  30.511  1.00  0.00     0.009 A 
ATOM     74  C   UNL A   1      50.532  26.388  28.307  1.00  0.00     0.001 A 
ATOM     75  C   UNL A   1      50.229  25.576  30.561  1.00  0.00     0.001 A 
ATOM     76  C   UNL A   1      51.051  25.793  29.455  1.00  0.00     0.000 A 
ENDBRANCH  52  71
BRANCH  64  77
ATOM     77  C   UNL A   1      44.858  32.302  31.121  1.00  0.00    -0.014 A 
ATOM     78  C   UNL A   1      45.213  33.396  30.318  1.00  0.00     0.009 A 
ATOM     79  C   UNL A   1      44.880  32.446  32.517  1.00  0.00     0.009 A 
ATOM     80  C   UNL A   1      45.615  34.599  30.903  1.00  0.00     0.001 A 
ATOM     81  C   UNL A   1      45.251  33.659  33.098  1.00  0.00     0.001 A 
ATOM     82  C   UNL A   1      45.629  34.730  32.291  1.00  0.00     0.000 A 
ENDBRANCH  64  77
ENDBRANCH  38  39
ENDBRANCH  30  33
ENDBRANCH  28  29
ENDBRANCH   1  28
TORSDOF 12
ENDMDL
