MODEL 1
REMARK VINA RESULT:     -11.5      0.000      0.000
REMARK SMILES CCOc1ccc(NC(=O)[C@@H]2[C@@H](C(=O)NCCCNC(=O)c3ccc(-c4c5nc(c(-c6ccccc6)c6ccc([nH]6)c(-c6ccccc6)c6nc(c(-c7ccccc7)c7ccc4[nH]7)C=C6)C=C5)cc3)[C@H]3C=C[C@@H]2C3)cc1
REMARK SMILES IDX 16 1 15 2 13 3 14 4 12 6 11 7 73 8 70 9 72 10 74 11 71 12
REMARK SMILES IDX 9 13 8 14 10 16 7 17 4 18 5 19 76 20 6 21 75 22 3 23 2 24
REMARK SMILES IDX 1 25 17 26 18 27 19 28 20 29 21 31 22 32 23 33 69 34 24 35
REMARK SMILES IDX 68 36 25 37 26 38 27 39 62 40 28 41 67 42 61 43 63 44 29 45
REMARK SMILES IDX 66 46 60 47 59 48 30 50 52 51 37 52 51 53 38 54 41 55 50 56
REMARK SMILES IDX 64 57 39 58 40 59 49 61 65 62 42 63 31 64 32 65 36 66 33 67
REMARK SMILES IDX 35 68 34 69 53 70 54 71 58 72 55 73 57 74 56 75 43 76 44 77
REMARK SMILES IDX 48 78 45 79 47 80 46 81
REMARK H PARENT 15 5 8 15 19 30 63 49 41 60
REMARK Flexibility Score: inf
ROOT
ATOM      1  C   UNL A   1      31.302  30.121  25.492  1.00  0.00     0.117 C 
ENDROOT
BRANCH   1   2
ATOM      2  N   UNL A   1      32.452  29.991  24.630  1.00  0.00    -0.356 N 
ATOM      3  C   UNL A   1      33.063  28.920  24.080  1.00  0.00     0.224 C 
ATOM      4  O   UNL A   1      33.888  29.202  23.201  1.00  0.00    -0.275 OA
ATOM      5  H   UNL A   1      32.873  30.850  24.398  1.00  0.00     0.163 HD
BRANCH   3   6
ATOM      6  C   UNL A   1      32.709  27.460  24.399  1.00  0.00     0.098 C 
ATOM      7  C   UNL A   1      31.430  27.119  25.257  1.00  0.00     0.099 C 
ATOM      8  C   UNL A   1      32.027  26.401  26.479  1.00  0.00     0.025 C 
ATOM      9  C   UNL A   1      33.861  26.923  25.328  1.00  0.00     0.025 C 
ATOM     10  C   UNL A   1      32.780  27.428  27.297  1.00  0.00    -0.027 C 
ATOM     11  C   UNL A   1      33.233  25.661  25.887  1.00  0.00     0.017 C 
ATOM     12  C   UNL A   1      33.895  27.720  26.619  1.00  0.00    -0.027 C 
BRANCH   7  13
ATOM     13  C   UNL A   1      30.300  26.405  24.478  1.00  0.00     0.228 C 
ATOM     14  N   UNL A   1      29.278  26.969  23.779  1.00  0.00    -0.326 N 
ATOM     15  H   UNL A   1      28.465  26.413  23.795  1.00  0.00     0.169 HD
ATOM     16  O   UNL A   1      30.190  25.176  24.629  1.00  0.00    -0.274 OA
BRANCH  14  17
ATOM     17  C   UNL A   1      29.098  28.148  23.046  1.00  0.00     0.041 A 
ATOM     18  C   UNL A   1      28.669  30.640  21.832  1.00  0.00     0.119 A 
ATOM     19  C   UNL A   1      29.874  29.969  21.652  1.00  0.00     0.048 A 
ATOM     20  C   UNL A   1      27.623  29.994  22.485  1.00  0.00     0.048 A 
ATOM     21  C   UNL A   1      30.074  28.710  22.229  1.00  0.00     0.030 A 
ATOM     22  C   UNL A   1      27.836  28.745  23.081  1.00  0.00     0.030 A 
BRANCH  18  23
ATOM     23  O   UNL A   1      28.589  31.884  21.276  1.00  0.00    -0.494 OA
BRANCH  23  24
ATOM     24  C   UNL A   1      28.035  32.910  22.105  1.00  0.00     0.226 C 
ATOM     25  C   UNL A   1      29.086  33.399  23.085  1.00  0.00     0.049 C 
ENDBRANCH  23  24
ENDBRANCH  18  23
ENDBRANCH  14  17
ENDBRANCH   7  13
ENDBRANCH   3   6
ENDBRANCH   1   2
BRANCH   1  26
ATOM     26  C   UNL A   1      31.160  31.524  26.076  1.00  0.00     0.042 C 
BRANCH  26  27
ATOM     27  C   UNL A   1      32.349  31.999  26.910  1.00  0.00     0.118 C 
BRANCH  27  28
ATOM     28  N   UNL A   1      32.207  33.368  27.384  1.00  0.00    -0.352 N 
ATOM     29  C   UNL A   1      33.001  34.109  28.217  1.00  0.00     0.251 C 
ATOM     30  H   UNL A   1      31.408  33.838  27.052  1.00  0.00     0.163 HD
ATOM     31  O   UNL A   1      32.598  35.202  28.621  1.00  0.00    -0.269 OA
BRANCH  29  32
ATOM     32  C   UNL A   1      34.325  33.618  28.657  1.00  0.00     0.039 A 
ATOM     33  C   UNL A   1      34.401  32.889  29.847  1.00  0.00     0.014 A 
ATOM     34  C   UNL A   1      35.492  33.909  27.943  1.00  0.00     0.014 A 
ATOM     35  C   UNL A   1      35.634  32.403  30.291  1.00  0.00     0.010 A 
ATOM     36  C   UNL A   1      36.712  33.367  28.351  1.00  0.00     0.010 A 
ATOM     37  C   UNL A   1      36.795  32.611  29.529  1.00  0.00    -0.014 A 
BRANCH  37  38
ATOM     38  C   UNL A   1      38.089  32.016  29.953  1.00  0.00     0.031 A 
ATOM     39  C   UNL A   1      39.003  32.743  30.900  1.00  0.00     0.074 A 
ATOM     40  C   UNL A   1      38.461  30.826  29.444  1.00  0.00     0.049 A 
ATOM     41  N   UNL A   1      40.154  32.358  31.390  1.00  0.00    -0.248 NA
ATOM     42  C   UNL A   1      38.583  34.084  31.332  1.00  0.00     0.031 C 
ATOM     43  C   UNL A   1      37.696  30.047  28.467  1.00  0.00     0.029 A 
ATOM     44  N   UNL A   1      39.577  30.063  29.677  1.00  0.00    -0.354 N 
ATOM     45  C   UNL A   1      40.603  33.414  32.175  1.00  0.00     0.074 A 
ATOM     46  C   UNL A   1      39.622  34.470  32.059  1.00  0.00     0.031 C 
ATOM     47  C   UNL A   1      38.350  28.904  28.208  1.00  0.00     0.029 A 
ATOM     48  C   UNL A   1      39.590  28.881  28.977  1.00  0.00     0.049 A 
ATOM     49  H   UNL A   1      40.300  30.335  30.288  1.00  0.00     0.167 HD
ATOM     50  C   UNL A   1      41.722  33.491  32.936  1.00  0.00     0.031 A 
ATOM     51  C   UNL A   1      40.496  27.886  28.957  1.00  0.00     0.031 A 
ATOM     52  C   UNL A   1      42.695  32.437  33.057  1.00  0.00     0.049 A 
ATOM     53  C   UNL A   1      41.714  27.982  29.829  1.00  0.00     0.074 A 
ATOM     54  C   UNL A   1      43.820  32.390  33.865  1.00  0.00     0.029 A 
ATOM     55  N   UNL A   1      42.664  31.248  32.347  1.00  0.00    -0.354 N 
ATOM     56  N   UNL A   1      42.074  28.946  30.641  1.00  0.00    -0.248 NA
ATOM     57  C   UNL A   1      42.640  26.842  29.795  1.00  0.00     0.031 C 
ATOM     58  C   UNL A   1      44.498  31.194  33.601  1.00  0.00     0.029 A 
ATOM     59  C   UNL A   1      43.766  30.473  32.671  1.00  0.00     0.049 A 
ATOM     60  H   UNL A   1      41.964  30.992  31.704  1.00  0.00     0.167 HD
ATOM     61  C   UNL A   1      43.261  28.525  31.225  1.00  0.00     0.074 A 
ATOM     62  C   UNL A   1      43.544  27.207  30.694  1.00  0.00     0.031 C 
ATOM     63  C   UNL A   1      44.047  29.173  32.119  1.00  0.00     0.031 A 
BRANCH  50  64
ATOM     64  C   UNL A   1      41.958  34.772  33.688  1.00  0.00    -0.014 A 
ATOM     65  C   UNL A   1      41.431  34.973  34.974  1.00  0.00     0.009 A 
ATOM     66  C   UNL A   1      42.743  35.784  33.111  1.00  0.00     0.009 A 
ATOM     67  C   UNL A   1      41.650  36.176  35.649  1.00  0.00     0.001 A 
ATOM     68  C   UNL A   1      42.984  36.974  33.800  1.00  0.00     0.001 A 
ATOM     69  C   UNL A   1      42.429  37.175  35.064  1.00  0.00     0.000 A 
ENDBRANCH  50  64
BRANCH  51  70
ATOM     70  C   UNL A   1      40.267  26.699  28.093  1.00  0.00    -0.014 A 
ATOM     71  C   UNL A   1      39.534  25.602  28.569  1.00  0.00     0.009 A 
ATOM     72  C   UNL A   1      40.769  26.665  26.783  1.00  0.00     0.009 A 
ATOM     73  C   UNL A   1      39.325  24.485  27.756  1.00  0.00     0.001 A 
ATOM     74  C   UNL A   1      40.537  25.559  25.964  1.00  0.00     0.001 A 
ATOM     75  C   UNL A   1      39.822  24.467  26.453  1.00  0.00     0.000 A 
ENDBRANCH  51  70
BRANCH  63  76
ATOM     76  C   UNL A   1      45.285  28.455  32.578  1.00  0.00    -0.014 A 
ATOM     77  C   UNL A   1      46.523  28.667  31.952  1.00  0.00     0.009 A 
ATOM     78  C   UNL A   1      45.213  27.562  33.659  1.00  0.00     0.009 A 
ATOM     79  C   UNL A   1      47.656  27.966  32.371  1.00  0.00     0.001 A 
ATOM     80  C   UNL A   1      46.353  26.886  34.095  1.00  0.00     0.001 A 
ATOM     81  C   UNL A   1      47.571  27.079  33.443  1.00  0.00     0.000 A 
ENDBRANCH  63  76
ENDBRANCH  37  38
ENDBRANCH  29  32
ENDBRANCH  27  28
ENDBRANCH  26  27
ENDBRANCH   1  26
TORSDOF 14
ENDMDL
MODEL 2
REMARK VINA RESULT:     -11.4      4.832      9.712
REMARK SMILES CCOc1ccc(NC(=O)[C@@H]2[C@@H](C(=O)NCCCNC(=O)c3ccc(-c4c5nc(c(-c6ccccc6)c6ccc([nH]6)c(-c6ccccc6)c6nc(c(-c7ccccc7)c7ccc4[nH]7)C=C6)C=C5)cc3)[C@H]3C=C[C@@H]2C3)cc1
REMARK SMILES IDX 16 1 15 2 13 3 14 4 12 6 11 7 73 8 70 9 72 10 74 11 71 12
REMARK SMILES IDX 9 13 8 14 10 16 7 17 4 18 5 19 76 20 6 21 75 22 3 23 2 24
REMARK SMILES IDX 1 25 17 26 18 27 19 28 20 29 21 31 22 32 23 33 69 34 24 35
REMARK SMILES IDX 68 36 25 37 26 38 27 39 62 40 28 41 67 42 61 43 63 44 29 45
REMARK SMILES IDX 66 46 60 47 59 48 30 50 52 51 37 52 51 53 38 54 41 55 50 56
REMARK SMILES IDX 64 57 39 58 40 59 49 61 65 62 42 63 31 64 32 65 36 66 33 67
REMARK SMILES IDX 35 68 34 69 53 70 54 71 58 72 55 73 57 74 56 75 43 76 44 77
REMARK SMILES IDX 48 78 45 79 47 80 46 81
REMARK H PARENT 15 5 8 15 19 30 63 49 41 60
REMARK Flexibility Score: inf
ROOT
ATOM      1  C   UNL A   1      35.950  20.198  24.827  1.00  0.00     0.117 C 
ENDROOT
BRANCH   1   2
ATOM      2  N   UNL A   1      35.652  20.828  26.091  1.00  0.00    -0.356 N 
ATOM      3  C   UNL A   1      34.812  21.827  26.435  1.00  0.00     0.224 C 
ATOM      4  O   UNL A   1      34.643  21.951  27.655  1.00  0.00    -0.275 OA
ATOM      5  H   UNL A   1      36.158  20.456  26.848  1.00  0.00     0.163 HD
BRANCH   3   6
ATOM      6  C   UNL A   1      34.022  22.682  25.433  1.00  0.00     0.098 C 
ATOM      7  C   UNL A   1      34.007  22.304  23.902  1.00  0.00     0.099 C 
ATOM      8  C   UNL A   1      34.632  23.546  23.244  1.00  0.00     0.025 C 
ATOM      9  C   UNL A   1      34.730  24.087  25.402  1.00  0.00     0.025 C 
ATOM     10  C   UNL A   1      36.097  23.582  23.620  1.00  0.00    -0.027 C 
ATOM     11  C   UNL A   1      34.144  24.692  24.139  1.00  0.00     0.017 C 
ATOM     12  C   UNL A   1      36.157  23.934  24.909  1.00  0.00    -0.027 C 
BRANCH   7  13
ATOM     13  C   UNL A   1      32.640  21.813  23.370  1.00  0.00     0.228 C 
ATOM     14  N   UNL A   1      32.235  20.532  23.158  1.00  0.00    -0.326 N 
ATOM     15  H   UNL A   1      31.598  20.462  22.410  1.00  0.00     0.169 HD
ATOM     16  O   UNL A   1      31.862  22.670  22.916  1.00  0.00    -0.274 OA
BRANCH  14  17
ATOM     17  C   UNL A   1      32.505  19.288  23.740  1.00  0.00     0.041 A 
ATOM     18  C   UNL A   1      33.309  16.809  24.778  1.00  0.00     0.119 A 
ATOM     19  C   UNL A   1      32.854  17.813  25.627  1.00  0.00     0.048 A 
ATOM     20  C   UNL A   1      33.211  16.989  23.402  1.00  0.00     0.048 A 
ATOM     21  C   UNL A   1      32.420  19.036  25.105  1.00  0.00     0.030 A 
ATOM     22  C   UNL A   1      32.798  18.223  22.885  1.00  0.00     0.030 A 
BRANCH  18  23
ATOM     23  O   UNL A   1      33.762  15.673  25.384  1.00  0.00    -0.494 OA
BRANCH  23  24
ATOM     24  C   UNL A   1      35.103  15.284  25.074  1.00  0.00     0.226 C 
ATOM     25  C   UNL A   1      36.079  16.200  25.789  1.00  0.00     0.049 C 
ENDBRANCH  23  24
ENDBRANCH  18  23
ENDBRANCH  14  17
ENDBRANCH   7  13
ENDBRANCH   3   6
ENDBRANCH   1   2
BRANCH   1  26
ATOM     26  C   UNL A   1      37.447  20.148  24.534  1.00  0.00     0.042 C 
BRANCH  26  27
ATOM     27  C   UNL A   1      38.350  20.317  25.756  1.00  0.00     0.118 C 
BRANCH  27  28
ATOM     28  N   UNL A   1      39.474  19.391  25.771  1.00  0.00    -0.352 N 
ATOM     29  C   UNL A   1      40.795  19.600  26.063  1.00  0.00     0.251 C 
ATOM     30  H   UNL A   1      39.247  18.464  25.532  1.00  0.00     0.163 HD
ATOM     31  O   UNL A   1      41.610  18.700  25.848  1.00  0.00    -0.269 OA
BRANCH  29  32
ATOM     32  C   UNL A   1      41.268  20.889  26.613  1.00  0.00     0.039 A 
ATOM     33  C   UNL A   1      41.786  21.839  25.729  1.00  0.00     0.014 A 
ATOM     34  C   UNL A   1      41.255  21.151  27.987  1.00  0.00     0.014 A 
ATOM     35  C   UNL A   1      42.237  23.070  26.212  1.00  0.00     0.010 A 
ATOM     36  C   UNL A   1      41.642  22.405  28.461  1.00  0.00     0.010 A 
ATOM     37  C   UNL A   1      42.139  23.375  27.579  1.00  0.00    -0.014 A 
BRANCH  37  38
ATOM     38  C   UNL A   1      42.532  24.718  28.079  1.00  0.00     0.031 A 
ATOM     39  C   UNL A   1      41.506  25.795  28.295  1.00  0.00     0.074 A 
ATOM     40  C   UNL A   1      43.834  24.980  28.300  1.00  0.00     0.049 A 
ATOM     41  N   UNL A   1      41.673  27.013  28.748  1.00  0.00    -0.248 NA
ATOM     42  C   UNL A   1      40.117  25.474  27.933  1.00  0.00     0.031 C 
ATOM     43  C   UNL A   1      44.937  24.044  28.068  1.00  0.00     0.029 A 
ATOM     44  N   UNL A   1      44.453  26.112  28.768  1.00  0.00    -0.354 N 
ATOM     45  C   UNL A   1      40.417  27.606  28.711  1.00  0.00     0.074 A 
ATOM     46  C   UNL A   1      39.508  26.631  28.149  1.00  0.00     0.031 C 
ATOM     47  C   UNL A   1      46.092  24.629  28.423  1.00  0.00     0.029 A 
ATOM     48  C   UNL A   1      45.815  25.987  28.880  1.00  0.00     0.049 A 
ATOM     49  H   UNL A   1      43.966  26.936  29.001  1.00  0.00     0.167 HD
ATOM     50  C   UNL A   1      40.050  28.845  29.121  1.00  0.00     0.031 A 
ATOM     51  C   UNL A   1      46.743  26.864  29.308  1.00  0.00     0.031 A 
ATOM     52  C   UNL A   1      40.953  29.813  29.687  1.00  0.00     0.049 A 
ATOM     53  C   UNL A   1      46.309  28.220  29.783  1.00  0.00     0.074 A 
ATOM     54  C   UNL A   1      40.662  31.064  30.206  1.00  0.00     0.029 A 
ATOM     55  N   UNL A   1      42.323  29.642  29.801  1.00  0.00    -0.354 N 
ATOM     56  N   UNL A   1      45.102  28.731  29.832  1.00  0.00    -0.248 NA
ATOM     57  C   UNL A   1      47.364  29.113  30.280  1.00  0.00     0.031 C 
ATOM     58  C   UNL A   1      41.865  31.671  30.584  1.00  0.00     0.029 A 
ATOM     59  C   UNL A   1      42.898  30.776  30.353  1.00  0.00     0.049 A 
ATOM     60  H   UNL A   1      42.817  28.834  29.530  1.00  0.00     0.167 HD
ATOM     61  C   UNL A   1      45.250  29.999  30.377  1.00  0.00     0.074 A 
ATOM     62  C   UNL A   1      46.660  30.168  30.666  1.00  0.00     0.031 C 
ATOM     63  C   UNL A   1      44.304  30.940  30.614  1.00  0.00     0.031 A 
BRANCH  50  64
ATOM     64  C   UNL A   1      38.604  29.226  28.958  1.00  0.00    -0.014 A 
ATOM     65  C   UNL A   1      37.691  29.105  30.019  1.00  0.00     0.009 A 
ATOM     66  C   UNL A   1      38.153  29.739  27.731  1.00  0.00     0.009 A 
ATOM     67  C   UNL A   1      36.350  29.450  29.842  1.00  0.00     0.001 A 
ATOM     68  C   UNL A   1      36.817  30.110  27.566  1.00  0.00     0.001 A 
ATOM     69  C   UNL A   1      35.914  29.956  28.617  1.00  0.00     0.000 A 
ENDBRANCH  50  64
BRANCH  51  70
ATOM     70  C   UNL A   1      48.175  26.471  29.326  1.00  0.00    -0.014 A 
ATOM     71  C   UNL A   1      48.999  26.725  28.219  1.00  0.00     0.009 A 
ATOM     72  C   UNL A   1      48.728  25.849  30.457  1.00  0.00     0.009 A 
ATOM     73  C   UNL A   1      50.344  26.349  28.238  1.00  0.00     0.001 A 
ATOM     74  C   UNL A   1      50.078  25.498  30.482  1.00  0.00     0.001 A 
ATOM     75  C   UNL A   1      50.884  25.741  29.370  1.00  0.00     0.000 A 
ENDBRANCH  51  70
BRANCH  63  76
ATOM     76  C   UNL A   1      44.772  32.233  31.221  1.00  0.00    -0.014 A 
ATOM     77  C   UNL A   1      45.159  33.316  30.417  1.00  0.00     0.009 A 
ATOM     78  C   UNL A   1      44.815  32.372  32.618  1.00  0.00     0.009 A 
ATOM     79  C   UNL A   1      45.621  34.498  30.999  1.00  0.00     0.001 A 
ATOM     80  C   UNL A   1      45.250  33.566  33.196  1.00  0.00     0.001 A 
ATOM     81  C   UNL A   1      45.664  34.623  32.387  1.00  0.00     0.000 A 
ENDBRANCH  63  76
ENDBRANCH  37  38
ENDBRANCH  29  32
ENDBRANCH  27  28
ENDBRANCH  26  27
ENDBRANCH   1  26
TORSDOF 14
ENDMDL
MODEL 3
REMARK VINA RESULT:     -11.4      2.461      3.938
REMARK SMILES CCOc1ccc(NC(=O)[C@@H]2[C@@H](C(=O)NCCCNC(=O)c3ccc(-c4c5nc(c(-c6ccccc6)c6ccc([nH]6)c(-c6ccccc6)c6nc(c(-c7ccccc7)c7ccc4[nH]7)C=C6)C=C5)cc3)[C@H]3C=C[C@@H]2C3)cc1
REMARK SMILES IDX 16 1 15 2 13 3 14 4 12 6 11 7 73 8 70 9 72 10 74 11 71 12
REMARK SMILES IDX 9 13 8 14 10 16 7 17 4 18 5 19 76 20 6 21 75 22 3 23 2 24
REMARK SMILES IDX 1 25 17 26 18 27 19 28 20 29 21 31 22 32 23 33 69 34 24 35
REMARK SMILES IDX 68 36 25 37 26 38 27 39 62 40 28 41 67 42 61 43 63 44 29 45
REMARK SMILES IDX 66 46 60 47 59 48 30 50 52 51 37 52 51 53 38 54 41 55 50 56
REMARK SMILES IDX 64 57 39 58 40 59 49 61 65 62 42 63 31 64 32 65 36 66 33 67
REMARK SMILES IDX 35 68 34 69 53 70 54 71 58 72 55 73 57 74 56 75 43 76 44 77
REMARK SMILES IDX 48 78 45 79 47 80 46 81
REMARK H PARENT 15 5 8 15 19 30 63 49 41 60
REMARK Flexibility Score: inf
ROOT
ATOM      1  C   UNL A   1      31.390  27.530  26.448  1.00  0.00     0.117 C 
ENDROOT
BRANCH   1   2
ATOM      2  N   UNL A   1      31.022  26.136  26.495  1.00  0.00    -0.356 N 
ATOM      3  C   UNL A   1      31.583  25.027  25.970  1.00  0.00     0.224 C 
ATOM      4  O   UNL A   1      31.121  23.966  26.410  1.00  0.00    -0.275 OA
ATOM      5  H   UNL A   1      30.202  25.960  27.009  1.00  0.00     0.163 HD
BRANCH   3   6
ATOM      6  C   UNL A   1      32.775  25.032  25.000  1.00  0.00     0.098 C 
ATOM      7  C   UNL A   1      32.919  23.903  23.908  1.00  0.00     0.099 C 
ATOM      8  C   UNL A   1      34.256  23.242  24.283  1.00  0.00     0.025 C 
ATOM      9  C   UNL A   1      34.056  24.782  25.880  1.00  0.00     0.025 C 
ATOM     10  C   UNL A   1      34.056  22.498  25.585  1.00  0.00    -0.027 C 
ATOM     11  C   UNL A   1      35.081  24.417  24.822  1.00  0.00     0.017 C 
ATOM     12  C   UNL A   1      33.964  23.422  26.548  1.00  0.00    -0.027 C 
BRANCH   7  13
ATOM     13  C   UNL A   1      32.733  24.387  22.450  1.00  0.00     0.228 C 
ATOM     14  N   UNL A   1      31.891  25.351  21.989  1.00  0.00    -0.326 N 
ATOM     15  H   UNL A   1      31.579  25.166  21.074  1.00  0.00     0.169 HD
ATOM     16  O   UNL A   1      33.277  23.720  21.553  1.00  0.00    -0.274 OA
BRANCH  14  17
ATOM     17  C   UNL A   1      31.358  26.541  22.498  1.00  0.00     0.041 A 
ATOM     18  C   UNL A   1      30.354  29.047  23.258  1.00  0.00     0.119 A 
ATOM     19  C   UNL A   1      29.559  27.910  23.363  1.00  0.00     0.048 A 
ATOM     20  C   UNL A   1      31.697  28.908  22.925  1.00  0.00     0.048 A 
ATOM     21  C   UNL A   1      30.073  26.656  23.017  1.00  0.00     0.030 A 
ATOM     22  C   UNL A   1      32.200  27.654  22.557  1.00  0.00     0.030 A 
BRANCH  18  23
ATOM     23  O   UNL A   1      29.747  30.231  23.566  1.00  0.00    -0.494 OA
BRANCH  23  24
ATOM     24  C   UNL A   1      28.651  30.614  22.730  1.00  0.00     0.226 C 
ATOM     25  C   UNL A   1      27.551  31.224  23.578  1.00  0.00     0.049 C 
ENDBRANCH  23  24
ENDBRANCH  18  23
ENDBRANCH  14  17
ENDBRANCH   7  13
ENDBRANCH   3   6
ENDBRANCH   1   2
BRANCH   1  26
ATOM     26  C   UNL A   1      32.256  27.950  27.634  1.00  0.00     0.042 C 
BRANCH  26  27
ATOM     27  C   UNL A   1      33.551  28.671  27.263  1.00  0.00     0.118 C 
BRANCH  27  28
ATOM     28  N   UNL A   1      33.562  30.072  27.659  1.00  0.00    -0.352 N 
ATOM     29  C   UNL A   1      34.525  30.812  28.289  1.00  0.00     0.251 C 
ATOM     30  H   UNL A   1      32.740  30.568  27.438  1.00  0.00     0.163 HD
ATOM     31  O   UNL A   1      34.253  31.949  28.680  1.00  0.00    -0.269 OA
BRANCH  29  32
ATOM     32  C   UNL A   1      35.881  30.270  28.526  1.00  0.00     0.039 A 
ATOM     33  C   UNL A   1      36.815  30.340  27.490  1.00  0.00     0.014 A 
ATOM     34  C   UNL A   1      36.225  29.651  29.732  1.00  0.00     0.014 A 
ATOM     35  C   UNL A   1      38.108  29.844  27.679  1.00  0.00     0.010 A 
ATOM     36  C   UNL A   1      37.534  29.217  29.944  1.00  0.00     0.010 A 
ATOM     37  C   UNL A   1      38.487  29.307  28.919  1.00  0.00    -0.014 A 
BRANCH  37  38
ATOM     38  C   UNL A   1      39.887  28.865  29.151  1.00  0.00     0.031 A 
ATOM     39  C   UNL A   1      40.894  29.781  29.789  1.00  0.00     0.074 A 
ATOM     40  C   UNL A   1      40.263  27.638  28.741  1.00  0.00     0.049 A 
ATOM     41  N   UNL A   1      42.148  29.548  30.085  1.00  0.00    -0.248 NA
ATOM     42  C   UNL A   1      40.443  31.143  30.114  1.00  0.00     0.031 C 
ATOM     43  C   UNL A   1      39.401  26.676  28.050  1.00  0.00     0.029 A 
ATOM     44  N   UNL A   1      41.468  26.990  28.845  1.00  0.00    -0.354 N 
ATOM     45  C   UNL A   1      42.639  30.735  30.616  1.00  0.00     0.074 A 
ATOM     46  C   UNL A   1      41.561  31.698  30.558  1.00  0.00     0.031 C 
ATOM     47  C   UNL A   1      40.096  25.550  27.820  1.00  0.00     0.029 A 
ATOM     48  C   UNL A   1      41.456  25.721  28.321  1.00  0.00     0.049 A 
ATOM     49  H   UNL A   1      42.265  27.396  29.256  1.00  0.00     0.167 HD
ATOM     50  C   UNL A   1      43.870  30.995  31.119  1.00  0.00     0.031 A 
ATOM     51  C   UNL A   1      42.429  24.793  28.252  1.00  0.00     0.031 A 
ATOM     52  C   UNL A   1      44.940  30.035  31.182  1.00  0.00     0.049 A 
ATOM     53  C   UNL A   1      43.776  25.095  28.841  1.00  0.00     0.074 A 
ATOM     54  C   UNL A   1      46.197  30.179  31.746  1.00  0.00     0.029 A 
ATOM     55  N   UNL A   1      44.884  28.754  30.658  1.00  0.00    -0.354 N 
ATOM     56  N   UNL A   1      44.194  26.191  29.428  1.00  0.00    -0.248 NA
ATOM     57  C   UNL A   1      44.779  24.024  28.775  1.00  0.00     0.031 C 
ATOM     58  C   UNL A   1      46.919  29.003  31.514  1.00  0.00     0.029 A 
ATOM     59  C   UNL A   1      46.093  28.106  30.855  1.00  0.00     0.049 A 
ATOM     60  H   UNL A   1      44.101  28.360  30.209  1.00  0.00     0.167 HD
ATOM     61  C   UNL A   1      45.503  25.937  29.813  1.00  0.00     0.074 A 
ATOM     62  C   UNL A   1      45.799  24.575  29.417  1.00  0.00     0.031 C 
ATOM     63  C   UNL A   1      46.382  26.760  30.436  1.00  0.00     0.031 A 
BRANCH  50  64
ATOM     64  C   UNL A   1      44.126  32.386  31.630  1.00  0.00    -0.014 A 
ATOM     65  C   UNL A   1      44.620  33.396  30.787  1.00  0.00     0.009 A 
ATOM     66  C   UNL A   1      43.844  32.700  32.969  1.00  0.00     0.009 A 
ATOM     67  C   UNL A   1      44.865  34.677  31.284  1.00  0.00     0.001 A 
ATOM     68  C   UNL A   1      44.063  33.990  33.456  1.00  0.00     0.001 A 
ATOM     69  C   UNL A   1      44.584  34.975  32.618  1.00  0.00     0.000 A 
ENDBRANCH  50  64
BRANCH  51  70
ATOM     70  C   UNL A   1      42.149  23.479  27.619  1.00  0.00    -0.014 A 
ATOM     71  C   UNL A   1      42.522  23.235  26.289  1.00  0.00     0.009 A 
ATOM     72  C   UNL A   1      41.519  22.458  28.347  1.00  0.00     0.009 A 
ATOM     73  C   UNL A   1      42.252  22.000  25.694  1.00  0.00     0.001 A 
ATOM     74  C   UNL A   1      41.275  21.216  27.759  1.00  0.00     0.001 A 
ATOM     75  C   UNL A   1      41.634  20.990  26.431  1.00  0.00     0.000 A 
ENDBRANCH  51  70
BRANCH  63  76
ATOM     76  C   UNL A   1      47.745  26.197  30.729  1.00  0.00    -0.014 A 
ATOM     77  C   UNL A   1      48.060  25.678  31.994  1.00  0.00     0.009 A 
ATOM     78  C   UNL A   1      48.723  26.177  29.722  1.00  0.00     0.009 A 
ATOM     79  C   UNL A   1      49.341  25.189  32.259  1.00  0.00     0.001 A 
ATOM     80  C   UNL A   1      49.994  25.661  29.981  1.00  0.00     0.001 A 
ATOM     81  C   UNL A   1      50.306  25.178  31.251  1.00  0.00     0.000 A 
ENDBRANCH  63  76
ENDBRANCH  37  38
ENDBRANCH  29  32
ENDBRANCH  27  28
ENDBRANCH  26  27
ENDBRANCH   1  26
TORSDOF 14
ENDMDL
