MODEL 1
REMARK VINA RESULT:     -10.9      0.000      0.000
REMARK SMILES O=C(CO/N=C\c1ccccc1)Nc1ccccc1C(=O)NCCCNC(=O)c1ccc(-c2c3nc(c(-c4ccccc4)c4ccc([nH]4)c(-c4ccccc4)c4nc(c(-c5ccccc5)c5ccc2[nH]5)C=C4)C=C3)cc1
REMARK SMILES IDX 20 1 21 2 22 3 19 5 14 6 15 7 16 8 18 9 17 10 13 11 1 12
REMARK SMILES IDX 2 13 3 15 4 16 5 17 6 18 7 19 8 20 12 21 9 22 11 23 10 24
REMARK SMILES IDX 23 25 24 26 25 27 26 28 27 29 28 31 29 32 30 33 76 34 31 35
REMARK SMILES IDX 75 36 32 37 33 38 34 39 69 40 35 41 74 42 68 43 70 44 36 45
REMARK SMILES IDX 73 46 67 47 66 48 37 50 59 51 44 52 58 53 45 54 48 55 57 56
REMARK SMILES IDX 71 57 46 58 47 59 56 61 72 62 49 63 38 64 39 65 43 66 40 67
REMARK SMILES IDX 42 68 41 69 60 70 61 71 65 72 62 73 64 74 63 75 50 76 51 77
REMARK SMILES IDX 55 78 52 79 54 80 53 81
REMARK H PARENT 22 4 13 14 26 30 70 49 48 60
REMARK Flexibility Score: inf
ROOT
ATOM      1  C   UNL A   1      32.649  22.150  25.841  1.00  0.00     0.253 C 
ATOM      2  O   UNL A   1      31.603  22.585  26.325  1.00  0.00    -0.269 OA
ATOM      3  N   UNL A   1      33.837  22.501  26.449  1.00  0.00    -0.352 N 
ATOM      4  H   UNL A   1      33.755  23.101  27.225  1.00  0.00     0.163 HD
ENDROOT
BRANCH   1   5
ATOM      5  C   UNL A   1      32.619  21.439  24.529  1.00  0.00     0.063 A 
ATOM      6  C   UNL A   1      32.336  21.988  23.262  1.00  0.00     0.054 A 
ATOM      7  C   UNL A   1      31.997  21.112  22.216  1.00  0.00     0.027 A 
ATOM      8  C   UNL A   1      32.084  19.725  22.372  1.00  0.00     0.002 A 
ATOM      9  C   UNL A   1      32.753  20.040  24.656  1.00  0.00     0.016 A 
ATOM     10  C   UNL A   1      32.504  19.189  23.581  1.00  0.00     0.001 A 
BRANCH   6  11
ATOM     11  N   UNL A   1      32.367  23.359  22.907  1.00  0.00    -0.322 N 
ATOM     12  O   UNL A   1      34.636  23.647  22.535  1.00  0.00    -0.271 OA
ATOM     13  C   UNL A   1      33.503  24.107  22.651  1.00  0.00     0.265 C 
ATOM     14  H   UNL A   1      31.502  23.823  22.837  1.00  0.00     0.170 HD
BRANCH  13  15
ATOM     15  C   UNL A   1      33.261  25.620  22.629  1.00  0.00     0.363 C 
BRANCH  15  16
ATOM     16  O   UNL A   1      32.965  26.209  23.886  1.00  0.00    -0.386 OA
BRANCH  16  17
ATOM     17  N   UNL A   1      33.444  25.367  24.894  1.00  0.00    -0.094 NA
ATOM     18  C   UNL A   1      33.582  25.976  26.033  1.00  0.00     0.162 C 
BRANCH  18  19
ATOM     19  C   UNL A   1      33.259  27.371  26.380  1.00  0.00    -0.004 A 
ATOM     20  C   UNL A   1      34.324  28.274  26.452  1.00  0.00     0.010 A 
ATOM     21  C   UNL A   1      31.966  27.768  26.726  1.00  0.00     0.010 A 
ATOM     22  C   UNL A   1      34.090  29.591  26.847  1.00  0.00     0.001 A 
ATOM     23  C   UNL A   1      31.742  29.085  27.138  1.00  0.00     0.001 A 
ATOM     24  C   UNL A   1      32.800  29.994  27.194  1.00  0.00     0.000 A 
ENDBRANCH  18  19
ENDBRANCH  16  17
ENDBRANCH  15  16
ENDBRANCH  13  15
ENDBRANCH   6  11
ENDBRANCH   1   5
BRANCH   3  25
ATOM     25  C   UNL A   1      35.185  22.110  26.103  1.00  0.00     0.118 C 
BRANCH  25  26
ATOM     26  C   UNL A   1      36.210  23.225  26.075  1.00  0.00     0.042 C 
BRANCH  26  27
ATOM     27  C   UNL A   1      37.325  23.045  25.050  1.00  0.00     0.118 C 
BRANCH  27  28
ATOM     28  N   UNL A   1      38.520  22.362  25.550  1.00  0.00    -0.352 N 
ATOM     29  C   UNL A   1      39.605  22.801  26.277  1.00  0.00     0.251 C 
ATOM     30  H   UNL A   1      38.554  21.405  25.324  1.00  0.00     0.163 HD
ATOM     31  O   UNL A   1      40.578  22.063  26.427  1.00  0.00    -0.269 OA
BRANCH  29  32
ATOM     32  C   UNL A   1      39.631  24.164  26.852  1.00  0.00     0.039 A 
ATOM     33  C   UNL A   1      39.106  24.401  28.127  1.00  0.00     0.014 A 
ATOM     34  C   UNL A   1      40.185  25.219  26.137  1.00  0.00     0.014 A 
ATOM     35  C   UNL A   1      39.272  25.656  28.727  1.00  0.00     0.010 A 
ATOM     36  C   UNL A   1      40.485  26.406  26.782  1.00  0.00     0.010 A 
ATOM     37  C   UNL A   1      40.032  26.645  28.086  1.00  0.00    -0.014 A 
BRANCH  37  38
ATOM     38  C   UNL A   1      40.374  27.948  28.718  1.00  0.00     0.031 A 
ATOM     39  C   UNL A   1      41.695  28.104  29.427  1.00  0.00     0.074 A 
ATOM     40  C   UNL A   1      39.452  28.930  28.784  1.00  0.00     0.049 A 
ATOM     41  N   UNL A   1      42.101  29.061  30.222  1.00  0.00    -0.248 NA
ATOM     42  C   UNL A   1      42.667  27.007  29.266  1.00  0.00     0.031 C 
ATOM     43  C   UNL A   1      38.114  28.889  28.188  1.00  0.00     0.029 A 
ATOM     44  N   UNL A   1      39.496  30.151  29.410  1.00  0.00    -0.354 N 
ATOM     45  C   UNL A   1      43.346  28.657  30.690  1.00  0.00     0.074 A 
ATOM     46  C   UNL A   1      43.601  27.343  30.141  1.00  0.00     0.031 C 
ATOM     47  C   UNL A   1      37.477  30.041  28.455  1.00  0.00     0.029 A 
ATOM     48  C   UNL A   1      38.335  30.878  29.285  1.00  0.00     0.049 A 
ATOM     49  H   UNL A   1      40.284  30.476  29.903  1.00  0.00     0.167 HD
ATOM     50  C   UNL A   1      44.213  29.325  31.486  1.00  0.00     0.031 A 
ATOM     51  C   UNL A   1      37.993  32.076  29.796  1.00  0.00     0.031 A 
ATOM     52  C   UNL A   1      43.977  30.648  31.994  1.00  0.00     0.049 A 
ATOM     53  C   UNL A   1      38.981  32.811  30.661  1.00  0.00     0.074 A 
ATOM     54  C   UNL A   1      44.822  31.450  32.739  1.00  0.00     0.029 A 
ATOM     55  N   UNL A   1      42.808  31.368  31.798  1.00  0.00    -0.354 N 
ATOM     56  N   UNL A   1      40.180  32.443  31.040  1.00  0.00    -0.248 NA
ATOM     57  C   UNL A   1      38.569  34.130  31.160  1.00  0.00     0.031 C 
ATOM     58  C   UNL A   1      44.146  32.637  33.037  1.00  0.00     0.029 A 
ATOM     59  C   UNL A   1      42.903  32.597  32.425  1.00  0.00     0.049 A 
ATOM     60  H   UNL A   1      42.027  31.051  31.289  1.00  0.00     0.167 HD
ATOM     61  C   UNL A   1      40.680  33.498  31.793  1.00  0.00     0.074 A 
ATOM     62  C   UNL A   1      39.658  34.524  31.806  1.00  0.00     0.031 C 
ATOM     63  C   UNL A   1      41.878  33.609  32.416  1.00  0.00     0.031 A 
BRANCH  50  64
ATOM     64  C   UNL A   1      45.499  28.634  31.849  1.00  0.00    -0.014 A 
ATOM     65  C   UNL A   1      46.703  28.931  31.187  1.00  0.00     0.009 A 
ATOM     66  C   UNL A   1      45.515  27.686  32.883  1.00  0.00     0.009 A 
ATOM     67  C   UNL A   1      47.881  28.262  31.521  1.00  0.00     0.001 A 
ATOM     68  C   UNL A   1      46.702  27.043  33.240  1.00  0.00     0.001 A 
ATOM     69  C   UNL A   1      47.881  27.322  32.551  1.00  0.00     0.000 A 
ENDBRANCH  50  64
BRANCH  51  70
ATOM     70  C   UNL A   1      36.665  32.670  29.486  1.00  0.00    -0.014 A 
ATOM     71  C   UNL A   1      35.611  32.568  30.406  1.00  0.00     0.009 A 
ATOM     72  C   UNL A   1      36.440  33.338  28.271  1.00  0.00     0.009 A 
ATOM     73  C   UNL A   1      34.352  33.095  30.106  1.00  0.00     0.001 A 
ATOM     74  C   UNL A   1      35.189  33.892  27.988  1.00  0.00     0.001 A 
ATOM     75  C   UNL A   1      34.144  33.761  28.900  1.00  0.00     0.000 A 
ENDBRANCH  51  70
BRANCH  63  76
ATOM     76  C   UNL A   1      42.174  34.902  33.121  1.00  0.00    -0.014 A 
ATOM     77  C   UNL A   1      41.679  35.165  34.407  1.00  0.00     0.009 A 
ATOM     78  C   UNL A   1      43.012  35.847  32.507  1.00  0.00     0.009 A 
ATOM     79  C   UNL A   1      41.997  36.361  35.052  1.00  0.00     0.001 A 
ATOM     80  C   UNL A   1      43.353  37.027  33.167  1.00  0.00     0.001 A 
ATOM     81  C   UNL A   1      42.838  37.287  34.435  1.00  0.00     0.000 A 
ENDBRANCH  63  76
ENDBRANCH  37  38
ENDBRANCH  29  32
ENDBRANCH  27  28
ENDBRANCH  26  27
ENDBRANCH  25  26
ENDBRANCH   3  25
TORSDOF 15
ENDMDL
MODEL 2
REMARK VINA RESULT:     -10.8      2.231      3.543
REMARK SMILES O=C(CO/N=C\c1ccccc1)Nc1ccccc1C(=O)NCCCNC(=O)c1ccc(-c2c3nc(c(-c4ccccc4)c4ccc([nH]4)c(-c4ccccc4)c4nc(c(-c5ccccc5)c5ccc2[nH]5)C=C4)C=C3)cc1
REMARK SMILES IDX 20 1 21 2 22 3 19 5 14 6 15 7 16 8 18 9 17 10 13 11 1 12
REMARK SMILES IDX 2 13 3 15 4 16 5 17 6 18 7 19 8 20 12 21 9 22 11 23 10 24
REMARK SMILES IDX 23 25 24 26 25 27 26 28 27 29 28 31 29 32 30 33 76 34 31 35
REMARK SMILES IDX 75 36 32 37 33 38 34 39 69 40 35 41 74 42 68 43 70 44 36 45
REMARK SMILES IDX 73 46 67 47 66 48 37 50 59 51 44 52 58 53 45 54 48 55 57 56
REMARK SMILES IDX 71 57 46 58 47 59 56 61 72 62 49 63 38 64 39 65 43 66 40 67
REMARK SMILES IDX 42 68 41 69 60 70 61 71 65 72 62 73 64 74 63 75 50 76 51 77
REMARK SMILES IDX 55 78 52 79 54 80 53 81
REMARK H PARENT 22 4 13 14 26 30 70 49 48 60
REMARK Flexibility Score: inf
ROOT
ATOM      1  C   UNL A   1      34.846  21.384  26.071  1.00  0.00     0.253 C 
ATOM      2  O   UNL A   1      34.270  21.635  27.130  1.00  0.00    -0.269 OA
ATOM      3  N   UNL A   1      36.137  21.844  25.913  1.00  0.00    -0.352 N 
ATOM      4  H   UNL A   1      36.497  22.366  26.666  1.00  0.00     0.163 HD
ENDROOT
BRANCH   1   5
ATOM      5  C   UNL A   1      34.085  20.779  24.938  1.00  0.00     0.063 A 
ATOM      6  C   UNL A   1      33.176  21.422  24.075  1.00  0.00     0.054 A 
ATOM      7  C   UNL A   1      32.294  20.627  23.321  1.00  0.00     0.027 A 
ATOM      8  C   UNL A   1      32.409  19.234  23.302  1.00  0.00     0.002 A 
ATOM      9  C   UNL A   1      34.221  19.375  24.869  1.00  0.00     0.016 A 
ATOM     10  C   UNL A   1      33.401  18.609  24.043  1.00  0.00     0.001 A 
BRANCH   6  11
ATOM     11  N   UNL A   1      33.053  22.818  23.863  1.00  0.00    -0.322 N 
ATOM     12  O   UNL A   1      34.891  23.201  22.505  1.00  0.00    -0.271 OA
ATOM     13  C   UNL A   1      33.948  23.617  23.172  1.00  0.00     0.265 C 
ATOM     14  H   UNL A   1      32.259  23.259  24.241  1.00  0.00     0.170 HD
BRANCH  13  15
ATOM     15  C   UNL A   1      33.739  25.119  23.391  1.00  0.00     0.363 C 
BRANCH  15  16
ATOM     16  O   UNL A   1      32.903  25.464  24.486  1.00  0.00    -0.386 OA
BRANCH  16  17
ATOM     17  N   UNL A   1      31.577  25.472  24.047  1.00  0.00    -0.094 NA
ATOM     18  C   UNL A   1      30.903  26.484  24.503  1.00  0.00     0.162 C 
BRANCH  18  19
ATOM     19  C   UNL A   1      31.367  27.598  25.348  1.00  0.00    -0.004 A 
ATOM     20  C   UNL A   1      31.348  27.401  26.732  1.00  0.00     0.010 A 
ATOM     21  C   UNL A   1      31.717  28.839  24.812  1.00  0.00     0.010 A 
ATOM     22  C   UNL A   1      31.707  28.445  27.585  1.00  0.00     0.001 A 
ATOM     23  C   UNL A   1      32.058  29.886  25.673  1.00  0.00     0.001 A 
ATOM     24  C   UNL A   1      32.057  29.687  27.056  1.00  0.00     0.000 A 
ENDBRANCH  18  19
ENDBRANCH  16  17
ENDBRANCH  15  16
ENDBRANCH  13  15
ENDBRANCH   6  11
ENDBRANCH   1   5
BRANCH   3  25
ATOM     25  C   UNL A   1      37.035  21.666  24.794  1.00  0.00     0.118 C 
BRANCH  25  26
ATOM     26  C   UNL A   1      37.936  20.450  24.857  1.00  0.00     0.042 C 
BRANCH  26  27
ATOM     27  C   UNL A   1      38.882  20.416  26.054  1.00  0.00     0.118 C 
BRANCH  27  28
ATOM     28  N   UNL A   1      40.016  19.498  25.920  1.00  0.00    -0.352 N 
ATOM     29  C   UNL A   1      41.377  19.684  26.017  1.00  0.00     0.251 C 
ATOM     30  H   UNL A   1      39.754  18.570  25.724  1.00  0.00     0.163 HD
ATOM     31  O   UNL A   1      42.142  18.779  25.686  1.00  0.00    -0.269 OA
BRANCH  29  32
ATOM     32  C   UNL A   1      41.935  20.974  26.480  1.00  0.00     0.039 A 
ATOM     33  C   UNL A   1      42.398  21.915  25.554  1.00  0.00     0.014 A 
ATOM     34  C   UNL A   1      41.996  21.267  27.837  1.00  0.00     0.014 A 
ATOM     35  C   UNL A   1      42.780  23.191  25.988  1.00  0.00     0.010 A 
ATOM     36  C   UNL A   1      42.224  22.568  28.251  1.00  0.00     0.010 A 
ATOM     37  C   UNL A   1      42.622  23.551  27.334  1.00  0.00    -0.014 A 
BRANCH  37  38
ATOM     38  C   UNL A   1      42.868  24.926  27.845  1.00  0.00     0.031 A 
ATOM     39  C   UNL A   1      44.245  25.301  28.333  1.00  0.00     0.074 A 
ATOM     40  C   UNL A   1      41.838  25.780  28.009  1.00  0.00     0.049 A 
ATOM     41  N   UNL A   1      44.625  26.354  29.011  1.00  0.00    -0.248 NA
ATOM     42  C   UNL A   1      45.326  24.333  28.074  1.00  0.00     0.031 C 
ATOM     43  C   UNL A   1      40.445  25.524  27.630  1.00  0.00     0.029 A 
ATOM     44  N   UNL A   1      41.802  27.035  28.565  1.00  0.00    -0.354 N 
ATOM     45  C   UNL A   1      45.969  26.148  29.298  1.00  0.00     0.074 A 
ATOM     46  C   UNL A   1      46.322  24.846  28.777  1.00  0.00     0.031 C 
ATOM     47  C   UNL A   1      39.700  26.597  27.940  1.00  0.00     0.029 A 
ATOM     48  C   UNL A   1      40.545  27.593  28.588  1.00  0.00     0.049 A 
ATOM     49  H   UNL A   1      42.600  27.493  28.914  1.00  0.00     0.167 HD
ATOM     50  C   UNL A   1      46.842  26.976  29.919  1.00  0.00     0.031 A 
ATOM     51  C   UNL A   1      40.118  28.767  29.091  1.00  0.00     0.031 A 
ATOM     52  C   UNL A   1      46.500  28.287  30.397  1.00  0.00     0.049 A 
ATOM     53  C   UNL A   1      41.109  29.681  29.758  1.00  0.00     0.074 A 
ATOM     54  C   UNL A   1      47.325  29.241  30.965  1.00  0.00     0.029 A 
ATOM     55  N   UNL A   1      45.226  28.832  30.353  1.00  0.00    -0.354 N 
ATOM     56  N   UNL A   1      42.391  29.500  29.963  1.00  0.00    -0.248 NA
ATOM     57  C   UNL A   1      40.595  30.965  30.254  1.00  0.00     0.031 C 
ATOM     58  C   UNL A   1      46.541  30.345  31.310  1.00  0.00     0.029 A 
ATOM     59  C   UNL A   1      45.239  30.102  30.901  1.00  0.00     0.049 A 
ATOM     60  H   UNL A   1      44.431  28.382  29.986  1.00  0.00     0.167 HD
ATOM     61  C   UNL A   1      42.843  30.659  30.580  1.00  0.00     0.074 A 
ATOM     62  C   UNL A   1      41.700  31.540  30.705  1.00  0.00     0.031 C 
ATOM     63  C   UNL A   1      44.093  30.967  31.004  1.00  0.00     0.031 A 
BRANCH  50  64
ATOM     64  C   UNL A   1      48.251  26.485  30.109  1.00  0.00    -0.014 A 
ATOM     65  C   UNL A   1      49.246  26.724  29.145  1.00  0.00     0.009 A 
ATOM     66  C   UNL A   1      48.598  25.793  31.279  1.00  0.00     0.009 A 
ATOM     67  C   UNL A   1      50.543  26.240  29.328  1.00  0.00     0.001 A 
ATOM     68  C   UNL A   1      49.904  25.340  31.477  1.00  0.00     0.001 A 
ATOM     69  C   UNL A   1      50.872  25.553  30.496  1.00  0.00     0.000 A 
ENDBRANCH  50  64
BRANCH  51  70
ATOM     70  C   UNL A   1      38.689  29.159  28.964  1.00  0.00    -0.014 A 
ATOM     71  C   UNL A   1      38.212  29.721  27.769  1.00  0.00     0.009 A 
ATOM     72  C   UNL A   1      37.794  28.980  30.031  1.00  0.00     0.009 A 
ATOM     73  C   UNL A   1      36.878  30.122  27.655  1.00  0.00     0.001 A 
ATOM     74  C   UNL A   1      36.454  29.354  29.903  1.00  0.00     0.001 A 
ATOM     75  C   UNL A   1      35.999  29.933  28.720  1.00  0.00     0.000 A 
ENDBRANCH  51  70
BRANCH  63  76
ATOM     76  C   UNL A   1      44.305  32.332  31.596  1.00  0.00    -0.014 A 
ATOM     77  C   UNL A   1      44.640  33.434  30.795  1.00  0.00     0.009 A 
ATOM     78  C   UNL A   1      44.105  32.525  32.973  1.00  0.00     0.009 A 
ATOM     79  C   UNL A   1      44.798  34.697  31.367  1.00  0.00     0.001 A 
ATOM     80  C   UNL A   1      44.234  33.795  33.536  1.00  0.00     0.001 A 
ATOM     81  C   UNL A   1      44.589  34.878  32.734  1.00  0.00     0.000 A 
ENDBRANCH  63  76
ENDBRANCH  37  38
ENDBRANCH  29  32
ENDBRANCH  27  28
ENDBRANCH  26  27
ENDBRANCH  25  26
ENDBRANCH   3  25
TORSDOF 15
ENDMDL
MODEL 3
REMARK VINA RESULT:     -10.7      3.244      6.764
REMARK SMILES O=C(CO/N=C\c1ccccc1)Nc1ccccc1C(=O)NCCCNC(=O)c1ccc(-c2c3nc(c(-c4ccccc4)c4ccc([nH]4)c(-c4ccccc4)c4nc(c(-c5ccccc5)c5ccc2[nH]5)C=C4)C=C3)cc1
REMARK SMILES IDX 20 1 21 2 22 3 19 5 14 6 15 7 16 8 18 9 17 10 13 11 1 12
REMARK SMILES IDX 2 13 3 15 4 16 5 17 6 18 7 19 8 20 12 21 9 22 11 23 10 24
REMARK SMILES IDX 23 25 24 26 25 27 26 28 27 29 28 31 29 32 30 33 76 34 31 35
REMARK SMILES IDX 75 36 32 37 33 38 34 39 69 40 35 41 74 42 68 43 70 44 36 45
REMARK SMILES IDX 73 46 67 47 66 48 37 50 59 51 44 52 58 53 45 54 48 55 57 56
REMARK SMILES IDX 71 57 46 58 47 59 56 61 72 62 49 63 38 64 39 65 43 66 40 67
REMARK SMILES IDX 42 68 41 69 60 70 61 71 65 72 62 73 64 74 63 75 50 76 51 77
REMARK SMILES IDX 55 78 52 79 54 80 53 81
REMARK H PARENT 22 4 13 14 26 30 70 49 48 60
REMARK Flexibility Score: inf
ROOT
ATOM      1  C   UNL A   1      33.718  26.422  23.340  1.00  0.00     0.253 C 
ATOM      2  O   UNL A   1      33.900  26.153  22.151  1.00  0.00    -0.269 OA
ATOM      3  N   UNL A   1      33.814  27.744  23.725  1.00  0.00    -0.352 N 
ATOM      4  H   UNL A   1      34.046  28.378  23.010  1.00  0.00     0.163 HD
ENDROOT
BRANCH   1   5
ATOM      5  C   UNL A   1      33.600  25.320  24.340  1.00  0.00     0.063 A 
ATOM      6  C   UNL A   1      32.547  25.094  25.248  1.00  0.00     0.054 A 
ATOM      7  C   UNL A   1      32.780  24.242  26.342  1.00  0.00     0.027 A 
ATOM      8  C   UNL A   1      33.968  23.512  26.455  1.00  0.00     0.002 A 
ATOM      9  C   UNL A   1      34.772  24.538  24.439  1.00  0.00     0.016 A 
ATOM     10  C   UNL A   1      34.948  23.628  25.479  1.00  0.00     0.001 A 
BRANCH   6  11
ATOM     11  N   UNL A   1      31.238  25.631  25.177  1.00  0.00    -0.322 N 
ATOM     12  O   UNL A   1      30.411  24.483  23.340  1.00  0.00    -0.271 OA
ATOM     13  C   UNL A   1      30.299  25.358  24.196  1.00  0.00     0.265 C 
ATOM     14  H   UNL A   1      30.972  26.256  25.888  1.00  0.00     0.170 HD
BRANCH  13  15
ATOM     15  C   UNL A   1      29.113  26.327  24.183  1.00  0.00     0.363 C 
BRANCH  15  16
ATOM     16  O   UNL A   1      29.138  27.307  23.157  1.00  0.00    -0.386 OA
BRANCH  16  17
ATOM     17  N   UNL A   1      30.471  27.608  22.864  1.00  0.00    -0.094 NA
ATOM     18  C   UNL A   1      30.651  28.861  22.573  1.00  0.00     0.162 C 
BRANCH  18  19
ATOM     19  C   UNL A   1      29.668  29.958  22.567  1.00  0.00    -0.004 A 
ATOM     20  C   UNL A   1      29.087  30.289  21.340  1.00  0.00     0.010 A 
ATOM     21  C   UNL A   1      29.393  30.713  23.710  1.00  0.00     0.010 A 
ATOM     22  C   UNL A   1      28.204  31.366  21.258  1.00  0.00     0.001 A 
ATOM     23  C   UNL A   1      28.521  31.802  23.617  1.00  0.00     0.001 A 
ATOM     24  C   UNL A   1      27.926  32.124  22.395  1.00  0.00     0.000 A 
ENDBRANCH  18  19
ENDBRANCH  16  17
ENDBRANCH  15  16
ENDBRANCH  13  15
ENDBRANCH   6  11
ENDBRANCH   1   5
BRANCH   3  25
ATOM     25  C   UNL A   1      33.622  28.324  25.035  1.00  0.00     0.118 C 
BRANCH  25  26
ATOM     26  C   UNL A   1      32.891  29.652  25.068  1.00  0.00     0.042 C 
BRANCH  26  27
ATOM     27  C   UNL A   1      32.231  29.986  26.402  1.00  0.00     0.118 C 
BRANCH  27  28
ATOM     28  N   UNL A   1      32.086  31.417  26.679  1.00  0.00    -0.352 N 
ATOM     29  C   UNL A   1      32.879  32.316  27.357  1.00  0.00     0.251 C 
ATOM     30  H   UNL A   1      31.265  31.812  26.308  1.00  0.00     0.163 HD
ATOM     31  O   UNL A   1      32.451  33.443  27.605  1.00  0.00    -0.269 OA
BRANCH  29  32
ATOM     32  C   UNL A   1      34.231  31.934  27.823  1.00  0.00     0.039 A 
ATOM     33  C   UNL A   1      35.242  32.896  27.918  1.00  0.00     0.014 A 
ATOM     34  C   UNL A   1      34.505  30.620  28.181  1.00  0.00     0.014 A 
ATOM     35  C   UNL A   1      36.469  32.563  28.504  1.00  0.00     0.010 A 
ATOM     36  C   UNL A   1      35.654  30.326  28.897  1.00  0.00     0.010 A 
ATOM     37  C   UNL A   1      36.656  31.292  29.068  1.00  0.00    -0.014 A 
BRANCH  37  38
ATOM     38  C   UNL A   1      37.873  30.909  29.833  1.00  0.00     0.031 A 
ATOM     39  C   UNL A   1      38.875  29.971  29.210  1.00  0.00     0.074 A 
ATOM     40  C   UNL A   1      38.004  31.278  31.122  1.00  0.00     0.049 A 
ATOM     41  N   UNL A   1      39.878  29.341  29.767  1.00  0.00    -0.248 NA
ATOM     42  C   UNL A   1      38.688  29.654  27.783  1.00  0.00     0.031 C 
ATOM     43  C   UNL A   1      37.079  32.139  31.865  1.00  0.00     0.029 A 
ATOM     44  N   UNL A   1      38.963  30.951  32.049  1.00  0.00    -0.354 N 
ATOM     45  C   UNL A   1      40.404  28.522  28.775  1.00  0.00     0.074 A 
ATOM     46  C   UNL A   1      39.574  28.687  27.603  1.00  0.00     0.031 C 
ATOM     47  C   UNL A   1      37.530  32.292  33.120  1.00  0.00     0.029 A 
ATOM     48  C   UNL A   1      38.741  31.499  33.291  1.00  0.00     0.049 A 
ATOM     49  H   UNL A   1      39.737  30.377  31.845  1.00  0.00     0.167 HD
ATOM     50  C   UNL A   1      41.493  27.720  28.823  1.00  0.00     0.031 A 
ATOM     51  C   UNL A   1      39.426  31.363  34.442  1.00  0.00     0.031 A 
ATOM     52  C   UNL A   1      42.342  27.592  29.976  1.00  0.00     0.049 A 
ATOM     53  C   UNL A   1      40.646  30.483  34.468  1.00  0.00     0.074 A 
ATOM     54  C   UNL A   1      43.516  26.873  30.106  1.00  0.00     0.029 A 
ATOM     55  N   UNL A   1      42.108  28.206  31.197  1.00  0.00    -0.354 N 
ATOM     56  N   UNL A   1      41.168  29.767  33.502  1.00  0.00    -0.248 NA
ATOM     57  C   UNL A   1      41.377  30.402  35.740  1.00  0.00     0.031 C 
ATOM     58  C   UNL A   1      43.968  27.013  31.422  1.00  0.00     0.029 A 
ATOM     59  C   UNL A   1      43.107  27.868  32.092  1.00  0.00     0.049 A 
ATOM     60  H   UNL A   1      41.345  28.795  31.396  1.00  0.00     0.167 HD
ATOM     61  C   UNL A   1      42.306  29.178  34.039  1.00  0.00     0.074 A 
ATOM     62  C   UNL A   1      42.403  29.630  35.412  1.00  0.00     0.031 C 
ATOM     63  C   UNL A   1      43.192  28.339  33.450  1.00  0.00     0.031 A 
BRANCH  50  64
ATOM     64  C   UNL A   1      41.829  26.927  27.590  1.00  0.00    -0.014 A 
ATOM     65  C   UNL A   1      42.643  27.460  26.575  1.00  0.00     0.009 A 
ATOM     66  C   UNL A   1      41.343  25.618  27.448  1.00  0.00     0.009 A 
ATOM     67  C   UNL A   1      42.923  26.717  25.427  1.00  0.00     0.001 A 
ATOM     68  C   UNL A   1      41.654  24.864  26.315  1.00  0.00     0.001 A 
ATOM     69  C   UNL A   1      42.433  25.418  25.300  1.00  0.00     0.000 A 
ENDBRANCH  50  64
BRANCH  51  70
ATOM     70  C   UNL A   1      38.991  32.094  35.662  1.00  0.00    -0.014 A 
ATOM     71  C   UNL A   1      39.422  33.410  35.891  1.00  0.00     0.009 A 
ATOM     72  C   UNL A   1      38.149  31.485  36.606  1.00  0.00     0.009 A 
ATOM     73  C   UNL A   1      39.043  34.090  37.051  1.00  0.00     0.001 A 
ATOM     74  C   UNL A   1      37.747  32.179  37.750  1.00  0.00     0.001 A 
ATOM     75  C   UNL A   1      38.202  33.476  37.977  1.00  0.00     0.000 A 
ENDBRANCH  51  70
BRANCH  63  76
ATOM     76  C   UNL A   1      44.372  27.895  34.266  1.00  0.00    -0.014 A 
ATOM     77  C   UNL A   1      44.340  26.710  35.016  1.00  0.00     0.009 A 
ATOM     78  C   UNL A   1      45.556  28.649  34.233  1.00  0.00     0.009 A 
ATOM     79  C   UNL A   1      45.463  26.304  35.739  1.00  0.00     0.001 A 
ATOM     80  C   UNL A   1      46.686  28.224  34.931  1.00  0.00     0.001 A 
ATOM     81  C   UNL A   1      46.636  27.057  35.690  1.00  0.00     0.000 A 
ENDBRANCH  63  76
ENDBRANCH  37  38
ENDBRANCH  29  32
ENDBRANCH  27  28
ENDBRANCH  26  27
ENDBRANCH  25  26
ENDBRANCH   3  25
TORSDOF 15
ENDMDL
