MODEL 1
REMARK VINA RESULT:     -11.4      0.000      0.000
REMARK SMILES CC(C)(C)C[N@H+]1[C@@H](C(=O)NCCCNC(=O)c2ccc(-c3c4nc(c(-c5ccccc5)c5ccc([nH]5)c(-c5ccccc5)c5nc(c(-c6ccccc6)c6ccc3[nH]6)C=C5)C=C4)cc2)CC[C@H]2CCCC[C@@H]21
REMARK SMILES IDX 12 1 11 2 10 3 8 4 9 5 7 7 6 8 72 9 65 11 67 12 71 13 66 14
REMARK SMILES IDX 68 15 70 16 69 17 5 18 2 19 1 20 3 21 4 22 13 23 14 24 15 25
REMARK SMILES IDX 16 27 17 28 18 29 64 30 19 31 63 32 20 33 21 34 22 35 57 36
REMARK SMILES IDX 23 37 62 38 56 39 58 40 24 41 61 42 55 43 54 44 25 46 47 47
REMARK SMILES IDX 32 48 46 49 33 50 36 51 45 52 59 53 34 54 35 55 44 57 60 58
REMARK SMILES IDX 37 59 26 60 27 61 31 62 28 63 30 64 29 65 48 66 49 67 53 68
REMARK SMILES IDX 50 69 52 70 51 71 38 72 39 73 43 74 40 75 42 76 41 77
REMARK H PARENT 10 6 6 10 14 26 58 45 36 56
REMARK Flexibility Score: inf
ROOT
ATOM      1  C   UNL A   1      32.069  27.981  27.281  1.00  0.00     0.042 C 
ENDROOT
BRANCH   1   2
ATOM      2  C   UNL A   1      31.766  26.949  26.182  1.00  0.00     0.118 C 
BRANCH   2   3
ATOM      3  N   UNL A   1      31.383  25.667  26.738  1.00  0.00    -0.351 N 
ATOM      4  C   UNL A   1      31.786  24.386  26.717  1.00  0.00     0.278 C 
ATOM      5  O   UNL A   1      30.968  23.668  27.330  1.00  0.00    -0.268 OA
ATOM      6  H   UNL A   1      30.584  25.765  27.305  1.00  0.00     0.163 HD
BRANCH   4   7
ATOM      7  C   UNL A   1      33.066  23.682  26.186  1.00  0.00     0.274 C 
ATOM      8  N   UNL A   1      34.060  24.288  25.279  1.00  0.00    -0.322 N 
ATOM      9  C   UNL A   1      35.287  23.468  25.144  1.00  0.00     0.187 C 
ATOM     10  H   UNL A   1      34.225  25.132  25.828  1.00  0.00     0.349 HD
ATOM     11  C   UNL A   1      32.689  22.222  25.831  1.00  0.00     0.076 C 
ATOM     12  C   UNL A   1      35.148  21.983  25.556  1.00  0.00     0.048 C 
ATOM     13  C   UNL A   1      36.496  24.021  25.922  1.00  0.00     0.065 C 
ATOM     14  C   UNL A   1      33.799  21.419  25.155  1.00  0.00     0.016 C 
ATOM     15  C   UNL A   1      36.327  21.207  24.964  1.00  0.00     0.010 C 
ATOM     16  C   UNL A   1      37.772  23.255  25.518  1.00  0.00     0.006 C 
ATOM     17  C   UNL A   1      37.637  21.726  25.557  1.00  0.00     0.001 C 
BRANCH   8  18
ATOM     18  C   UNL A   1      33.690  24.962  24.032  1.00  0.00     0.269 C 
BRANCH  18  19
ATOM     19  C   UNL A   1      32.829  24.444  22.825  1.00  0.00     0.011 C 
ATOM     20  C   UNL A   1      33.347  23.147  22.187  1.00  0.00     0.017 C 
ATOM     21  C   UNL A   1      32.927  25.532  21.719  1.00  0.00     0.017 C 
ATOM     22  C   UNL A   1      31.343  24.290  23.168  1.00  0.00     0.017 C 
ENDBRANCH  18  19
ENDBRANCH   8  18
ENDBRANCH   4   7
ENDBRANCH   2   3
ENDBRANCH   1   2
BRANCH   1  23
ATOM     23  C   UNL A   1      33.472  28.590  27.275  1.00  0.00     0.118 C 
BRANCH  23  24
ATOM     24  N   UNL A   1      33.495  29.991  27.653  1.00  0.00    -0.352 N 
ATOM     25  C   UNL A   1      34.482  30.742  28.243  1.00  0.00     0.251 C 
ATOM     26  H   UNL A   1      32.666  30.484  27.454  1.00  0.00     0.163 HD
ATOM     27  O   UNL A   1      34.216  31.895  28.593  1.00  0.00    -0.269 OA
BRANCH  25  28
ATOM     28  C   UNL A   1      35.846  30.211  28.496  1.00  0.00     0.039 A 
ATOM     29  C   UNL A   1      36.764  30.222  27.439  1.00  0.00     0.014 A 
ATOM     30  C   UNL A   1      36.221  29.641  29.716  1.00  0.00     0.014 A 
ATOM     31  C   UNL A   1      38.058  29.719  27.615  1.00  0.00     0.010 A 
ATOM     32  C   UNL A   1      37.533  29.194  29.912  1.00  0.00     0.010 A 
ATOM     33  C   UNL A   1      38.467  29.227  28.865  1.00  0.00    -0.014 A 
BRANCH  33  34
ATOM     34  C   UNL A   1      39.867  28.767  29.083  1.00  0.00     0.031 A 
ATOM     35  C   UNL A   1      40.901  29.684  29.680  1.00  0.00     0.074 A 
ATOM     36  C   UNL A   1      40.228  27.525  28.703  1.00  0.00     0.049 A 
ATOM     37  N   UNL A   1      42.173  29.458  29.910  1.00  0.00    -0.248 NA
ATOM     38  C   UNL A   1      40.455  31.034  30.053  1.00  0.00     0.031 C 
ATOM     39  C   UNL A   1      39.339  26.536  28.087  1.00  0.00     0.029 A 
ATOM     40  N   UNL A   1      41.440  26.881  28.775  1.00  0.00    -0.354 N 
ATOM     41  C   UNL A   1      42.680  30.640  30.438  1.00  0.00     0.074 A 
ATOM     42  C   UNL A   1      41.589  31.591  30.457  1.00  0.00     0.031 C 
ATOM     43  C   UNL A   1      40.030  25.408  27.859  1.00  0.00     0.029 A 
ATOM     44  C   UNL A   1      41.416  25.601  28.274  1.00  0.00     0.049 A 
ATOM     45  H   UNL A   1      42.250  27.297  29.149  1.00  0.00     0.167 HD
ATOM     46  C   UNL A   1      43.934  30.908  30.878  1.00  0.00     0.031 A 
ATOM     47  C   UNL A   1      42.395  24.686  28.153  1.00  0.00     0.031 A 
ATOM     48  C   UNL A   1      45.023  29.967  30.866  1.00  0.00     0.049 A 
ATOM     49  C   UNL A   1      43.782  25.015  28.627  1.00  0.00     0.074 A 
ATOM     50  C   UNL A   1      46.313  30.135  31.344  1.00  0.00     0.029 A 
ATOM     51  N   UNL A   1      44.957  28.685  30.346  1.00  0.00    -0.354 N 
ATOM     52  N   UNL A   1      44.227  26.116  29.182  1.00  0.00    -0.248 NA
ATOM     53  C   UNL A   1      44.802  23.967  28.467  1.00  0.00     0.031 C 
ATOM     54  C   UNL A   1      47.041  28.972  31.063  1.00  0.00     0.029 A 
ATOM     55  C   UNL A   1      46.188  28.061  30.463  1.00  0.00     0.049 A 
ATOM     56  H   UNL A   1      44.153  28.277  29.949  1.00  0.00     0.167 HD
ATOM     57  C   UNL A   1      45.568  25.885  29.460  1.00  0.00     0.074 A 
ATOM     58  C   UNL A   1      45.861  24.534  29.029  1.00  0.00     0.031 C 
ATOM     59  C   UNL A   1      46.474  26.719  30.026  1.00  0.00     0.031 A 
BRANCH  46  60
ATOM     60  C   UNL A   1      44.200  32.293  31.404  1.00  0.00    -0.014 A 
ATOM     61  C   UNL A   1      44.035  32.601  32.764  1.00  0.00     0.009 A 
ATOM     62  C   UNL A   1      44.663  33.292  30.534  1.00  0.00     0.009 A 
ATOM     63  C   UNL A   1      44.288  33.892  33.233  1.00  0.00     0.001 A 
ATOM     64  C   UNL A   1      44.943  34.575  31.011  1.00  0.00     0.001 A 
ATOM     65  C   UNL A   1      44.745  34.876  32.358  1.00  0.00     0.000 A 
ENDBRANCH  46  60
BRANCH  47  66
ATOM     66  C   UNL A   1      42.097  23.355  27.560  1.00  0.00    -0.014 A 
ATOM     67  C   UNL A   1      42.371  23.101  26.208  1.00  0.00     0.009 A 
ATOM     68  C   UNL A   1      41.536  22.335  28.343  1.00  0.00     0.009 A 
ATOM     69  C   UNL A   1      42.067  21.859  25.645  1.00  0.00     0.001 A 
ATOM     70  C   UNL A   1      41.259  21.085  27.786  1.00  0.00     0.001 A 
ATOM     71  C   UNL A   1      41.516  20.851  26.436  1.00  0.00     0.000 A 
ENDBRANCH  47  66
BRANCH  59  72
ATOM     72  C   UNL A   1      47.863  26.184  30.238  1.00  0.00    -0.014 A 
ATOM     73  C   UNL A   1      48.806  26.164  29.198  1.00  0.00     0.009 A 
ATOM     74  C   UNL A   1      48.242  25.719  31.507  1.00  0.00     0.009 A 
ATOM     75  C   UNL A   1      50.088  25.659  29.416  1.00  0.00     0.001 A 
ATOM     76  C   UNL A   1      49.535  25.241  31.730  1.00  0.00     0.001 A 
ATOM     77  C   UNL A   1      50.453  25.203  30.683  1.00  0.00     0.000 A 
ENDBRANCH  59  72
ENDBRANCH  33  34
ENDBRANCH  25  28
ENDBRANCH  23  24
ENDBRANCH   1  23
TORSDOF 12
ENDMDL
MODEL 2
REMARK VINA RESULT:     -11.3      0.265      6.038
REMARK SMILES CC(C)(C)C[N@H+]1[C@@H](C(=O)NCCCNC(=O)c2ccc(-c3c4nc(c(-c5ccccc5)c5ccc([nH]5)c(-c5ccccc5)c5nc(c(-c6ccccc6)c6ccc3[nH]6)C=C5)C=C4)cc2)CC[C@H]2CCCC[C@@H]21
REMARK SMILES IDX 12 1 11 2 10 3 8 4 9 5 7 7 6 8 72 9 65 11 67 12 71 13 66 14
REMARK SMILES IDX 68 15 70 16 69 17 5 18 2 19 1 20 3 21 4 22 13 23 14 24 15 25
REMARK SMILES IDX 16 27 17 28 18 29 64 30 19 31 63 32 20 33 21 34 22 35 57 36
REMARK SMILES IDX 23 37 62 38 56 39 58 40 24 41 61 42 55 43 54 44 25 46 47 47
REMARK SMILES IDX 32 48 46 49 33 50 36 51 45 52 59 53 34 54 35 55 44 57 60 58
REMARK SMILES IDX 37 59 26 60 27 61 31 62 28 63 30 64 29 65 48 66 49 67 53 68
REMARK SMILES IDX 50 69 52 70 51 71 38 72 39 73 43 74 40 75 42 76 41 77
REMARK H PARENT 10 6 6 10 14 26 58 45 36 56
REMARK Flexibility Score: inf
ROOT
ATOM      1  C   UNL A   1      32.107  27.972  27.277  1.00  0.00     0.042 C 
ENDROOT
BRANCH   1   2
ATOM      2  C   UNL A   1      31.784  26.952  26.173  1.00  0.00     0.118 C 
BRANCH   2   3
ATOM      3  N   UNL A   1      31.378  25.674  26.722  1.00  0.00    -0.351 N 
ATOM      4  C   UNL A   1      31.759  24.387  26.694  1.00  0.00     0.278 C 
ATOM      5  O   UNL A   1      30.928  23.680  27.304  1.00  0.00    -0.268 OA
ATOM      6  H   UNL A   1      30.581  25.784  27.289  1.00  0.00     0.163 HD
BRANCH   4   7
ATOM      7  C   UNL A   1      33.026  23.663  26.160  1.00  0.00     0.274 C 
ATOM      8  N   UNL A   1      34.023  24.251  25.245  1.00  0.00    -0.322 N 
ATOM      9  C   UNL A   1      35.238  23.413  25.107  1.00  0.00     0.187 C 
ATOM     10  H   UNL A   1      34.203  25.095  25.789  1.00  0.00     0.349 HD
ATOM     11  C   UNL A   1      32.628  22.205  25.814  1.00  0.00     0.076 C 
ATOM     12  C   UNL A   1      35.081  21.932  25.527  1.00  0.00     0.048 C 
ATOM     13  C   UNL A   1      36.459  23.953  25.875  1.00  0.00     0.065 C 
ATOM     14  C   UNL A   1      33.723  21.385  25.136  1.00  0.00     0.016 C 
ATOM     15  C   UNL A   1      36.246  21.137  24.932  1.00  0.00     0.010 C 
ATOM     16  C   UNL A   1      37.722  23.168  25.469  1.00  0.00     0.006 C 
ATOM     17  C   UNL A   1      37.567  21.641  25.515  1.00  0.00     0.001 C 
BRANCH   8  18
ATOM     18  C   UNL A   1      33.655  24.924  23.997  1.00  0.00     0.269 C 
BRANCH  18  19
ATOM     19  C   UNL A   1      32.765  24.419  22.806  1.00  0.00     0.011 C 
ATOM     20  C   UNL A   1      33.231  23.095  22.182  1.00  0.00     0.017 C 
ATOM     21  C   UNL A   1      32.891  25.486  21.682  1.00  0.00     0.017 C 
ATOM     22  C   UNL A   1      31.278  24.323  23.165  1.00  0.00     0.017 C 
ENDBRANCH  18  19
ENDBRANCH   8  18
ENDBRANCH   4   7
ENDBRANCH   2   3
ENDBRANCH   1   2
BRANCH   1  23
ATOM     23  C   UNL A   1      33.503  28.597  27.240  1.00  0.00     0.118 C 
BRANCH  23  24
ATOM     24  N   UNL A   1      33.521  29.993  27.636  1.00  0.00    -0.352 N 
ATOM     25  C   UNL A   1      34.506  30.741  28.232  1.00  0.00     0.251 C 
ATOM     26  H   UNL A   1      32.689  30.485  27.444  1.00  0.00     0.163 HD
ATOM     27  O   UNL A   1      34.236  31.888  28.598  1.00  0.00    -0.269 OA
BRANCH  25  28
ATOM     28  C   UNL A   1      35.872  30.212  28.477  1.00  0.00     0.039 A 
ATOM     29  C   UNL A   1      36.790  30.244  27.419  1.00  0.00     0.014 A 
ATOM     30  C   UNL A   1      36.251  29.625  29.687  1.00  0.00     0.014 A 
ATOM     31  C   UNL A   1      38.086  29.745  27.587  1.00  0.00     0.010 A 
ATOM     32  C   UNL A   1      37.566  29.180  29.875  1.00  0.00     0.010 A 
ATOM     33  C   UNL A   1      38.499  29.235  28.828  1.00  0.00    -0.014 A 
BRANCH  33  34
ATOM     34  C   UNL A   1      39.901  28.777  29.038  1.00  0.00     0.031 A 
ATOM     35  C   UNL A   1      40.335  27.395  28.630  1.00  0.00     0.074 A 
ATOM     36  C   UNL A   1      40.787  29.596  29.640  1.00  0.00     0.049 A 
ATOM     37  N   UNL A   1      41.506  26.821  28.769  1.00  0.00    -0.248 NA
ATOM     38  C   UNL A   1      39.319  26.539  28.001  1.00  0.00     0.031 C 
ATOM     39  C   UNL A   1      40.500  30.953  30.112  1.00  0.00     0.029 A 
ATOM     40  N   UNL A   1      42.109  29.405  29.963  1.00  0.00    -0.354 N 
ATOM     41  C   UNL A   1      41.363  25.536  28.260  1.00  0.00     0.074 A 
ATOM     42  C   UNL A   1      39.983  25.400  27.846  1.00  0.00     0.031 C 
ATOM     43  C   UNL A   1      41.617  31.478  30.641  1.00  0.00     0.029 A 
ATOM     44  C   UNL A   1      42.687  30.487  30.584  1.00  0.00     0.049 A 
ATOM     45  H   UNL A   1      42.596  28.573  29.767  1.00  0.00     0.167 HD
ATOM     46  C   UNL A   1      42.296  24.560  28.135  1.00  0.00     0.031 A 
ATOM     47  C   UNL A   1      43.932  30.664  31.062  1.00  0.00     0.031 A 
ATOM     48  C   UNL A   1      43.672  24.686  28.540  1.00  0.00     0.049 A 
ATOM     49  C   UNL A   1      44.942  29.558  30.932  1.00  0.00     0.074 A 
ATOM     50  C   UNL A   1      44.700  23.767  28.400  1.00  0.00     0.029 A 
ATOM     51  N   UNL A   1      44.213  25.795  29.170  1.00  0.00    -0.354 N 
ATOM     52  N   UNL A   1      44.805  28.373  30.390  1.00  0.00    -0.248 NA
ATOM     53  C   UNL A   1      46.284  29.822  31.474  1.00  0.00     0.031 C 
ATOM     54  C   UNL A   1      45.850  24.302  28.994  1.00  0.00     0.029 A 
ATOM     55  C   UNL A   1      45.551  25.574  29.451  1.00  0.00     0.049 A 
ATOM     56  H   UNL A   1      43.719  26.619  29.386  1.00  0.00     0.167 HD
ATOM     57  C   UNL A   1      46.047  27.761  30.501  1.00  0.00     0.074 A 
ATOM     58  C   UNL A   1      46.928  28.710  31.147  1.00  0.00     0.031 C 
ATOM     59  C   UNL A   1      46.421  26.521  30.100  1.00  0.00     0.031 A 
BRANCH  46  60
ATOM     60  C   UNL A   1      41.851  23.250  27.541  1.00  0.00    -0.014 A 
ATOM     61  C   UNL A   1      41.993  22.986  26.170  1.00  0.00     0.009 A 
ATOM     62  C   UNL A   1      41.320  22.251  28.372  1.00  0.00     0.009 A 
ATOM     63  C   UNL A   1      41.574  21.764  25.637  1.00  0.00     0.001 A 
ATOM     64  C   UNL A   1      40.928  21.020  27.842  1.00  0.00     0.001 A 
ATOM     65  C   UNL A   1      41.047  20.782  26.473  1.00  0.00     0.000 A 
ENDBRANCH  46  60
BRANCH  47  66
ATOM     66  C   UNL A   1      44.304  31.952  31.705  1.00  0.00    -0.014 A 
ATOM     67  C   UNL A   1      44.126  32.135  33.085  1.00  0.00     0.009 A 
ATOM     68  C   UNL A   1      44.835  33.003  30.943  1.00  0.00     0.009 A 
ATOM     69  C   UNL A   1      44.450  33.355  33.684  1.00  0.00     0.001 A 
ATOM     70  C   UNL A   1      45.185  34.211  31.549  1.00  0.00     0.001 A 
ATOM     71  C   UNL A   1      44.984  34.389  32.917  1.00  0.00     0.000 A 
ENDBRANCH  47  66
BRANCH  59  72
ATOM     72  C   UNL A   1      47.856  26.131  30.322  1.00  0.00    -0.014 A 
ATOM     73  C   UNL A   1      48.788  26.144  29.273  1.00  0.00     0.009 A 
ATOM     74  C   UNL A   1      48.287  25.773  31.610  1.00  0.00     0.009 A 
ATOM     75  C   UNL A   1      50.115  25.773  29.502  1.00  0.00     0.001 A 
ATOM     76  C   UNL A   1      49.621  25.431  31.842  1.00  0.00     0.001 A 
ATOM     77  C   UNL A   1      50.531  25.422  30.786  1.00  0.00     0.000 A 
ENDBRANCH  59  72
ENDBRANCH  33  34
ENDBRANCH  25  28
ENDBRANCH  23  24
ENDBRANCH   1  23
TORSDOF 12
ENDMDL
MODEL 3
REMARK VINA RESULT:     -11.1      2.564      7.864
REMARK SMILES CC(C)(C)C[N@H+]1[C@@H](C(=O)NCCCNC(=O)c2ccc(-c3c4nc(c(-c5ccccc5)c5ccc([nH]5)c(-c5ccccc5)c5nc(c(-c6ccccc6)c6ccc3[nH]6)C=C5)C=C4)cc2)CC[C@H]2CCCC[C@@H]21
REMARK SMILES IDX 12 1 11 2 10 3 8 4 9 5 7 7 6 8 72 9 65 11 67 12 71 13 66 14
REMARK SMILES IDX 68 15 70 16 69 17 5 18 2 19 1 20 3 21 4 22 13 23 14 24 15 25
REMARK SMILES IDX 16 27 17 28 18 29 64 30 19 31 63 32 20 33 21 34 22 35 57 36
REMARK SMILES IDX 23 37 62 38 56 39 58 40 24 41 61 42 55 43 54 44 25 46 47 47
REMARK SMILES IDX 32 48 46 49 33 50 36 51 45 52 59 53 34 54 35 55 44 57 60 58
REMARK SMILES IDX 37 59 26 60 27 61 31 62 28 63 30 64 29 65 48 66 49 67 53 68
REMARK SMILES IDX 50 69 52 70 51 71 38 72 39 73 43 74 40 75 42 76 41 77
REMARK H PARENT 10 6 6 10 14 26 58 45 36 56
REMARK Flexibility Score: inf
ROOT
ATOM      1  C   UNL A   1      36.104  23.011  23.876  1.00  0.00     0.042 C 
ENDROOT
BRANCH   1   2
ATOM      2  C   UNL A   1      34.646  23.487  23.980  1.00  0.00     0.118 C 
BRANCH   2   3
ATOM      3  N   UNL A   1      34.309  24.424  22.928  1.00  0.00    -0.351 N 
ATOM      4  C   UNL A   1      33.730  25.627  22.783  1.00  0.00     0.278 C 
ATOM      5  O   UNL A   1      33.615  25.905  21.569  1.00  0.00    -0.268 OA
ATOM      6  H   UNL A   1      34.592  24.072  22.053  1.00  0.00     0.163 HD
BRANCH   4   7
ATOM      7  C   UNL A   1      33.292  26.726  23.791  1.00  0.00     0.274 C 
ATOM      8  N   UNL A   1      33.231  26.565  25.256  1.00  0.00    -0.322 N 
ATOM      9  C   UNL A   1      33.014  27.849  25.965  1.00  0.00     0.187 C 
ATOM     10  H   UNL A   1      34.183  26.220  25.379  1.00  0.00     0.349 HD
ATOM     11  C   UNL A   1      32.074  27.467  23.182  1.00  0.00     0.076 C 
ATOM     12  C   UNL A   1      32.440  28.999  25.104  1.00  0.00     0.048 C 
ATOM     13  C   UNL A   1      34.277  28.408  26.645  1.00  0.00     0.065 C 
ATOM     14  C   UNL A   1      31.417  28.490  24.106  1.00  0.00     0.016 C 
ATOM     15  C   UNL A   1      31.883  30.072  26.044  1.00  0.00     0.010 C 
ATOM     16  C   UNL A   1      33.900  29.592  27.557  1.00  0.00     0.006 C 
ATOM     17  C   UNL A   1      33.015  30.654  26.890  1.00  0.00     0.001 C 
BRANCH   8  18
ATOM     18  C   UNL A   1      32.554  25.440  25.904  1.00  0.00     0.269 C 
BRANCH  18  19
ATOM     19  C   UNL A   1      31.116  24.856  25.662  1.00  0.00     0.011 C 
ATOM     20  C   UNL A   1      29.976  25.860  25.898  1.00  0.00     0.017 C 
ATOM     21  C   UNL A   1      30.916  23.731  26.717  1.00  0.00     0.017 C 
ATOM     22  C   UNL A   1      30.953  24.209  24.283  1.00  0.00     0.017 C 
ENDBRANCH  18  19
ENDBRANCH   8  18
ENDBRANCH   4   7
ENDBRANCH   2   3
ENDBRANCH   1   2
BRANCH   1  23
ATOM     23  C   UNL A   1      37.087  23.600  24.890  1.00  0.00     0.118 C 
BRANCH  23  24
ATOM     24  N   UNL A   1      38.116  22.664  25.307  1.00  0.00    -0.352 N 
ATOM     25  C   UNL A   1      39.247  22.858  26.061  1.00  0.00     0.251 C 
ATOM     26  H   UNL A   1      37.981  21.740  24.996  1.00  0.00     0.163 HD
ATOM     27  O   UNL A   1      40.050  21.927  26.170  1.00  0.00    -0.269 OA
BRANCH  25  28
ATOM     28  C   UNL A   1      39.551  24.150  26.728  1.00  0.00     0.039 A 
ATOM     29  C   UNL A   1      39.075  24.347  28.030  1.00  0.00     0.014 A 
ATOM     30  C   UNL A   1      40.226  25.192  26.085  1.00  0.00     0.014 A 
ATOM     31  C   UNL A   1      39.317  25.551  28.701  1.00  0.00     0.010 A 
ATOM     32  C   UNL A   1      40.521  26.373  26.777  1.00  0.00     0.010 A 
ATOM     33  C   UNL A   1      40.071  26.567  28.092  1.00  0.00    -0.014 A 
BRANCH  33  34
ATOM     34  C   UNL A   1      40.403  27.818  28.830  1.00  0.00     0.031 A 
ATOM     35  C   UNL A   1      41.721  27.973  29.541  1.00  0.00     0.074 A 
ATOM     36  C   UNL A   1      39.495  28.813  28.899  1.00  0.00     0.049 A 
ATOM     37  N   UNL A   1      42.161  28.979  30.258  1.00  0.00    -0.248 NA
ATOM     38  C   UNL A   1      42.660  26.846  29.451  1.00  0.00     0.031 C 
ATOM     39  C   UNL A   1      38.168  28.792  28.281  1.00  0.00     0.029 A 
ATOM     40  N   UNL A   1      39.551  30.035  29.525  1.00  0.00    -0.354 N 
ATOM     41  C   UNL A   1      43.418  28.601  30.715  1.00  0.00     0.074 A 
ATOM     42  C   UNL A   1      43.653  27.258  30.228  1.00  0.00     0.031 C 
ATOM     43  C   UNL A   1      37.545  29.953  28.539  1.00  0.00     0.029 A 
ATOM     44  C   UNL A   1      38.409  30.785  29.371  1.00  0.00     0.049 A 
ATOM     45  H   UNL A   1      40.334  30.345  30.035  1.00  0.00     0.167 HD
ATOM     46  C   UNL A   1      44.302  29.308  31.460  1.00  0.00     0.031 A 
ATOM     47  C   UNL A   1      38.085  32.001  29.850  1.00  0.00     0.031 A 
ATOM     48  C   UNL A   1      44.079  30.645  31.945  1.00  0.00     0.049 A 
ATOM     49  C   UNL A   1      39.074  32.755  30.693  1.00  0.00     0.074 A 
ATOM     50  C   UNL A   1      44.943  31.458  32.661  1.00  0.00     0.029 A 
ATOM     51  N   UNL A   1      42.908  31.364  31.772  1.00  0.00    -0.354 N 
ATOM     52  N   UNL A   1      40.282  32.406  31.061  1.00  0.00    -0.248 NA
ATOM     53  C   UNL A   1      38.655  34.079  31.179  1.00  0.00     0.031 C 
ATOM     54  C   UNL A   1      44.273  32.649  32.967  1.00  0.00     0.029 A 
ATOM     55  C   UNL A   1      43.014  32.599  32.391  1.00  0.00     0.049 A 
ATOM     56  H   UNL A   1      42.116  31.044  31.282  1.00  0.00     0.167 HD
ATOM     57  C   UNL A   1      40.777  33.475  31.798  1.00  0.00     0.074 A 
ATOM     58  C   UNL A   1      39.745  34.490  31.811  1.00  0.00     0.031 C 
ATOM     59  C   UNL A   1      41.981  33.602  32.406  1.00  0.00     0.031 A 
BRANCH  46  60
ATOM     60  C   UNL A   1      45.603  28.636  31.811  1.00  0.00    -0.014 A 
ATOM     61  C   UNL A   1      45.734  27.865  32.976  1.00  0.00     0.009 A 
ATOM     62  C   UNL A   1      46.700  28.743  30.942  1.00  0.00     0.009 A 
ATOM     63  C   UNL A   1      46.949  27.249  33.285  1.00  0.00     0.001 A 
ATOM     64  C   UNL A   1      47.906  28.102  31.238  1.00  0.00     0.001 A 
ATOM     65  C   UNL A   1      48.032  27.364  32.415  1.00  0.00     0.000 A 
ENDBRANCH  46  60
BRANCH  47  66
ATOM     66  C   UNL A   1      36.758  32.593  29.534  1.00  0.00    -0.014 A 
ATOM     67  C   UNL A   1      35.698  32.492  30.448  1.00  0.00     0.009 A 
ATOM     68  C   UNL A   1      36.545  33.258  28.317  1.00  0.00     0.009 A 
ATOM     69  C   UNL A   1      34.445  33.025  30.139  1.00  0.00     0.001 A 
ATOM     70  C   UNL A   1      35.299  33.816  28.023  1.00  0.00     0.001 A 
ATOM     71  C   UNL A   1      34.248  33.690  28.929  1.00  0.00     0.000 A 
ENDBRANCH  47  66
BRANCH  59  72
ATOM     72  C   UNL A   1      42.260  34.898  33.115  1.00  0.00    -0.014 A 
ATOM     73  C   UNL A   1      43.059  35.894  32.531  1.00  0.00     0.009 A 
ATOM     74  C   UNL A   1      41.689  35.139  34.374  1.00  0.00     0.009 A 
ATOM     75  C   UNL A   1      43.308  37.088  33.209  1.00  0.00     0.001 A 
ATOM     76  C   UNL A   1      41.916  36.346  35.038  1.00  0.00     0.001 A 
ATOM     77  C   UNL A   1      42.733  37.315  34.459  1.00  0.00     0.000 A 
ENDBRANCH  59  72
ENDBRANCH  33  34
ENDBRANCH  25  28
ENDBRANCH  23  24
ENDBRANCH   1  23
TORSDOF 12
ENDMDL
