MODEL 1
REMARK VINA RESULT:     -11.0      0.000      0.000
REMARK SMILES COc1cccc([C@@H](C)[NH+]2CC[NH+](CCC(=O)NCCCNC(=O)c3ccc(-c4c5nc(c(-c6ccccc6)c6ccc([nH]6)c(-c6ccccc6)c6nc(c(-c7ccccc7)c7ccc4[nH]7)C=C6)C=C5)cc3)CC2)c1
REMARK SMILES IDX 16 1 17 2 18 3 15 5 14 6 13 7 10 8 11 9 74 10 12 12 73 13
REMARK SMILES IDX 8 15 9 16 7 17 3 18 4 19 75 20 5 21 6 22 2 23 1 24 19 25
REMARK SMILES IDX 20 26 21 27 22 28 23 29 24 31 25 32 26 33 72 34 27 35 71 36
REMARK SMILES IDX 28 37 29 38 30 39 65 40 31 41 70 42 64 43 66 44 32 45 69 46
REMARK SMILES IDX 63 47 62 48 33 50 55 51 40 52 54 53 41 54 44 55 53 56 67 57
REMARK SMILES IDX 42 58 43 59 52 61 68 62 45 63 34 64 35 65 39 66 36 67 38 68
REMARK SMILES IDX 37 69 56 70 57 71 61 72 58 73 60 74 59 75 46 76 47 77 51 78
REMARK SMILES IDX 48 79 50 80 49 81
REMARK H PARENT 18 4 10 11 13 14 22 30 66 49 44 60
REMARK Flexibility Score: inf
ROOT
ATOM      1  C   UNL A   1      31.443  25.391  26.487  1.00  0.00     0.225 C 
ATOM      2  O   UNL A   1      30.349  24.815  26.576  1.00  0.00    -0.275 OA
ATOM      3  N   UNL A   1      32.459  24.613  26.015  1.00  0.00    -0.356 N 
ATOM      4  H   UNL A   1      32.106  23.752  25.691  1.00  0.00     0.163 HD
ENDROOT
BRANCH   1   5
ATOM      5  C   UNL A   1      31.505  26.889  26.793  1.00  0.00     0.161 C 
BRANCH   5   6
ATOM      6  C   UNL A   1      31.773  27.896  25.625  1.00  0.00     0.272 C 
BRANCH   6   7
ATOM      7  N   UNL A   1      32.988  28.724  25.619  1.00  0.00    -0.325 N 
ATOM      8  N   UNL A   1      33.899  30.565  27.877  1.00  0.00    -0.320 N 
ATOM      9  C   UNL A   1      32.609  30.555  27.223  1.00  0.00     0.325 C 
ATOM     10  C   UNL A   1      34.536  29.243  27.700  1.00  0.00     0.325 C 
ATOM     11  H   UNL A   1      33.784  30.662  28.886  1.00  0.00     0.348 HD
ATOM     12  C   UNL A   1      32.723  30.127  25.759  1.00  0.00     0.324 C 
ATOM     13  C   UNL A   1      34.171  28.366  26.424  1.00  0.00     0.324 C 
ATOM     14  H   UNL A   1      33.292  28.473  24.678  1.00  0.00     0.348 HD
BRANCH   8  15
ATOM     15  C   UNL A   1      34.695  31.801  27.716  1.00  0.00     0.212 C 
ATOM     16  C   UNL A   1      36.210  31.497  27.627  1.00  0.00     0.081 C 
BRANCH  15  17
ATOM     17  C   UNL A   1      34.401  32.931  28.697  1.00  0.00     0.013 A 
ATOM     18  C   UNL A   1      33.305  35.071  29.107  1.00  0.00     0.119 A 
ATOM     19  C   UNL A   1      33.662  35.002  30.453  1.00  0.00     0.046 A 
ATOM     20  C   UNL A   1      33.681  34.042  28.241  1.00  0.00     0.056 A 
ATOM     21  C   UNL A   1      34.407  33.928  30.925  1.00  0.00     0.004 A 
ATOM     22  C   UNL A   1      34.793  32.917  30.043  1.00  0.00     0.010 A 
BRANCH  18  23
ATOM     23  O   UNL A   1      32.588  36.179  28.748  1.00  0.00    -0.497 OA
ATOM     24  C   UNL A   1      33.172  37.432  29.091  1.00  0.00     0.278 C 
ENDBRANCH  18  23
ENDBRANCH  15  17
ENDBRANCH   8  15
ENDBRANCH   6   7
ENDBRANCH   5   6
ENDBRANCH   1   5
BRANCH   3  25
ATOM     25  C   UNL A   1      33.926  24.662  25.841  1.00  0.00     0.117 C 
BRANCH  25  26
ATOM     26  C   UNL A   1      34.447  23.313  25.310  1.00  0.00     0.042 C 
BRANCH  26  27
ATOM     27  C   UNL A   1      35.353  22.473  26.210  1.00  0.00     0.118 C 
BRANCH  27  28
ATOM     28  N   UNL A   1      36.195  21.468  25.581  1.00  0.00    -0.352 N 
ATOM     29  C   UNL A   1      37.580  21.368  25.508  1.00  0.00     0.251 C 
ATOM     30  H   UNL A   1      35.705  20.740  25.135  1.00  0.00     0.163 HD
ATOM     31  O   UNL A   1      38.075  20.402  24.949  1.00  0.00    -0.269 OA
BRANCH  29  32
ATOM     32  C   UNL A   1      38.475  22.433  26.047  1.00  0.00     0.039 A 
ATOM     33  C   UNL A   1      39.628  22.079  26.767  1.00  0.00     0.014 A 
ATOM     34  C   UNL A   1      38.182  23.781  25.872  1.00  0.00     0.014 A 
ATOM     35  C   UNL A   1      40.513  23.069  27.229  1.00  0.00     0.010 A 
ATOM     36  C   UNL A   1      39.114  24.751  26.221  1.00  0.00     0.010 A 
ATOM     37  C   UNL A   1      40.282  24.418  26.926  1.00  0.00    -0.014 A 
BRANCH  37  38
ATOM     38  C   UNL A   1      41.160  25.539  27.368  1.00  0.00     0.031 A 
ATOM     39  C   UNL A   1      40.609  26.540  28.355  1.00  0.00     0.074 A 
ATOM     40  C   UNL A   1      42.363  25.758  26.800  1.00  0.00     0.049 A 
ATOM     41  N   UNL A   1      41.017  27.752  28.635  1.00  0.00    -0.248 NA
ATOM     42  C   UNL A   1      39.386  26.141  29.074  1.00  0.00     0.031 C 
ATOM     43  C   UNL A   1      43.022  24.890  25.823  1.00  0.00     0.029 A 
ATOM     44  N   UNL A   1      43.234  26.810  26.948  1.00  0.00    -0.354 N 
ATOM     45  C   UNL A   1      40.061  28.280  29.496  1.00  0.00     0.074 A 
ATOM     46  C   UNL A   1      39.032  27.277  29.653  1.00  0.00     0.031 C 
ATOM     47  C   UNL A   1      44.199  25.436  25.473  1.00  0.00     0.029 A 
ATOM     48  C   UNL A   1      44.354  26.717  26.155  1.00  0.00     0.049 A 
ATOM     49  H   UNL A   1      43.072  27.561  27.565  1.00  0.00     0.167 HD
ATOM     50  C   UNL A   1      40.047  29.483  30.120  1.00  0.00     0.031 A 
ATOM     51  C   UNL A   1      45.376  27.578  25.982  1.00  0.00     0.031 A 
ATOM     52  C   UNL A   1      41.110  30.445  30.024  1.00  0.00     0.049 A 
ATOM     53  C   UNL A   1      45.363  28.890  26.720  1.00  0.00     0.074 A 
ATOM     54  C   UNL A   1      41.231  31.667  30.662  1.00  0.00     0.029 A 
ATOM     55  N   UNL A   1      42.255  30.274  29.263  1.00  0.00    -0.354 N 
ATOM     56  N   UNL A   1      44.455  29.376  27.532  1.00  0.00    -0.248 NA
ATOM     57  C   UNL A   1      46.524  29.771  26.520  1.00  0.00     0.031 C 
ATOM     58  C   UNL A   1      42.445  32.243  30.273  1.00  0.00     0.029 A 
ATOM     59  C   UNL A   1      43.094  31.362  29.423  1.00  0.00     0.049 A 
ATOM     60  H   UNL A   1      42.443  29.494  28.692  1.00  0.00     0.167 HD
ATOM     61  C   UNL A   1      44.950  30.600  27.966  1.00  0.00     0.074 A 
ATOM     62  C   UNL A   1      46.243  30.776  27.338  1.00  0.00     0.031 C 
ATOM     63  C   UNL A   1      44.385  31.501  28.806  1.00  0.00     0.031 A 
BRANCH  50  64
ATOM     64  C   UNL A   1      38.851  29.808  30.974  1.00  0.00    -0.014 A 
ATOM     65  C   UNL A   1      37.594  30.061  30.400  1.00  0.00     0.009 A 
ATOM     66  C   UNL A   1      38.977  29.850  32.371  1.00  0.00     0.009 A 
ATOM     67  C   UNL A   1      36.503  30.401  31.203  1.00  0.00     0.001 A 
ATOM     68  C   UNL A   1      37.875  30.156  33.174  1.00  0.00     0.001 A 
ATOM     69  C   UNL A   1      36.643  30.445  32.588  1.00  0.00     0.000 A 
ENDBRANCH  50  64
BRANCH  51  70
ATOM     70  C   UNL A   1      46.515  27.227  25.093  1.00  0.00    -0.014 A 
ATOM     71  C   UNL A   1      47.456  26.269  25.503  1.00  0.00     0.009 A 
ATOM     72  C   UNL A   1      46.688  27.856  23.851  1.00  0.00     0.009 A 
ATOM     73  C   UNL A   1      48.562  25.970  24.704  1.00  0.00     0.001 A 
ATOM     74  C   UNL A   1      47.780  27.533  23.040  1.00  0.00     0.001 A 
ATOM     75  C   UNL A   1      48.721  26.599  23.471  1.00  0.00     0.000 A 
ENDBRANCH  51  70
BRANCH  63  76
ATOM     76  C   UNL A   1      45.189  32.724  29.141  1.00  0.00    -0.014 A 
ATOM     77  C   UNL A   1      45.066  33.905  28.394  1.00  0.00     0.009 A 
ATOM     78  C   UNL A   1      46.049  32.702  30.250  1.00  0.00     0.009 A 
ATOM     79  C   UNL A   1      45.814  35.034  28.735  1.00  0.00     0.001 A 
ATOM     80  C   UNL A   1      46.776  33.839  30.604  1.00  0.00     0.001 A 
ATOM     81  C   UNL A   1      46.664  35.001  29.841  1.00  0.00     0.000 A 
ENDBRANCH  63  76
ENDBRANCH  37  38
ENDBRANCH  29  32
ENDBRANCH  27  28
ENDBRANCH  26  27
ENDBRANCH  25  26
ENDBRANCH   3  25
TORSDOF 15
ENDMDL
MODEL 2
REMARK VINA RESULT:     -10.8      2.701      7.940
REMARK SMILES COc1cccc([C@@H](C)[NH+]2CC[NH+](CCC(=O)NCCCNC(=O)c3ccc(-c4c5nc(c(-c6ccccc6)c6ccc([nH]6)c(-c6ccccc6)c6nc(c(-c7ccccc7)c7ccc4[nH]7)C=C6)C=C5)cc3)CC2)c1
REMARK SMILES IDX 16 1 17 2 18 3 15 5 14 6 13 7 10 8 11 9 74 10 12 12 73 13
REMARK SMILES IDX 8 15 9 16 7 17 3 18 4 19 75 20 5 21 6 22 2 23 1 24 19 25
REMARK SMILES IDX 20 26 21 27 22 28 23 29 24 31 25 32 26 33 72 34 27 35 71 36
REMARK SMILES IDX 28 37 29 38 30 39 65 40 31 41 70 42 64 43 66 44 32 45 69 46
REMARK SMILES IDX 63 47 62 48 33 50 55 51 40 52 54 53 41 54 44 55 53 56 67 57
REMARK SMILES IDX 42 58 43 59 52 61 68 62 45 63 34 64 35 65 39 66 36 67 38 68
REMARK SMILES IDX 37 69 56 70 57 71 61 72 58 73 60 74 59 75 46 76 47 77 51 78
REMARK SMILES IDX 48 79 50 80 49 81
REMARK H PARENT 18 4 10 11 13 14 22 30 66 49 44 60
REMARK Flexibility Score: inf
ROOT
ATOM      1  C   UNL A   1      30.884  28.831  22.622  1.00  0.00     0.225 C 
ATOM      2  O   UNL A   1      30.240  29.622  21.918  1.00  0.00    -0.275 OA
ATOM      3  N   UNL A   1      31.847  29.410  23.395  1.00  0.00    -0.356 N 
ATOM      4  H   UNL A   1      31.766  30.391  23.360  1.00  0.00     0.163 HD
ENDROOT
BRANCH   1   5
ATOM      5  C   UNL A   1      30.465  27.359  22.634  1.00  0.00     0.161 C 
BRANCH   5   6
ATOM      6  C   UNL A   1      31.424  26.288  22.014  1.00  0.00     0.272 C 
BRANCH   6   7
ATOM      7  N   UNL A   1      32.363  25.546  22.868  1.00  0.00    -0.325 N 
ATOM      8  N   UNL A   1      31.736  22.974  24.389  1.00  0.00    -0.320 N 
ATOM      9  C   UNL A   1      31.003  24.220  24.438  1.00  0.00     0.325 C 
ATOM     10  C   UNL A   1      32.501  22.917  23.126  1.00  0.00     0.325 C 
ATOM     11  H   UNL A   1      31.092  22.186  24.337  1.00  0.00     0.348 HD
ATOM     12  C   UNL A   1      31.923  25.424  24.228  1.00  0.00     0.324 C 
ATOM     13  C   UNL A   1      32.963  24.272  22.432  1.00  0.00     0.324 C 
ATOM     14  H   UNL A   1      33.146  26.192  22.764  1.00  0.00     0.348 HD
BRANCH   8  15
ATOM     15  C   UNL A   1      32.365  22.546  25.658  1.00  0.00     0.212 C 
ATOM     16  C   UNL A   1      31.781  23.309  26.871  1.00  0.00     0.081 C 
BRANCH  15  17
ATOM     17  C   UNL A   1      33.889  22.519  25.685  1.00  0.00     0.013 A 
ATOM     18  C   UNL A   1      35.934  21.236  25.338  1.00  0.00     0.119 A 
ATOM     19  C   UNL A   1      36.697  22.384  25.551  1.00  0.00     0.046 A 
ATOM     20  C   UNL A   1      34.542  21.310  25.412  1.00  0.00     0.056 A 
ATOM     21  C   UNL A   1      36.077  23.588  25.858  1.00  0.00     0.004 A 
ATOM     22  C   UNL A   1      34.685  23.643  25.950  1.00  0.00     0.010 A 
BRANCH  18  23
ATOM     23  O   UNL A   1      36.649  20.103  25.060  1.00  0.00    -0.497 OA
ATOM     24  C   UNL A   1      38.064  20.254  25.035  1.00  0.00     0.278 C 
ENDBRANCH  18  23
ENDBRANCH  15  17
ENDBRANCH   8  15
ENDBRANCH   6   7
ENDBRANCH   5   6
ENDBRANCH   1   5
BRANCH   3  25
ATOM     25  C   UNL A   1      32.974  29.020  24.268  1.00  0.00     0.117 C 
BRANCH  25  26
ATOM     26  C   UNL A   1      32.555  29.096  25.748  1.00  0.00     0.042 C 
BRANCH  26  27
ATOM     27  C   UNL A   1      33.643  29.247  26.811  1.00  0.00     0.118 C 
BRANCH  27  28
ATOM     28  N   UNL A   1      33.624  30.439  27.643  1.00  0.00    -0.352 N 
ATOM     29  C   UNL A   1      34.628  31.021  28.410  1.00  0.00     0.251 C 
ATOM     30  H   UNL A   1      32.760  30.911  27.667  1.00  0.00     0.163 HD
ATOM     31  O   UNL A   1      34.389  32.057  29.009  1.00  0.00    -0.269 OA
BRANCH  29  32
ATOM     32  C   UNL A   1      35.969  30.386  28.561  1.00  0.00     0.039 A 
ATOM     33  C   UNL A   1      36.887  30.430  27.500  1.00  0.00     0.014 A 
ATOM     34  C   UNL A   1      36.329  29.726  29.732  1.00  0.00     0.014 A 
ATOM     35  C   UNL A   1      38.177  29.890  27.648  1.00  0.00     0.010 A 
ATOM     36  C   UNL A   1      37.639  29.301  29.921  1.00  0.00     0.010 A 
ATOM     37  C   UNL A   1      38.578  29.352  28.878  1.00  0.00    -0.014 A 
BRANCH  37  38
ATOM     38  C   UNL A   1      39.922  28.758  29.135  1.00  0.00     0.031 A 
ATOM     39  C   UNL A   1      41.015  29.651  29.671  1.00  0.00     0.074 A 
ATOM     40  C   UNL A   1      40.216  27.496  28.764  1.00  0.00     0.049 A 
ATOM     41  N   UNL A   1      42.313  29.483  29.661  1.00  0.00    -0.248 NA
ATOM     42  C   UNL A   1      40.584  30.944  30.231  1.00  0.00     0.031 C 
ATOM     43  C   UNL A   1      39.272  26.518  28.220  1.00  0.00     0.029 A 
ATOM     44  N   UNL A   1      41.418  26.830  28.764  1.00  0.00    -0.354 N 
ATOM     45  C   UNL A   1      42.849  30.675  30.139  1.00  0.00     0.074 A 
ATOM     46  C   UNL A   1      41.740  31.571  30.383  1.00  0.00     0.031 C 
ATOM     47  C   UNL A   1      39.927  25.375  27.955  1.00  0.00     0.029 A 
ATOM     48  C   UNL A   1      41.343  25.554  28.255  1.00  0.00     0.049 A 
ATOM     49  H   UNL A   1      42.255  27.229  29.096  1.00  0.00     0.167 HD
ATOM     50  C   UNL A   1      44.144  30.993  30.376  1.00  0.00     0.031 A 
ATOM     51  C   UNL A   1      42.312  24.643  28.037  1.00  0.00     0.031 A 
ATOM     52  C   UNL A   1      45.236  30.075  30.209  1.00  0.00     0.049 A 
ATOM     53  C   UNL A   1      43.741  25.001  28.350  1.00  0.00     0.074 A 
ATOM     54  C   UNL A   1      46.580  30.268  30.479  1.00  0.00     0.029 A 
ATOM     55  N   UNL A   1      45.101  28.772  29.758  1.00  0.00    -0.354 N 
ATOM     56  N   UNL A   1      44.233  26.130  28.802  1.00  0.00    -0.248 NA
ATOM     57  C   UNL A   1      44.748  23.953  28.126  1.00  0.00     0.031 C 
ATOM     58  C   UNL A   1      47.260  29.084  30.175  1.00  0.00     0.029 A 
ATOM     59  C   UNL A   1      46.333  28.144  29.752  1.00  0.00     0.049 A 
ATOM     60  H   UNL A   1      44.253  28.354  29.481  1.00  0.00     0.167 HD
ATOM     61  C   UNL A   1      45.598  25.916  28.950  1.00  0.00     0.074 A 
ATOM     62  C   UNL A   1      45.854  24.547  28.552  1.00  0.00     0.031 C 
ATOM     63  C   UNL A   1      46.557  26.775  29.374  1.00  0.00     0.031 A 
BRANCH  50  64
ATOM     64  C   UNL A   1      44.439  32.387  30.861  1.00  0.00    -0.014 A 
ATOM     65  C   UNL A   1      44.491  32.685  32.233  1.00  0.00     0.009 A 
ATOM     66  C   UNL A   1      44.680  33.415  29.937  1.00  0.00     0.009 A 
ATOM     67  C   UNL A   1      44.726  33.991  32.668  1.00  0.00     0.001 A 
ATOM     68  C   UNL A   1      44.950  34.715  30.375  1.00  0.00     0.001 A 
ATOM     69  C   UNL A   1      44.959  35.004  31.739  1.00  0.00     0.000 A 
ENDBRANCH  50  64
BRANCH  51  70
ATOM     70  C   UNL A   1      41.973  23.292  27.516  1.00  0.00    -0.014 A 
ATOM     71  C   UNL A   1      41.377  22.344  28.363  1.00  0.00     0.009 A 
ATOM     72  C   UNL A   1      42.261  22.930  26.192  1.00  0.00     0.009 A 
ATOM     73  C   UNL A   1      41.104  21.053  27.904  1.00  0.00     0.001 A 
ATOM     74  C   UNL A   1      41.960  21.647  25.727  1.00  0.00     0.001 A 
ATOM     75  C   UNL A   1      41.392  20.707  26.586  1.00  0.00     0.000 A 
ENDBRANCH  51  70
BRANCH  63  76
ATOM     76  C   UNL A   1      47.955  26.240  29.487  1.00  0.00    -0.014 A 
ATOM     77  C   UNL A   1      48.805  26.180  28.373  1.00  0.00     0.009 A 
ATOM     78  C   UNL A   1      48.439  25.832  30.740  1.00  0.00     0.009 A 
ATOM     79  C   UNL A   1      50.107  25.693  28.508  1.00  0.00     0.001 A 
ATOM     80  C   UNL A   1      49.747  25.370  30.877  1.00  0.00     0.001 A 
ATOM     81  C   UNL A   1      50.578  25.293  29.759  1.00  0.00     0.000 A 
ENDBRANCH  63  76
ENDBRANCH  37  38
ENDBRANCH  29  32
ENDBRANCH  27  28
ENDBRANCH  26  27
ENDBRANCH  25  26
ENDBRANCH   3  25
TORSDOF 15
ENDMDL
MODEL 3
REMARK VINA RESULT:     -10.8      3.345      8.271
REMARK SMILES COc1cccc([C@@H](C)[NH+]2CC[NH+](CCC(=O)NCCCNC(=O)c3ccc(-c4c5nc(c(-c6ccccc6)c6ccc([nH]6)c(-c6ccccc6)c6nc(c(-c7ccccc7)c7ccc4[nH]7)C=C6)C=C5)cc3)CC2)c1
REMARK SMILES IDX 16 1 17 2 18 3 15 5 14 6 13 7 10 8 11 9 74 10 12 12 73 13
REMARK SMILES IDX 8 15 9 16 7 17 3 18 4 19 75 20 5 21 6 22 2 23 1 24 19 25
REMARK SMILES IDX 20 26 21 27 22 28 23 29 24 31 25 32 26 33 72 34 27 35 71 36
REMARK SMILES IDX 28 37 29 38 30 39 65 40 31 41 70 42 64 43 66 44 32 45 69 46
REMARK SMILES IDX 63 47 62 48 33 50 55 51 40 52 54 53 41 54 44 55 53 56 67 57
REMARK SMILES IDX 42 58 43 59 52 61 68 62 45 63 34 64 35 65 39 66 36 67 38 68
REMARK SMILES IDX 37 69 56 70 57 71 61 72 58 73 60 74 59 75 46 76 47 77 51 78
REMARK SMILES IDX 48 79 50 80 49 81
REMARK H PARENT 18 4 10 11 13 14 22 30 66 49 44 60
REMARK Flexibility Score: inf
ROOT
ATOM      1  C   UNL A   1      39.678  21.901  26.427  1.00  0.00     0.225 C 
ATOM      2  O   UNL A   1      39.204  22.708  27.239  1.00  0.00    -0.275 OA
ATOM      3  N   UNL A   1      41.024  21.710  26.535  1.00  0.00    -0.356 N 
ATOM      4  H   UNL A   1      41.366  22.151  27.347  1.00  0.00     0.163 HD
ENDROOT
BRANCH   1   5
ATOM      5  C   UNL A   1      38.719  21.148  25.503  1.00  0.00     0.161 C 
BRANCH   5   6
ATOM      6  C   UNL A   1      37.410  21.857  25.019  1.00  0.00     0.272 C 
BRANCH   6   7
ATOM      7  N   UNL A   1      36.346  22.190  25.976  1.00  0.00    -0.325 N 
ATOM      8  N   UNL A   1      33.759  23.671  25.321  1.00  0.00    -0.320 N 
ATOM      9  C   UNL A   1      35.109  24.100  25.032  1.00  0.00     0.325 C 
ATOM     10  C   UNL A   1      33.747  22.202  25.485  1.00  0.00     0.325 C 
ATOM     11  H   UNL A   1      33.153  23.845  24.519  1.00  0.00     0.348 HD
ATOM     12  C   UNL A   1      36.097  23.598  26.087  1.00  0.00     0.324 C 
ATOM     13  C   UNL A   1      35.063  21.464  25.989  1.00  0.00     0.324 C 
ATOM     14  H   UNL A   1      36.811  21.807  26.800  1.00  0.00     0.348 HD
BRANCH   8  15
ATOM     15  C   UNL A   1      32.994  24.528  26.252  1.00  0.00     0.212 C 
ATOM     16  C   UNL A   1      31.785  23.777  26.858  1.00  0.00     0.081 C 
BRANCH  15  17
ATOM     17  C   UNL A   1      32.604  25.909  25.738  1.00  0.00     0.013 A 
ATOM     18  C   UNL A   1      31.071  27.253  24.399  1.00  0.00     0.119 A 
ATOM     19  C   UNL A   1      31.694  28.419  24.845  1.00  0.00     0.046 A 
ATOM     20  C   UNL A   1      31.533  26.012  24.841  1.00  0.00     0.056 A 
ATOM     21  C   UNL A   1      32.781  28.344  25.707  1.00  0.00     0.004 A 
ATOM     22  C   UNL A   1      33.245  27.096  26.125  1.00  0.00     0.010 A 
BRANCH  18  23
ATOM     23  O   UNL A   1      30.023  27.443  23.541  1.00  0.00    -0.497 OA
ATOM     24  C   UNL A   1      30.274  28.308  22.438  1.00  0.00     0.278 C 
ENDBRANCH  18  23
ENDBRANCH  15  17
ENDBRANCH   8  15
ENDBRANCH   6   7
ENDBRANCH   5   6
ENDBRANCH   1   5
BRANCH   3  25
ATOM     25  C   UNL A   1      42.128  21.046  25.810  1.00  0.00     0.117 C 
BRANCH  25  26
ATOM     26  C   UNL A   1      42.013  19.515  25.948  1.00  0.00     0.042 C 
BRANCH  26  27
ATOM     27  C   UNL A   1      43.285  18.705  26.196  1.00  0.00     0.118 C 
BRANCH  27  28
ATOM     28  N   UNL A   1      44.133  18.400  25.055  1.00  0.00    -0.352 N 
ATOM     29  C   UNL A   1      44.982  19.219  24.317  1.00  0.00     0.251 C 
ATOM     30  H   UNL A   1      44.101  17.463  24.756  1.00  0.00     0.163 HD
ATOM     31  O   UNL A   1      45.632  18.731  23.407  1.00  0.00    -0.269 OA
BRANCH  29  32
ATOM     32  C   UNL A   1      45.078  20.686  24.574  1.00  0.00     0.039 A 
ATOM     33  C   UNL A   1      44.599  21.595  23.618  1.00  0.00     0.014 A 
ATOM     34  C   UNL A   1      45.654  21.180  25.740  1.00  0.00     0.014 A 
ATOM     35  C   UNL A   1      44.627  22.978  23.871  1.00  0.00     0.010 A 
ATOM     36  C   UNL A   1      45.572  22.534  26.042  1.00  0.00     0.010 A 
ATOM     37  C   UNL A   1      45.081  23.460  25.106  1.00  0.00    -0.014 A 
BRANCH  37  38
ATOM     38  C   UNL A   1      45.148  24.904  25.471  1.00  0.00     0.031 A 
ATOM     39  C   UNL A   1      46.483  25.607  25.389  1.00  0.00     0.074 A 
ATOM     40  C   UNL A   1      44.090  25.546  26.005  1.00  0.00     0.049 A 
ATOM     41  N   UNL A   1      46.878  26.721  25.951  1.00  0.00    -0.248 NA
ATOM     42  C   UNL A   1      47.537  24.917  24.624  1.00  0.00     0.031 C 
ATOM     43  C   UNL A   1      42.742  24.996  26.162  1.00  0.00     0.029 A 
ATOM     44  N   UNL A   1      43.999  26.805  26.548  1.00  0.00    -0.354 N 
ATOM     45  C   UNL A   1      48.236  26.821  25.671  1.00  0.00     0.074 A 
ATOM     46  C   UNL A   1      48.606  25.633  24.933  1.00  0.00     0.031 C 
ATOM     47  C   UNL A   1      41.956  25.919  26.743  1.00  0.00     0.029 A 
ATOM     48  C   UNL A   1      42.755  27.100  27.053  1.00  0.00     0.049 A 
ATOM     49  H   UNL A   1      44.755  27.437  26.573  1.00  0.00     0.167 HD
ATOM     50  C   UNL A   1      49.099  27.819  25.979  1.00  0.00     0.031 A 
ATOM     51  C   UNL A   1      42.316  28.192  27.710  1.00  0.00     0.031 A 
ATOM     52  C   UNL A   1      48.713  29.033  26.643  1.00  0.00     0.049 A 
ATOM     53  C   UNL A   1      43.281  29.310  28.003  1.00  0.00     0.074 A 
ATOM     54  C   UNL A   1      49.489  30.138  26.948  1.00  0.00     0.029 A 
ATOM     55  N   UNL A   1      47.426  29.315  27.072  1.00  0.00    -0.354 N 
ATOM     56  N   UNL A   1      44.562  29.393  27.732  1.00  0.00    -0.248 NA
ATOM     57  C   UNL A   1      42.735  30.491  28.689  1.00  0.00     0.031 C 
ATOM     58  C   UNL A   1      48.672  31.083  27.579  1.00  0.00     0.029 A 
ATOM     59  C   UNL A   1      47.381  30.580  27.630  1.00  0.00     0.049 A 
ATOM     60  H   UNL A   1      46.657  28.705  26.993  1.00  0.00     0.167 HD
ATOM     61  C   UNL A   1      44.965  30.644  28.181  1.00  0.00     0.074 A 
ATOM     62  C   UNL A   1      43.791  31.291  28.731  1.00  0.00     0.031 C 
ATOM     63  C   UNL A   1      46.197  31.209  28.148  1.00  0.00     0.031 A 
BRANCH  50  64
ATOM     64  C   UNL A   1      50.539  27.639  25.581  1.00  0.00    -0.014 A 
ATOM     65  C   UNL A   1      51.005  28.063  24.324  1.00  0.00     0.009 A 
ATOM     66  C   UNL A   1      51.447  27.051  26.474  1.00  0.00     0.009 A 
ATOM     67  C   UNL A   1      52.335  27.853  23.953  1.00  0.00     0.001 A 
ATOM     68  C   UNL A   1      52.786  26.874  26.113  1.00  0.00     0.001 A 
ATOM     69  C   UNL A   1      53.225  27.263  24.848  1.00  0.00     0.000 A 
ENDBRANCH  50  64
BRANCH  51  70
ATOM     70  C   UNL A   1      40.891  28.303  28.121  1.00  0.00    -0.014 A 
ATOM     71  C   UNL A   1      39.971  28.964  27.290  1.00  0.00     0.009 A 
ATOM     72  C   UNL A   1      40.444  27.779  29.343  1.00  0.00     0.009 A 
ATOM     73  C   UNL A   1      38.642  29.126  27.688  1.00  0.00     0.001 A 
ATOM     74  C   UNL A   1      39.106  27.917  29.725  1.00  0.00     0.001 A 
ATOM     75  C   UNL A   1      38.209  28.598  28.903  1.00  0.00     0.000 A 
ENDBRANCH  51  70
BRANCH  63  76
ATOM     76  C   UNL A   1      46.321  32.614  28.662  1.00  0.00    -0.014 A 
ATOM     77  C   UNL A   1      46.642  32.874  30.002  1.00  0.00     0.009 A 
ATOM     78  C   UNL A   1      46.157  33.690  27.776  1.00  0.00     0.009 A 
ATOM     79  C   UNL A   1      46.767  34.191  30.452  1.00  0.00     0.001 A 
ATOM     80  C   UNL A   1      46.307  35.003  28.222  1.00  0.00     0.001 A 
ATOM     81  C   UNL A   1      46.604  35.252  29.562  1.00  0.00     0.000 A 
ENDBRANCH  63  76
ENDBRANCH  37  38
ENDBRANCH  29  32
ENDBRANCH  27  28
ENDBRANCH  26  27
ENDBRANCH  25  26
ENDBRANCH   3  25
TORSDOF 15
ENDMDL
