MODEL 1
REMARK VINA RESULT:     -10.2      0.000      0.000
REMARK SMILES C#CC[N@@H+](CC(=O)NCCCNC(=O)c1ccc(-c2c3nc(c(-c4ccccc4)c4ccc([nH]4)c(-c4ccccc4)c4nc(c(-c5ccccc5)c5ccc2[nH]5)C=C4)C=C3)cc1)CC(=O)NC(=O)NC
REMARK SMILES IDX 9 1 8 2 6 3 7 4 5 6 4 7 3 9 2 10 1 11 63 12 64 13 65 14
REMARK SMILES IDX 66 15 67 16 68 18 69 19 70 20 10 22 11 23 12 24 13 25 14 27
REMARK SMILES IDX 15 28 16 29 62 30 17 31 61 32 18 33 19 34 20 35 55 36 21 37
REMARK SMILES IDX 60 38 54 39 56 40 22 41 59 42 53 43 52 44 23 46 45 47 30 48
REMARK SMILES IDX 44 49 31 50 34 51 43 52 57 53 32 54 33 55 42 57 58 58 35 59
REMARK SMILES IDX 24 60 25 61 29 62 26 63 28 64 27 65 46 66 47 67 51 68 48 69
REMARK SMILES IDX 50 70 49 71 36 72 37 73 41 74 38 75 40 76 39 77
REMARK H PARENT 8 5 4 8 66 17 69 21 12 26 56 45 34 56
REMARK Flexibility Score: inf
ROOT
ATOM      1  C   UNL A   1      36.465  20.987  24.872  1.00  0.00     0.118 C 
ENDROOT
BRANCH   1   2
ATOM      2  N   UNL A   1      35.770  21.294  26.117  1.00  0.00    -0.351 N 
ATOM      3  C   UNL A   1      34.813  22.192  26.484  1.00  0.00     0.275 C 
ATOM      4  O   UNL A   1      34.301  21.996  27.590  1.00  0.00    -0.269 OA
ATOM      5  H   UNL A   1      36.058  20.721  26.864  1.00  0.00     0.163 HD
BRANCH   3   6
ATOM      6  C   UNL A   1      34.336  23.375  25.612  1.00  0.00     0.364 C 
BRANCH   6   7
ATOM      7  N   UNL A   1      33.608  23.040  24.350  1.00  0.00    -0.309 N 
ATOM      8  H   UNL A   1      33.935  22.114  24.074  1.00  0.00     0.349 HD
BRANCH   7   9
ATOM      9  C   UNL A   1      33.943  24.037  23.370  1.00  0.00     0.354 C 
BRANCH   9  10
ATOM     10  C   UNL A   1      33.800  25.525  23.649  1.00  0.00    -0.047 C 
ATOM     11  C   UNL A   1      33.678  26.801  23.888  1.00  0.00     0.010 C 
ENDBRANCH   9  10
ENDBRANCH   7   9
BRANCH   7  12
ATOM     12  C   UNL A   1      32.160  22.779  24.437  1.00  0.00     0.365 C 
BRANCH  12  13
ATOM     13  C   UNL A   1      31.663  21.767  25.449  1.00  0.00     0.283 C 
ATOM     14  O   UNL A   1      31.784  20.555  25.235  1.00  0.00    -0.268 OA
ATOM     15  N   UNL A   1      31.131  22.191  26.656  1.00  0.00    -0.273 N 
ATOM     16  C   UNL A   1      30.101  23.035  26.937  1.00  0.00     0.321 C 
ATOM     17  H   UNL A   1      31.577  21.814  27.449  1.00  0.00     0.175 HD
ATOM     18  O   UNL A   1      29.136  22.617  27.581  1.00  0.00    -0.248 OA
ATOM     19  N   UNL A   1      30.098  24.332  26.583  1.00  0.00    -0.341 N 
ATOM     20  C   UNL A   1      31.173  25.244  26.288  1.00  0.00     0.144 C 
ATOM     21  H   UNL A   1      29.199  24.730  26.511  1.00  0.00     0.165 HD
ENDBRANCH  12  13
ENDBRANCH   7  12
ENDBRANCH   6   7
ENDBRANCH   3   6
ENDBRANCH   1   2
BRANCH   1  22
ATOM     22  C   UNL A   1      37.650  20.014  25.009  1.00  0.00     0.042 C 
BRANCH  22  23
ATOM     23  C   UNL A   1      38.899  20.572  25.690  1.00  0.00     0.118 C 
BRANCH  23  24
ATOM     24  N   UNL A   1      39.904  19.539  25.864  1.00  0.00    -0.352 N 
ATOM     25  C   UNL A   1      41.253  19.682  26.081  1.00  0.00     0.251 C 
ATOM     26  H   UNL A   1      39.576  18.613  25.820  1.00  0.00     0.163 HD
ATOM     27  O   UNL A   1      42.006  18.738  25.860  1.00  0.00    -0.269 OA
BRANCH  25  28
ATOM     28  C   UNL A   1      41.814  20.957  26.591  1.00  0.00     0.039 A 
ATOM     29  C   UNL A   1      41.807  21.196  27.969  1.00  0.00     0.014 A 
ATOM     30  C   UNL A   1      42.240  21.962  25.716  1.00  0.00     0.014 A 
ATOM     31  C   UNL A   1      42.233  22.432  28.470  1.00  0.00     0.010 A 
ATOM     32  C   UNL A   1      42.713  23.176  26.219  1.00  0.00     0.010 A 
ATOM     33  C   UNL A   1      42.688  23.434  27.599  1.00  0.00    -0.014 A 
BRANCH  33  34
ATOM     34  C   UNL A   1      43.077  24.777  28.108  1.00  0.00     0.031 A 
ATOM     35  C   UNL A   1      42.019  25.819  28.366  1.00  0.00     0.074 A 
ATOM     36  C   UNL A   1      44.374  25.082  28.297  1.00  0.00     0.049 A 
ATOM     37  N   UNL A   1      42.161  27.064  28.753  1.00  0.00    -0.248 NA
ATOM     38  C   UNL A   1      40.622  25.420  28.133  1.00  0.00     0.031 C 
ATOM     39  C   UNL A   1      45.503  24.183  28.051  1.00  0.00     0.029 A 
ATOM     40  N   UNL A   1      44.964  26.245  28.728  1.00  0.00    -0.354 N 
ATOM     41  C   UNL A   1      40.879  27.601  28.774  1.00  0.00     0.074 A 
ATOM     42  C   UNL A   1      39.976  26.559  28.337  1.00  0.00     0.031 C 
ATOM     43  C   UNL A   1      46.646  24.825  28.344  1.00  0.00     0.029 A 
ATOM     44  C   UNL A   1      46.335  26.186  28.772  1.00  0.00     0.049 A 
ATOM     45  H   UNL A   1      44.451  27.047  28.982  1.00  0.00     0.167 HD
ATOM     46  C   UNL A   1      40.484  28.845  29.138  1.00  0.00     0.031 A 
ATOM     47  C   UNL A   1      47.241  27.122  29.112  1.00  0.00     0.031 A 
ATOM     48  C   UNL A   1      41.371  29.873  29.614  1.00  0.00     0.049 A 
ATOM     49  C   UNL A   1      46.775  28.483  29.549  1.00  0.00     0.074 A 
ATOM     50  C   UNL A   1      41.052  31.134  30.087  1.00  0.00     0.029 A 
ATOM     51  N   UNL A   1      42.749  29.754  29.682  1.00  0.00    -0.354 N 
ATOM     52  N   UNL A   1      45.554  28.948  29.636  1.00  0.00    -0.248 NA
ATOM     53  C   UNL A   1      47.815  29.444  29.946  1.00  0.00     0.031 C 
ATOM     54  C   UNL A   1      42.242  31.795  30.408  1.00  0.00     0.029 A 
ATOM     55  C   UNL A   1      43.297  30.928  30.171  1.00  0.00     0.049 A 
ATOM     56  H   UNL A   1      43.261  28.955  29.423  1.00  0.00     0.167 HD
ATOM     57  C   UNL A   1      45.676  30.244  30.118  1.00  0.00     0.074 A 
ATOM     58  C   UNL A   1      47.089  30.488  30.320  1.00  0.00     0.031 C 
ATOM     59  C   UNL A   1      44.703  31.153  30.370  1.00  0.00     0.031 A 
BRANCH  46  60
ATOM     60  C   UNL A   1      39.022  29.171  29.028  1.00  0.00    -0.014 A 
ATOM     61  C   UNL A   1      38.458  29.594  27.814  1.00  0.00     0.009 A 
ATOM     62  C   UNL A   1      38.188  29.008  30.145  1.00  0.00     0.009 A 
ATOM     63  C   UNL A   1      37.094  29.876  27.730  1.00  0.00     0.001 A 
ATOM     64  C   UNL A   1      36.819  29.268  30.051  1.00  0.00     0.001 A 
ATOM     65  C   UNL A   1      36.275  29.709  28.846  1.00  0.00     0.000 A 
ENDBRANCH  46  60
BRANCH  47  66
ATOM     66  C   UNL A   1      48.692  26.804  29.064  1.00  0.00    -0.014 A 
ATOM     67  C   UNL A   1      49.446  27.092  27.916  1.00  0.00     0.009 A 
ATOM     68  C   UNL A   1      49.325  26.199  30.161  1.00  0.00     0.009 A 
ATOM     69  C   UNL A   1      50.801  26.758  27.858  1.00  0.00     0.001 A 
ATOM     70  C   UNL A   1      50.686  25.889  30.109  1.00  0.00     0.001 A 
ATOM     71  C   UNL A   1      51.420  26.160  28.955  1.00  0.00     0.000 A 
ENDBRANCH  47  66
BRANCH  59  72
ATOM     72  C   UNL A   1      45.132  32.483  30.918  1.00  0.00    -0.014 A 
ATOM     73  C   UNL A   1      45.442  33.552  30.064  1.00  0.00     0.009 A 
ATOM     74  C   UNL A   1      45.181  32.681  32.307  1.00  0.00     0.009 A 
ATOM     75  C   UNL A   1      45.821  34.789  30.592  1.00  0.00     0.001 A 
ATOM     76  C   UNL A   1      45.538  33.924  32.831  1.00  0.00     0.001 A 
ATOM     77  C   UNL A   1      45.865  34.973  31.974  1.00  0.00     0.000 A 
ENDBRANCH  59  72
ENDBRANCH  33  34
ENDBRANCH  25  28
ENDBRANCH  23  24
ENDBRANCH  22  23
ENDBRANCH   1  22
TORSDOF 15
ENDMDL
MODEL 2
REMARK VINA RESULT:     -10.0      2.406      7.308
REMARK SMILES C#CC[N@@H+](CC(=O)NCCCNC(=O)c1ccc(-c2c3nc(c(-c4ccccc4)c4ccc([nH]4)c(-c4ccccc4)c4nc(c(-c5ccccc5)c5ccc2[nH]5)C=C4)C=C3)cc1)CC(=O)NC(=O)NC
REMARK SMILES IDX 9 1 8 2 6 3 7 4 5 6 4 7 3 9 2 10 1 11 63 12 64 13 65 14
REMARK SMILES IDX 66 15 67 16 68 18 69 19 70 20 10 22 11 23 12 24 13 25 14 27
REMARK SMILES IDX 15 28 16 29 62 30 17 31 61 32 18 33 19 34 20 35 55 36 21 37
REMARK SMILES IDX 60 38 54 39 56 40 22 41 59 42 53 43 52 44 23 46 45 47 30 48
REMARK SMILES IDX 44 49 31 50 34 51 43 52 57 53 32 54 33 55 42 57 58 58 35 59
REMARK SMILES IDX 24 60 25 61 29 62 26 63 28 64 27 65 46 66 47 67 51 68 48 69
REMARK SMILES IDX 50 70 49 71 36 72 37 73 41 74 38 75 40 76 39 77
REMARK H PARENT 8 5 4 8 66 17 69 21 12 26 56 45 34 56
REMARK Flexibility Score: inf
ROOT
ATOM      1  C   UNL A   1      33.025  28.918  24.944  1.00  0.00     0.118 C 
ENDROOT
BRANCH   1   2
ATOM      2  N   UNL A   1      33.746  28.759  23.687  1.00  0.00    -0.351 N 
ATOM      3  C   UNL A   1      33.619  27.937  22.607  1.00  0.00     0.275 C 
ATOM      4  O   UNL A   1      34.285  28.258  21.618  1.00  0.00    -0.269 OA
ATOM      5  H   UNL A   1      34.496  29.390  23.597  1.00  0.00     0.163 HD
BRANCH   3   6
ATOM      6  C   UNL A   1      32.702  26.695  22.549  1.00  0.00     0.364 C 
BRANCH   6   7
ATOM      7  N   UNL A   1      32.800  25.724  23.680  1.00  0.00    -0.309 N 
ATOM      8  H   UNL A   1      32.635  26.263  24.529  1.00  0.00     0.349 HD
BRANCH   7   9
ATOM      9  C   UNL A   1      34.120  25.154  23.659  1.00  0.00     0.354 C 
BRANCH   9  10
ATOM     10  C   UNL A   1      34.697  24.405  24.849  1.00  0.00    -0.047 C 
ATOM     11  C   UNL A   1      35.191  23.762  25.870  1.00  0.00     0.010 C 
ENDBRANCH   9  10
ENDBRANCH   7   9
BRANCH   7  12
ATOM     12  C   UNL A   1      31.737  24.711  23.813  1.00  0.00     0.365 C 
BRANCH  12  13
ATOM     13  C   UNL A   1      30.603  24.971  24.784  1.00  0.00     0.283 C 
ATOM     14  O   UNL A   1      30.072  26.086  24.844  1.00  0.00    -0.268 OA
ATOM     15  N   UNL A   1      30.106  23.942  25.567  1.00  0.00    -0.273 N 
ATOM     16  C   UNL A   1      30.720  23.105  26.448  1.00  0.00     0.321 C 
ATOM     17  H   UNL A   1      29.138  23.791  25.469  1.00  0.00     0.175 HD
ATOM     18  O   UNL A   1      30.356  23.096  27.626  1.00  0.00    -0.248 OA
ATOM     19  N   UNL A   1      31.687  22.243  26.088  1.00  0.00    -0.341 N 
ATOM     20  C   UNL A   1      32.010  21.647  24.818  1.00  0.00     0.144 C 
ATOM     21  H   UNL A   1      32.281  21.972  26.825  1.00  0.00     0.165 HD
ENDBRANCH  12  13
ENDBRANCH   7  12
ENDBRANCH   6   7
ENDBRANCH   3   6
ENDBRANCH   1   2
BRANCH   1  22
ATOM     22  C   UNL A   1      33.583  28.103  26.125  1.00  0.00     0.042 C 
BRANCH  22  23
ATOM     23  C   UNL A   1      33.252  28.633  27.520  1.00  0.00     0.118 C 
BRANCH  23  24
ATOM     24  N   UNL A   1      33.408  30.075  27.581  1.00  0.00    -0.352 N 
ATOM     25  C   UNL A   1      34.445  30.805  28.111  1.00  0.00     0.251 C 
ATOM     26  H   UNL A   1      32.674  30.601  27.189  1.00  0.00     0.163 HD
ATOM     27  O   UNL A   1      34.270  31.986  28.396  1.00  0.00    -0.269 OA
BRANCH  25  28
ATOM     28  C   UNL A   1      35.776  30.190  28.334  1.00  0.00     0.039 A 
ATOM     29  C   UNL A   1      36.077  29.669  29.597  1.00  0.00     0.014 A 
ATOM     30  C   UNL A   1      36.765  30.226  27.346  1.00  0.00     0.014 A 
ATOM     31  C   UNL A   1      37.360  29.178  29.866  1.00  0.00     0.010 A 
ATOM     32  C   UNL A   1      38.029  29.689  27.599  1.00  0.00     0.010 A 
ATOM     33  C   UNL A   1      38.349  29.186  28.870  1.00  0.00    -0.014 A 
BRANCH  33  34
ATOM     34  C   UNL A   1      39.736  28.734  29.160  1.00  0.00     0.031 A 
ATOM     35  C   UNL A   1      40.702  29.664  29.848  1.00  0.00     0.074 A 
ATOM     36  C   UNL A   1      40.148  27.513  28.770  1.00  0.00     0.049 A 
ATOM     37  N   UNL A   1      41.968  29.478  30.134  1.00  0.00    -0.248 NA
ATOM     38  C   UNL A   1      40.187  30.985  30.242  1.00  0.00     0.031 C 
ATOM     39  C   UNL A   1      39.331  26.526  28.062  1.00  0.00     0.029 A 
ATOM     40  N   UNL A   1      41.370  26.899  28.904  1.00  0.00    -0.354 N 
ATOM     41  C   UNL A   1      42.404  30.667  30.707  1.00  0.00     0.074 A 
ATOM     42  C   UNL A   1      41.279  31.576  30.703  1.00  0.00     0.031 C 
ATOM     43  C   UNL A   1      40.070  25.429  27.832  1.00  0.00     0.029 A 
ATOM     44  C   UNL A   1      41.419  25.642  28.351  1.00  0.00     0.049 A 
ATOM     45  H   UNL A   1      42.138  27.320  29.353  1.00  0.00     0.167 HD
ATOM     46  C   UNL A   1      43.627  30.974  31.204  1.00  0.00     0.031 A 
ATOM     47  C   UNL A   1      42.434  24.763  28.266  1.00  0.00     0.031 A 
ATOM     48  C   UNL A   1      44.738  30.061  31.250  1.00  0.00     0.049 A 
ATOM     49  C   UNL A   1      43.771  25.112  28.860  1.00  0.00     0.074 A 
ATOM     50  C   UNL A   1      45.987  30.254  31.813  1.00  0.00     0.029 A 
ATOM     51  N   UNL A   1      44.730  28.783  30.717  1.00  0.00    -0.354 N 
ATOM     52  N   UNL A   1      44.142  26.212  29.465  1.00  0.00    -0.248 NA
ATOM     53  C   UNL A   1      44.824  24.089  28.768  1.00  0.00     0.031 C 
ATOM     54  C   UNL A   1      46.751  29.103  31.588  1.00  0.00     0.029 A 
ATOM     55  C   UNL A   1      45.960  28.182  30.920  1.00  0.00     0.049 A 
ATOM     56  H   UNL A   1      43.963  28.365  30.262  1.00  0.00     0.167 HD
ATOM     57  C   UNL A   1      45.462  26.008  29.846  1.00  0.00     0.074 A 
ATOM     58  C   UNL A   1      45.823  24.672  29.418  1.00  0.00     0.031 C 
ATOM     59  C   UNL A   1      46.302  26.852  30.492  1.00  0.00     0.031 A 
BRANCH  46  60
ATOM     60  C   UNL A   1      43.834  32.363  31.736  1.00  0.00    -0.014 A 
ATOM     61  C   UNL A   1      43.611  32.667  33.088  1.00  0.00     0.009 A 
ATOM     62  C   UNL A   1      44.303  33.372  30.880  1.00  0.00     0.009 A 
ATOM     63  C   UNL A   1      43.825  33.961  33.565  1.00  0.00     0.001 A 
ATOM     64  C   UNL A   1      44.539  34.660  31.366  1.00  0.00     0.001 A 
ATOM     65  C   UNL A   1      44.293  34.955  32.706  1.00  0.00     0.000 A 
ENDBRANCH  46  60
BRANCH  47  66
ATOM     66  C   UNL A   1      42.229  23.452  27.596  1.00  0.00    -0.014 A 
ATOM     67  C   UNL A   1      41.698  22.365  28.306  1.00  0.00     0.009 A 
ATOM     68  C   UNL A   1      42.576  23.281  26.248  1.00  0.00     0.009 A 
ATOM     69  C   UNL A   1      41.541  21.124  27.686  1.00  0.00     0.001 A 
ATOM     70  C   UNL A   1      42.395  22.045  25.623  1.00  0.00     0.001 A 
ATOM     71  C   UNL A   1      41.887  20.966  26.345  1.00  0.00     0.000 A 
ENDBRANCH  47  66
BRANCH  59  72
ATOM     72  C   UNL A   1      47.681  26.347  30.800  1.00  0.00    -0.014 A 
ATOM     73  C   UNL A   1      47.984  25.783  32.049  1.00  0.00     0.009 A 
ATOM     74  C   UNL A   1      48.677  26.394  29.812  1.00  0.00     0.009 A 
ATOM     75  C   UNL A   1      49.268  25.302  32.311  1.00  0.00     0.001 A 
ATOM     76  C   UNL A   1      49.952  25.892  30.069  1.00  0.00     0.001 A 
ATOM     77  C   UNL A   1      50.249  25.354  31.321  1.00  0.00     0.000 A 
ENDBRANCH  59  72
ENDBRANCH  33  34
ENDBRANCH  25  28
ENDBRANCH  23  24
ENDBRANCH  22  23
ENDBRANCH   1  22
TORSDOF 15
ENDMDL
MODEL 3
REMARK VINA RESULT:      -9.9      4.223      9.084
REMARK SMILES C#CC[N@@H+](CC(=O)NCCCNC(=O)c1ccc(-c2c3nc(c(-c4ccccc4)c4ccc([nH]4)c(-c4ccccc4)c4nc(c(-c5ccccc5)c5ccc2[nH]5)C=C4)C=C3)cc1)CC(=O)NC(=O)NC
REMARK SMILES IDX 9 1 8 2 6 3 7 4 5 6 4 7 3 9 2 10 1 11 63 12 64 13 65 14
REMARK SMILES IDX 66 15 67 16 68 18 69 19 70 20 10 22 11 23 12 24 13 25 14 27
REMARK SMILES IDX 15 28 16 29 62 30 17 31 61 32 18 33 19 34 20 35 55 36 21 37
REMARK SMILES IDX 60 38 54 39 56 40 22 41 59 42 53 43 52 44 23 46 45 47 30 48
REMARK SMILES IDX 44 49 31 50 34 51 43 52 57 53 32 54 33 55 42 57 58 58 35 59
REMARK SMILES IDX 24 60 25 61 29 62 26 63 28 64 27 65 46 66 47 67 51 68 48 69
REMARK SMILES IDX 50 70 49 71 36 72 37 73 41 74 38 75 40 76 39 77
REMARK H PARENT 8 5 4 8 66 17 69 21 12 26 56 45 34 56
REMARK Flexibility Score: inf
ROOT
ATOM      1  C   UNL A   1      31.678  30.270  25.962  1.00  0.00     0.118 C 
ENDROOT
BRANCH   1   2
ATOM      2  N   UNL A   1      31.096  30.001  24.653  1.00  0.00    -0.351 N 
ATOM      3  C   UNL A   1      31.358  29.114  23.652  1.00  0.00     0.275 C 
ATOM      4  O   UNL A   1      30.490  29.035  22.776  1.00  0.00    -0.269 OA
ATOM      5  H   UNL A   1      30.341  30.597  24.444  1.00  0.00     0.163 HD
BRANCH   3   6
ATOM      6  C   UNL A   1      32.615  28.219  23.575  1.00  0.00     0.364 C 
BRANCH   6   7
ATOM      7  N   UNL A   1      32.625  26.986  24.420  1.00  0.00    -0.309 N 
ATOM      8  H   UNL A   1      32.942  27.280  25.343  1.00  0.00     0.349 HD
BRANCH   7   9
ATOM      9  C   UNL A   1      33.533  26.047  23.818  1.00  0.00     0.354 C 
BRANCH   9  10
ATOM     10  C   UNL A   1      34.434  25.149  24.649  1.00  0.00    -0.047 C 
ATOM     11  C   UNL A   1      35.208  24.378  25.362  1.00  0.00     0.010 C 
ENDBRANCH   9  10
ENDBRANCH   7   9
BRANCH   7  12
ATOM     12  C   UNL A   1      31.327  26.385  24.779  1.00  0.00     0.365 C 
BRANCH  12  13
ATOM     13  C   UNL A   1      31.016  26.148  26.242  1.00  0.00     0.283 C 
ATOM     14  O   UNL A   1      30.990  27.093  27.039  1.00  0.00    -0.268 OA
ATOM     15  N   UNL A   1      30.692  24.878  26.689  1.00  0.00    -0.273 N 
ATOM     16  C   UNL A   1      31.360  23.695  26.599  1.00  0.00     0.321 C 
ATOM     17  H   UNL A   1      29.826  24.821  27.153  1.00  0.00     0.175 HD
ATOM     18  O   UNL A   1      31.678  23.101  27.631  1.00  0.00    -0.248 OA
ATOM     19  N   UNL A   1      31.659  23.108  25.426  1.00  0.00    -0.341 N 
ATOM     20  C   UNL A   1      31.064  23.227  24.121  1.00  0.00     0.144 C 
ATOM     21  H   UNL A   1      32.422  22.487  25.468  1.00  0.00     0.165 HD
ENDBRANCH  12  13
ENDBRANCH   7  12
ENDBRANCH   6   7
ENDBRANCH   3   6
ENDBRANCH   1   2
BRANCH   1  22
ATOM     22  C   UNL A   1      31.536  31.722  26.454  1.00  0.00     0.042 C 
BRANCH  22  23
ATOM     23  C   UNL A   1      32.686  32.255  27.309  1.00  0.00     0.118 C 
BRANCH  23  24
ATOM     24  N   UNL A   1      32.517  33.669  27.587  1.00  0.00    -0.352 N 
ATOM     25  C   UNL A   1      33.142  34.437  28.541  1.00  0.00     0.251 C 
ATOM     26  H   UNL A   1      31.869  34.142  27.018  1.00  0.00     0.163 HD
ATOM     27  O   UNL A   1      32.646  35.509  28.876  1.00  0.00    -0.269 OA
BRANCH  25  28
ATOM     28  C   UNL A   1      34.414  33.996  29.163  1.00  0.00     0.039 A 
ATOM     29  C   UNL A   1      35.619  34.275  28.510  1.00  0.00     0.014 A 
ATOM     30  C   UNL A   1      34.419  33.213  30.323  1.00  0.00     0.014 A 
ATOM     31  C   UNL A   1      36.825  33.781  29.021  1.00  0.00     0.010 A 
ATOM     32  C   UNL A   1      35.627  32.764  30.859  1.00  0.00     0.010 A 
ATOM     33  C   UNL A   1      36.840  33.018  30.199  1.00  0.00    -0.014 A 
BRANCH  33  34
ATOM     34  C   UNL A   1      38.103  32.426  30.717  1.00  0.00     0.031 A 
ATOM     35  C   UNL A   1      38.644  31.158  30.108  1.00  0.00     0.074 A 
ATOM     36  C   UNL A   1      38.743  32.993  31.757  1.00  0.00     0.049 A 
ATOM     37  N   UNL A   1      39.695  30.456  30.457  1.00  0.00    -0.248 NA
ATOM     38  C   UNL A   1      37.891  30.590  28.978  1.00  0.00     0.031 C 
ATOM     39  C   UNL A   1      38.312  34.199  32.465  1.00  0.00     0.029 A 
ATOM     40  N   UNL A   1      39.892  32.618  32.409  1.00  0.00    -0.354 N 
ATOM     41  C   UNL A   1      39.706  29.350  29.614  1.00  0.00     0.074 A 
ATOM     42  C   UNL A   1      38.546  29.459  28.757  1.00  0.00     0.031 C 
ATOM     43  C   UNL A   1      39.188  34.469  33.446  1.00  0.00     0.029 A 
ATOM     44  C   UNL A   1      40.227  33.443  33.455  1.00  0.00     0.049 A 
ATOM     45  H   UNL A   1      40.425  31.830  32.153  1.00  0.00     0.167 HD
ATOM     46  C   UNL A   1      40.608  28.340  29.548  1.00  0.00     0.031 A 
ATOM     47  C   UNL A   1      41.252  33.379  34.326  1.00  0.00     0.031 A 
ATOM     48  C   UNL A   1      41.786  28.248  30.367  1.00  0.00     0.049 A 
ATOM     49  C   UNL A   1      42.260  32.269  34.208  1.00  0.00     0.074 A 
ATOM     50  C   UNL A   1      42.801  27.309  30.313  1.00  0.00     0.029 A 
ATOM     51  N   UNL A   1      42.108  29.129  31.385  1.00  0.00    -0.354 N 
ATOM     52  N   UNL A   1      42.296  31.276  33.355  1.00  0.00    -0.248 NA
ATOM     53  C   UNL A   1      43.376  32.283  35.165  1.00  0.00     0.031 C 
ATOM     54  C   UNL A   1      43.722  27.600  31.324  1.00  0.00     0.029 A 
ATOM     55  C   UNL A   1      43.298  28.744  31.981  1.00  0.00     0.049 A 
ATOM     56  H   UNL A   1      41.572  29.913  31.646  1.00  0.00     0.167 HD
ATOM     57  C   UNL A   1      43.446  30.559  33.658  1.00  0.00     0.074 A 
ATOM     58  C   UNL A   1      44.090  31.241  34.762  1.00  0.00     0.031 C 
ATOM     59  C   UNL A   1      43.927  29.435  33.074  1.00  0.00     0.031 A 
BRANCH  46  60
ATOM     60  C   UNL A   1      40.351  27.242  28.556  1.00  0.00    -0.014 A 
ATOM     61  C   UNL A   1      39.560  26.131  28.886  1.00  0.00     0.009 A 
ATOM     62  C   UNL A   1      40.871  27.344  27.256  1.00  0.00     0.009 A 
ATOM     63  C   UNL A   1      39.320  25.130  27.944  1.00  0.00     0.001 A 
ATOM     64  C   UNL A   1      40.610  26.353  26.309  1.00  0.00     0.001 A 
ATOM     65  C   UNL A   1      39.841  25.243  26.655  1.00  0.00     0.000 A 
ENDBRANCH  46  60
BRANCH  47  66
ATOM     66  C   UNL A   1      41.386  34.406  35.392  1.00  0.00    -0.014 A 
ATOM     67  C   UNL A   1      40.735  34.243  36.623  1.00  0.00     0.009 A 
ATOM     68  C   UNL A   1      42.156  35.559  35.175  1.00  0.00     0.009 A 
ATOM     69  C   UNL A   1      40.832  35.228  37.610  1.00  0.00     0.001 A 
ATOM     70  C   UNL A   1      42.271  36.530  36.172  1.00  0.00     0.001 A 
ATOM     71  C   UNL A   1      41.601  36.368  37.384  1.00  0.00     0.000 A 
ENDBRANCH  47  66
BRANCH  59  72
ATOM     72  C   UNL A   1      45.223  28.889  33.599  1.00  0.00    -0.014 A 
ATOM     73  C   UNL A   1      46.453  29.324  33.084  1.00  0.00     0.009 A 
ATOM     74  C   UNL A   1      45.212  27.961  34.652  1.00  0.00     0.009 A 
ATOM     75  C   UNL A   1      47.649  28.818  33.597  1.00  0.00     0.001 A 
ATOM     76  C   UNL A   1      46.409  27.474  35.178  1.00  0.00     0.001 A 
ATOM     77  C   UNL A   1      47.626  27.897  34.644  1.00  0.00     0.000 A 
ENDBRANCH  59  72
ENDBRANCH  33  34
ENDBRANCH  25  28
ENDBRANCH  23  24
ENDBRANCH  22  23
ENDBRANCH   1  22
TORSDOF 15
ENDMDL
