MODEL 1
REMARK VINA RESULT:     -13.3      0.000      0.000
REMARK SMILES O=C(NCCCNC(=O)c1ccc(-c2c3nc(c(-c4ccccc4)c4ccc([nH]4)c(-c4ccccc4)c4nc(c(-c5ccccc5)c5ccc2[nH]5)C=C4)C=C3)cc1)c1ccc(NC(=O)[C@@H]2CC=CC[C@H]2C(=O)Nc2cccc([N+](=O)[O-])c2)cc1
REMARK SMILES IDX 1 1 2 2 3 3 58 5 59 6 84 7 60 8 83 9 61 10 62 11 63 12 64 14
REMARK SMILES IDX 65 15 66 16 70 17 67 18 69 19 68 20 71 21 72 22 73 23 74 25
REMARK SMILES IDX 75 26 82 27 76 28 78 29 77 30 79 31 80 32 81 33 4 34 5 35
REMARK SMILES IDX 6 36 7 37 8 38 9 40 10 41 11 42 57 43 12 44 56 45 13 46
REMARK SMILES IDX 14 47 15 48 50 49 16 50 55 51 49 52 51 53 17 54 54 55 48 56
REMARK SMILES IDX 47 57 18 59 40 60 25 61 39 62 26 63 29 64 38 65 52 66 27 67
REMARK SMILES IDX 28 68 37 70 53 71 30 72 19 73 20 74 24 75 21 76 23 77 22 78
REMARK SMILES IDX 41 79 42 80 46 81 43 82 45 83 44 84 31 85 32 86 36 87 33 88
REMARK SMILES IDX 35 89 34 90
REMARK H PARENT 3 4 62 13 73 24 7 39 51 58 29 69
REMARK Flexibility Score: inf
ROOT
ATOM      1  O   UNL A   1      29.393  30.160  22.778  1.00  0.00    -0.269 OA
ATOM      2  C   UNL A   1      30.263  29.685  23.502  1.00  0.00     0.251 C 
ATOM      3  N   UNL A   1      30.627  30.344  24.664  1.00  0.00    -0.352 N 
ATOM      4  H   UNL A   1      30.053  31.108  24.898  1.00  0.00     0.163 HD
ENDROOT
BRANCH   2   5
ATOM      5  C   UNL A   1      30.911  28.404  23.132  1.00  0.00     0.039 A 
ATOM      6  C   UNL A   1      30.187  27.242  23.266  1.00  0.00     0.016 A 
ATOM      7  C   UNL A   1      32.222  28.313  22.649  1.00  0.00     0.016 A 
ATOM      8  C   UNL A   1      30.833  26.029  23.164  1.00  0.00     0.027 A 
ATOM      9  C   UNL A   1      32.792  27.045  22.362  1.00  0.00     0.027 A 
ATOM     10  C   UNL A   1      32.075  25.876  22.631  1.00  0.00     0.041 A 
BRANCH  10  11
ATOM     11  N   UNL A   1      32.495  24.595  22.237  1.00  0.00    -0.326 N 
ATOM     12  C   UNL A   1      32.894  23.464  22.922  1.00  0.00     0.228 C 
ATOM     13  H   UNL A   1      32.506  24.478  21.259  1.00  0.00     0.169 HD
ATOM     14  O   UNL A   1      32.732  22.419  22.274  1.00  0.00    -0.274 OA
BRANCH  12  15
ATOM     15  C   UNL A   1      33.672  23.410  24.307  1.00  0.00     0.095 C 
ATOM     16  C   UNL A   1      34.990  24.206  24.021  1.00  0.00     0.041 C 
ATOM     17  C   UNL A   1      34.011  22.044  25.026  1.00  0.00     0.095 C 
ATOM     18  C   UNL A   1      36.014  24.215  25.103  1.00  0.00    -0.030 C 
ATOM     19  C   UNL A   1      35.337  21.960  25.840  1.00  0.00     0.041 C 
ATOM     20  C   UNL A   1      36.180  23.177  25.921  1.00  0.00    -0.030 C 
BRANCH  17  21
ATOM     21  C   UNL A   1      33.056  21.271  25.980  1.00  0.00     0.228 C 
ATOM     22  O   UNL A   1      32.585  21.893  26.948  1.00  0.00    -0.274 OA
ATOM     23  N   UNL A   1      32.560  20.002  25.845  1.00  0.00    -0.326 N 
ATOM     24  H   UNL A   1      31.830  19.838  26.485  1.00  0.00     0.169 HD
BRANCH  23  25
ATOM     25  C   UNL A   1      32.802  18.868  25.050  1.00  0.00     0.048 A 
ATOM     26  C   UNL A   1      32.557  18.982  23.674  1.00  0.00     0.026 A 
ATOM     27  C   UNL A   1      33.190  17.627  25.522  1.00  0.00     0.111 A 
ATOM     28  C   UNL A   1      32.838  17.926  22.793  1.00  0.00     0.009 A 
ATOM     29  C   UNL A   1      33.537  16.585  24.647  1.00  0.00     0.271 A 
ATOM     30  C   UNL A   1      33.373  16.734  23.273  1.00  0.00     0.086 A 
BRANCH  29  31
ATOM     31  N   UNL A   1      34.085  15.339  25.200  1.00  0.00     0.062 N 
ATOM     32  O   UNL A   1      35.309  15.272  25.367  1.00  0.00    -0.258 OA
ATOM     33  O   UNL A   1      33.284  14.434  25.481  1.00  0.00    -0.258 OA
ENDBRANCH  29  31
ENDBRANCH  23  25
ENDBRANCH  17  21
ENDBRANCH  12  15
ENDBRANCH  10  11
ENDBRANCH   2   5
BRANCH   3  34
ATOM     34  C   UNL A   1      31.724  30.093  25.602  1.00  0.00     0.118 C 
BRANCH  34  35
ATOM     35  C   UNL A   1      31.712  31.019  26.803  1.00  0.00     0.042 C 
BRANCH  35  36
ATOM     36  C   UNL A   1      32.880  31.983  26.836  1.00  0.00     0.118 C 
BRANCH  36  37
ATOM     37  N   UNL A   1      32.518  33.300  27.349  1.00  0.00    -0.352 N 
ATOM     38  C   UNL A   1      33.129  34.078  28.307  1.00  0.00     0.251 C 
ATOM     39  H   UNL A   1      31.709  33.695  26.949  1.00  0.00     0.163 HD
ATOM     40  O   UNL A   1      32.565  35.091  28.716  1.00  0.00    -0.269 OA
BRANCH  38  41
ATOM     41  C   UNL A   1      34.433  33.676  28.882  1.00  0.00     0.039 A 
ATOM     42  C   UNL A   1      34.455  32.937  30.069  1.00  0.00     0.014 A 
ATOM     43  C   UNL A   1      35.633  33.998  28.246  1.00  0.00     0.014 A 
ATOM     44  C   UNL A   1      35.666  32.429  30.550  1.00  0.00     0.010 A 
ATOM     45  C   UNL A   1      36.819  33.401  28.662  1.00  0.00     0.010 A 
ATOM     46  C   UNL A   1      36.850  32.605  29.816  1.00  0.00    -0.014 A 
BRANCH  46  47
ATOM     47  C   UNL A   1      38.128  31.961  30.215  1.00  0.00     0.031 A 
ATOM     48  C   UNL A   1      39.088  32.686  31.121  1.00  0.00     0.074 A 
ATOM     49  C   UNL A   1      38.475  30.772  29.684  1.00  0.00     0.049 A 
ATOM     50  N   UNL A   1      40.301  32.348  31.476  1.00  0.00    -0.248 NA
ATOM     51  C   UNL A   1      38.637  33.975  31.670  1.00  0.00     0.031 C 
ATOM     52  C   UNL A   1      37.660  29.981  28.759  1.00  0.00     0.029 A 
ATOM     53  N   UNL A   1      39.617  30.025  29.839  1.00  0.00    -0.354 N 
ATOM     54  C   UNL A   1      40.768  33.393  32.265  1.00  0.00     0.074 A 
ATOM     55  C   UNL A   1      39.726  34.397  32.297  1.00  0.00     0.031 C 
ATOM     56  C   UNL A   1      38.316  28.852  28.448  1.00  0.00     0.029 A 
ATOM     57  C   UNL A   1      39.616  28.859  29.111  1.00  0.00     0.049 A 
ATOM     58  H   UNL A   1      40.365  30.299  30.416  1.00  0.00     0.167 HD
ATOM     59  C   UNL A   1      41.947  33.503  32.919  1.00  0.00     0.031 A 
ATOM     60  C   UNL A   1      40.560  27.907  28.978  1.00  0.00     0.031 A 
ATOM     61  C   UNL A   1      42.976  32.498  32.909  1.00  0.00     0.049 A 
ATOM     62  C   UNL A   1      41.864  28.055  29.710  1.00  0.00     0.074 A 
ATOM     63  C   UNL A   1      44.177  32.489  33.597  1.00  0.00     0.029 A 
ATOM     64  N   UNL A   1      42.924  31.324  32.176  1.00  0.00    -0.354 N 
ATOM     65  N   UNL A   1      42.260  29.020  30.504  1.00  0.00    -0.248 NA
ATOM     66  C   UNL A   1      42.847  26.976  29.533  1.00  0.00     0.031 C 
ATOM     67  C   UNL A   1      44.874  31.329  33.244  1.00  0.00     0.029 A 
ATOM     68  C   UNL A   1      44.083  30.592  32.378  1.00  0.00     0.049 A 
ATOM     69  H   UNL A   1      42.175  31.049  31.599  1.00  0.00     0.167 HD
ATOM     70  C   UNL A   1      43.526  28.652  30.942  1.00  0.00     0.074 A 
ATOM     71  C   UNL A   1      43.825  27.371  30.337  1.00  0.00     0.031 C 
ATOM     72  C   UNL A   1      44.364  29.317  31.772  1.00  0.00     0.031 A 
BRANCH  59  73
ATOM     73  C   UNL A   1      42.190  34.764  33.700  1.00  0.00    -0.014 A 
ATOM     74  C   UNL A   1      41.809  34.870  35.047  1.00  0.00     0.009 A 
ATOM     75  C   UNL A   1      42.839  35.849  33.091  1.00  0.00     0.009 A 
ATOM     76  C   UNL A   1      42.039  36.050  35.757  1.00  0.00     0.001 A 
ATOM     77  C   UNL A   1      43.094  37.017  33.811  1.00  0.00     0.001 A 
ATOM     78  C   UNL A   1      42.685  37.120  35.140  1.00  0.00     0.000 A 
ENDBRANCH  59  73
BRANCH  60  79
ATOM     79  C   UNL A   1      40.304  26.720  28.122  1.00  0.00    -0.014 A 
ATOM     80  C   UNL A   1      39.566  25.634  28.619  1.00  0.00     0.009 A 
ATOM     81  C   UNL A   1      40.798  26.661  26.810  1.00  0.00     0.009 A 
ATOM     82  C   UNL A   1      39.350  24.504  27.828  1.00  0.00     0.001 A 
ATOM     83  C   UNL A   1      40.557  25.542  26.012  1.00  0.00     0.001 A 
ATOM     84  C   UNL A   1      39.841  24.461  26.523  1.00  0.00     0.000 A 
ENDBRANCH  60  79
BRANCH  72  85
ATOM     85  C   UNL A   1      45.670  28.656  32.108  1.00  0.00    -0.014 A 
ATOM     86  C   UNL A   1      46.828  28.901  31.354  1.00  0.00     0.009 A 
ATOM     87  C   UNL A   1      45.752  27.814  33.228  1.00  0.00     0.009 A 
ATOM     88  C   UNL A   1      48.036  28.295  31.700  1.00  0.00     0.001 A 
ATOM     89  C   UNL A   1      46.967  27.229  33.588  1.00  0.00     0.001 A 
ATOM     90  C   UNL A   1      48.107  27.464  32.818  1.00  0.00     0.000 A 
ENDBRANCH  72  85
ENDBRANCH  46  47
ENDBRANCH  38  41
ENDBRANCH  36  37
ENDBRANCH  35  36
ENDBRANCH  34  35
ENDBRANCH   3  34
TORSDOF 15
ENDMDL
MODEL 2
REMARK VINA RESULT:     -13.2      2.943      8.704
REMARK SMILES O=C(NCCCNC(=O)c1ccc(-c2c3nc(c(-c4ccccc4)c4ccc([nH]4)c(-c4ccccc4)c4nc(c(-c5ccccc5)c5ccc2[nH]5)C=C4)C=C3)cc1)c1ccc(NC(=O)[C@@H]2CC=CC[C@H]2C(=O)Nc2cccc([N+](=O)[O-])c2)cc1
REMARK SMILES IDX 1 1 2 2 3 3 58 5 59 6 84 7 60 8 83 9 61 10 62 11 63 12 64 14
REMARK SMILES IDX 65 15 66 16 70 17 67 18 69 19 68 20 71 21 72 22 73 23 74 25
REMARK SMILES IDX 75 26 82 27 76 28 78 29 77 30 79 31 80 32 81 33 4 34 5 35
REMARK SMILES IDX 6 36 7 37 8 38 9 40 10 41 11 42 57 43 12 44 56 45 13 46
REMARK SMILES IDX 14 47 15 48 50 49 16 50 55 51 49 52 51 53 17 54 54 55 48 56
REMARK SMILES IDX 47 57 18 59 40 60 25 61 39 62 26 63 29 64 38 65 52 66 27 67
REMARK SMILES IDX 28 68 37 70 53 71 30 72 19 73 20 74 24 75 21 76 23 77 22 78
REMARK SMILES IDX 41 79 42 80 46 81 43 82 45 83 44 84 31 85 32 86 36 87 33 88
REMARK SMILES IDX 35 89 34 90
REMARK H PARENT 3 4 62 13 73 24 7 39 51 58 29 69
REMARK Flexibility Score: inf
ROOT
ATOM      1  O   UNL A   1      33.161  18.619  24.914  1.00  0.00    -0.269 OA
ATOM      2  C   UNL A   1      33.805  19.637  25.150  1.00  0.00     0.251 C 
ATOM      3  N   UNL A   1      35.172  19.653  24.932  1.00  0.00    -0.352 N 
ATOM      4  H   UNL A   1      35.522  18.859  24.469  1.00  0.00     0.163 HD
ENDROOT
BRANCH   2   5
ATOM      5  C   UNL A   1      33.111  20.846  25.657  1.00  0.00     0.039 A 
ATOM      6  C   UNL A   1      32.009  21.303  24.973  1.00  0.00     0.016 A 
ATOM      7  C   UNL A   1      33.517  21.548  26.799  1.00  0.00     0.016 A 
ATOM      8  C   UNL A   1      31.496  22.545  25.273  1.00  0.00     0.027 A 
ATOM      9  C   UNL A   1      32.833  22.726  27.194  1.00  0.00     0.027 A 
ATOM     10  C   UNL A   1      31.797  23.235  26.406  1.00  0.00     0.041 A 
BRANCH  10  11
ATOM     11  N   UNL A   1      30.969  24.298  26.798  1.00  0.00    -0.326 N 
ATOM     12  C   UNL A   1      30.802  25.597  26.358  1.00  0.00     0.228 C 
ATOM     13  H   UNL A   1      30.377  24.067  27.552  1.00  0.00     0.169 HD
ATOM     14  O   UNL A   1      29.683  26.062  26.624  1.00  0.00    -0.274 OA
BRANCH  12  15
ATOM     15  C   UNL A   1      31.918  26.551  25.749  1.00  0.00     0.095 C 
ATOM     16  C   UNL A   1      32.526  27.257  27.007  1.00  0.00     0.041 C 
ATOM     17  C   UNL A   1      31.587  27.621  24.634  1.00  0.00     0.095 C 
ATOM     18  C   UNL A   1      33.520  28.338  26.752  1.00  0.00    -0.030 C 
ATOM     19  C   UNL A   1      32.393  28.955  24.646  1.00  0.00     0.041 C 
ATOM     20  C   UNL A   1      33.443  29.123  25.679  1.00  0.00    -0.030 C 
BRANCH  17  21
ATOM     21  C   UNL A   1      31.548  27.342  23.105  1.00  0.00     0.228 C 
ATOM     22  O   UNL A   1      30.890  28.123  22.394  1.00  0.00    -0.274 OA
ATOM     23  N   UNL A   1      32.241  26.399  22.392  1.00  0.00    -0.326 N 
ATOM     24  H   UNL A   1      32.178  26.570  21.425  1.00  0.00     0.169 HD
BRANCH  23  25
ATOM     25  C   UNL A   1      33.014  25.255  22.657  1.00  0.00     0.048 A 
ATOM     26  C   UNL A   1      32.727  24.098  21.918  1.00  0.00     0.026 A 
ATOM     27  C   UNL A   1      33.984  25.153  23.637  1.00  0.00     0.111 A 
ATOM     28  C   UNL A   1      33.492  22.931  22.063  1.00  0.00     0.009 A 
ATOM     29  C   UNL A   1      34.800  24.016  23.747  1.00  0.00     0.271 A 
ATOM     30  C   UNL A   1      34.565  22.899  22.950  1.00  0.00     0.086 A 
BRANCH  29  31
ATOM     31  N   UNL A   1      35.912  24.023  24.708  1.00  0.00     0.062 N 
ATOM     32  O   UNL A   1      37.035  23.714  24.291  1.00  0.00    -0.258 OA
ATOM     33  O   UNL A   1      35.659  24.353  25.877  1.00  0.00    -0.258 OA
ENDBRANCH  29  31
ENDBRANCH  23  25
ENDBRANCH  17  21
ENDBRANCH  12  15
ENDBRANCH  10  11
ENDBRANCH   2   5
BRANCH   3  34
ATOM     34  C   UNL A   1      36.184  20.655  25.276  1.00  0.00     0.118 C 
BRANCH  34  35
ATOM     35  C   UNL A   1      37.572  20.306  24.776  1.00  0.00     0.042 C 
BRANCH  35  36
ATOM     36  C   UNL A   1      38.666  20.579  25.788  1.00  0.00     0.118 C 
BRANCH  36  37
ATOM     37  N   UNL A   1      39.702  19.551  25.799  1.00  0.00    -0.352 N 
ATOM     38  C   UNL A   1      41.046  19.649  26.082  1.00  0.00     0.251 C 
ATOM     39  H   UNL A   1      39.392  18.646  25.567  1.00  0.00     0.163 HD
ATOM     40  O   UNL A   1      41.782  18.688  25.869  1.00  0.00    -0.269 OA
BRANCH  38  41
ATOM     41  C   UNL A   1      41.617  20.918  26.591  1.00  0.00     0.039 A 
ATOM     42  C   UNL A   1      42.144  21.840  25.682  1.00  0.00     0.014 A 
ATOM     43  C   UNL A   1      41.611  21.217  27.954  1.00  0.00     0.014 A 
ATOM     44  C   UNL A   1      42.557  23.099  26.129  1.00  0.00     0.010 A 
ATOM     45  C   UNL A   1      41.917  22.504  28.382  1.00  0.00     0.010 A 
ATOM     46  C   UNL A   1      42.388  23.463  27.474  1.00  0.00    -0.014 A 
BRANCH  46  47
ATOM     47  C   UNL A   1      42.679  24.837  27.961  1.00  0.00     0.031 A 
ATOM     48  C   UNL A   1      44.074  25.207  28.390  1.00  0.00     0.074 A 
ATOM     49  C   UNL A   1      41.673  25.721  28.115  1.00  0.00     0.049 A 
ATOM     50  N   UNL A   1      44.497  26.306  28.960  1.00  0.00    -0.248 NA
ATOM     51  C   UNL A   1      45.122  24.194  28.183  1.00  0.00     0.031 C 
ATOM     52  C   UNL A   1      40.267  25.480  27.782  1.00  0.00     0.029 A 
ATOM     53  N   UNL A   1      41.680  27.003  28.609  1.00  0.00    -0.354 N 
ATOM     54  C   UNL A   1      45.851  26.106  29.205  1.00  0.00     0.074 A 
ATOM     55  C   UNL A   1      46.167  24.765  28.765  1.00  0.00     0.031 C 
ATOM     56  C   UNL A   1      39.553  26.583  28.057  1.00  0.00     0.029 A 
ATOM     57  C   UNL A   1      40.438  27.592  28.630  1.00  0.00     0.049 A 
ATOM     58  H   UNL A   1      42.497  27.456  28.918  1.00  0.00     0.167 HD
ATOM     59  C   UNL A   1      46.755  26.965  29.731  1.00  0.00     0.031 A 
ATOM     60  C   UNL A   1      40.049  28.802  29.074  1.00  0.00     0.031 A 
ATOM     61  C   UNL A   1      46.450  28.308  30.148  1.00  0.00     0.049 A 
ATOM     62  C   UNL A   1      41.071  29.736  29.659  1.00  0.00     0.074 A 
ATOM     63  C   UNL A   1      47.314  29.276  30.629  1.00  0.00     0.029 A 
ATOM     64  N   UNL A   1      45.184  28.870  30.131  1.00  0.00    -0.354 N 
ATOM     65  N   UNL A   1      42.359  29.554  29.822  1.00  0.00    -0.248 NA
ATOM     66  C   UNL A   1      40.585  31.047  30.114  1.00  0.00     0.031 C 
ATOM     67  C   UNL A   1      46.562  30.412  30.948  1.00  0.00     0.029 A 
ATOM     68  C   UNL A   1      45.240  30.167  30.615  1.00  0.00     0.049 A 
ATOM     69  H   UNL A   1      44.367  28.417  29.821  1.00  0.00     0.167 HD
ATOM     70  C   UNL A   1      42.841  30.734  30.373  1.00  0.00     0.074 A 
ATOM     71  C   UNL A   1      41.711  31.630  30.503  1.00  0.00     0.031 C 
ATOM     72  C   UNL A   1      44.108  31.047  30.736  1.00  0.00     0.031 A 
BRANCH  59  73
ATOM     73  C   UNL A   1      48.166  26.473  29.890  1.00  0.00    -0.014 A 
ATOM     74  C   UNL A   1      48.579  25.812  31.058  1.00  0.00     0.009 A 
ATOM     75  C   UNL A   1      49.086  26.643  28.845  1.00  0.00     0.009 A 
ATOM     76  C   UNL A   1      49.895  25.365  31.190  1.00  0.00     0.001 A 
ATOM     77  C   UNL A   1      50.394  26.169  28.967  1.00  0.00     0.001 A 
ATOM     78  C   UNL A   1      50.799  25.540  30.144  1.00  0.00     0.000 A 
ENDBRANCH  59  73
BRANCH  60  79
ATOM     79  C   UNL A   1      38.624  29.209  28.975  1.00  0.00    -0.014 A 
ATOM     80  C   UNL A   1      38.116  29.725  27.772  1.00  0.00     0.009 A 
ATOM     81  C   UNL A   1      37.765  29.090  30.078  1.00  0.00     0.009 A 
ATOM     82  C   UNL A   1      36.785  30.137  27.685  1.00  0.00     0.001 A 
ATOM     83  C   UNL A   1      36.427  29.476  29.979  1.00  0.00     0.001 A 
ATOM     84  C   UNL A   1      35.940  30.007  28.786  1.00  0.00     0.000 A 
ENDBRANCH  60  79
BRANCH  72  85
ATOM     85  C   UNL A   1      44.349  32.428  31.274  1.00  0.00    -0.014 A 
ATOM     86  C   UNL A   1      44.643  33.503  30.421  1.00  0.00     0.009 A 
ATOM     87  C   UNL A   1      44.231  32.665  32.653  1.00  0.00     0.009 A 
ATOM     88  C   UNL A   1      44.839  34.783  30.942  1.00  0.00     0.001 A 
ATOM     89  C   UNL A   1      44.402  33.951  33.168  1.00  0.00     0.001 A 
ATOM     90  C   UNL A   1      44.714  35.007  32.312  1.00  0.00     0.000 A 
ENDBRANCH  72  85
ENDBRANCH  46  47
ENDBRANCH  38  41
ENDBRANCH  36  37
ENDBRANCH  35  36
ENDBRANCH  34  35
ENDBRANCH   3  34
TORSDOF 15
ENDMDL
MODEL 3
REMARK VINA RESULT:     -13.2      0.734      5.615
REMARK SMILES O=C(NCCCNC(=O)c1ccc(-c2c3nc(c(-c4ccccc4)c4ccc([nH]4)c(-c4ccccc4)c4nc(c(-c5ccccc5)c5ccc2[nH]5)C=C4)C=C3)cc1)c1ccc(NC(=O)[C@@H]2CC=CC[C@H]2C(=O)Nc2cccc([N+](=O)[O-])c2)cc1
REMARK SMILES IDX 1 1 2 2 3 3 58 5 59 6 84 7 60 8 83 9 61 10 62 11 63 12 64 14
REMARK SMILES IDX 65 15 66 16 70 17 67 18 69 19 68 20 71 21 72 22 73 23 74 25
REMARK SMILES IDX 75 26 82 27 76 28 78 29 77 30 79 31 80 32 81 33 4 34 5 35
REMARK SMILES IDX 6 36 7 37 8 38 9 40 10 41 11 42 57 43 12 44 56 45 13 46
REMARK SMILES IDX 14 47 15 48 50 49 16 50 55 51 49 52 51 53 17 54 54 55 48 56
REMARK SMILES IDX 47 57 18 59 40 60 25 61 39 62 26 63 29 64 38 65 52 66 27 67
REMARK SMILES IDX 28 68 37 70 53 71 30 72 19 73 20 74 24 75 21 76 23 77 22 78
REMARK SMILES IDX 41 79 42 80 46 81 43 82 45 83 44 84 31 85 32 86 36 87 33 88
REMARK SMILES IDX 35 89 34 90
REMARK H PARENT 3 4 62 13 73 24 7 39 51 58 29 69
REMARK Flexibility Score: inf
ROOT
ATOM      1  O   UNL A   1      30.207  29.970  22.036  1.00  0.00    -0.269 OA
ATOM      2  C   UNL A   1      30.715  29.353  22.967  1.00  0.00     0.251 C 
ATOM      3  N   UNL A   1      30.761  29.923  24.227  1.00  0.00    -0.352 N 
ATOM      4  H   UNL A   1      30.252  30.760  24.317  1.00  0.00     0.163 HD
ENDROOT
BRANCH   2   5
ATOM      5  C   UNL A   1      31.268  27.996  22.737  1.00  0.00     0.039 A 
ATOM      6  C   UNL A   1      30.427  26.916  22.871  1.00  0.00     0.016 A 
ATOM      7  C   UNL A   1      32.602  27.755  22.386  1.00  0.00     0.016 A 
ATOM      8  C   UNL A   1      30.960  25.646  22.902  1.00  0.00     0.027 A 
ATOM      9  C   UNL A   1      33.071  26.424  22.231  1.00  0.00     0.027 A 
ATOM     10  C   UNL A   1      32.224  25.346  22.500  1.00  0.00     0.041 A 
BRANCH  10  11
ATOM     11  N   UNL A   1      32.553  24.009  22.224  1.00  0.00    -0.326 N 
ATOM     12  C   UNL A   1      32.977  22.947  22.999  1.00  0.00     0.228 C 
ATOM     13  H   UNL A   1      32.460  23.779  21.271  1.00  0.00     0.169 HD
ATOM     14  O   UNL A   1      32.710  21.842  22.500  1.00  0.00    -0.274 OA
BRANCH  12  15
ATOM     15  C   UNL A   1      33.889  23.015  24.299  1.00  0.00     0.095 C 
ATOM     16  C   UNL A   1      35.152  23.807  23.822  1.00  0.00     0.041 C 
ATOM     17  C   UNL A   1      34.330  21.715  25.083  1.00  0.00     0.095 C 
ATOM     18  C   UNL A   1      36.278  23.918  24.791  1.00  0.00    -0.030 C 
ATOM     19  C   UNL A   1      35.732  21.718  25.764  1.00  0.00     0.041 C 
ATOM     20  C   UNL A   1      36.549  22.951  25.665  1.00  0.00    -0.030 C 
BRANCH  17  21
ATOM     21  C   UNL A   1      33.494  21.005  26.185  1.00  0.00     0.228 C 
ATOM     22  O   UNL A   1      33.107  21.693  27.145  1.00  0.00    -0.274 OA
ATOM     23  N   UNL A   1      33.015  19.722  26.198  1.00  0.00    -0.326 N 
ATOM     24  H   UNL A   1      32.357  19.597  26.919  1.00  0.00     0.169 HD
BRANCH  23  25
ATOM     25  C   UNL A   1      33.203  18.533  25.470  1.00  0.00     0.048 A 
ATOM     26  C   UNL A   1      33.896  18.624  24.255  1.00  0.00     0.026 A 
ATOM     27  C   UNL A   1      32.696  17.294  25.817  1.00  0.00     0.111 A 
ATOM     28  C   UNL A   1      34.192  17.481  23.496  1.00  0.00     0.009 A 
ATOM     29  C   UNL A   1      33.040  16.134  25.105  1.00  0.00     0.271 A 
ATOM     30  C   UNL A   1      33.802  16.221  23.943  1.00  0.00     0.086 A 
BRANCH  29  31
ATOM     31  N   UNL A   1      32.594  14.827  25.606  1.00  0.00     0.062 N 
ATOM     32  O   UNL A   1      33.367  13.869  25.482  1.00  0.00    -0.258 OA
ATOM     33  O   UNL A   1      31.474  14.766  26.136  1.00  0.00    -0.258 OA
ENDBRANCH  29  31
ENDBRANCH  23  25
ENDBRANCH  17  21
ENDBRANCH  12  15
ENDBRANCH  10  11
ENDBRANCH   2   5
BRANCH   3  34
ATOM     34  C   UNL A   1      31.441  29.488  25.450  1.00  0.00     0.118 C 
BRANCH  34  35
ATOM     35  C   UNL A   1      32.686  30.293  25.767  1.00  0.00     0.042 C 
BRANCH  35  36
ATOM     36  C   UNL A   1      32.716  30.830  27.183  1.00  0.00     0.118 C 
BRANCH  36  37
ATOM     37  N   UNL A   1      32.369  32.245  27.264  1.00  0.00    -0.352 N 
ATOM     38  C   UNL A   1      33.025  33.285  27.884  1.00  0.00     0.251 C 
ATOM     39  H   UNL A   1      31.535  32.496  26.804  1.00  0.00     0.163 HD
ATOM     40  O   UNL A   1      32.475  34.380  27.975  1.00  0.00    -0.269 OA
BRANCH  38  41
ATOM     41  C   UNL A   1      34.364  33.079  28.483  1.00  0.00     0.039 A 
ATOM     42  C   UNL A   1      34.463  32.446  29.726  1.00  0.00     0.014 A 
ATOM     43  C   UNL A   1      35.523  33.481  27.818  1.00  0.00     0.014 A 
ATOM     44  C   UNL A   1      35.721  32.118  30.241  1.00  0.00     0.010 A 
ATOM     45  C   UNL A   1      36.766  33.057  28.274  1.00  0.00     0.010 A 
ATOM     46  C   UNL A   1      36.880  32.365  29.489  1.00  0.00    -0.014 A 
BRANCH  46  47
ATOM     47  C   UNL A   1      38.221  31.903  29.933  1.00  0.00     0.031 A 
ATOM     48  C   UNL A   1      38.771  30.591  29.438  1.00  0.00     0.074 A 
ATOM     49  C   UNL A   1      38.901  32.608  30.860  1.00  0.00     0.049 A 
ATOM     50  N   UNL A   1      39.855  29.959  29.807  1.00  0.00    -0.248 NA
ATOM     51  C   UNL A   1      37.978  29.883  28.420  1.00  0.00     0.031 C 
ATOM     52  C   UNL A   1      38.465  33.871  31.458  1.00  0.00     0.029 A 
ATOM     53  N   UNL A   1      40.103  32.349  31.472  1.00  0.00    -0.354 N 
ATOM     54  C   UNL A   1      39.860  28.769  29.089  1.00  0.00     0.074 A 
ATOM     55  C   UNL A   1      38.648  28.745  28.300  1.00  0.00     0.031 C 
ATOM     56  C   UNL A   1      39.396  34.289  32.331  1.00  0.00     0.029 A 
ATOM     57  C   UNL A   1      40.469  33.303  32.392  1.00  0.00     0.049 A 
ATOM     58  H   UNL A   1      40.650  31.556  31.271  1.00  0.00     0.167 HD
ATOM     59  C   UNL A   1      40.795  27.790  29.074  1.00  0.00     0.031 A 
ATOM     60  C   UNL A   1      41.540  33.371  33.205  1.00  0.00     0.031 A 
ATOM     61  C   UNL A   1      42.013  27.821  29.838  1.00  0.00     0.049 A 
ATOM     62  C   UNL A   1      42.562  32.269  33.173  1.00  0.00     0.074 A 
ATOM     63  C   UNL A   1      43.053  26.908  29.835  1.00  0.00     0.029 A 
ATOM     64  N   UNL A   1      42.353  28.815  30.740  1.00  0.00    -0.354 N 
ATOM     65  N   UNL A   1      42.581  31.183  32.440  1.00  0.00    -0.248 NA
ATOM     66  C   UNL A   1      43.714  32.409  34.076  1.00  0.00     0.031 C 
ATOM     67  C   UNL A   1      44.004  27.327  30.771  1.00  0.00     0.029 A 
ATOM     68  C   UNL A   1      43.579  28.528  31.317  1.00  0.00     0.049 A 
ATOM     69  H   UNL A   1      41.806  29.609  30.941  1.00  0.00     0.167 HD
ATOM     70  C   UNL A   1      43.758  30.524  32.773  1.00  0.00     0.074 A 
ATOM     71  C   UNL A   1      44.431  31.339  33.762  1.00  0.00     0.031 C 
ATOM     72  C   UNL A   1      44.237  29.349  32.298  1.00  0.00     0.031 A 
BRANCH  59  73
ATOM     73  C   UNL A   1      40.532  26.597  28.199  1.00  0.00    -0.014 A 
ATOM     74  C   UNL A   1      39.662  25.573  28.606  1.00  0.00     0.009 A 
ATOM     75  C   UNL A   1      41.138  26.510  26.936  1.00  0.00     0.009 A 
ATOM     76  C   UNL A   1      39.433  24.469  27.782  1.00  0.00     0.001 A 
ATOM     77  C   UNL A   1      40.885  25.420  26.102  1.00  0.00     0.001 A 
ATOM     78  C   UNL A   1      40.041  24.396  26.530  1.00  0.00     0.000 A 
ENDBRANCH  59  73
BRANCH  60  79
ATOM     79  C   UNL A   1      41.709  34.532  34.117  1.00  0.00    -0.014 A 
ATOM     80  C   UNL A   1      41.207  34.483  35.427  1.00  0.00     0.009 A 
ATOM     81  C   UNL A   1      42.366  35.694  33.684  1.00  0.00     0.009 A 
ATOM     82  C   UNL A   1      41.339  35.584  36.276  1.00  0.00     0.001 A 
ATOM     83  C   UNL A   1      42.520  36.782  34.545  1.00  0.00     0.001 A 
ATOM     84  C   UNL A   1      41.998  36.731  35.837  1.00  0.00     0.000 A 
ENDBRANCH  60  79
BRANCH  72  85
ATOM     85  C   UNL A   1      45.571  28.891  32.814  1.00  0.00    -0.014 A 
ATOM     86  C   UNL A   1      45.669  27.984  33.880  1.00  0.00     0.009 A 
ATOM     87  C   UNL A   1      46.746  29.336  32.187  1.00  0.00     0.009 A 
ATOM     88  C   UNL A   1      46.919  27.552  34.326  1.00  0.00     0.001 A 
ATOM     89  C   UNL A   1      47.994  28.882  32.618  1.00  0.00     0.001 A 
ATOM     90  C   UNL A   1      48.079  27.997  33.692  1.00  0.00     0.000 A 
ENDBRANCH  72  85
ENDBRANCH  46  47
ENDBRANCH  38  41
ENDBRANCH  36  37
ENDBRANCH  35  36
ENDBRANCH  34  35
ENDBRANCH   3  34
TORSDOF 15
ENDMDL
