MODEL 1
REMARK VINA RESULT:      -9.3      0.000      0.000
REMARK SMILES CCCC[C@H](C(=O)OC)[C@H](O)C(=O)NCCCNC(=O)c1ccc(-c2c3nc(c(-c4ccccc4)c4ccc([nH]4)c(-c4ccccc4)c4nc(c(-c5ccccc5)c5ccc2[nH]5)C=C4)C=C3)cc1
REMARK SMILES IDX 15 1 14 2 12 3 13 4 10 6 5 7 4 8 3 9 2 10 1 11 6 12 7 13
REMARK SMILES IDX 8 14 9 15 11 16 16 18 17 19 18 20 19 21 20 23 21 24 22 25
REMARK SMILES IDX 68 26 23 27 67 28 24 29 25 30 26 31 61 32 27 33 66 34 60 35
REMARK SMILES IDX 62 36 28 37 65 38 59 39 58 40 29 42 51 43 36 44 50 45 37 46
REMARK SMILES IDX 40 47 49 48 63 49 38 50 39 51 48 53 64 54 41 55 30 56 31 57
REMARK SMILES IDX 35 58 32 59 34 60 33 61 52 62 53 63 57 64 54 65 56 66 55 67
REMARK SMILES IDX 42 68 43 69 47 70 44 71 46 72 45 73
REMARK H PARENT 14 5 11 17 18 22 62 41 40 52
REMARK Flexibility Score: inf
ROOT
ATOM      1  C   UNL A   1      36.237  20.589  25.026  1.00  0.00     0.117 C 
ENDROOT
BRANCH   1   2
ATOM      2  N   UNL A   1      35.002  19.836  25.079  1.00  0.00    -0.354 N 
ATOM      3  C   UNL A   1      33.800  20.223  25.594  1.00  0.00     0.249 C 
ATOM      4  O   UNL A   1      32.807  19.546  25.320  1.00  0.00    -0.272 OA
ATOM      5  H   UNL A   1      35.034  18.929  24.696  1.00  0.00     0.163 HD
BRANCH   3   6
ATOM      6  C   UNL A   1      33.706  21.414  26.573  1.00  0.00     0.217 C 
BRANCH   6   7
ATOM      7  C   UNL A   1      33.466  22.805  25.964  1.00  0.00     0.137 C 
BRANCH   7   8
ATOM      8  C   UNL A   1      34.626  23.800  26.168  1.00  0.00     0.018 C 
BRANCH   8   9
ATOM      9  C   UNL A   1      35.378  24.143  24.867  1.00  0.00     0.001 C 
BRANCH   9  10
ATOM     10  C   UNL A   1      36.883  23.856  24.826  1.00  0.00    -0.003 C 
ATOM     11  C   UNL A   1      37.567  23.912  26.183  1.00  0.00     0.004 C 
ENDBRANCH   9  10
ENDBRANCH   8   9
ENDBRANCH   7   8
BRANCH   7  12
ATOM     12  C   UNL A   1      32.179  23.425  26.464  1.00  0.00     0.311 C 
ATOM     13  O   UNL A   1      31.509  22.983  27.390  1.00  0.00    -0.252 OA
BRANCH  12  14
ATOM     14  O   UNL A   1      31.854  24.537  25.748  1.00  0.00    -0.469 OA
ATOM     15  C   UNL A   1      30.591  25.110  26.093  1.00  0.00     0.282 C 
ENDBRANCH  12  14
ENDBRANCH   7  12
ENDBRANCH   6   7
BRANCH   6  16
ATOM     16  O   UNL A   1      34.787  21.451  27.506  1.00  0.00    -0.382 OA
ATOM     17  H   UNL A   1      35.211  20.579  27.544  1.00  0.00     0.211 HD
ENDBRANCH   6  16
ENDBRANCH   3   6
ENDBRANCH   1   2
BRANCH   1  18
ATOM     18  C   UNL A   1      37.481  19.750  24.865  1.00  0.00     0.042 C 
BRANCH  18  19
ATOM     19  C   UNL A   1      38.679  20.287  25.616  1.00  0.00     0.118 C 
BRANCH  19  20
ATOM     20  N   UNL A   1      39.782  19.338  25.702  1.00  0.00    -0.352 N 
ATOM     21  C   UNL A   1      41.091  19.517  26.072  1.00  0.00     0.251 C 
ATOM     22  H   UNL A   1      39.548  18.413  25.455  1.00  0.00     0.163 HD
ATOM     23  O   UNL A   1      41.899  18.601  25.920  1.00  0.00    -0.269 OA
BRANCH  21  24
ATOM     24  C   UNL A   1      41.545  20.812  26.619  1.00  0.00     0.039 A 
ATOM     25  C   UNL A   1      41.907  21.832  25.735  1.00  0.00     0.014 A 
ATOM     26  C   UNL A   1      41.613  21.029  27.995  1.00  0.00     0.014 A 
ATOM     27  C   UNL A   1      42.263  23.083  26.238  1.00  0.00     0.010 A 
ATOM     28  C   UNL A   1      41.823  22.310  28.486  1.00  0.00     0.010 A 
ATOM     29  C   UNL A   1      42.181  23.346  27.616  1.00  0.00    -0.014 A 
BRANCH  29  30
ATOM     30  C   UNL A   1      42.493  24.690  28.161  1.00  0.00     0.031 A 
ATOM     31  C   UNL A   1      43.908  25.048  28.534  1.00  0.00     0.074 A 
ATOM     32  C   UNL A   1      41.497  25.577  28.348  1.00  0.00     0.049 A 
ATOM     33  N   UNL A   1      44.376  26.180  28.996  1.00  0.00    -0.248 NA
ATOM     34  C   UNL A   1      44.926  23.992  28.405  1.00  0.00     0.031 C 
ATOM     35  C   UNL A   1      40.077  25.327  28.089  1.00  0.00     0.029 A 
ATOM     36  N   UNL A   1      41.528  26.875  28.788  1.00  0.00    -0.354 N 
ATOM     37  C   UNL A   1      45.731  25.964  29.221  1.00  0.00     0.074 A 
ATOM     38  C   UNL A   1      45.997  24.578  28.918  1.00  0.00     0.031 C 
ATOM     39  C   UNL A   1      39.383  26.453  28.317  1.00  0.00     0.029 A 
ATOM     40  C   UNL A   1      40.299  27.489  28.777  1.00  0.00     0.049 A 
ATOM     41  H   UNL A   1      42.353  27.325  29.084  1.00  0.00     0.167 HD
ATOM     42  C   UNL A   1      46.679  26.848  29.610  1.00  0.00     0.031 A 
ATOM     43  C   UNL A   1      39.952  28.751  29.092  1.00  0.00     0.031 A 
ATOM     44  C   UNL A   1      46.415  28.232  29.900  1.00  0.00     0.049 A 
ATOM     45  C   UNL A   1      41.024  29.714  29.518  1.00  0.00     0.074 A 
ATOM     46  C   UNL A   1      47.312  29.226  30.249  1.00  0.00     0.029 A 
ATOM     47  N   UNL A   1      45.157  28.814  29.877  1.00  0.00    -0.354 N 
ATOM     48  N   UNL A   1      42.315  29.516  29.643  1.00  0.00    -0.248 NA
ATOM     49  C   UNL A   1      40.591  31.083  29.828  1.00  0.00     0.031 C 
ATOM     50  C   UNL A   1      46.587  30.398  30.494  1.00  0.00     0.029 A 
ATOM     51  C   UNL A   1      45.250  30.149  30.230  1.00  0.00     0.049 A 
ATOM     52  H   UNL A   1      44.323  28.347  29.644  1.00  0.00     0.167 HD
ATOM     53  C   UNL A   1      42.851  30.742  30.017  1.00  0.00     0.074 A 
ATOM     54  C   UNL A   1      41.748  31.680  30.073  1.00  0.00     0.031 C 
ATOM     55  C   UNL A   1      44.139  31.064  30.290  1.00  0.00     0.031 A 
BRANCH  42  56
ATOM     56  C   UNL A   1      48.088  26.337  29.747  1.00  0.00    -0.014 A 
ATOM     57  C   UNL A   1      48.988  26.378  28.668  1.00  0.00     0.009 A 
ATOM     58  C   UNL A   1      48.533  25.830  30.977  1.00  0.00     0.009 A 
ATOM     59  C   UNL A   1      50.287  25.886  28.807  1.00  0.00     0.001 A 
ATOM     60  C   UNL A   1      49.844  25.369  31.123  1.00  0.00     0.001 A 
ATOM     61  C   UNL A   1      50.715  25.387  30.036  1.00  0.00     0.000 A 
ENDBRANCH  42  56
BRANCH  43  62
ATOM     62  C   UNL A   1      38.534  29.186  28.985  1.00  0.00    -0.014 A 
ATOM     63  C   UNL A   1      37.689  29.153  30.105  1.00  0.00     0.009 A 
ATOM     64  C   UNL A   1      38.014  29.627  27.757  1.00  0.00     0.009 A 
ATOM     65  C   UNL A   1      36.346  29.520  29.991  1.00  0.00     0.001 A 
ATOM     66  C   UNL A   1      36.680  30.026  27.654  1.00  0.00     0.001 A 
ATOM     67  C   UNL A   1      35.844  29.960  28.768  1.00  0.00     0.000 A 
ENDBRANCH  43  62
BRANCH  55  68
ATOM     68  C   UNL A   1      44.423  32.500  30.638  1.00  0.00    -0.014 A 
ATOM     69  C   UNL A   1      44.715  33.451  29.649  1.00  0.00     0.009 A 
ATOM     70  C   UNL A   1      44.383  32.907  31.981  1.00  0.00     0.009 A 
ATOM     71  C   UNL A   1      45.015  34.768  30.002  1.00  0.00     0.001 A 
ATOM     72  C   UNL A   1      44.646  34.231  32.328  1.00  0.00     0.001 A 
ATOM     73  C   UNL A   1      44.977  35.158  31.340  1.00  0.00     0.000 A 
ENDBRANCH  55  68
ENDBRANCH  29  30
ENDBRANCH  21  24
ENDBRANCH  19  20
ENDBRANCH  18  19
ENDBRANCH   1  18
TORSDOF 17
ENDMDL
MODEL 2
REMARK VINA RESULT:      -9.2      0.987      1.948
REMARK SMILES CCCC[C@H](C(=O)OC)[C@H](O)C(=O)NCCCNC(=O)c1ccc(-c2c3nc(c(-c4ccccc4)c4ccc([nH]4)c(-c4ccccc4)c4nc(c(-c5ccccc5)c5ccc2[nH]5)C=C4)C=C3)cc1
REMARK SMILES IDX 15 1 14 2 12 3 13 4 10 6 5 7 4 8 3 9 2 10 1 11 6 12 7 13
REMARK SMILES IDX 8 14 9 15 11 16 16 18 17 19 18 20 19 21 20 23 21 24 22 25
REMARK SMILES IDX 68 26 23 27 67 28 24 29 25 30 26 31 61 32 27 33 66 34 60 35
REMARK SMILES IDX 62 36 28 37 65 38 59 39 58 40 29 42 51 43 36 44 50 45 37 46
REMARK SMILES IDX 40 47 49 48 63 49 38 50 39 51 48 53 64 54 41 55 30 56 31 57
REMARK SMILES IDX 35 58 32 59 34 60 33 61 52 62 53 63 57 64 54 65 56 66 55 67
REMARK SMILES IDX 42 68 43 69 47 70 44 71 46 72 45 73
REMARK H PARENT 14 5 11 17 18 22 62 41 40 52
REMARK Flexibility Score: inf
ROOT
ATOM      1  C   UNL A   1      36.328  20.209  25.026  1.00  0.00     0.117 C 
ENDROOT
BRANCH   1   2
ATOM      2  N   UNL A   1      35.860  21.573  25.145  1.00  0.00    -0.354 N 
ATOM      3  C   UNL A   1      34.760  22.032  25.807  1.00  0.00     0.249 C 
ATOM      4  O   UNL A   1      34.668  23.245  26.008  1.00  0.00    -0.272 OA
ATOM      5  H   UNL A   1      36.404  22.256  24.690  1.00  0.00     0.163 HD
BRANCH   3   6
ATOM      6  C   UNL A   1      33.617  21.071  26.201  1.00  0.00     0.217 C 
BRANCH   6   7
ATOM      7  C   UNL A   1      32.453  20.920  25.207  1.00  0.00     0.137 C 
BRANCH   7   8
ATOM      8  C   UNL A   1      32.873  20.450  23.800  1.00  0.00     0.018 C 
BRANCH   8   9
ATOM      9  C   UNL A   1      32.639  18.945  23.559  1.00  0.00     0.001 C 
BRANCH   9  10
ATOM     10  C   UNL A   1      33.496  17.961  24.364  1.00  0.00    -0.003 C 
ATOM     11  C   UNL A   1      33.732  16.629  23.671  1.00  0.00     0.004 C 
ENDBRANCH   9  10
ENDBRANCH   8   9
ENDBRANCH   7   8
BRANCH   7  12
ATOM     12  C   UNL A   1      31.642  22.192  25.091  1.00  0.00     0.311 C 
ATOM     13  O   UNL A   1      31.768  23.016  24.192  1.00  0.00    -0.252 OA
BRANCH  12  14
ATOM     14  O   UNL A   1      30.756  22.310  26.118  1.00  0.00    -0.469 OA
ATOM     15  C   UNL A   1      30.671  23.625  26.673  1.00  0.00     0.282 C 
ENDBRANCH  12  14
ENDBRANCH   7  12
ENDBRANCH   6   7
BRANCH   6  16
ATOM     16  O   UNL A   1      33.124  21.307  27.521  1.00  0.00    -0.382 OA
ATOM     17  H   UNL A   1      33.343  22.213  27.790  1.00  0.00     0.211 HD
ENDBRANCH   6  16
ENDBRANCH   3   6
ENDBRANCH   1   2
BRANCH   1  18
ATOM     18  C   UNL A   1      37.773  20.071  24.613  1.00  0.00     0.042 C 
BRANCH  18  19
ATOM     19  C   UNL A   1      38.754  20.317  25.738  1.00  0.00     0.118 C 
BRANCH  19  20
ATOM     20  N   UNL A   1      39.886  19.399  25.730  1.00  0.00    -0.352 N 
ATOM     21  C   UNL A   1      41.207  19.604  26.038  1.00  0.00     0.251 C 
ATOM     22  H   UNL A   1      39.665  18.478  25.460  1.00  0.00     0.163 HD
ATOM     23  O   UNL A   1      42.031  18.719  25.810  1.00  0.00    -0.269 OA
BRANCH  21  24
ATOM     24  C   UNL A   1      41.653  20.891  26.610  1.00  0.00     0.039 A 
ATOM     25  C   UNL A   1      42.060  21.912  25.747  1.00  0.00     0.014 A 
ATOM     26  C   UNL A   1      41.668  21.100  27.989  1.00  0.00     0.014 A 
ATOM     27  C   UNL A   1      42.409  23.157  26.271  1.00  0.00     0.010 A 
ATOM     28  C   UNL A   1      41.873  22.376  28.495  1.00  0.00     0.010 A 
ATOM     29  C   UNL A   1      42.275  23.413  27.646  1.00  0.00    -0.014 A 
BRANCH  29  30
ATOM     30  C   UNL A   1      42.579  24.751  28.210  1.00  0.00     0.031 A 
ATOM     31  C   UNL A   1      43.989  25.105  28.606  1.00  0.00     0.074 A 
ATOM     32  C   UNL A   1      41.580  25.635  28.395  1.00  0.00     0.049 A 
ATOM     33  N   UNL A   1      44.450  26.232  29.087  1.00  0.00    -0.248 NA
ATOM     34  C   UNL A   1      45.009  24.051  28.478  1.00  0.00     0.031 C 
ATOM     35  C   UNL A   1      40.164  25.387  28.115  1.00  0.00     0.029 A 
ATOM     36  N   UNL A   1      41.605  26.928  28.851  1.00  0.00    -0.354 N 
ATOM     37  C   UNL A   1      45.802  26.014  29.327  1.00  0.00     0.074 A 
ATOM     38  C   UNL A   1      46.073  24.631  29.012  1.00  0.00     0.031 C 
ATOM     39  C   UNL A   1      39.466  26.511  28.346  1.00  0.00     0.029 A 
ATOM     40  C   UNL A   1      40.376  27.542  28.831  1.00  0.00     0.049 A 
ATOM     41  H   UNL A   1      42.426  27.374  29.163  1.00  0.00     0.167 HD
ATOM     42  C   UNL A   1      46.744  26.893  29.740  1.00  0.00     0.031 A 
ATOM     43  C   UNL A   1      40.024  28.800  29.156  1.00  0.00     0.031 A 
ATOM     44  C   UNL A   1      46.476  28.273  30.042  1.00  0.00     0.049 A 
ATOM     45  C   UNL A   1      41.090  29.758  29.607  1.00  0.00     0.074 A 
ATOM     46  C   UNL A   1      47.368  29.264  30.414  1.00  0.00     0.029 A 
ATOM     47  N   UNL A   1      45.219  28.856  30.009  1.00  0.00    -0.354 N 
ATOM     48  N   UNL A   1      42.379  29.560  29.746  1.00  0.00    -0.248 NA
ATOM     49  C   UNL A   1      40.652  31.123  29.927  1.00  0.00     0.031 C 
ATOM     50  C   UNL A   1      46.640  30.433  30.663  1.00  0.00     0.029 A 
ATOM     51  C   UNL A   1      45.306  30.187  30.379  1.00  0.00     0.049 A 
ATOM     52  H   UNL A   1      44.388  28.391  29.760  1.00  0.00     0.167 HD
ATOM     53  C   UNL A   1      42.909  30.781  30.141  1.00  0.00     0.074 A 
ATOM     54  C   UNL A   1      41.805  31.718  30.193  1.00  0.00     0.031 C 
ATOM     55  C   UNL A   1      44.194  31.100  30.435  1.00  0.00     0.031 A 
BRANCH  42  56
ATOM     56  C   UNL A   1      48.152  26.382  29.889  1.00  0.00    -0.014 A 
ATOM     57  C   UNL A   1      49.064  26.430  28.820  1.00  0.00     0.009 A 
ATOM     58  C   UNL A   1      48.583  25.866  31.120  1.00  0.00     0.009 A 
ATOM     59  C   UNL A   1      50.362  25.937  28.971  1.00  0.00     0.001 A 
ATOM     60  C   UNL A   1      49.892  25.404  31.278  1.00  0.00     0.001 A 
ATOM     61  C   UNL A   1      50.776  25.429  30.201  1.00  0.00     0.000 A 
ENDBRANCH  42  56
BRANCH  43  62
ATOM     62  C   UNL A   1      38.608  29.235  29.034  1.00  0.00    -0.014 A 
ATOM     63  C   UNL A   1      37.740  29.161  30.136  1.00  0.00     0.009 A 
ATOM     64  C   UNL A   1      38.112  29.719  27.813  1.00  0.00     0.009 A 
ATOM     65  C   UNL A   1      36.398  29.529  30.007  1.00  0.00     0.001 A 
ATOM     66  C   UNL A   1      36.778  30.118  27.697  1.00  0.00     0.001 A 
ATOM     67  C   UNL A   1      35.920  30.011  28.790  1.00  0.00     0.000 A 
ENDBRANCH  43  62
BRANCH  55  68
ATOM     68  C   UNL A   1      44.472  32.532  30.803  1.00  0.00    -0.014 A 
ATOM     69  C   UNL A   1      44.440  32.966  32.137  1.00  0.00     0.009 A 
ATOM     70  C   UNL A   1      44.784  33.457  29.795  1.00  0.00     0.009 A 
ATOM     71  C   UNL A   1      44.661  34.309  32.447  1.00  0.00     0.001 A 
ATOM     72  C   UNL A   1      45.042  34.791  30.111  1.00  0.00     0.001 A 
ATOM     73  C   UNL A   1      44.965  35.219  31.436  1.00  0.00     0.000 A 
ENDBRANCH  55  68
ENDBRANCH  29  30
ENDBRANCH  21  24
ENDBRANCH  19  20
ENDBRANCH  18  19
ENDBRANCH   1  18
TORSDOF 17
ENDMDL
MODEL 3
REMARK VINA RESULT:      -9.1      3.798      8.838
REMARK SMILES CCCC[C@H](C(=O)OC)[C@H](O)C(=O)NCCCNC(=O)c1ccc(-c2c3nc(c(-c4ccccc4)c4ccc([nH]4)c(-c4ccccc4)c4nc(c(-c5ccccc5)c5ccc2[nH]5)C=C4)C=C3)cc1
REMARK SMILES IDX 15 1 14 2 12 3 13 4 10 6 5 7 4 8 3 9 2 10 1 11 6 12 7 13
REMARK SMILES IDX 8 14 9 15 11 16 16 18 17 19 18 20 19 21 20 23 21 24 22 25
REMARK SMILES IDX 68 26 23 27 67 28 24 29 25 30 26 31 61 32 27 33 66 34 60 35
REMARK SMILES IDX 62 36 28 37 65 38 59 39 58 40 29 42 51 43 36 44 50 45 37 46
REMARK SMILES IDX 40 47 49 48 63 49 38 50 39 51 48 53 64 54 41 55 30 56 31 57
REMARK SMILES IDX 35 58 32 59 34 60 33 61 52 62 53 63 57 64 54 65 56 66 55 67
REMARK SMILES IDX 42 68 43 69 47 70 44 71 46 72 45 73
REMARK H PARENT 14 5 11 17 18 22 62 41 40 52
REMARK Flexibility Score: inf
ROOT
ATOM      1  C   UNL A   1      31.822  29.827  25.704  1.00  0.00     0.117 C 
ENDROOT
BRANCH   1   2
ATOM      2  N   UNL A   1      32.938  29.730  24.787  1.00  0.00    -0.354 N 
ATOM      3  C   UNL A   1      33.038  28.970  23.660  1.00  0.00     0.249 C 
ATOM      4  O   UNL A   1      33.960  29.212  22.878  1.00  0.00    -0.272 OA
ATOM      5  H   UNL A   1      33.724  30.281  25.007  1.00  0.00     0.163 HD
BRANCH   3   6
ATOM      6  C   UNL A   1      32.087  27.777  23.422  1.00  0.00     0.217 C 
BRANCH   6   7
ATOM      7  C   UNL A   1      32.633  26.372  23.728  1.00  0.00     0.137 C 
BRANCH   7   8
ATOM      8  C   UNL A   1      33.838  26.352  24.690  1.00  0.00     0.018 C 
BRANCH   8   9
ATOM      9  C   UNL A   1      34.498  24.965  24.819  1.00  0.00     0.001 C 
BRANCH   9  10
ATOM     10  C   UNL A   1      33.835  23.954  25.761  1.00  0.00    -0.003 C 
ATOM     11  C   UNL A   1      34.802  23.237  26.689  1.00  0.00     0.004 C 
ENDBRANCH   9  10
ENDBRANCH   8   9
ENDBRANCH   7   8
BRANCH   7  12
ATOM     12  C   UNL A   1      32.986  25.617  22.465  1.00  0.00     0.311 C 
ATOM     13  O   UNL A   1      33.780  26.012  21.618  1.00  0.00    -0.252 OA
BRANCH  12  14
ATOM     14  O   UNL A   1      32.303  24.442  22.383  1.00  0.00    -0.469 OA
ATOM     15  C   UNL A   1      31.111  24.399  23.172  1.00  0.00     0.282 C 
ENDBRANCH  12  14
ENDBRANCH   7  12
ENDBRANCH   6   7
BRANCH   6  16
ATOM     16  O   UNL A   1      31.469  27.808  22.135  1.00  0.00    -0.382 OA
ATOM     17  H   UNL A   1      31.808  28.566  21.633  1.00  0.00     0.211 HD
ENDBRANCH   6  16
ENDBRANCH   3   6
ENDBRANCH   1   2
BRANCH   1  18
ATOM     18  C   UNL A   1      31.535  31.221  26.205  1.00  0.00     0.042 C 
BRANCH  18  19
ATOM     19  C   UNL A   1      32.640  31.799  27.062  1.00  0.00     0.118 C 
BRANCH  19  20
ATOM     20  N   UNL A   1      32.393  33.176  27.472  1.00  0.00    -0.352 N 
ATOM     21  C   UNL A   1      33.108  34.005  28.300  1.00  0.00     0.251 C 
ATOM     22  H   UNL A   1      31.579  33.579  27.091  1.00  0.00     0.163 HD
ATOM     23  O   UNL A   1      32.631  35.088  28.638  1.00  0.00    -0.269 OA
BRANCH  21  24
ATOM     24  C   UNL A   1      34.430  33.593  28.815  1.00  0.00     0.039 A 
ATOM     25  C   UNL A   1      34.497  32.882  30.016  1.00  0.00     0.014 A 
ATOM     26  C   UNL A   1      35.600  33.897  28.121  1.00  0.00     0.014 A 
ATOM     27  C   UNL A   1      35.732  32.420  30.473  1.00  0.00     0.010 A 
ATOM     28  C   UNL A   1      36.802  33.314  28.499  1.00  0.00     0.010 A 
ATOM     29  C   UNL A   1      36.889  32.594  29.695  1.00  0.00    -0.014 A 
BRANCH  29  30
ATOM     30  C   UNL A   1      38.198  32.052  30.135  1.00  0.00     0.031 A 
ATOM     31  C   UNL A   1      38.692  30.733  29.600  1.00  0.00     0.074 A 
ATOM     32  C   UNL A   1      38.926  32.732  31.042  1.00  0.00     0.049 A 
ATOM     33  N   UNL A   1      39.820  30.116  29.846  1.00  0.00    -0.248 NA
ATOM     34  C   UNL A   1      37.793  29.994  28.698  1.00  0.00     0.031 C 
ATOM     35  C   UNL A   1      38.525  33.986  31.685  1.00  0.00     0.029 A 
ATOM     36  N   UNL A   1      40.165  32.471  31.569  1.00  0.00    -0.354 N 
ATOM     37  C   UNL A   1      39.756  28.919  29.141  1.00  0.00     0.074 A 
ATOM     38  C   UNL A   1      38.454  28.860  28.520  1.00  0.00     0.031 C 
ATOM     39  C   UNL A   1      39.524  34.414  32.473  1.00  0.00     0.029 A 
ATOM     40  C   UNL A   1      40.614  33.448  32.424  1.00  0.00     0.049 A 
ATOM     41  H   UNL A   1      40.682  31.661  31.356  1.00  0.00     0.167 HD
ATOM     42  C   UNL A   1      40.707  27.969  28.993  1.00  0.00     0.031 A 
ATOM     43  C   UNL A   1      41.782  33.558  33.085  1.00  0.00     0.031 A 
ATOM     44  C   UNL A   1      42.009  28.034  29.603  1.00  0.00     0.049 A 
ATOM     45  C   UNL A   1      42.824  32.492  32.901  1.00  0.00     0.074 A 
ATOM     46  C   UNL A   1      43.067  27.152  29.473  1.00  0.00     0.029 A 
ATOM     47  N   UNL A   1      42.425  29.040  30.461  1.00  0.00    -0.354 N 
ATOM     48  N   UNL A   1      42.780  31.408  32.161  1.00  0.00    -0.248 NA
ATOM     49  C   UNL A   1      44.086  32.674  33.628  1.00  0.00     0.031 C 
ATOM     50  C   UNL A   1      44.105  27.595  30.301  1.00  0.00     0.029 A 
ATOM     51  C   UNL A   1      43.717  28.788  30.889  1.00  0.00     0.049 A 
ATOM     52  H   UNL A   1      41.883  29.817  30.726  1.00  0.00     0.167 HD
ATOM     53  C   UNL A   1      44.018  30.797  32.313  1.00  0.00     0.074 A 
ATOM     54  C   UNL A   1      44.797  31.645  33.193  1.00  0.00     0.031 C 
ATOM     55  C   UNL A   1      44.472  29.639  31.773  1.00  0.00     0.031 A 
BRANCH  42  56
ATOM     56  C   UNL A   1      40.369  26.776  28.140  1.00  0.00    -0.014 A 
ATOM     57  C   UNL A   1      40.860  26.653  26.828  1.00  0.00     0.009 A 
ATOM     58  C   UNL A   1      39.568  25.748  28.659  1.00  0.00     0.009 A 
ATOM     59  C   UNL A   1      40.524  25.548  26.044  1.00  0.00     0.001 A 
ATOM     60  C   UNL A   1      39.261  24.627  27.884  1.00  0.00     0.001 A 
ATOM     61  C   UNL A   1      39.730  24.534  26.575  1.00  0.00     0.000 A 
ENDBRANCH  42  56
BRANCH  43  62
ATOM     62  C   UNL A   1      42.042  34.736  33.954  1.00  0.00    -0.014 A 
ATOM     63  C   UNL A   1      42.638  35.894  33.429  1.00  0.00     0.009 A 
ATOM     64  C   UNL A   1      41.704  34.707  35.316  1.00  0.00     0.009 A 
ATOM     65  C   UNL A   1      42.921  36.983  34.257  1.00  0.00     0.001 A 
ATOM     66  C   UNL A   1      41.957  35.810  36.134  1.00  0.00     0.001 A 
ATOM     67  C   UNL A   1      42.577  36.942  35.607  1.00  0.00     0.000 A 
ENDBRANCH  43  62
BRANCH  55  68
ATOM     68  C   UNL A   1      45.888  29.246  32.096  1.00  0.00    -0.014 A 
ATOM     69  C   UNL A   1      46.192  28.440  33.203  1.00  0.00     0.009 A 
ATOM     70  C   UNL A   1      46.932  29.683  31.266  1.00  0.00     0.009 A 
ATOM     71  C   UNL A   1      47.518  28.125  33.504  1.00  0.00     0.001 A 
ATOM     72  C   UNL A   1      48.253  29.335  31.547  1.00  0.00     0.001 A 
ATOM     73  C   UNL A   1      48.547  28.568  32.674  1.00  0.00     0.000 A 
ENDBRANCH  55  68
ENDBRANCH  29  30
ENDBRANCH  21  24
ENDBRANCH  19  20
ENDBRANCH  18  19
ENDBRANCH   1  18
TORSDOF 17
ENDMDL
