MODEL 1
REMARK VINA RESULT:     -12.0      0.000      0.000
REMARK SMILES O=C(NCCCNC(=O)[C@@H]1CN(C(=O)C2CCCC2)C[C@H]1c1ccccc1)c1ccc(-c2c3nc(c(-c4ccccc4)c4ccc([nH]4)c(-c4ccccc4)c4nc(c(-c5ccccc5)c5ccc2[nH]5)C=C4)C=C3)cc1
REMARK SMILES IDX 5 1 4 2 3 3 1 4 2 5 28 7 29 8 75 9 30 10 74 11 31 12 32 13
REMARK SMILES IDX 33 14 68 15 34 16 73 17 67 18 69 19 35 20 72 21 66 22 65 23
REMARK SMILES IDX 36 25 58 26 43 27 57 28 44 29 47 30 56 31 70 32 45 33 46 34
REMARK SMILES IDX 55 36 71 37 48 38 37 39 38 40 42 41 39 42 41 43 40 44 59 45
REMARK SMILES IDX 60 46 64 47 61 48 63 49 62 50 49 51 50 52 54 53 51 54 53 55
REMARK SMILES IDX 52 56 6 57 7 58 8 59 9 61 10 62 11 63 21 64 12 65 20 66
REMARK SMILES IDX 22 67 23 68 27 69 24 70 26 71 25 72 13 73 14 74 15 75 16 76
REMARK SMILES IDX 19 77 17 78 18 79
REMARK H PARENT 3 6 69 24 47 35 7 60
REMARK Flexibility Score: inf
ROOT
ATOM      1  C   UNL A   1      38.357  19.952  25.007  1.00  0.00     0.042 C 
ENDROOT
BRANCH   1   2
ATOM      2  C   UNL A   1      39.301  19.856  26.193  1.00  0.00     0.118 C 
BRANCH   2   3
ATOM      3  N   UNL A   1      40.552  19.196  25.847  1.00  0.00    -0.352 N 
ATOM      4  O   UNL A   1      42.731  19.075  25.291  1.00  0.00    -0.269 OA
ATOM      5  C   UNL A   1      41.827  19.710  25.816  1.00  0.00     0.251 C 
ATOM      6  H   UNL A   1      40.472  18.246  25.600  1.00  0.00     0.163 HD
BRANCH   5   7
ATOM      7  C   UNL A   1      42.097  21.036  26.413  1.00  0.00     0.039 A 
ATOM      8  C   UNL A   1      42.098  21.197  27.799  1.00  0.00     0.014 A 
ATOM      9  C   UNL A   1      42.374  22.126  25.582  1.00  0.00     0.014 A 
ATOM     10  C   UNL A   1      42.218  22.465  28.346  1.00  0.00     0.010 A 
ATOM     11  C   UNL A   1      42.616  23.384  26.142  1.00  0.00     0.010 A 
ATOM     12  C   UNL A   1      42.520  23.568  27.529  1.00  0.00    -0.014 A 
BRANCH  12  13
ATOM     13  C   UNL A   1      42.835  24.860  28.187  1.00  0.00     0.031 A 
ATOM     14  C   UNL A   1      44.240  25.240  28.554  1.00  0.00     0.074 A 
ATOM     15  C   UNL A   1      41.822  25.727  28.383  1.00  0.00     0.049 A 
ATOM     16  N   UNL A   1      44.678  26.372  29.047  1.00  0.00    -0.248 NA
ATOM     17  C   UNL A   1      45.288  24.228  28.354  1.00  0.00     0.031 C 
ATOM     18  C   UNL A   1      40.411  25.457  28.081  1.00  0.00     0.029 A 
ATOM     19  N   UNL A   1      41.818  27.021  28.837  1.00  0.00    -0.354 N 
ATOM     20  C   UNL A   1      46.046  26.208  29.224  1.00  0.00     0.074 A 
ATOM     21  C   UNL A   1      46.363  24.855  28.816  1.00  0.00     0.031 C 
ATOM     22  C   UNL A   1      39.696  26.570  28.283  1.00  0.00     0.029 A 
ATOM     23  C   UNL A   1      40.576  27.607  28.802  1.00  0.00     0.049 A 
ATOM     24  H   UNL A   1      42.626  27.483  29.156  1.00  0.00     0.167 HD
ATOM     25  C   UNL A   1      46.953  27.106  29.678  1.00  0.00     0.031 A 
ATOM     26  C   UNL A   1      40.180  28.841  29.161  1.00  0.00     0.031 A 
ATOM     27  C   UNL A   1      46.628  28.447  30.095  1.00  0.00     0.049 A 
ATOM     28  C   UNL A   1      41.206  29.803  29.679  1.00  0.00     0.074 A 
ATOM     29  C   UNL A   1      47.477  29.433  30.568  1.00  0.00     0.029 A 
ATOM     30  N   UNL A   1      45.351  28.990  30.090  1.00  0.00    -0.354 N 
ATOM     31  N   UNL A   1      42.498  29.636  29.815  1.00  0.00    -0.248 NA
ATOM     32  C   UNL A   1      40.717  31.123  30.093  1.00  0.00     0.031 C 
ATOM     33  C   UNL A   1      46.707  30.556  30.894  1.00  0.00     0.029 A 
ATOM     34  C   UNL A   1      45.387  30.290  30.568  1.00  0.00     0.049 A 
ATOM     35  H   UNL A   1      44.539  28.520  29.791  1.00  0.00     0.167 HD
ATOM     36  C   UNL A   1      42.980  30.832  30.326  1.00  0.00     0.074 A 
ATOM     37  C   UNL A   1      41.845  31.727  30.434  1.00  0.00     0.031 C 
ATOM     38  C   UNL A   1      44.245  31.159  30.683  1.00  0.00     0.031 A 
BRANCH  25  39
ATOM     39  C   UNL A   1      48.388  26.666  29.765  1.00  0.00    -0.014 A 
ATOM     40  C   UNL A   1      49.284  26.893  28.709  1.00  0.00     0.009 A 
ATOM     41  C   UNL A   1      48.868  26.070  30.943  1.00  0.00     0.009 A 
ATOM     42  C   UNL A   1      50.624  26.512  28.821  1.00  0.00     0.001 A 
ATOM     43  C   UNL A   1      50.213  25.714  31.063  1.00  0.00     0.001 A 
ATOM     44  C   UNL A   1      51.089  25.931  30.001  1.00  0.00     0.000 A 
ENDBRANCH  25  39
BRANCH  26  45
ATOM     45  C   UNL A   1      38.745  29.216  29.071  1.00  0.00    -0.014 A 
ATOM     46  C   UNL A   1      37.892  29.085  30.176  1.00  0.00     0.009 A 
ATOM     47  C   UNL A   1      38.221  29.710  27.865  1.00  0.00     0.009 A 
ATOM     48  C   UNL A   1      36.539  29.413  30.067  1.00  0.00     0.001 A 
ATOM     49  C   UNL A   1      36.877  30.072  27.770  1.00  0.00     0.001 A 
ATOM     50  C   UNL A   1      36.034  29.911  28.866  1.00  0.00     0.000 A 
ENDBRANCH  26  45
BRANCH  38  51
ATOM     51  C   UNL A   1      44.455  32.551  31.209  1.00  0.00    -0.014 A 
ATOM     52  C   UNL A   1      44.710  33.625  30.341  1.00  0.00     0.009 A 
ATOM     53  C   UNL A   1      44.402  32.789  32.590  1.00  0.00     0.009 A 
ATOM     54  C   UNL A   1      44.957  34.900  30.851  1.00  0.00     0.001 A 
ATOM     55  C   UNL A   1      44.617  34.072  33.095  1.00  0.00     0.001 A 
ATOM     56  C   UNL A   1      44.908  35.122  32.227  1.00  0.00     0.000 A 
ENDBRANCH  38  51
ENDBRANCH  12  13
ENDBRANCH   5   7
ENDBRANCH   2   3
ENDBRANCH   1   2
BRANCH   1  57
ATOM     57  C   UNL A   1      37.689  21.317  24.892  1.00  0.00     0.117 C 
BRANCH  57  58
ATOM     58  N   UNL A   1      36.656  21.479  25.899  1.00  0.00    -0.356 N 
ATOM     59  C   UNL A   1      35.347  21.818  25.809  1.00  0.00     0.225 C 
ATOM     60  H   UNL A   1      36.964  21.312  26.819  1.00  0.00     0.163 HD
ATOM     61  O   UNL A   1      34.752  22.003  26.875  1.00  0.00    -0.275 OA
BRANCH  59  62
ATOM     62  C   UNL A   1      34.582  21.890  24.501  1.00  0.00     0.107 C 
ATOM     63  C   UNL A   1      34.242  23.346  24.218  1.00  0.00     0.133 C 
ATOM     64  C   UNL A   1      33.248  21.138  24.333  1.00  0.00     0.053 C 
ATOM     65  N   UNL A   1      33.171  23.292  23.249  1.00  0.00    -0.341 N 
ATOM     66  C   UNL A   1      32.526  21.987  23.264  1.00  0.00     0.128 C 
BRANCH  64  67
ATOM     67  C   UNL A   1      33.347  19.646  24.043  1.00  0.00    -0.042 A 
ATOM     68  C   UNL A   1      34.350  18.851  24.623  1.00  0.00     0.004 A 
ATOM     69  C   UNL A   1      32.501  19.035  23.099  1.00  0.00     0.004 A 
ATOM     70  C   UNL A   1      34.480  17.496  24.301  1.00  0.00     0.000 A 
ATOM     71  C   UNL A   1      32.639  17.682  22.770  1.00  0.00     0.000 A 
ATOM     72  C   UNL A   1      33.625  16.912  23.372  1.00  0.00     0.000 A 
ENDBRANCH  64  67
BRANCH  65  73
ATOM     73  C   UNL A   1      32.733  24.256  22.373  1.00  0.00     0.225 C 
ATOM     74  O   UNL A   1      33.243  24.354  21.252  1.00  0.00    -0.275 OA
BRANCH  73  75
ATOM     75  C   UNL A   1      31.662  25.261  22.782  1.00  0.00     0.078 C 
ATOM     76  C   UNL A   1      30.413  24.709  23.458  1.00  0.00     0.013 C 
ATOM     77  C   UNL A   1      32.169  26.380  23.694  1.00  0.00     0.013 C 
ATOM     78  C   UNL A   1      29.801  25.935  24.117  1.00  0.00     0.001 C 
ATOM     79  C   UNL A   1      30.988  26.771  24.581  1.00  0.00     0.001 C 
ENDBRANCH  73  75
ENDBRANCH  65  73
ENDBRANCH  59  62
ENDBRANCH  57  58
ENDBRANCH   1  57
TORSDOF 13
ENDMDL
MODEL 2
REMARK VINA RESULT:     -11.9      2.782      8.186
REMARK SMILES O=C(NCCCNC(=O)[C@@H]1CN(C(=O)C2CCCC2)C[C@H]1c1ccccc1)c1ccc(-c2c3nc(c(-c4ccccc4)c4ccc([nH]4)c(-c4ccccc4)c4nc(c(-c5ccccc5)c5ccc2[nH]5)C=C4)C=C3)cc1
REMARK SMILES IDX 5 1 4 2 3 3 1 4 2 5 28 7 29 8 75 9 30 10 74 11 31 12 32 13
REMARK SMILES IDX 33 14 68 15 34 16 73 17 67 18 69 19 35 20 72 21 66 22 65 23
REMARK SMILES IDX 36 25 58 26 43 27 57 28 44 29 47 30 56 31 70 32 45 33 46 34
REMARK SMILES IDX 55 36 71 37 48 38 37 39 38 40 42 41 39 42 41 43 40 44 59 45
REMARK SMILES IDX 60 46 64 47 61 48 63 49 62 50 49 51 50 52 54 53 51 54 53 55
REMARK SMILES IDX 52 56 6 57 7 58 8 59 9 61 10 62 11 63 21 64 12 65 20 66
REMARK SMILES IDX 22 67 23 68 27 69 24 70 26 71 25 72 13 73 14 74 15 75 16 76
REMARK SMILES IDX 19 77 17 78 18 79
REMARK H PARENT 3 6 69 24 47 35 7 60
REMARK Flexibility Score: inf
ROOT
ATOM      1  C   UNL A   1      33.271  27.764  26.682  1.00  0.00     0.042 C 
ENDROOT
BRANCH   1   2
ATOM      2  C   UNL A   1      34.125  28.872  26.090  1.00  0.00     0.118 C 
BRANCH   2   3
ATOM      3  N   UNL A   1      33.836  30.167  26.689  1.00  0.00    -0.352 N 
ATOM      4  O   UNL A   1      33.989  31.803  28.229  1.00  0.00    -0.269 OA
ATOM      5  C   UNL A   1      34.497  30.824  27.700  1.00  0.00     0.251 C 
ATOM      6  H   UNL A   1      33.057  30.639  26.317  1.00  0.00     0.163 HD
BRANCH   5   7
ATOM      7  C   UNL A   1      35.819  30.336  28.150  1.00  0.00     0.039 A 
ATOM      8  C   UNL A   1      36.946  30.515  27.347  1.00  0.00     0.014 A 
ATOM      9  C   UNL A   1      35.939  29.712  29.396  1.00  0.00     0.014 A 
ATOM     10  C   UNL A   1      38.151  29.937  27.713  1.00  0.00     0.010 A 
ATOM     11  C   UNL A   1      37.185  29.237  29.819  1.00  0.00     0.010 A 
ATOM     12  C   UNL A   1      38.298  29.328  28.970  1.00  0.00    -0.014 A 
BRANCH  12  13
ATOM     13  C   UNL A   1      39.658  28.908  29.390  1.00  0.00     0.031 A 
ATOM     14  C   UNL A   1      40.464  29.703  30.375  1.00  0.00     0.074 A 
ATOM     15  C   UNL A   1      40.128  27.738  28.911  1.00  0.00     0.049 A 
ATOM     16  N   UNL A   1      41.626  29.409  30.905  1.00  0.00    -0.248 NA
ATOM     17  C   UNL A   1      39.910  30.990  30.821  1.00  0.00     0.031 C 
ATOM     18  C   UNL A   1      39.437  26.890  27.932  1.00  0.00     0.029 A 
ATOM     19  N   UNL A   1      41.266  27.035  29.209  1.00  0.00    -0.354 N 
ATOM     20  C   UNL A   1      41.945  30.475  31.738  1.00  0.00     0.074 A 
ATOM     21  C   UNL A   1      40.870  31.438  31.619  1.00  0.00     0.031 C 
ATOM     22  C   UNL A   1      40.125  25.753  27.772  1.00  0.00     0.029 A 
ATOM     23  C   UNL A   1      41.341  25.822  28.570  1.00  0.00     0.049 A 
ATOM     24  H   UNL A   1      41.962  27.369  29.820  1.00  0.00     0.167 HD
ATOM     25  C   UNL A   1      43.032  30.630  32.532  1.00  0.00     0.031 A 
ATOM     26  C   UNL A   1      42.288  24.869  28.608  1.00  0.00     0.031 A 
ATOM     27  C   UNL A   1      44.105  29.673  32.636  1.00  0.00     0.049 A 
ATOM     28  C   UNL A   1      43.487  25.082  29.481  1.00  0.00     0.074 A 
ATOM     29  C   UNL A   1      45.247  29.738  33.415  1.00  0.00     0.029 A 
ATOM     30  N   UNL A   1      44.167  28.476  31.937  1.00  0.00    -0.354 N 
ATOM     31  N   UNL A   1      43.759  26.085  30.279  1.00  0.00    -0.248 NA
ATOM     32  C   UNL A   1      44.511  24.030  29.458  1.00  0.00     0.031 C 
ATOM     33  C   UNL A   1      46.023  28.604  33.151  1.00  0.00     0.029 A 
ATOM     34  C   UNL A   1      45.336  27.803  32.253  1.00  0.00     0.049 A 
ATOM     35  H   UNL A   1      43.482  28.152  31.309  1.00  0.00     0.167 HD
ATOM     36  C   UNL A   1      44.982  25.784  30.858  1.00  0.00     0.074 A 
ATOM     37  C   UNL A   1      45.377  24.485  30.351  1.00  0.00     0.031 C 
ATOM     38  C   UNL A   1      45.719  26.520  31.725  1.00  0.00     0.031 A 
BRANCH  25  39
ATOM     39  C   UNL A   1      43.128  31.891  33.345  1.00  0.00    -0.014 A 
ATOM     40  C   UNL A   1      43.739  33.045  32.828  1.00  0.00     0.009 A 
ATOM     41  C   UNL A   1      42.546  31.948  34.622  1.00  0.00     0.009 A 
ATOM     42  C   UNL A   1      43.785  34.221  33.582  1.00  0.00     0.001 A 
ATOM     43  C   UNL A   1      42.570  33.132  35.363  1.00  0.00     0.001 A 
ATOM     44  C   UNL A   1      43.195  34.265  34.844  1.00  0.00     0.000 A 
ENDBRANCH  25  39
BRANCH  26  45
ATOM     45  C   UNL A   1      42.151  23.650  27.769  1.00  0.00    -0.014 A 
ATOM     46  C   UNL A   1      42.675  23.603  26.469  1.00  0.00     0.009 A 
ATOM     47  C   UNL A   1      41.486  22.520  28.273  1.00  0.00     0.009 A 
ATOM     48  C   UNL A   1      42.510  22.461  25.682  1.00  0.00     0.001 A 
ATOM     49  C   UNL A   1      41.355  21.367  27.498  1.00  0.00     0.001 A 
ATOM     50  C   UNL A   1      41.856  21.343  26.199  1.00  0.00     0.000 A 
ENDBRANCH  26  45
BRANCH  38  51
ATOM     51  C   UNL A   1      47.018  25.917  32.181  1.00  0.00    -0.014 A 
ATOM     52  C   UNL A   1      48.198  26.089  31.441  1.00  0.00     0.009 A 
ATOM     53  C   UNL A   1      47.059  25.163  33.363  1.00  0.00     0.009 A 
ATOM     54  C   UNL A   1      49.383  25.476  31.850  1.00  0.00     0.001 A 
ATOM     55  C   UNL A   1      48.253  24.579  33.788  1.00  0.00     0.001 A 
ATOM     56  C   UNL A   1      49.409  24.724  33.024  1.00  0.00     0.000 A 
ENDBRANCH  38  51
ENDBRANCH  12  13
ENDBRANCH   5   7
ENDBRANCH   2   3
ENDBRANCH   1   2
BRANCH   1  57
ATOM     57  C   UNL A   1      31.808  28.161  26.834  1.00  0.00     0.117 C 
BRANCH  57  58
ATOM     58  N   UNL A   1      30.963  26.991  26.995  1.00  0.00    -0.356 N 
ATOM     59  C   UNL A   1      30.361  26.177  26.093  1.00  0.00     0.225 C 
ATOM     60  H   UNL A   1      30.797  26.742  27.932  1.00  0.00     0.163 HD
ATOM     61  O   UNL A   1      29.588  25.329  26.549  1.00  0.00    -0.275 OA
BRANCH  59  62
ATOM     62  C   UNL A   1      30.653  26.202  24.606  1.00  0.00     0.107 C 
ATOM     63  C   UNL A   1      31.833  25.284  24.328  1.00  0.00     0.133 C 
ATOM     64  C   UNL A   1      31.013  27.525  23.902  1.00  0.00     0.053 C 
ATOM     65  N   UNL A   1      32.323  25.697  23.031  1.00  0.00    -0.341 N 
ATOM     66  C   UNL A   1      31.866  27.040  22.710  1.00  0.00     0.128 C 
BRANCH  64  67
ATOM     67  C   UNL A   1      29.848  28.445  23.557  1.00  0.00    -0.042 A 
ATOM     68  C   UNL A   1      29.952  29.840  23.688  1.00  0.00     0.004 A 
ATOM     69  C   UNL A   1      28.594  27.920  23.198  1.00  0.00     0.004 A 
ATOM     70  C   UNL A   1      28.860  30.676  23.436  1.00  0.00     0.000 A 
ATOM     71  C   UNL A   1      27.499  28.756  22.957  1.00  0.00     0.000 A 
ATOM     72  C   UNL A   1      27.632  30.134  23.072  1.00  0.00     0.000 A 
ENDBRANCH  64  67
BRANCH  65  73
ATOM     73  C   UNL A   1      33.102  25.010  22.131  1.00  0.00     0.225 C 
ATOM     74  O   UNL A   1      33.247  25.441  20.982  1.00  0.00    -0.275 OA
BRANCH  73  75
ATOM     75  C   UNL A   1      33.749  23.681  22.504  1.00  0.00     0.078 C 
ATOM     76  C   UNL A   1      34.748  23.693  23.654  1.00  0.00     0.013 C 
ATOM     77  C   UNL A   1      32.750  22.569  22.833  1.00  0.00     0.013 C 
ATOM     78  C   UNL A   1      34.844  22.228  24.049  1.00  0.00     0.001 C 
ATOM     79  C   UNL A   1      33.438  21.672  23.860  1.00  0.00     0.001 C 
ENDBRANCH  73  75
ENDBRANCH  65  73
ENDBRANCH  59  62
ENDBRANCH  57  58
ENDBRANCH   1  57
TORSDOF 13
ENDMDL
MODEL 3
REMARK VINA RESULT:     -11.9      3.584      9.072
REMARK SMILES O=C(NCCCNC(=O)[C@@H]1CN(C(=O)C2CCCC2)C[C@H]1c1ccccc1)c1ccc(-c2c3nc(c(-c4ccccc4)c4ccc([nH]4)c(-c4ccccc4)c4nc(c(-c5ccccc5)c5ccc2[nH]5)C=C4)C=C3)cc1
REMARK SMILES IDX 5 1 4 2 3 3 1 4 2 5 28 7 29 8 75 9 30 10 74 11 31 12 32 13
REMARK SMILES IDX 33 14 68 15 34 16 73 17 67 18 69 19 35 20 72 21 66 22 65 23
REMARK SMILES IDX 36 25 58 26 43 27 57 28 44 29 47 30 56 31 70 32 45 33 46 34
REMARK SMILES IDX 55 36 71 37 48 38 37 39 38 40 42 41 39 42 41 43 40 44 59 45
REMARK SMILES IDX 60 46 64 47 61 48 63 49 62 50 49 51 50 52 54 53 51 54 53 55
REMARK SMILES IDX 52 56 6 57 7 58 8 59 9 61 10 62 11 63 21 64 12 65 20 66
REMARK SMILES IDX 22 67 23 68 27 69 24 70 26 71 25 72 13 73 14 74 15 75 16 76
REMARK SMILES IDX 19 77 17 78 18 79
REMARK H PARENT 3 6 69 24 47 35 7 60
REMARK Flexibility Score: inf
ROOT
ATOM      1  C   UNL A   1      31.382  31.269  25.988  1.00  0.00     0.042 C 
ENDROOT
BRANCH   1   2
ATOM      2  C   UNL A   1      32.454  31.763  26.946  1.00  0.00     0.118 C 
BRANCH   2   3
ATOM      3  N   UNL A   1      32.246  33.150  27.335  1.00  0.00    -0.352 N 
ATOM      4  O   UNL A   1      32.549  35.010  28.568  1.00  0.00    -0.269 OA
ATOM      5  C   UNL A   1      32.990  33.936  28.182  1.00  0.00     0.251 C 
ATOM      6  H   UNL A   1      31.461  33.587  26.933  1.00  0.00     0.163 HD
BRANCH   5   7
ATOM      7  C   UNL A   1      34.321  33.473  28.632  1.00  0.00     0.039 A 
ATOM      8  C   UNL A   1      34.438  32.647  29.750  1.00  0.00     0.014 A 
ATOM      9  C   UNL A   1      35.463  33.847  27.916  1.00  0.00     0.014 A 
ATOM     10  C   UNL A   1      35.694  32.328  30.243  1.00  0.00     0.010 A 
ATOM     11  C   UNL A   1      36.724  33.422  28.345  1.00  0.00     0.010 A 
ATOM     12  C   UNL A   1      36.850  32.674  29.526  1.00  0.00    -0.014 A 
BRANCH  12  13
ATOM     13  C   UNL A   1      38.151  32.135  29.993  1.00  0.00     0.031 A 
ATOM     14  C   UNL A   1      38.945  32.805  31.076  1.00  0.00     0.074 A 
ATOM     15  C   UNL A   1      38.573  30.969  29.461  1.00  0.00     0.049 A 
ATOM     16  N   UNL A   1      40.050  32.397  31.650  1.00  0.00    -0.248 NA
ATOM     17  C   UNL A   1      38.449  34.094  31.578  1.00  0.00     0.031 C 
ATOM     18  C   UNL A   1      37.891  30.238  28.387  1.00  0.00     0.029 A 
ATOM     19  N   UNL A   1      39.643  30.171  29.773  1.00  0.00    -0.354 N 
ATOM     20  C   UNL A   1      40.385  33.381  32.573  1.00  0.00     0.074 A 
ATOM     21  C   UNL A   1      39.385  34.421  32.460  1.00  0.00     0.031 C 
ATOM     22  C   UNL A   1      38.512  29.069  28.186  1.00  0.00     0.029 A 
ATOM     23  C   UNL A   1      39.678  29.001  29.056  1.00  0.00     0.049 A 
ATOM     24  H   UNL A   1      40.320  30.414  30.446  1.00  0.00     0.167 HD
ATOM     25  C   UNL A   1      41.428  33.407  33.437  1.00  0.00     0.031 A 
ATOM     26  C   UNL A   1      40.557  27.984  29.082  1.00  0.00     0.031 A 
ATOM     27  C   UNL A   1      42.428  32.373  33.535  1.00  0.00     0.049 A 
ATOM     28  C   UNL A   1      41.711  28.055  30.035  1.00  0.00     0.074 A 
ATOM     29  C   UNL A   1      43.521  32.308  34.381  1.00  0.00     0.029 A 
ATOM     30  N   UNL A   1      42.456  31.224  32.759  1.00  0.00    -0.354 N 
ATOM     31  N   UNL A   1      41.997  28.982  30.916  1.00  0.00    -0.248 NA
ATOM     32  C   UNL A   1      42.664  26.939  29.998  1.00  0.00     0.031 C 
ATOM     33  C   UNL A   1      44.237  31.142  34.084  1.00  0.00     0.029 A 
ATOM     34  C   UNL A   1      43.557  30.453  33.094  1.00  0.00     0.049 A 
ATOM     35  H   UNL A   1      41.791  30.991  32.071  1.00  0.00     0.167 HD
ATOM     36  C   UNL A   1      43.160  28.559  31.543  1.00  0.00     0.074 A 
ATOM     37  C   UNL A   1      43.500  27.273  30.969  1.00  0.00     0.031 C 
ATOM     38  C   UNL A   1      43.888  29.183  32.500  1.00  0.00     0.031 A 
BRANCH  25  39
ATOM     39  C   UNL A   1      41.555  34.603  34.341  1.00  0.00    -0.014 A 
ATOM     40  C   UNL A   1      42.270  35.744  33.942  1.00  0.00     0.009 A 
ATOM     41  C   UNL A   1      40.901  34.614  35.583  1.00  0.00     0.009 A 
ATOM     42  C   UNL A   1      42.346  36.861  34.778  1.00  0.00     0.001 A 
ATOM     43  C   UNL A   1      40.956  35.742  36.406  1.00  0.00     0.001 A 
ATOM     44  C   UNL A   1      41.683  36.862  36.005  1.00  0.00     0.000 A 
ENDBRANCH  25  39
BRANCH  26  45
ATOM     45  C   UNL A   1      40.393  26.835  28.153  1.00  0.00    -0.014 A 
ATOM     46  C   UNL A   1      39.668  25.697  28.531  1.00  0.00     0.009 A 
ATOM     47  C   UNL A   1      40.971  26.877  26.874  1.00  0.00     0.009 A 
ATOM     48  C   UNL A   1      39.549  24.612  27.659  1.00  0.00     0.001 A 
ATOM     49  C   UNL A   1      40.820  25.807  25.990  1.00  0.00     0.001 A 
ATOM     50  C   UNL A   1      40.120  24.671  26.388  1.00  0.00     0.000 A 
ENDBRANCH  26  45
BRANCH  38  51
ATOM     51  C   UNL A   1      45.113  28.463  32.987  1.00  0.00    -0.014 A 
ATOM     52  C   UNL A   1      46.365  28.670  32.384  1.00  0.00     0.009 A 
ATOM     53  C   UNL A   1      45.013  27.563  34.058  1.00  0.00     0.009 A 
ATOM     54  C   UNL A   1      47.481  27.951  32.813  1.00  0.00     0.001 A 
ATOM     55  C   UNL A   1      46.138  26.871  34.507  1.00  0.00     0.001 A 
ATOM     56  C   UNL A   1      47.367  27.055  33.875  1.00  0.00     0.000 A 
ENDBRANCH  38  51
ENDBRANCH  12  13
ENDBRANCH   5   7
ENDBRANCH   2   3
ENDBRANCH   1   2
BRANCH   1  57
ATOM     57  C   UNL A   1      31.595  29.824  25.557  1.00  0.00     0.117 C 
BRANCH  57  58
ATOM     58  N   UNL A   1      32.740  29.706  24.672  1.00  0.00    -0.356 N 
ATOM     59  C   UNL A   1      33.189  28.685  23.901  1.00  0.00     0.225 C 
ATOM     60  H   UNL A   1      33.294  30.518  24.623  1.00  0.00     0.163 HD
ATOM     61  O   UNL A   1      34.283  28.850  23.353  1.00  0.00    -0.275 OA
BRANCH  59  62
ATOM     62  C   UNL A   1      32.392  27.426  23.620  1.00  0.00     0.107 C 
ATOM     63  C   UNL A   1      33.363  26.289  23.344  1.00  0.00     0.133 C 
ATOM     64  C   UNL A   1      31.393  27.379  22.448  1.00  0.00     0.053 C 
ATOM     65  N   UNL A   1      32.573  25.286  22.665  1.00  0.00    -0.341 N 
ATOM     66  C   UNL A   1      31.369  25.875  22.098  1.00  0.00     0.128 C 
BRANCH  64  67
ATOM     67  C   UNL A   1      30.036  28.028  22.691  1.00  0.00    -0.042 A 
ATOM     68  C   UNL A   1      28.991  27.328  23.319  1.00  0.00     0.004 A 
ATOM     69  C   UNL A   1      29.750  29.314  22.198  1.00  0.00     0.004 A 
ATOM     70  C   UNL A   1      27.726  27.903  23.479  1.00  0.00     0.000 A 
ATOM     71  C   UNL A   1      28.481  29.883  22.349  1.00  0.00     0.000 A 
ATOM     72  C   UNL A   1      27.470  29.180  22.992  1.00  0.00     0.000 A 
ENDBRANCH  64  67
BRANCH  65  73
ATOM     73  C   UNL A   1      32.808  23.941  22.514  1.00  0.00     0.225 C 
ATOM     74  O   UNL A   1      33.608  23.543  21.661  1.00  0.00    -0.275 OA
BRANCH  73  75
ATOM     75  C   UNL A   1      32.046  22.913  23.342  1.00  0.00     0.078 C 
ATOM     76  C   UNL A   1      32.755  21.598  23.641  1.00  0.00     0.013 C 
ATOM     77  C   UNL A   1      31.554  23.437  24.693  1.00  0.00     0.013 C 
ATOM     78  C   UNL A   1      31.959  21.027  24.803  1.00  0.00     0.001 C 
ATOM     79  C   UNL A   1      31.550  22.236  25.637  1.00  0.00     0.001 C 
ENDBRANCH  73  75
ENDBRANCH  65  73
ENDBRANCH  59  62
ENDBRANCH  57  58
ENDBRANCH   1  57
TORSDOF 13
ENDMDL
