MODEL 1
REMARK VINA RESULT:     -13.7      0.000      0.000
REMARK SMILES Cc1ccccc1-c1c(Cl)ccc2c1C=C(C(=O)NCCCNC(=O)c1ccc(-c3c4nc(c(-c5ccccc5)c5ccc([nH]5)c(-c5ccccc5)c5nc(c(-c6ccccc6)c6ccc3[nH]6)C=C5)C=C4)cc1)[C@@H](C(F)(F)F)O2
REMARK SMILES IDX 21 1 20 2 19 3 17 4 18 5 16 7 8 8 9 9 14 10 10 11 11 12
REMARK SMILES IDX 13 13 15 14 12 15 79 16 74 17 7 18 1 19 2 20 3 21 4 22 6 23
REMARK SMILES IDX 5 24 75 25 76 26 77 27 78 28 22 29 23 30 24 31 25 33 26 34
REMARK SMILES IDX 27 35 73 36 28 37 72 38 29 39 30 40 31 41 66 42 32 43 71 44
REMARK SMILES IDX 65 45 67 46 33 47 70 48 64 49 63 50 34 52 56 53 41 54 55 55
REMARK SMILES IDX 42 56 45 57 54 58 68 59 43 60 44 61 53 63 69 64 46 65 35 66
REMARK SMILES IDX 36 67 40 68 37 69 39 70 38 71 57 72 58 73 62 74 59 75 61 76
REMARK SMILES IDX 60 77 47 78 48 79 52 80 49 81 51 82 50 83
REMARK H PARENT 19 6 23 32 67 51 45 62
REMARK Flexibility Score: inf
ROOT
ATOM      1  C   UNL A   1      38.582  21.754  25.788  1.00  0.00     0.042 C 
ENDROOT
BRANCH   1   2
ATOM      2  C   UNL A   1      37.924  23.124  25.820  1.00  0.00     0.118 C 
BRANCH   2   3
ATOM      3  N   UNL A   1      37.178  23.396  24.606  1.00  0.00    -0.352 N 
ATOM      4  C   UNL A   1      35.850  23.596  24.388  1.00  0.00     0.251 C 
ATOM      5  O   UNL A   1      35.474  23.685  23.219  1.00  0.00    -0.270 OA
ATOM      6  H   UNL A   1      37.731  23.444  23.794  1.00  0.00     0.163 HD
BRANCH   4   7
ATOM      7  C   UNL A   1      34.857  23.682  25.520  1.00  0.00     0.067 C 
ATOM      8  C   UNL A   1      32.011  25.960  24.760  1.00  0.00     0.012 A 
ATOM      9  C   UNL A   1      30.862  25.855  23.940  1.00  0.00     0.049 A 
ATOM     10  C   UNL A   1      32.784  24.783  24.949  1.00  0.00     0.027 A 
ATOM     11  Cl  UNL A   1      29.894  27.236  23.537  1.00  0.00    -0.084 Cl
ATOM     12  C   UNL A   1      30.455  24.627  23.406  1.00  0.00     0.025 A 
ATOM     13  C   UNL A   1      32.317  23.544  24.472  1.00  0.00     0.128 A 
ATOM     14  C   UNL A   1      34.129  24.815  25.551  1.00  0.00     0.026 C 
ATOM     15  C   UNL A   1      31.163  23.468  23.699  1.00  0.00     0.049 A 
ATOM     16  O   UNL A   1      32.945  22.347  24.710  1.00  0.00    -0.475 OA
ATOM     17  C   UNL A   1      34.065  22.383  25.627  1.00  0.00     0.314 C 
BRANCH   8  18
ATOM     18  C   UNL A   1      32.297  27.213  25.507  1.00  0.00    -0.013 A 
ATOM     19  C   UNL A   1      33.901  28.227  23.771  1.00  0.00     0.045 C 
ATOM     20  C   UNL A   1      33.177  28.232  25.086  1.00  0.00    -0.043 A 
ATOM     21  C   UNL A   1      33.381  29.357  25.915  1.00  0.00     0.004 A 
ATOM     22  C   UNL A   1      32.712  29.497  27.129  1.00  0.00     0.000 A 
ATOM     23  C   UNL A   1      31.636  27.382  26.746  1.00  0.00     0.009 A 
ATOM     24  C   UNL A   1      31.828  28.512  27.541  1.00  0.00     0.001 A 
ENDBRANCH   8  18
BRANCH  17  25
ATOM     25  C   UNL A   1      33.630  22.110  27.076  1.00  0.00     0.429 C 
ATOM     26  F   UNL A   1      33.670  20.789  27.368  1.00  0.00    -0.167 F 
ATOM     27  F   UNL A   1      34.458  22.731  27.956  1.00  0.00    -0.167 F 
ATOM     28  F   UNL A   1      32.376  22.543  27.344  1.00  0.00    -0.167 F 
ENDBRANCH  17  25
ENDBRANCH   4   7
ENDBRANCH   2   3
ENDBRANCH   1   2
BRANCH   1  29
ATOM     29  C   UNL A   1      39.974  21.761  26.402  1.00  0.00     0.118 C 
BRANCH  29  30
ATOM     30  N   UNL A   1      40.905  20.812  25.787  1.00  0.00    -0.352 N 
ATOM     31  C   UNL A   1      42.292  20.777  25.868  1.00  0.00     0.251 C 
ATOM     32  H   UNL A   1      40.492  20.102  25.245  1.00  0.00     0.163 HD
ATOM     33  O   UNL A   1      42.928  19.883  25.343  1.00  0.00    -0.269 OA
BRANCH  31  34
ATOM     34  C   UNL A   1      42.970  21.780  26.725  1.00  0.00     0.039 A 
ATOM     35  C   UNL A   1      42.805  21.673  28.109  1.00  0.00     0.014 A 
ATOM     36  C   UNL A   1      43.497  22.937  26.161  1.00  0.00     0.014 A 
ATOM     37  C   UNL A   1      42.893  22.823  28.887  1.00  0.00     0.010 A 
ATOM     38  C   UNL A   1      43.467  24.097  26.905  1.00  0.00     0.010 A 
ATOM     39  C   UNL A   1      43.092  24.049  28.250  1.00  0.00    -0.014 A 
BRANCH  39  40
ATOM     40  C   UNL A   1      42.824  25.327  28.898  1.00  0.00     0.031 A 
ATOM     41  C   UNL A   1      41.647  26.118  28.501  1.00  0.00     0.074 A 
ATOM     42  C   UNL A   1      43.645  25.793  29.866  1.00  0.00     0.049 A 
ATOM     43  N   UNL A   1      41.601  27.409  28.507  1.00  0.00    -0.248 NA
ATOM     44  C   UNL A   1      40.429  25.494  28.003  1.00  0.00     0.031 C 
ATOM     45  C   UNL A   1      43.426  26.956  30.723  1.00  0.00     0.029 A 
ATOM     46  N   UNL A   1      44.970  25.437  30.116  1.00  0.00    -0.354 N 
ATOM     47  C   UNL A   1      40.284  27.765  28.333  1.00  0.00     0.074 A 
ATOM     48  C   UNL A   1      39.617  26.551  27.920  1.00  0.00     0.031 C 
ATOM     49  C   UNL A   1      44.619  27.412  31.136  1.00  0.00     0.029 A 
ATOM     50  C   UNL A   1      45.640  26.620  30.471  1.00  0.00     0.049 A 
ATOM     51  H   UNL A   1      45.359  24.534  30.055  1.00  0.00     0.167 HD
ATOM     52  C   UNL A   1      39.860  29.003  28.715  1.00  0.00     0.031 A 
ATOM     53  C   UNL A   1      46.714  27.111  29.787  1.00  0.00     0.031 A 
ATOM     54  C   UNL A   1      40.964  29.839  29.186  1.00  0.00     0.049 A 
ATOM     55  C   UNL A   1      46.470  28.495  29.225  1.00  0.00     0.074 A 
ATOM     56  C   UNL A   1      41.407  30.187  30.452  1.00  0.00     0.029 A 
ATOM     57  N   UNL A   1      41.975  30.201  28.303  1.00  0.00    -0.354 N 
ATOM     58  N   UNL A   1      45.298  29.064  29.180  1.00  0.00    -0.248 NA
ATOM     59  C   UNL A   1      47.507  29.313  28.595  1.00  0.00     0.031 C 
ATOM     60  C   UNL A   1      42.731  30.682  30.333  1.00  0.00     0.029 A 
ATOM     61  C   UNL A   1      43.080  30.661  28.994  1.00  0.00     0.049 A 
ATOM     62  H   UNL A   1      41.913  30.138  27.323  1.00  0.00     0.167 HD
ATOM     63  C   UNL A   1      45.390  30.260  28.520  1.00  0.00     0.074 A 
ATOM     64  C   UNL A   1      46.798  30.382  28.189  1.00  0.00     0.031 C 
ATOM     65  C   UNL A   1      44.294  31.037  28.280  1.00  0.00     0.031 A 
BRANCH  52  66
ATOM     66  C   UNL A   1      38.402  29.323  28.963  1.00  0.00    -0.014 A 
ATOM     67  C   UNL A   1      37.597  29.776  27.901  1.00  0.00     0.009 A 
ATOM     68  C   UNL A   1      37.778  29.268  30.220  1.00  0.00     0.009 A 
ATOM     69  C   UNL A   1      36.293  30.252  28.104  1.00  0.00     0.001 A 
ATOM     70  C   UNL A   1      36.493  29.782  30.441  1.00  0.00     0.001 A 
ATOM     71  C   UNL A   1      35.753  30.288  29.382  1.00  0.00     0.000 A 
ENDBRANCH  52  66
BRANCH  53  72
ATOM     72  C   UNL A   1      47.535  26.057  29.129  1.00  0.00    -0.014 A 
ATOM     73  C   UNL A   1      47.277  25.783  27.770  1.00  0.00     0.009 A 
ATOM     74  C   UNL A   1      48.765  25.666  29.673  1.00  0.00     0.009 A 
ATOM     75  C   UNL A   1      48.278  25.266  26.945  1.00  0.00     0.001 A 
ATOM     76  C   UNL A   1      49.760  25.133  28.842  1.00  0.00     0.001 A 
ATOM     77  C   UNL A   1      49.531  24.976  27.474  1.00  0.00     0.000 A 
ENDBRANCH  53  72
BRANCH  65  78
ATOM     78  C   UNL A   1      44.265  32.263  27.406  1.00  0.00    -0.014 A 
ATOM     79  C   UNL A   1      44.361  32.234  26.008  1.00  0.00     0.009 A 
ATOM     80  C   UNL A   1      44.000  33.516  28.001  1.00  0.00     0.009 A 
ATOM     81  C   UNL A   1      44.252  33.407  25.248  1.00  0.00     0.001 A 
ATOM     82  C   UNL A   1      43.847  34.680  27.244  1.00  0.00     0.001 A 
ATOM     83  C   UNL A   1      43.988  34.627  25.865  1.00  0.00     0.000 A 
ENDBRANCH  65  78
ENDBRANCH  39  40
ENDBRANCH  31  34
ENDBRANCH  29  30
ENDBRANCH   1  29
TORSDOF 12
ENDMDL
MODEL 2
REMARK VINA RESULT:     -13.4      3.434      8.047
REMARK SMILES Cc1ccccc1-c1c(Cl)ccc2c1C=C(C(=O)NCCCNC(=O)c1ccc(-c3c4nc(c(-c5ccccc5)c5ccc([nH]5)c(-c5ccccc5)c5nc(c(-c6ccccc6)c6ccc3[nH]6)C=C5)C=C4)cc1)[C@@H](C(F)(F)F)O2
REMARK SMILES IDX 21 1 20 2 19 3 17 4 18 5 16 7 8 8 9 9 14 10 10 11 11 12
REMARK SMILES IDX 13 13 15 14 12 15 79 16 74 17 7 18 1 19 2 20 3 21 4 22 6 23
REMARK SMILES IDX 5 24 75 25 76 26 77 27 78 28 22 29 23 30 24 31 25 33 26 34
REMARK SMILES IDX 27 35 73 36 28 37 72 38 29 39 30 40 31 41 66 42 32 43 71 44
REMARK SMILES IDX 65 45 67 46 33 47 70 48 64 49 63 50 34 52 56 53 41 54 55 55
REMARK SMILES IDX 42 56 45 57 54 58 68 59 43 60 44 61 53 63 69 64 46 65 35 66
REMARK SMILES IDX 36 67 40 68 37 69 39 70 38 71 57 72 58 73 62 74 59 75 61 76
REMARK SMILES IDX 60 77 47 78 48 79 52 80 49 81 51 82 50 83
REMARK H PARENT 19 6 23 32 67 51 45 62
REMARK Flexibility Score: inf
ROOT
ATOM      1  C   UNL A   1      33.210  31.281  27.521  1.00  0.00     0.042 C 
ENDROOT
BRANCH   1   2
ATOM      2  C   UNL A   1      32.391  30.453  26.544  1.00  0.00     0.118 C 
BRANCH   2   3
ATOM      3  N   UNL A   1      32.040  29.157  27.094  1.00  0.00    -0.352 N 
ATOM      4  C   UNL A   1      32.138  27.901  26.580  1.00  0.00     0.251 C 
ATOM      5  O   UNL A   1      31.640  26.982  27.231  1.00  0.00    -0.270 OA
ATOM      6  H   UNL A   1      31.662  29.192  28.002  1.00  0.00     0.163 HD
BRANCH   4   7
ATOM      7  C   UNL A   1      32.802  27.629  25.253  1.00  0.00     0.067 C 
ATOM      8  C   UNL A   1      32.987  23.995  24.462  1.00  0.00     0.012 A 
ATOM      9  C   UNL A   1      32.040  23.035  24.032  1.00  0.00     0.049 A 
ATOM     10  C   UNL A   1      32.576  25.355  24.470  1.00  0.00     0.027 A 
ATOM     11  Cl  UNL A   1      32.373  21.334  24.078  1.00  0.00    -0.084 Cl
ATOM     12  C   UNL A   1      30.780  23.414  23.554  1.00  0.00     0.025 A 
ATOM     13  C   UNL A   1      31.337  25.724  23.913  1.00  0.00     0.128 A 
ATOM     14  C   UNL A   1      33.361  26.409  25.138  1.00  0.00     0.026 C 
ATOM     15  C   UNL A   1      30.442  24.759  23.464  1.00  0.00     0.049 A 
ATOM     16  O   UNL A   1      30.916  27.023  23.780  1.00  0.00    -0.475 OA
ATOM     17  C   UNL A   1      31.885  28.048  24.109  1.00  0.00     0.314 C 
BRANCH   8  18
ATOM     18  C   UNL A   1      34.393  23.600  24.742  1.00  0.00    -0.013 A 
ATOM     19  C   UNL A   1      34.040  23.006  27.219  1.00  0.00     0.045 C 
ATOM     20  C   UNL A   1      34.890  23.183  25.994  1.00  0.00    -0.043 A 
ATOM     21  C   UNL A   1      36.260  22.870  26.126  1.00  0.00     0.004 A 
ATOM     22  C   UNL A   1      37.130  22.938  25.040  1.00  0.00     0.000 A 
ATOM     23  C   UNL A   1      35.301  23.663  23.659  1.00  0.00     0.009 A 
ATOM     24  C   UNL A   1      36.647  23.325  23.799  1.00  0.00     0.001 A 
ENDBRANCH   8  18
BRANCH  17  25
ATOM     25  C   UNL A   1      32.693  28.491  22.878  1.00  0.00     0.429 C 
ATOM     26  F   UNL A   1      33.878  29.042  23.230  1.00  0.00    -0.167 F 
ATOM     27  F   UNL A   1      32.977  27.431  22.078  1.00  0.00    -0.167 F 
ATOM     28  F   UNL A   1      32.039  29.396  22.113  1.00  0.00    -0.167 F 
ENDBRANCH  17  25
ENDBRANCH   4   7
ENDBRANCH   2   3
ENDBRANCH   1   2
BRANCH   1  29
ATOM     29  C   UNL A   1      34.511  30.599  27.917  1.00  0.00     0.118 C 
BRANCH  29  30
ATOM     30  N   UNL A   1      35.446  31.466  28.639  1.00  0.00    -0.352 N 
ATOM     31  C   UNL A   1      36.736  31.183  29.073  1.00  0.00     0.251 C 
ATOM     32  H   UNL A   1      35.117  32.370  28.843  1.00  0.00     0.163 HD
ATOM     33  O   UNL A   1      37.415  32.035  29.613  1.00  0.00    -0.269 OA
BRANCH  31  34
ATOM     34  C   UNL A   1      37.315  29.860  28.736  1.00  0.00     0.039 A 
ATOM     35  C   UNL A   1      37.518  28.953  29.781  1.00  0.00     0.014 A 
ATOM     36  C   UNL A   1      37.898  29.650  27.492  1.00  0.00     0.014 A 
ATOM     37  C   UNL A   1      38.530  28.006  29.661  1.00  0.00     0.010 A 
ATOM     38  C   UNL A   1      38.979  28.797  27.413  1.00  0.00     0.010 A 
ATOM     39  C   UNL A   1      39.339  28.030  28.524  1.00  0.00    -0.014 A 
BRANCH  39  40
ATOM     40  C   UNL A   1      40.633  27.362  28.463  1.00  0.00     0.031 A 
ATOM     41  C   UNL A   1      40.698  25.903  28.281  1.00  0.00     0.074 A 
ATOM     42  C   UNL A   1      41.779  28.072  28.569  1.00  0.00     0.049 A 
ATOM     43  N   UNL A   1      41.618  25.146  28.780  1.00  0.00    -0.248 NA
ATOM     44  C   UNL A   1      39.672  25.169  27.552  1.00  0.00     0.031 C 
ATOM     45  C   UNL A   1      43.141  27.585  28.359  1.00  0.00     0.029 A 
ATOM     46  N   UNL A   1      41.959  29.341  29.122  1.00  0.00    -0.354 N 
ATOM     47  C   UNL A   1      41.491  23.913  28.184  1.00  0.00     0.074 A 
ATOM     48  C   UNL A   1      40.210  23.948  27.515  1.00  0.00     0.031 C 
ATOM     49  C   UNL A   1      43.984  28.362  29.057  1.00  0.00     0.029 A 
ATOM     50  C   UNL A   1      43.179  29.303  29.817  1.00  0.00     0.049 A 
ATOM     51  H   UNL A   1      41.350  30.110  29.040  1.00  0.00     0.167 HD
ATOM     52  C   UNL A   1      42.547  23.051  28.176  1.00  0.00     0.031 A 
ATOM     53  C   UNL A   1      43.291  29.554  31.154  1.00  0.00     0.031 A 
ATOM     54  C   UNL A   1      43.684  23.572  28.936  1.00  0.00     0.049 A 
ATOM     55  C   UNL A   1      43.858  28.383  31.927  1.00  0.00     0.074 A 
ATOM     56  C   UNL A   1      44.868  24.184  28.558  1.00  0.00     0.029 A 
ATOM     57  N   UNL A   1      43.558  23.773  30.306  1.00  0.00    -0.354 N 
ATOM     58  N   UNL A   1      44.000  27.186  31.431  1.00  0.00    -0.248 NA
ATOM     59  C   UNL A   1      44.233  28.444  33.339  1.00  0.00     0.031 C 
ATOM     60  C   UNL A   1      45.411  24.832  29.697  1.00  0.00     0.029 A 
ATOM     61  C   UNL A   1      44.573  24.590  30.771  1.00  0.00     0.049 A 
ATOM     62  H   UNL A   1      42.846  23.389  30.867  1.00  0.00     0.167 HD
ATOM     63  C   UNL A   1      44.435  26.329  32.406  1.00  0.00     0.074 A 
ATOM     64  C   UNL A   1      44.586  27.168  33.581  1.00  0.00     0.031 C 
ATOM     65  C   UNL A   1      44.610  24.997  32.169  1.00  0.00     0.031 A 
BRANCH  52  66
ATOM     66  C   UNL A   1      42.648  21.896  27.205  1.00  0.00    -0.014 A 
ATOM     67  C   UNL A   1      41.868  20.742  27.410  1.00  0.00     0.009 A 
ATOM     68  C   UNL A   1      43.532  21.848  26.114  1.00  0.00     0.009 A 
ATOM     69  C   UNL A   1      42.045  19.578  26.648  1.00  0.00     0.001 A 
ATOM     70  C   UNL A   1      43.748  20.676  25.376  1.00  0.00     0.001 A 
ATOM     71  C   UNL A   1      43.012  19.534  25.652  1.00  0.00     0.000 A 
ENDBRANCH  52  66
BRANCH  53  72
ATOM     72  C   UNL A   1      42.262  30.498  31.672  1.00  0.00    -0.014 A 
ATOM     73  C   UNL A   1      42.471  31.875  31.453  1.00  0.00     0.009 A 
ATOM     74  C   UNL A   1      40.967  30.053  31.966  1.00  0.00     0.009 A 
ATOM     75  C   UNL A   1      41.392  32.759  31.387  1.00  0.00     0.001 A 
ATOM     76  C   UNL A   1      39.890  30.948  31.912  1.00  0.00     0.001 A 
ATOM     77  C   UNL A   1      40.098  32.287  31.579  1.00  0.00     0.000 A 
ENDBRANCH  53  72
BRANCH  65  78
ATOM     78  C   UNL A   1      44.899  23.953  33.216  1.00  0.00    -0.014 A 
ATOM     79  C   UNL A   1      46.138  23.802  33.854  1.00  0.00     0.009 A 
ATOM     80  C   UNL A   1      43.838  23.150  33.687  1.00  0.00     0.009 A 
ATOM     81  C   UNL A   1      46.320  22.858  34.875  1.00  0.00     0.001 A 
ATOM     82  C   UNL A   1      44.003  22.240  34.733  1.00  0.00     0.001 A 
ATOM     83  C   UNL A   1      45.252  22.084  35.318  1.00  0.00     0.000 A 
ENDBRANCH  65  78
ENDBRANCH  39  40
ENDBRANCH  31  34
ENDBRANCH  29  30
ENDBRANCH   1  29
TORSDOF 12
ENDMDL
MODEL 3
REMARK VINA RESULT:     -13.3      2.346      3.977
REMARK SMILES Cc1ccccc1-c1c(Cl)ccc2c1C=C(C(=O)NCCCNC(=O)c1ccc(-c3c4nc(c(-c5ccccc5)c5ccc([nH]5)c(-c5ccccc5)c5nc(c(-c6ccccc6)c6ccc3[nH]6)C=C5)C=C4)cc1)[C@@H](C(F)(F)F)O2
REMARK SMILES IDX 21 1 20 2 19 3 17 4 18 5 16 7 8 8 9 9 14 10 10 11 11 12
REMARK SMILES IDX 13 13 15 14 12 15 79 16 74 17 7 18 1 19 2 20 3 21 4 22 6 23
REMARK SMILES IDX 5 24 75 25 76 26 77 27 78 28 22 29 23 30 24 31 25 33 26 34
REMARK SMILES IDX 27 35 73 36 28 37 72 38 29 39 30 40 31 41 66 42 32 43 71 44
REMARK SMILES IDX 65 45 67 46 33 47 70 48 64 49 63 50 34 52 56 53 41 54 55 55
REMARK SMILES IDX 42 56 45 57 54 58 68 59 43 60 44 61 53 63 69 64 46 65 35 66
REMARK SMILES IDX 36 67 40 68 37 69 39 70 38 71 57 72 58 73 62 74 59 75 61 76
REMARK SMILES IDX 60 77 47 78 48 79 52 80 49 81 51 82 50 83
REMARK H PARENT 19 6 23 32 67 51 45 62
REMARK Flexibility Score: inf
ROOT
ATOM      1  C   UNL A   1      38.625  21.563  25.651  1.00  0.00     0.042 C 
ENDROOT
BRANCH   1   2
ATOM      2  C   UNL A   1      37.173  21.400  25.230  1.00  0.00     0.118 C 
BRANCH   2   3
ATOM      3  N   UNL A   1      36.779  22.393  24.248  1.00  0.00    -0.352 N 
ATOM      4  C   UNL A   1      35.751  23.284  24.227  1.00  0.00     0.251 C 
ATOM      5  O   UNL A   1      35.582  23.931  23.194  1.00  0.00    -0.270 OA
ATOM      6  H   UNL A   1      37.358  22.427  23.454  1.00  0.00     0.163 HD
BRANCH   4   7
ATOM      7  C   UNL A   1      34.828  23.468  25.406  1.00  0.00     0.067 C 
ATOM      8  C   UNL A   1      32.170  25.997  24.764  1.00  0.00     0.012 A 
ATOM      9  C   UNL A   1      30.978  25.994  24.001  1.00  0.00     0.049 A 
ATOM     10  C   UNL A   1      32.839  24.754  24.926  1.00  0.00     0.027 A 
ATOM     11  Cl  UNL A   1      30.123  27.457  23.632  1.00  0.00    -0.084 Cl
ATOM     12  C   UNL A   1      30.432  24.806  23.500  1.00  0.00     0.025 A 
ATOM     13  C   UNL A   1      32.237  23.561  24.484  1.00  0.00     0.128 A 
ATOM     14  C   UNL A   1      34.210  24.664  25.462  1.00  0.00     0.026 C 
ATOM     15  C   UNL A   1      31.045  23.588  23.769  1.00  0.00     0.049 A 
ATOM     16  O   UNL A   1      32.762  22.312  24.703  1.00  0.00    -0.475 OA
ATOM     17  C   UNL A   1      33.925  22.249  25.565  1.00  0.00     0.314 C 
BRANCH   8  18
ATOM     18  C   UNL A   1      32.607  27.221  25.483  1.00  0.00    -0.013 A 
ATOM     19  C   UNL A   1      34.025  28.192  23.570  1.00  0.00     0.045 C 
ATOM     20  C   UNL A   1      33.475  28.206  24.967  1.00  0.00    -0.043 A 
ATOM     21  C   UNL A   1      33.835  29.306  25.776  1.00  0.00     0.004 A 
ATOM     22  C   UNL A   1      33.333  29.454  27.067  1.00  0.00     0.000 A 
ATOM     23  C   UNL A   1      32.117  27.398  26.798  1.00  0.00     0.009 A 
ATOM     24  C   UNL A   1      32.462  28.503  27.576  1.00  0.00     0.001 A 
ENDBRANCH   8  18
BRANCH  17  25
ATOM     25  C   UNL A   1      33.539  22.025  27.036  1.00  0.00     0.429 C 
ATOM     26  F   UNL A   1      32.308  22.517  27.309  1.00  0.00    -0.167 F 
ATOM     27  F   UNL A   1      33.506  20.700  27.332  1.00  0.00    -0.167 F 
ATOM     28  F   UNL A   1      34.404  22.599  27.904  1.00  0.00    -0.167 F 
ENDBRANCH  17  25
ENDBRANCH   4   7
ENDBRANCH   2   3
ENDBRANCH   1   2
BRANCH   1  29
ATOM     29  C   UNL A   1      38.920  22.952  26.199  1.00  0.00     0.118 C 
BRANCH  29  30
ATOM     30  N   UNL A   1      40.271  23.105  26.746  1.00  0.00    -0.352 N 
ATOM     31  C   UNL A   1      40.856  24.229  27.317  1.00  0.00     0.251 C 
ATOM     32  H   UNL A   1      40.841  22.304  26.703  1.00  0.00     0.163 HD
ATOM     33  O   UNL A   1      41.979  24.182  27.782  1.00  0.00    -0.269 OA
BRANCH  31  34
ATOM     34  C   UNL A   1      40.027  25.449  27.472  1.00  0.00     0.039 A 
ATOM     35  C   UNL A   1      40.403  26.588  26.753  1.00  0.00     0.014 A 
ATOM     36  C   UNL A   1      39.102  25.537  28.506  1.00  0.00     0.014 A 
ATOM     37  C   UNL A   1      40.075  27.841  27.260  1.00  0.00     0.010 A 
ATOM     38  C   UNL A   1      38.877  26.771  29.077  1.00  0.00     0.010 A 
ATOM     39  C   UNL A   1      39.428  27.916  28.494  1.00  0.00    -0.014 A 
BRANCH  39  40
ATOM     40  C   UNL A   1      39.380  29.138  29.286  1.00  0.00     0.031 A 
ATOM     41  C   UNL A   1      38.404  30.190  28.954  1.00  0.00     0.074 A 
ATOM     42  C   UNL A   1      40.222  29.316  30.329  1.00  0.00     0.049 A 
ATOM     43  N   UNL A   1      38.612  31.454  29.118  1.00  0.00    -0.248 NA
ATOM     44  C   UNL A   1      37.116  29.885  28.346  1.00  0.00     0.031 C 
ATOM     45  C   UNL A   1      40.190  30.394  31.315  1.00  0.00     0.029 A 
ATOM     46  N   UNL A   1      41.437  28.675  30.572  1.00  0.00    -0.354 N 
ATOM     47  C   UNL A   1      37.401  32.086  28.950  1.00  0.00     0.074 A 
ATOM     48  C   UNL A   1      36.533  31.086  28.370  1.00  0.00     0.031 C 
ATOM     49  C   UNL A   1      41.425  30.550  31.817  1.00  0.00     0.029 A 
ATOM     50  C   UNL A   1      42.305  29.650  31.091  1.00  0.00     0.049 A 
ATOM     51  H   UNL A   1      41.645  27.726  30.413  1.00  0.00     0.167 HD
ATOM     52  C   UNL A   1      37.207  33.332  29.467  1.00  0.00     0.031 A 
ATOM     53  C   UNL A   1      43.490  29.991  30.505  1.00  0.00     0.031 A 
ATOM     54  C   UNL A   1      38.427  33.869  30.071  1.00  0.00     0.049 A 
ATOM     55  C   UNL A   1      43.553  31.451  30.110  1.00  0.00     0.074 A 
ATOM     56  C   UNL A   1      38.860  33.974  31.383  1.00  0.00     0.029 A 
ATOM     57  N   UNL A   1      39.535  34.119  29.270  1.00  0.00    -0.354 N 
ATOM     58  N   UNL A   1      42.519  32.245  30.101  1.00  0.00    -0.248 NA
ATOM     59  C   UNL A   1      44.762  32.110  29.618  1.00  0.00     0.031 C 
ATOM     60  C   UNL A   1      40.260  34.203  31.366  1.00  0.00     0.029 A 
ATOM     61  C   UNL A   1      40.670  34.266  30.046  1.00  0.00     0.049 A 
ATOM     62  H   UNL A   1      39.515  34.183  28.288  1.00  0.00     0.167 HD
ATOM     63  C   UNL A   1      42.879  33.466  29.597  1.00  0.00     0.074 A 
ATOM     64  C   UNL A   1      44.299  33.340  29.326  1.00  0.00     0.031 C 
ATOM     65  C   UNL A   1      41.970  34.469  29.421  1.00  0.00     0.031 A 
BRANCH  52  66
ATOM     66  C   UNL A   1      35.829  33.908  29.709  1.00  0.00    -0.014 A 
ATOM     67  C   UNL A   1      35.120  34.489  28.641  1.00  0.00     0.009 A 
ATOM     68  C   UNL A   1      35.203  33.973  30.965  1.00  0.00     0.009 A 
ATOM     69  C   UNL A   1      33.921  35.190  28.837  1.00  0.00     0.001 A 
ATOM     70  C   UNL A   1      34.029  34.709  31.179  1.00  0.00     0.001 A 
ATOM     71  C   UNL A   1      33.394  35.330  30.114  1.00  0.00     0.000 A 
ENDBRANCH  52  66
BRANCH  53  72
ATOM     72  C   UNL A   1      44.123  28.876  29.748  1.00  0.00    -0.014 A 
ATOM     73  C   UNL A   1      44.839  27.910  30.484  1.00  0.00     0.009 A 
ATOM     74  C   UNL A   1      43.685  28.549  28.458  1.00  0.00     0.009 A 
ATOM     75  C   UNL A   1      44.985  26.608  30.002  1.00  0.00     0.001 A 
ATOM     76  C   UNL A   1      43.848  27.245  27.973  1.00  0.00     0.001 A 
ATOM     77  C   UNL A   1      44.456  26.267  28.761  1.00  0.00     0.000 A 
ENDBRANCH  53  72
BRANCH  65  78
ATOM     78  C   UNL A   1      42.230  35.768  28.704  1.00  0.00    -0.014 A 
ATOM     79  C   UNL A   1      41.686  36.099  27.455  1.00  0.00     0.009 A 
ATOM     80  C   UNL A   1      42.960  36.777  29.368  1.00  0.00     0.009 A 
ATOM     81  C   UNL A   1      41.907  37.357  26.876  1.00  0.00     0.001 A 
ATOM     82  C   UNL A   1      43.146  38.047  28.815  1.00  0.00     0.001 A 
ATOM     83  C   UNL A   1      42.630  38.331  27.559  1.00  0.00     0.000 A 
ENDBRANCH  65  78
ENDBRANCH  39  40
ENDBRANCH  31  34
ENDBRANCH  29  30
ENDBRANCH   1  29
TORSDOF 12
ENDMDL
