MODEL 1
REMARK VINA RESULT:     -11.5      0.000      0.000
REMARK SMILES Cc1cc(Cl)cc2c1O[C@H](C(F)(F)F)C(C(=O)NCCCNC(=O)c1ccc(-c3c4nc(c(-c5ccccc5)c5ccc([nH]5)c(-c5ccccc5)c5nc(c(-c6ccccc6)c6ccc3[nH]6)C=C5)C=C4)cc1)=C2
REMARK SMILES IDX 20 1 19 2 18 3 16 4 17 5 15 7 1 8 2 9 3 10 8 11 4 12 7 13
REMARK SMILES IDX 9 14 5 15 6 16 73 17 10 18 11 19 12 20 13 21 14 22 21 23
REMARK SMILES IDX 22 24 23 25 24 27 25 28 26 29 72 30 27 31 71 32 28 33 29 34
REMARK SMILES IDX 30 35 65 36 31 37 70 38 64 39 66 40 32 41 69 42 63 43 62 44
REMARK SMILES IDX 33 46 55 47 40 48 54 49 41 50 44 51 53 52 67 53 42 54 43 55
REMARK SMILES IDX 52 57 68 58 45 59 34 60 35 61 39 62 36 63 38 64 37 65 56 66
REMARK SMILES IDX 57 67 61 68 58 69 60 70 59 71 46 72 47 73 51 74 48 75 50 76
REMARK SMILES IDX 49 77
REMARK H PARENT 18 6 22 26 66 45 44 56
REMARK Flexibility Score: inf
ROOT
ATOM      1  C   UNL A   1      34.054  28.421  25.777  1.00  0.00     0.042 C 
ENDROOT
BRANCH   1   2
ATOM      2  C   UNL A   1      32.983  27.793  24.901  1.00  0.00     0.118 C 
BRANCH   2   3
ATOM      3  N   UNL A   1      31.930  27.174  25.693  1.00  0.00    -0.352 N 
ATOM      4  C   UNL A   1      31.601  25.929  26.106  1.00  0.00     0.251 C 
ATOM      5  O   UNL A   1      30.577  25.856  26.793  1.00  0.00    -0.270 OA
ATOM      6  H   UNL A   1      31.282  27.843  26.014  1.00  0.00     0.163 HD
BRANCH   4   7
ATOM      7  C   UNL A   1      32.370  24.693  25.787  1.00  0.00     0.067 C 
ATOM      8  C   UNL A   1      33.908  19.895  24.754  1.00  0.00     0.048 C 
ATOM      9  C   UNL A   1      34.579  21.166  25.195  1.00  0.00    -0.007 A 
ATOM     10  C   UNL A   1      35.975  21.215  25.298  1.00  0.00     0.027 A 
ATOM     11  C   UNL A   1      33.847  22.335  25.439  1.00  0.00     0.131 A 
ATOM     12  C   UNL A   1      36.611  22.400  25.671  1.00  0.00     0.042 A 
ATOM     13  C   UNL A   1      34.482  23.525  25.817  1.00  0.00     0.019 A 
ATOM     14  O   UNL A   1      32.487  22.249  25.342  1.00  0.00    -0.475 OA
ATOM     15  Cl  UNL A   1      38.326  22.436  25.808  1.00  0.00    -0.084 Cl
ATOM     16  C   UNL A   1      35.873  23.553  25.936  1.00  0.00     0.032 A 
ATOM     17  C   UNL A   1      33.675  24.705  26.115  1.00  0.00     0.025 C 
ATOM     18  C   UNL A   1      31.775  23.490  25.119  1.00  0.00     0.314 C 
BRANCH  18  19
ATOM     19  C   UNL A   1      31.560  23.692  23.607  1.00  0.00     0.429 C 
ATOM     20  F   UNL A   1      30.325  24.203  23.373  1.00  0.00    -0.167 F 
ATOM     21  F   UNL A   1      32.444  24.564  23.066  1.00  0.00    -0.167 F 
ATOM     22  F   UNL A   1      31.664  22.543  22.903  1.00  0.00    -0.167 F 
ENDBRANCH  18  19
ENDBRANCH   4   7
ENDBRANCH   2   3
ENDBRANCH   1   2
BRANCH   1  23
ATOM     23  C   UNL A   1      33.566  28.637  27.202  1.00  0.00     0.118 C 
BRANCH  23  24
ATOM     24  N   UNL A   1      33.587  30.050  27.572  1.00  0.00    -0.352 N 
ATOM     25  C   UNL A   1      34.519  30.769  28.274  1.00  0.00     0.251 C 
ATOM     26  H   UNL A   1      32.806  30.569  27.269  1.00  0.00     0.163 HD
ATOM     27  O   UNL A   1      34.225  31.871  28.734  1.00  0.00    -0.269 OA
BRANCH  25  28
ATOM     28  C   UNL A   1      35.872  30.221  28.475  1.00  0.00     0.039 A 
ATOM     29  C   UNL A   1      36.804  30.296  27.438  1.00  0.00     0.014 A 
ATOM     30  C   UNL A   1      36.208  29.609  29.684  1.00  0.00     0.014 A 
ATOM     31  C   UNL A   1      38.096  29.810  27.641  1.00  0.00     0.010 A 
ATOM     32  C   UNL A   1      37.518  29.226  29.922  1.00  0.00     0.010 A 
ATOM     33  C   UNL A   1      38.469  29.302  28.896  1.00  0.00    -0.014 A 
BRANCH  33  34
ATOM     34  C   UNL A   1      39.841  28.807  29.152  1.00  0.00     0.031 A 
ATOM     35  C   UNL A   1      40.843  29.702  29.827  1.00  0.00     0.074 A 
ATOM     36  C   UNL A   1      40.195  27.580  28.728  1.00  0.00     0.049 A 
ATOM     37  N   UNL A   1      42.102  29.472  30.096  1.00  0.00    -0.248 NA
ATOM     38  C   UNL A   1      40.380  31.043  30.227  1.00  0.00     0.031 C 
ATOM     39  C   UNL A   1      39.319  26.639  28.026  1.00  0.00     0.029 A 
ATOM     40  N   UNL A   1      41.388  26.911  28.827  1.00  0.00    -0.354 N 
ATOM     41  C   UNL A   1      42.579  30.638  30.679  1.00  0.00     0.074 A 
ATOM     42  C   UNL A   1      41.499  31.596  30.668  1.00  0.00     0.031 C 
ATOM     43  C   UNL A   1      39.991  25.500  27.798  1.00  0.00     0.029 A 
ATOM     44  C   UNL A   1      41.355  25.645  28.295  1.00  0.00     0.049 A 
ATOM     45  H   UNL A   1      42.191  27.302  29.240  1.00  0.00     0.167 HD
ATOM     46  C   UNL A   1      43.801  30.879  31.207  1.00  0.00     0.031 A 
ATOM     47  C   UNL A   1      42.317  24.707  28.218  1.00  0.00     0.031 A 
ATOM     48  C   UNL A   1      44.865  29.915  31.234  1.00  0.00     0.049 A 
ATOM     49  C   UNL A   1      43.674  25.005  28.793  1.00  0.00     0.074 A 
ATOM     50  C   UNL A   1      46.123  30.039  31.795  1.00  0.00     0.029 A 
ATOM     51  N   UNL A   1      44.795  28.648  30.674  1.00  0.00    -0.354 N 
ATOM     52  N   UNL A   1      44.090  26.089  29.403  1.00  0.00    -0.248 NA
ATOM     53  C   UNL A   1      44.690  23.951  28.676  1.00  0.00     0.031 C 
ATOM     54  C   UNL A   1      46.835  28.868  31.524  1.00  0.00     0.029 A 
ATOM     55  C   UNL A   1      45.999  27.991  30.850  1.00  0.00     0.049 A 
ATOM     56  H   UNL A   1      44.006  28.273  30.221  1.00  0.00     0.167 HD
ATOM     57  C   UNL A   1      45.409  25.841  29.758  1.00  0.00     0.074 A 
ATOM     58  C   UNL A   1      45.716  24.497  29.315  1.00  0.00     0.031 C 
ATOM     59  C   UNL A   1      46.287  26.654  30.395  1.00  0.00     0.031 A 
BRANCH  46  60
ATOM     60  C   UNL A   1      44.048  32.235  31.806  1.00  0.00    -0.014 A 
ATOM     61  C   UNL A   1      44.468  33.315  31.010  1.00  0.00     0.009 A 
ATOM     62  C   UNL A   1      43.810  32.451  33.172  1.00  0.00     0.009 A 
ATOM     63  C   UNL A   1      44.673  34.574  31.578  1.00  0.00     0.001 A 
ATOM     64  C   UNL A   1      43.986  33.718  33.730  1.00  0.00     0.001 A 
ATOM     65  C   UNL A   1      44.424  34.776  32.934  1.00  0.00     0.000 A 
ENDBRANCH  46  60
BRANCH  47  66
ATOM     66  C   UNL A   1      42.013  23.389  27.600  1.00  0.00    -0.014 A 
ATOM     67  C   UNL A   1      42.315  23.151  26.251  1.00  0.00     0.009 A 
ATOM     68  C   UNL A   1      41.451  22.352  28.362  1.00  0.00     0.009 A 
ATOM     69  C   UNL A   1      42.050  21.907  25.674  1.00  0.00     0.001 A 
ATOM     70  C   UNL A   1      41.214  21.100  27.789  1.00  0.00     0.001 A 
ATOM     71  C   UNL A   1      41.507  20.881  26.445  1.00  0.00     0.000 A 
ENDBRANCH  47  66
BRANCH  59  72
ATOM     72  C   UNL A   1      47.664  26.119  30.661  1.00  0.00    -0.014 A 
ATOM     73  C   UNL A   1      48.661  26.162  29.675  1.00  0.00     0.009 A 
ATOM     74  C   UNL A   1      47.992  25.650  31.943  1.00  0.00     0.009 A 
ATOM     75  C   UNL A   1      49.956  25.731  29.963  1.00  0.00     0.001 A 
ATOM     76  C   UNL A   1      49.296  25.247  32.236  1.00  0.00     0.001 A 
ATOM     77  C   UNL A   1      50.275  25.283  31.244  1.00  0.00     0.000 A 
ENDBRANCH  59  72
ENDBRANCH  33  34
ENDBRANCH  25  28
ENDBRANCH  23  24
ENDBRANCH   1  23
TORSDOF 11
ENDMDL
MODEL 2
REMARK VINA RESULT:     -11.4      2.357      7.354
REMARK SMILES Cc1cc(Cl)cc2c1O[C@H](C(F)(F)F)C(C(=O)NCCCNC(=O)c1ccc(-c3c4nc(c(-c5ccccc5)c5ccc([nH]5)c(-c5ccccc5)c5nc(c(-c6ccccc6)c6ccc3[nH]6)C=C5)C=C4)cc1)=C2
REMARK SMILES IDX 20 1 19 2 18 3 16 4 17 5 15 7 1 8 2 9 3 10 8 11 4 12 7 13
REMARK SMILES IDX 9 14 5 15 6 16 73 17 10 18 11 19 12 20 13 21 14 22 21 23
REMARK SMILES IDX 22 24 23 25 24 27 25 28 26 29 72 30 27 31 71 32 28 33 29 34
REMARK SMILES IDX 30 35 65 36 31 37 70 38 64 39 66 40 32 41 69 42 63 43 62 44
REMARK SMILES IDX 33 46 55 47 40 48 54 49 41 50 44 51 53 52 67 53 42 54 43 55
REMARK SMILES IDX 52 57 68 58 45 59 34 60 35 61 39 62 36 63 38 64 37 65 56 66
REMARK SMILES IDX 57 67 61 68 58 69 60 70 59 71 46 72 47 73 51 74 48 75 50 76
REMARK SMILES IDX 49 77
REMARK H PARENT 18 6 22 26 66 45 44 56
REMARK Flexibility Score: inf
ROOT
ATOM      1  C   UNL A   1      37.782  19.503  24.974  1.00  0.00     0.042 C 
ENDROOT
BRANCH   1   2
ATOM      2  C   UNL A   1      36.665  20.479  24.646  1.00  0.00     0.118 C 
BRANCH   2   3
ATOM      3  N   UNL A   1      35.774  20.684  25.779  1.00  0.00    -0.352 N 
ATOM      4  C   UNL A   1      34.799  21.553  26.131  1.00  0.00     0.251 C 
ATOM      5  O   UNL A   1      34.283  21.347  27.233  1.00  0.00    -0.270 OA
ATOM      6  H   UNL A   1      35.922  20.006  26.478  1.00  0.00     0.163 HD
BRANCH   4   7
ATOM      7  C   UNL A   1      34.338  22.700  25.298  1.00  0.00     0.067 C 
ATOM      8  C   UNL A   1      32.920  25.857  21.493  1.00  0.00     0.048 C 
ATOM      9  C   UNL A   1      33.336  26.024  22.928  1.00  0.00    -0.007 A 
ATOM     10  C   UNL A   1      33.278  27.289  23.525  1.00  0.00     0.027 A 
ATOM     11  C   UNL A   1      33.715  24.928  23.714  1.00  0.00     0.131 A 
ATOM     12  C   UNL A   1      33.627  27.450  24.867  1.00  0.00     0.042 A 
ATOM     13  C   UNL A   1      34.070  25.087  25.060  1.00  0.00     0.019 A 
ATOM     14  O   UNL A   1      33.774  23.711  23.096  1.00  0.00    -0.475 OA
ATOM     15  Cl  UNL A   1      33.565  29.015  25.578  1.00  0.00    -0.084 Cl
ATOM     16  C   UNL A   1      34.027  26.358  25.636  1.00  0.00     0.032 A 
ATOM     17  C   UNL A   1      34.511  23.926  25.826  1.00  0.00     0.025 C 
ATOM     18  C   UNL A   1      33.691  22.547  23.954  1.00  0.00     0.314 C 
BRANCH  18  19
ATOM     19  C   UNL A   1      32.224  22.083  24.047  1.00  0.00     0.429 C 
ATOM     20  F   UNL A   1      32.164  20.730  24.132  1.00  0.00    -0.167 F 
ATOM     21  F   UNL A   1      31.594  22.563  25.145  1.00  0.00    -0.167 F 
ATOM     22  F   UNL A   1      31.486  22.457  22.979  1.00  0.00    -0.167 F 
ENDBRANCH  18  19
ENDBRANCH   4   7
ENDBRANCH   2   3
ENDBRANCH   1   2
BRANCH   1  23
ATOM     23  C   UNL A   1      38.910  20.172  25.747  1.00  0.00     0.118 C 
BRANCH  23  24
ATOM     24  N   UNL A   1      40.078  19.302  25.860  1.00  0.00    -0.352 N 
ATOM     25  C   UNL A   1      41.394  19.610  26.086  1.00  0.00     0.251 C 
ATOM     26  H   UNL A   1      39.890  18.341  25.755  1.00  0.00     0.163 HD
ATOM     27  O   UNL A   1      42.268  18.776  25.858  1.00  0.00    -0.269 OA
BRANCH  25  28
ATOM     28  C   UNL A   1      41.759  20.940  26.604  1.00  0.00     0.039 A 
ATOM     29  C   UNL A   1      42.214  21.921  25.721  1.00  0.00     0.014 A 
ATOM     30  C   UNL A   1      41.672  21.208  27.972  1.00  0.00     0.014 A 
ATOM     31  C   UNL A   1      42.524  23.191  26.207  1.00  0.00     0.010 A 
ATOM     32  C   UNL A   1      41.875  22.497  28.436  1.00  0.00     0.010 A 
ATOM     33  C   UNL A   1      42.324  23.496  27.563  1.00  0.00    -0.014 A 
BRANCH  33  34
ATOM     34  C   UNL A   1      42.615  24.843  28.103  1.00  0.00     0.031 A 
ATOM     35  C   UNL A   1      44.016  25.194  28.520  1.00  0.00     0.074 A 
ATOM     36  C   UNL A   1      41.610  25.724  28.268  1.00  0.00     0.049 A 
ATOM     37  N   UNL A   1      44.463  26.299  29.057  1.00  0.00    -0.248 NA
ATOM     38  C   UNL A   1      45.048  24.157  28.336  1.00  0.00     0.031 C 
ATOM     39  C   UNL A   1      40.205  25.480  27.937  1.00  0.00     0.029 A 
ATOM     40  N   UNL A   1      41.619  27.006  28.756  1.00  0.00    -0.354 N 
ATOM     41  C   UNL A   1      45.816  26.084  29.286  1.00  0.00     0.074 A 
ATOM     42  C   UNL A   1      46.106  24.725  28.893  1.00  0.00     0.031 C 
ATOM     43  C   UNL A   1      39.495  26.591  28.190  1.00  0.00     0.029 A 
ATOM     44  C   UNL A   1      40.385  27.608  28.741  1.00  0.00     0.049 A 
ATOM     45  H   UNL A   1      42.433  27.451  29.085  1.00  0.00     0.167 HD
ATOM     46  C   UNL A   1      46.741  26.952  29.754  1.00  0.00     0.031 A 
ATOM     47  C   UNL A   1      40.012  28.842  29.129  1.00  0.00     0.031 A 
ATOM     48  C   UNL A   1      46.449  28.309  30.125  1.00  0.00     0.049 A 
ATOM     49  C   UNL A   1      41.055  29.783  29.665  1.00  0.00     0.074 A 
ATOM     50  C   UNL A   1      47.325  29.289  30.557  1.00  0.00     0.029 A 
ATOM     51  N   UNL A   1      45.184  28.877  30.106  1.00  0.00    -0.354 N 
ATOM     52  N   UNL A   1      42.343  29.587  29.813  1.00  0.00    -0.248 NA
ATOM     53  C   UNL A   1      40.596  31.115  30.082  1.00  0.00     0.031 C 
ATOM     54  C   UNL A   1      46.581  30.432  30.856  1.00  0.00     0.029 A 
ATOM     55  C   UNL A   1      45.252  30.185  30.549  1.00  0.00     0.049 A 
ATOM     56  H   UNL A   1      44.363  28.417  29.820  1.00  0.00     0.167 HD
ATOM     57  C   UNL A   1      42.852  30.775  30.321  1.00  0.00     0.074 A 
ATOM     58  C   UNL A   1      41.736  31.692  30.436  1.00  0.00     0.031 C 
ATOM     59  C   UNL A   1      44.128  31.079  30.662  1.00  0.00     0.031 A 
BRANCH  46  60
ATOM     60  C   UNL A   1      48.156  26.462  29.883  1.00  0.00    -0.014 A 
ATOM     61  C   UNL A   1      48.606  25.845  31.062  1.00  0.00     0.009 A 
ATOM     62  C   UNL A   1      49.036  26.573  28.796  1.00  0.00     0.009 A 
ATOM     63  C   UNL A   1      49.918  25.377  31.159  1.00  0.00     0.001 A 
ATOM     64  C   UNL A   1      50.338  26.076  28.885  1.00  0.00     0.001 A 
ATOM     65  C   UNL A   1      50.779  25.485  30.069  1.00  0.00     0.000 A 
ENDBRANCH  46  60
BRANCH  47  66
ATOM     66  C   UNL A   1      38.593  29.262  28.989  1.00  0.00    -0.014 A 
ATOM     67  C   UNL A   1      38.107  29.721  27.756  1.00  0.00     0.009 A 
ATOM     68  C   UNL A   1      37.709  29.176  30.076  1.00  0.00     0.009 A 
ATOM     69  C   UNL A   1      36.769  30.097  27.617  1.00  0.00     0.001 A 
ATOM     70  C   UNL A   1      36.365  29.524  29.926  1.00  0.00     0.001 A 
ATOM     71  C   UNL A   1      35.897  29.990  28.699  1.00  0.00     0.000 A 
ENDBRANCH  47  66
BRANCH  59  72
ATOM     72  C   UNL A   1      44.398  32.460  31.186  1.00  0.00    -0.014 A 
ATOM     73  C   UNL A   1      44.678  33.523  30.314  1.00  0.00     0.009 A 
ATOM     74  C   UNL A   1      44.279  32.719  32.560  1.00  0.00     0.009 A 
ATOM     75  C   UNL A   1      44.851  34.815  30.811  1.00  0.00     0.001 A 
ATOM     76  C   UNL A   1      44.423  34.017  33.051  1.00  0.00     0.001 A 
ATOM     77  C   UNL A   1      44.714  35.063  32.176  1.00  0.00     0.000 A 
ENDBRANCH  59  72
ENDBRANCH  33  34
ENDBRANCH  25  28
ENDBRANCH  23  24
ENDBRANCH   1  23
TORSDOF 11
ENDMDL
MODEL 3
REMARK VINA RESULT:     -11.4      2.389      7.335
REMARK SMILES Cc1cc(Cl)cc2c1O[C@H](C(F)(F)F)C(C(=O)NCCCNC(=O)c1ccc(-c3c4nc(c(-c5ccccc5)c5ccc([nH]5)c(-c5ccccc5)c5nc(c(-c6ccccc6)c6ccc3[nH]6)C=C5)C=C4)cc1)=C2
REMARK SMILES IDX 20 1 19 2 18 3 16 4 17 5 15 7 1 8 2 9 3 10 8 11 4 12 7 13
REMARK SMILES IDX 9 14 5 15 6 16 73 17 10 18 11 19 12 20 13 21 14 22 21 23
REMARK SMILES IDX 22 24 23 25 24 27 25 28 26 29 72 30 27 31 71 32 28 33 29 34
REMARK SMILES IDX 30 35 65 36 31 37 70 38 64 39 66 40 32 41 69 42 63 43 62 44
REMARK SMILES IDX 33 46 55 47 40 48 54 49 41 50 44 51 53 52 67 53 42 54 43 55
REMARK SMILES IDX 52 57 68 58 45 59 34 60 35 61 39 62 36 63 38 64 37 65 56 66
REMARK SMILES IDX 57 67 61 68 58 69 60 70 59 71 46 72 47 73 51 74 48 75 50 76
REMARK SMILES IDX 49 77
REMARK H PARENT 18 6 22 26 66 45 44 56
REMARK Flexibility Score: inf
ROOT
ATOM      1  C   UNL A   1      37.809  19.715  24.990  1.00  0.00     0.042 C 
ENDROOT
BRANCH   1   2
ATOM      2  C   UNL A   1      36.728  20.737  24.676  1.00  0.00     0.118 C 
BRANCH   2   3
ATOM      3  N   UNL A   1      35.751  20.838  25.750  1.00  0.00    -0.352 N 
ATOM      4  C   UNL A   1      34.724  21.654  26.085  1.00  0.00     0.251 C 
ATOM      5  O   UNL A   1      34.136  21.358  27.129  1.00  0.00    -0.270 OA
ATOM      6  H   UNL A   1      35.869  20.119  26.412  1.00  0.00     0.163 HD
BRANCH   4   7
ATOM      7  C   UNL A   1      34.287  22.842  25.297  1.00  0.00     0.067 C 
ATOM      8  C   UNL A   1      32.958  26.180  21.618  1.00  0.00     0.048 C 
ATOM      9  C   UNL A   1      33.355  26.278  23.063  1.00  0.00    -0.007 A 
ATOM     10  C   UNL A   1      33.302  27.517  23.716  1.00  0.00     0.027 A 
ATOM     11  C   UNL A   1      33.711  25.145  23.806  1.00  0.00     0.131 A 
ATOM     12  C   UNL A   1      33.633  27.614  25.068  1.00  0.00     0.042 A 
ATOM     13  C   UNL A   1      34.048  25.239  25.162  1.00  0.00     0.019 A 
ATOM     14  O   UNL A   1      33.766  23.955  23.135  1.00  0.00    -0.475 OA
ATOM     15  Cl  UNL A   1      33.577  29.146  25.848  1.00  0.00    -0.084 Cl
ATOM     16  C   UNL A   1      34.010  26.484  25.793  1.00  0.00     0.032 A 
ATOM     17  C   UNL A   1      34.466  24.041  25.882  1.00  0.00     0.025 C 
ATOM     18  C   UNL A   1      33.658  22.756  23.939  1.00  0.00     0.314 C 
BRANCH  18  19
ATOM     19  C   UNL A   1      32.185  22.304  23.990  1.00  0.00     0.429 C 
ATOM     20  F   UNL A   1      32.110  20.950  24.021  1.00  0.00    -0.167 F 
ATOM     21  F   UNL A   1      31.543  22.748  25.097  1.00  0.00    -0.167 F 
ATOM     22  F   UNL A   1      31.469  22.728  22.927  1.00  0.00    -0.167 F 
ENDBRANCH  18  19
ENDBRANCH   4   7
ENDBRANCH   2   3
ENDBRANCH   1   2
BRANCH   1  23
ATOM     23  C   UNL A   1      38.973  20.336  25.748  1.00  0.00     0.118 C 
BRANCH  23  24
ATOM     24  N   UNL A   1      40.103  19.414  25.851  1.00  0.00    -0.352 N 
ATOM     25  C   UNL A   1      41.432  19.664  26.069  1.00  0.00     0.251 C 
ATOM     26  H   UNL A   1      39.871  18.463  25.746  1.00  0.00     0.163 HD
ATOM     27  O   UNL A   1      42.267  18.792  25.834  1.00  0.00    -0.269 OA
BRANCH  25  28
ATOM     28  C   UNL A   1      41.859  20.975  26.588  1.00  0.00     0.039 A 
ATOM     29  C   UNL A   1      42.273  21.965  25.695  1.00  0.00     0.014 A 
ATOM     30  C   UNL A   1      41.870  21.215  27.963  1.00  0.00     0.014 A 
ATOM     31  C   UNL A   1      42.642  23.219  26.184  1.00  0.00     0.010 A 
ATOM     32  C   UNL A   1      42.131  22.490  28.438  1.00  0.00     0.010 A 
ATOM     33  C   UNL A   1      42.541  23.498  27.556  1.00  0.00    -0.014 A 
BRANCH  33  34
ATOM     34  C   UNL A   1      42.895  24.828  28.102  1.00  0.00     0.031 A 
ATOM     35  C   UNL A   1      41.821  25.861  28.305  1.00  0.00     0.074 A 
ATOM     36  C   UNL A   1      44.184  25.121  28.358  1.00  0.00     0.049 A 
ATOM     37  N   UNL A   1      41.935  27.094  28.725  1.00  0.00    -0.248 NA
ATOM     38  C   UNL A   1      40.442  25.468  27.966  1.00  0.00     0.031 C 
ATOM     39  C   UNL A   1      45.315  24.212  28.160  1.00  0.00     0.029 A 
ATOM     40  N   UNL A   1      44.759  26.267  28.842  1.00  0.00    -0.354 N 
ATOM     41  C   UNL A   1      40.651  27.623  28.686  1.00  0.00     0.074 A 
ATOM     42  C   UNL A   1      39.785  26.603  28.141  1.00  0.00     0.031 C 
ATOM     43  C   UNL A   1      46.442  24.820  28.562  1.00  0.00     0.029 A 
ATOM     44  C   UNL A   1      46.120  26.174  29.002  1.00  0.00     0.049 A 
ATOM     45  H   UNL A   1      44.246  27.079  29.055  1.00  0.00     0.167 HD
ATOM     46  C   UNL A   1      40.226  28.839  29.096  1.00  0.00     0.031 A 
ATOM     47  C   UNL A   1      47.009  27.079  29.452  1.00  0.00     0.031 A 
ATOM     48  C   UNL A   1      41.090  29.841  29.656  1.00  0.00     0.049 A 
ATOM     49  C   UNL A   1      46.516  28.432  29.884  1.00  0.00     0.074 A 
ATOM     50  C   UNL A   1      40.751  31.086  30.156  1.00  0.00     0.029 A 
ATOM     51  N   UNL A   1      42.464  29.712  29.789  1.00  0.00    -0.354 N 
ATOM     52  N   UNL A   1      45.289  28.893  29.904  1.00  0.00    -0.248 NA
ATOM     53  C   UNL A   1      47.527  29.385  30.360  1.00  0.00     0.031 C 
ATOM     54  C   UNL A   1      41.928  31.733  30.538  1.00  0.00     0.029 A 
ATOM     55  C   UNL A   1      42.992  30.868  30.336  1.00  0.00     0.049 A 
ATOM     56  H   UNL A   1      42.984  28.916  29.534  1.00  0.00     0.167 HD
ATOM     57  C   UNL A   1      45.377  30.183  30.411  1.00  0.00     0.074 A 
ATOM     58  C   UNL A   1      46.775  30.422  30.706  1.00  0.00     0.031 C 
ATOM     59  C   UNL A   1      44.389  31.088  30.615  1.00  0.00     0.031 A 
BRANCH  46  60
ATOM     60  C   UNL A   1      38.762  29.149  28.963  1.00  0.00    -0.014 A 
ATOM     61  C   UNL A   1      37.887  29.006  30.054  1.00  0.00     0.009 A 
ATOM     62  C   UNL A   1      38.257  29.636  27.749  1.00  0.00     0.009 A 
ATOM     63  C   UNL A   1      36.532  29.318  29.920  1.00  0.00     0.001 A 
ATOM     64  C   UNL A   1      36.908  29.976  27.627  1.00  0.00     0.001 A 
ATOM     65  C   UNL A   1      36.047  29.810  28.710  1.00  0.00     0.000 A 
ENDBRANCH  46  60
BRANCH  47  66
ATOM     66  C   UNL A   1      48.447  26.715  29.547  1.00  0.00    -0.014 A 
ATOM     67  C   UNL A   1      48.936  26.038  30.674  1.00  0.00     0.009 A 
ATOM     68  C   UNL A   1      49.333  27.013  28.499  1.00  0.00     0.009 A 
ATOM     69  C   UNL A   1      50.283  25.678  30.757  1.00  0.00     0.001 A 
ATOM     70  C   UNL A   1      50.673  26.625  28.571  1.00  0.00     0.001 A 
ATOM     71  C   UNL A   1      51.148  25.964  29.702  1.00  0.00     0.000 A 
ENDBRANCH  47  66
BRANCH  59  72
ATOM     72  C   UNL A   1      44.773  32.421  31.190  1.00  0.00    -0.014 A 
ATOM     73  C   UNL A   1      44.839  32.618  32.578  1.00  0.00     0.009 A 
ATOM     74  C   UNL A   1      45.162  33.462  30.333  1.00  0.00     0.009 A 
ATOM     75  C   UNL A   1      45.272  33.839  33.095  1.00  0.00     0.001 A 
ATOM     76  C   UNL A   1      45.623  34.672  30.854  1.00  0.00     0.001 A 
ATOM     77  C   UNL A   1      45.673  34.861  32.235  1.00  0.00     0.000 A 
ENDBRANCH  59  72
ENDBRANCH  33  34
ENDBRANCH  25  28
ENDBRANCH  23  24
ENDBRANCH   1  23
TORSDOF 11
ENDMDL
