MODEL 1
REMARK VINA RESULT:     -10.3      0.000      0.000
REMARK SMILES CCC[NH2+][C@@](C)(C[N@H+]1CCC(C)(C)C1)C(=O)NCCCNC(=O)c1ccc(-c2c3nc(c(-c4ccccc4)c4ccc([nH]4)c(-c4ccccc4)c4nc(c(-c5ccccc5)c5ccc2[nH]5)C=C4)C=C3)cc1
REMARK SMILES IDX 18 1 17 2 15 3 16 4 5 6 6 7 4 8 3 11 2 12 1 13 7 14 8 15
REMARK SMILES IDX 9 16 14 17 10 19 11 20 12 21 13 22 19 23 20 24 21 25 22 26
REMARK SMILES IDX 23 28 24 29 25 30 71 31 26 32 70 33 27 34 28 35 29 36 64 37
REMARK SMILES IDX 30 38 69 39 63 40 65 41 31 42 68 43 62 44 61 45 32 47 54 48
REMARK SMILES IDX 39 49 53 50 40 51 43 52 52 53 66 54 41 55 42 56 51 58 67 59
REMARK SMILES IDX 44 60 33 61 34 62 38 63 35 64 37 65 36 66 55 67 56 68 60 69
REMARK SMILES IDX 57 70 59 71 58 72 45 73 46 74 50 75 47 76 49 77 48 78
REMARK H PARENT 17 5 4 9 4 10 8 18 21 27 65 46 43 57
REMARK Flexibility Score: inf
ROOT
ATOM      1  C   UNL A   1      33.354  29.328  24.929  1.00  0.00     0.118 C 
ENDROOT
BRANCH   1   2
ATOM      2  N   UNL A   1      33.698  28.931  23.577  1.00  0.00    -0.350 N 
ATOM      3  C   UNL A   1      33.237  27.986  22.708  1.00  0.00     0.287 C 
ATOM      4  O   UNL A   1      33.875  27.953  21.648  1.00  0.00    -0.268 OA
ATOM      5  H   UNL A   1      34.434  29.465  23.201  1.00  0.00     0.163 HD
BRANCH   3   6
ATOM      6  C   UNL A   1      32.014  27.044  23.003  1.00  0.00     0.221 C 
ATOM      7  C   UNL A   1      31.485  26.474  21.666  1.00  0.00     0.097 C 
BRANCH   6   8
ATOM      8  N   UNL A   1      32.414  25.909  23.896  1.00  0.00    -0.329 N 
ATOM      9  H   UNL A   1      32.564  25.090  23.306  1.00  0.00     0.347 HD
ATOM     10  H   UNL A   1      33.243  26.238  24.391  1.00  0.00     0.347 HD
BRANCH   8  11
ATOM     11  C   UNL A   1      31.470  25.528  24.946  1.00  0.00     0.261 C 
BRANCH  11  12
ATOM     12  C   UNL A   1      32.179  25.268  26.281  1.00  0.00     0.058 C 
ATOM     13  C   UNL A   1      33.481  24.493  26.129  1.00  0.00     0.010 C 
ENDBRANCH  11  12
ENDBRANCH   8  11
ENDBRANCH   6   8
BRANCH   6  14
ATOM     14  C   UNL A   1      30.829  27.806  23.711  1.00  0.00     0.341 C 
BRANCH  14  15
ATOM     15  N   UNL A   1      29.745  28.427  22.924  1.00  0.00    -0.329 N 
ATOM     16  C   UNL A   1      28.421  27.815  23.057  1.00  0.00     0.263 C 
ATOM     17  C   UNL A   1      29.607  29.863  23.209  1.00  0.00     0.269 C 
ATOM     18  H   UNL A   1      30.054  28.266  21.965  1.00  0.00     0.348 HD
ATOM     19  C   UNL A   1      27.418  28.955  23.208  1.00  0.00     0.073 C 
ATOM     20  C   UNL A   1      28.177  30.211  22.782  1.00  0.00     0.019 C 
ATOM     21  C   UNL A   1      28.065  30.421  21.264  1.00  0.00     0.017 C 
ATOM     22  C   UNL A   1      27.656  31.454  23.509  1.00  0.00     0.017 C 
ENDBRANCH  14  15
ENDBRANCH   6  14
ENDBRANCH   3   6
ENDBRANCH   1   2
BRANCH   1  23
ATOM     23  C   UNL A   1      34.078  28.514  26.002  1.00  0.00     0.042 C 
BRANCH  23  24
ATOM     24  C   UNL A   1      33.559  28.709  27.423  1.00  0.00     0.118 C 
BRANCH  24  25
ATOM     25  N   UNL A   1      33.569  30.101  27.839  1.00  0.00    -0.352 N 
ATOM     26  C   UNL A   1      34.525  30.849  28.475  1.00  0.00     0.251 C 
ATOM     27  H   UNL A   1      32.743  30.594  27.626  1.00  0.00     0.163 HD
ATOM     28  O   UNL A   1      34.220  31.963  28.902  1.00  0.00    -0.269 OA
BRANCH  26  29
ATOM     29  C   UNL A   1      35.906  30.352  28.676  1.00  0.00     0.039 A 
ATOM     30  C   UNL A   1      36.811  30.461  27.614  1.00  0.00     0.014 A 
ATOM     31  C   UNL A   1      36.301  29.710  29.852  1.00  0.00     0.014 A 
ATOM     32  C   UNL A   1      38.115  29.977  27.748  1.00  0.00     0.010 A 
ATOM     33  C   UNL A   1      37.624  29.292  30.012  1.00  0.00     0.010 A 
ATOM     34  C   UNL A   1      38.541  29.412  28.959  1.00  0.00    -0.014 A 
BRANCH  34  35
ATOM     35  C   UNL A   1      39.939  28.937  29.128  1.00  0.00     0.031 A 
ATOM     36  C   UNL A   1      40.995  29.846  29.699  1.00  0.00     0.074 A 
ATOM     37  C   UNL A   1      40.274  27.695  28.727  1.00  0.00     0.049 A 
ATOM     38  N   UNL A   1      42.269  29.613  29.891  1.00  0.00    -0.248 NA
ATOM     39  C   UNL A   1      40.567  31.200  30.085  1.00  0.00     0.031 C 
ATOM     40  C   UNL A   1      39.360  26.724  28.121  1.00  0.00     0.029 A 
ATOM     41  N   UNL A   1      41.478  27.038  28.767  1.00  0.00    -0.354 N 
ATOM     42  C   UNL A   1      42.798  30.793  30.397  1.00  0.00     0.074 A 
ATOM     43  C   UNL A   1      41.716  31.752  30.448  1.00  0.00     0.031 C 
ATOM     44  C   UNL A   1      40.029  25.588  27.871  1.00  0.00     0.029 A 
ATOM     45  C   UNL A   1      41.423  25.759  28.270  1.00  0.00     0.049 A 
ATOM     46  H   UNL A   1      42.303  27.445  29.118  1.00  0.00     0.167 HD
ATOM     47  C   UNL A   1      44.065  31.054  30.800  1.00  0.00     0.031 A 
ATOM     48  C   UNL A   1      42.385  24.825  28.147  1.00  0.00     0.031 A 
ATOM     49  C   UNL A   1      45.141  30.100  30.772  1.00  0.00     0.049 A 
ATOM     50  C   UNL A   1      43.779  25.134  28.614  1.00  0.00     0.074 A 
ATOM     51  C   UNL A   1      46.444  30.254  31.215  1.00  0.00     0.029 A 
ATOM     52  N   UNL A   1      45.039  28.811  30.275  1.00  0.00    -0.354 N 
ATOM     53  N   UNL A   1      44.246  26.236  29.146  1.00  0.00    -0.248 NA
ATOM     54  C   UNL A   1      44.774  24.061  28.472  1.00  0.00     0.031 C 
ATOM     55  C   UNL A   1      47.141  29.070  30.951  1.00  0.00     0.029 A 
ATOM     56  C   UNL A   1      46.259  28.165  30.383  1.00  0.00     0.049 A 
ATOM     57  H   UNL A   1      44.221  28.413  29.899  1.00  0.00     0.167 HD
ATOM     58  C   UNL A   1      45.582  25.983  29.424  1.00  0.00     0.074 A 
ATOM     59  C   UNL A   1      45.847  24.619  29.016  1.00  0.00     0.031 C 
ATOM     60  C   UNL A   1      46.508  26.810  29.969  1.00  0.00     0.031 A 
BRANCH  47  61
ATOM     61  C   UNL A   1      44.357  32.440  31.303  1.00  0.00    -0.014 A 
ATOM     62  C   UNL A   1      44.780  33.455  30.429  1.00  0.00     0.009 A 
ATOM     63  C   UNL A   1      44.178  32.743  32.661  1.00  0.00     0.009 A 
ATOM     64  C   UNL A   1      45.053  34.736  30.913  1.00  0.00     0.001 A 
ATOM     65  C   UNL A   1      44.427  34.031  33.138  1.00  0.00     0.001 A 
ATOM     66  C   UNL A   1      44.873  35.023  32.266  1.00  0.00     0.000 A 
ENDBRANCH  47  61
BRANCH  48  67
ATOM     67  C   UNL A   1      42.057  23.495  27.575  1.00  0.00    -0.014 A 
ATOM     68  C   UNL A   1      41.499  22.495  28.386  1.00  0.00     0.009 A 
ATOM     69  C   UNL A   1      42.298  23.220  26.221  1.00  0.00     0.009 A 
ATOM     70  C   UNL A   1      41.210  21.236  27.856  1.00  0.00     0.001 A 
ATOM     71  C   UNL A   1      41.986  21.967  25.689  1.00  0.00     0.001 A 
ATOM     72  C   UNL A   1      41.450  20.975  26.508  1.00  0.00     0.000 A 
ENDBRANCH  48  67
BRANCH  60  73
ATOM     73  C   UNL A   1      47.885  26.247  30.177  1.00  0.00    -0.014 A 
ATOM     74  C   UNL A   1      48.289  25.763  31.431  1.00  0.00     0.009 A 
ATOM     75  C   UNL A   1      48.779  26.178  29.098  1.00  0.00     0.009 A 
ATOM     76  C   UNL A   1      49.577  25.253  31.607  1.00  0.00     0.001 A 
ATOM     77  C   UNL A   1      50.057  25.646  29.271  1.00  0.00     0.001 A 
ATOM     78  C   UNL A   1      50.458  25.192  30.527  1.00  0.00     0.000 A 
ENDBRANCH  60  73
ENDBRANCH  34  35
ENDBRANCH  26  29
ENDBRANCH  24  25
ENDBRANCH  23  24
ENDBRANCH   1  23
TORSDOF 15
ENDMDL
MODEL 2
REMARK VINA RESULT:      -9.8      2.404      6.921
REMARK SMILES CCC[NH2+][C@@](C)(C[N@H+]1CCC(C)(C)C1)C(=O)NCCCNC(=O)c1ccc(-c2c3nc(c(-c4ccccc4)c4ccc([nH]4)c(-c4ccccc4)c4nc(c(-c5ccccc5)c5ccc2[nH]5)C=C4)C=C3)cc1
REMARK SMILES IDX 18 1 17 2 15 3 16 4 5 6 6 7 4 8 3 11 2 12 1 13 7 14 8 15
REMARK SMILES IDX 9 16 14 17 10 19 11 20 12 21 13 22 19 23 20 24 21 25 22 26
REMARK SMILES IDX 23 28 24 29 25 30 71 31 26 32 70 33 27 34 28 35 29 36 64 37
REMARK SMILES IDX 30 38 69 39 63 40 65 41 31 42 68 43 62 44 61 45 32 47 54 48
REMARK SMILES IDX 39 49 53 50 40 51 43 52 52 53 66 54 41 55 42 56 51 58 67 59
REMARK SMILES IDX 44 60 33 61 34 62 38 63 35 64 37 65 36 66 55 67 56 68 60 69
REMARK SMILES IDX 57 70 59 71 58 72 45 73 46 74 50 75 47 76 49 77 48 78
REMARK H PARENT 17 5 4 9 4 10 8 18 21 27 65 46 43 57
REMARK Flexibility Score: inf
ROOT
ATOM      1  C   UNL A   1      31.879  29.772  26.266  1.00  0.00     0.118 C 
ENDROOT
BRANCH   1   2
ATOM      2  N   UNL A   1      32.639  29.795  25.031  1.00  0.00    -0.350 N 
ATOM      3  C   UNL A   1      32.778  28.944  23.974  1.00  0.00     0.287 C 
ATOM      4  O   UNL A   1      33.599  29.343  23.137  1.00  0.00    -0.268 OA
ATOM      5  H   UNL A   1      33.181  30.611  24.934  1.00  0.00     0.163 HD
BRANCH   3   6
ATOM      6  C   UNL A   1      31.973  27.603  23.814  1.00  0.00     0.221 C 
ATOM      7  C   UNL A   1      32.089  27.120  22.350  1.00  0.00     0.097 C 
BRANCH   6   8
ATOM      8  N   UNL A   1      32.511  26.542  24.726  1.00  0.00    -0.329 N 
ATOM      9  H   UNL A   1      32.248  26.793  25.679  1.00  0.00     0.347 HD
ATOM     10  H   UNL A   1      32.108  25.669  24.385  1.00  0.00     0.347 HD
BRANCH   8  11
ATOM     11  C   UNL A   1      33.957  26.327  24.710  1.00  0.00     0.261 C 
BRANCH  11  12
ATOM     12  C   UNL A   1      34.359  25.109  25.551  1.00  0.00     0.058 C 
ATOM     13  C   UNL A   1      33.168  24.352  26.121  1.00  0.00     0.010 C 
ENDBRANCH  11  12
ENDBRANCH   8  11
ENDBRANCH   6   8
BRANCH   6  14
ATOM     14  C   UNL A   1      30.442  27.781  24.149  1.00  0.00     0.341 C 
BRANCH  14  15
ATOM     15  N   UNL A   1      29.525  28.435  23.194  1.00  0.00    -0.329 N 
ATOM     16  C   UNL A   1      28.160  27.907  23.149  1.00  0.00     0.263 C 
ATOM     17  C   UNL A   1      29.438  29.886  23.416  1.00  0.00     0.269 C 
ATOM     18  H   UNL A   1      29.959  28.222  22.296  1.00  0.00     0.348 HD
ATOM     19  C   UNL A   1      27.219  29.108  23.119  1.00  0.00     0.073 C 
ATOM     20  C   UNL A   1      28.109  30.301  22.775  1.00  0.00     0.019 C 
ATOM     21  C   UNL A   1      28.232  30.462  21.252  1.00  0.00     0.017 C 
ATOM     22  C   UNL A   1      27.568  31.598  23.383  1.00  0.00     0.017 C 
ENDBRANCH  14  15
ENDBRANCH   6  14
ENDBRANCH   3   6
ENDBRANCH   1   2
BRANCH   1  23
ATOM     23  C   UNL A   1      31.549  31.167  26.799  1.00  0.00     0.042 C 
BRANCH  23  24
ATOM     24  C   UNL A   1      32.623  32.224  26.559  1.00  0.00     0.118 C 
BRANCH  24  25
ATOM     25  N   UNL A   1      32.387  33.445  27.310  1.00  0.00    -0.352 N 
ATOM     26  C   UNL A   1      33.074  34.014  28.350  1.00  0.00     0.251 C 
ATOM     27  H   UNL A   1      31.594  33.953  27.021  1.00  0.00     0.163 HD
ATOM     28  O   UNL A   1      32.560  34.955  28.956  1.00  0.00    -0.269 OA
BRANCH  26  29
ATOM     29  C   UNL A   1      34.404  33.521  28.776  1.00  0.00     0.039 A 
ATOM     30  C   UNL A   1      34.480  32.721  29.922  1.00  0.00     0.014 A 
ATOM     31  C   UNL A   1      35.581  33.895  28.120  1.00  0.00     0.014 A 
ATOM     32  C   UNL A   1      35.717  32.260  30.378  1.00  0.00     0.010 A 
ATOM     33  C   UNL A   1      36.809  33.375  28.533  1.00  0.00     0.010 A 
ATOM     34  C   UNL A   1      36.892  32.561  29.672  1.00  0.00    -0.014 A 
BRANCH  34  35
ATOM     35  C   UNL A   1      38.207  32.036  30.121  1.00  0.00     0.031 A 
ATOM     36  C   UNL A   1      38.736  30.732  29.587  1.00  0.00     0.074 A 
ATOM     37  C   UNL A   1      38.914  32.714  31.047  1.00  0.00     0.049 A 
ATOM     38  N   UNL A   1      39.847  30.107  29.887  1.00  0.00    -0.248 NA
ATOM     39  C   UNL A   1      37.897  30.027  28.604  1.00  0.00     0.031 C 
ATOM     40  C   UNL A   1      38.501  33.970  31.676  1.00  0.00     0.029 A 
ATOM     41  N   UNL A   1      40.129  32.437  31.621  1.00  0.00    -0.354 N 
ATOM     42  C   UNL A   1      39.830  28.929  29.150  1.00  0.00     0.074 A 
ATOM     43  C   UNL A   1      38.583  28.908  28.417  1.00  0.00     0.031 C 
ATOM     44  C   UNL A   1      39.458  34.369  32.529  1.00  0.00     0.029 A 
ATOM     45  C   UNL A   1      40.535  33.384  32.529  1.00  0.00     0.049 A 
ATOM     46  H   UNL A   1      40.659  31.637  31.403  1.00  0.00     0.167 HD
ATOM     47  C   UNL A   1      40.773  27.959  29.075  1.00  0.00     0.031 A 
ATOM     48  C   UNL A   1      41.651  33.455  33.280  1.00  0.00     0.031 A 
ATOM     49  C   UNL A   1      42.024  27.983  29.784  1.00  0.00     0.049 A 
ATOM     50  C   UNL A   1      42.687  32.374  33.168  1.00  0.00     0.074 A 
ATOM     51  C   UNL A   1      43.067  27.074  29.725  1.00  0.00     0.029 A 
ATOM     52  N   UNL A   1      42.403  28.967  30.682  1.00  0.00    -0.354 N 
ATOM     53  N   UNL A   1      42.681  31.299  32.419  1.00  0.00    -0.248 NA
ATOM     54  C   UNL A   1      43.891  32.526  33.998  1.00  0.00     0.031 C 
ATOM     55  C   UNL A   1      44.063  27.490  30.616  1.00  0.00     0.029 A 
ATOM     56  C   UNL A   1      43.656  28.680  31.197  1.00  0.00     0.049 A 
ATOM     57  H   UNL A   1      41.862  29.755  30.920  1.00  0.00     0.167 HD
ATOM     58  C   UNL A   1      43.887  30.658  32.670  1.00  0.00     0.074 A 
ATOM     59  C   UNL A   1      44.605  31.473  33.628  1.00  0.00     0.031 C 
ATOM     60  C   UNL A   1      44.356  29.497  32.152  1.00  0.00     0.031 A 
BRANCH  47  61
ATOM     61  C   UNL A   1      40.479  26.780  28.191  1.00  0.00    -0.014 A 
ATOM     62  C   UNL A   1      39.708  25.701  28.654  1.00  0.00     0.009 A 
ATOM     63  C   UNL A   1      40.952  26.760  26.870  1.00  0.00     0.009 A 
ATOM     64  C   UNL A   1      39.449  24.609  27.822  1.00  0.00     0.001 A 
ATOM     65  C   UNL A   1      40.669  25.679  26.033  1.00  0.00     0.001 A 
ATOM     66  C   UNL A   1      39.927  24.601  26.512  1.00  0.00     0.000 A 
ENDBRANCH  47  61
BRANCH  48  67
ATOM     67  C   UNL A   1      41.857  34.609  34.191  1.00  0.00    -0.014 A 
ATOM     68  C   UNL A   1      41.442  34.537  35.529  1.00  0.00     0.009 A 
ATOM     69  C   UNL A   1      42.469  35.784  33.729  1.00  0.00     0.009 A 
ATOM     70  C   UNL A   1      41.616  35.629  36.382  1.00  0.00     0.001 A 
ATOM     71  C   UNL A   1      42.661  36.865  34.590  1.00  0.00     0.001 A 
ATOM     72  C   UNL A   1      42.228  36.790  35.913  1.00  0.00     0.000 A 
ENDBRANCH  48  67
BRANCH  60  73
ATOM     73  C   UNL A   1      45.722  29.057  32.595  1.00  0.00    -0.014 A 
ATOM     74  C   UNL A   1      45.889  28.218  33.708  1.00  0.00     0.009 A 
ATOM     75  C   UNL A   1      46.853  29.467  31.874  1.00  0.00     0.009 A 
ATOM     76  C   UNL A   1      47.168  27.828  34.110  1.00  0.00     0.001 A 
ATOM     77  C   UNL A   1      48.128  29.057  32.264  1.00  0.00     0.001 A 
ATOM     78  C   UNL A   1      48.285  28.245  33.387  1.00  0.00     0.000 A 
ENDBRANCH  60  73
ENDBRANCH  34  35
ENDBRANCH  26  29
ENDBRANCH  24  25
ENDBRANCH  23  24
ENDBRANCH   1  23
TORSDOF 15
ENDMDL
MODEL 3
REMARK VINA RESULT:      -9.7      2.835      7.619
REMARK SMILES CCC[NH2+][C@@](C)(C[N@H+]1CCC(C)(C)C1)C(=O)NCCCNC(=O)c1ccc(-c2c3nc(c(-c4ccccc4)c4ccc([nH]4)c(-c4ccccc4)c4nc(c(-c5ccccc5)c5ccc2[nH]5)C=C4)C=C3)cc1
REMARK SMILES IDX 18 1 17 2 15 3 16 4 5 6 6 7 4 8 3 11 2 12 1 13 7 14 8 15
REMARK SMILES IDX 9 16 14 17 10 19 11 20 12 21 13 22 19 23 20 24 21 25 22 26
REMARK SMILES IDX 23 28 24 29 25 30 71 31 26 32 70 33 27 34 28 35 29 36 64 37
REMARK SMILES IDX 30 38 69 39 63 40 65 41 31 42 68 43 62 44 61 45 32 47 54 48
REMARK SMILES IDX 39 49 53 50 40 51 43 52 52 53 66 54 41 55 42 56 51 58 67 59
REMARK SMILES IDX 44 60 33 61 34 62 38 63 35 64 37 65 36 66 55 67 56 68 60 69
REMARK SMILES IDX 57 70 59 71 58 72 45 73 46 74 50 75 47 76 49 77 48 78
REMARK H PARENT 17 5 4 9 4 10 8 18 21 27 65 46 43 57
REMARK Flexibility Score: inf
ROOT
ATOM      1  C   UNL A   1      36.175  20.012  24.991  1.00  0.00     0.118 C 
ENDROOT
BRANCH   1   2
ATOM      2  N   UNL A   1      36.154  21.269  25.714  1.00  0.00    -0.350 N 
ATOM      3  C   UNL A   1      35.251  22.282  25.850  1.00  0.00     0.287 C 
ATOM      4  O   UNL A   1      35.678  23.221  26.535  1.00  0.00    -0.268 OA
ATOM      5  H   UNL A   1      36.982  21.428  26.221  1.00  0.00     0.163 HD
BRANCH   3   6
ATOM      6  C   UNL A   1      33.810  22.264  25.223  1.00  0.00     0.221 C 
ATOM      7  C   UNL A   1      33.919  22.540  23.705  1.00  0.00     0.097 C 
BRANCH   6   8
ATOM      8  N   UNL A   1      33.148  20.936  25.434  1.00  0.00    -0.329 N 
ATOM      9  H   UNL A   1      33.875  20.268  25.693  1.00  0.00     0.347 HD
ATOM     10  H   UNL A   1      32.443  21.101  26.152  1.00  0.00     0.347 HD
BRANCH   8  11
ATOM     11  C   UNL A   1      32.415  20.373  24.301  1.00  0.00     0.261 C 
BRANCH  11  12
ATOM     12  C   UNL A   1      32.678  18.870  24.145  1.00  0.00     0.058 C 
ATOM     13  C   UNL A   1      32.704  18.123  25.471  1.00  0.00     0.010 C 
ENDBRANCH  11  12
ENDBRANCH   8  11
ENDBRANCH   6   8
BRANCH   6  14
ATOM     14  C   UNL A   1      32.871  23.364  25.852  1.00  0.00     0.341 C 
BRANCH  14  15
ATOM     15  N   UNL A   1      32.766  24.709  25.253  1.00  0.00    -0.329 N 
ATOM     16  C   UNL A   1      31.411  25.176  24.953  1.00  0.00     0.263 C 
ATOM     17  C   UNL A   1      33.422  25.735  26.076  1.00  0.00     0.269 C 
ATOM     18  H   UNL A   1      33.244  24.586  24.360  1.00  0.00     0.348 HD
ATOM     19  C   UNL A   1      31.326  26.626  25.423  1.00  0.00     0.073 C 
ATOM     20  C   UNL A   1      32.775  27.056  25.647  1.00  0.00     0.019 C 
ATOM     21  C   UNL A   1      33.384  27.598  24.345  1.00  0.00     0.017 C 
ATOM     22  C   UNL A   1      32.880  28.120  26.743  1.00  0.00     0.017 C 
ENDBRANCH  14  15
ENDBRANCH   6  14
ENDBRANCH   3   6
ENDBRANCH   1   2
BRANCH   1  23
ATOM     23  C   UNL A   1      37.586  19.473  24.753  1.00  0.00     0.042 C 
BRANCH  23  24
ATOM     24  C   UNL A   1      38.679  20.123  25.597  1.00  0.00     0.118 C 
BRANCH  24  25
ATOM     25  N   UNL A   1      39.852  19.278  25.744  1.00  0.00    -0.352 N 
ATOM     26  C   UNL A   1      41.148  19.579  26.073  1.00  0.00     0.251 C 
ATOM     27  H   UNL A   1      39.687  18.321  25.578  1.00  0.00     0.163 HD
ATOM     28  O   UNL A   1      42.011  18.711  25.938  1.00  0.00    -0.269 OA
BRANCH  26  29
ATOM     29  C   UNL A   1      41.541  20.917  26.571  1.00  0.00     0.039 A 
ATOM     30  C   UNL A   1      41.424  21.176  27.942  1.00  0.00     0.014 A 
ATOM     31  C   UNL A   1      41.942  21.943  25.712  1.00  0.00     0.014 A 
ATOM     32  C   UNL A   1      41.754  22.434  28.452  1.00  0.00     0.010 A 
ATOM     33  C   UNL A   1      42.341  23.177  26.229  1.00  0.00     0.010 A 
ATOM     34  C   UNL A   1      42.241  23.439  27.603  1.00  0.00    -0.014 A 
BRANCH  34  35
ATOM     35  C   UNL A   1      42.639  24.765  28.142  1.00  0.00     0.031 A 
ATOM     36  C   UNL A   1      41.610  25.839  28.373  1.00  0.00     0.074 A 
ATOM     37  C   UNL A   1      43.939  25.023  28.384  1.00  0.00     0.049 A 
ATOM     38  N   UNL A   1      41.778  27.063  28.807  1.00  0.00    -0.248 NA
ATOM     39  C   UNL A   1      40.214  25.502  28.055  1.00  0.00     0.031 C 
ATOM     40  C   UNL A   1      45.044  24.086  28.167  1.00  0.00     0.029 A 
ATOM     41  N   UNL A   1      44.551  26.153  28.865  1.00  0.00    -0.354 N 
ATOM     42  C   UNL A   1      40.518  27.647  28.794  1.00  0.00     0.074 A 
ATOM     43  C   UNL A   1      39.601  26.656  28.273  1.00  0.00     0.031 C 
ATOM     44  C   UNL A   1      46.194  24.671  28.538  1.00  0.00     0.029 A 
ATOM     45  C   UNL A   1      45.913  26.030  28.990  1.00  0.00     0.049 A 
ATOM     46  H   UNL A   1      44.060  26.974  29.098  1.00  0.00     0.167 HD
ATOM     47  C   UNL A   1      40.150  28.888  29.193  1.00  0.00     0.031 A 
ATOM     48  C   UNL A   1      46.836  26.911  29.420  1.00  0.00     0.031 A 
ATOM     49  C   UNL A   1      41.053  29.871  29.731  1.00  0.00     0.049 A 
ATOM     50  C   UNL A   1      46.401  28.276  29.871  1.00  0.00     0.074 A 
ATOM     51  C   UNL A   1      40.762  31.135  30.217  1.00  0.00     0.029 A 
ATOM     52  N   UNL A   1      42.421  29.700  29.855  1.00  0.00    -0.354 N 
ATOM     53  N   UNL A   1      45.196  28.788  29.908  1.00  0.00    -0.248 NA
ATOM     54  C   UNL A   1      47.457  29.179  30.351  1.00  0.00     0.031 C 
ATOM     55  C   UNL A   1      41.963  31.743  30.602  1.00  0.00     0.029 A 
ATOM     56  C   UNL A   1      42.993  30.841  30.393  1.00  0.00     0.049 A 
ATOM     57  H   UNL A   1      42.916  28.889  29.597  1.00  0.00     0.167 HD
ATOM     58  C   UNL A   1      45.345  30.064  30.435  1.00  0.00     0.074 A 
ATOM     59  C   UNL A   1      46.754  30.241  30.717  1.00  0.00     0.031 C 
ATOM     60  C   UNL A   1      44.396  31.005  30.664  1.00  0.00     0.031 A 
BRANCH  47  61
ATOM     61  C   UNL A   1      38.700  29.255  29.055  1.00  0.00    -0.014 A 
ATOM     62  C   UNL A   1      37.811  29.119  30.134  1.00  0.00     0.009 A 
ATOM     63  C   UNL A   1      38.221  29.774  27.842  1.00  0.00     0.009 A 
ATOM     64  C   UNL A   1      36.464  29.460  29.988  1.00  0.00     0.001 A 
ATOM     65  C   UNL A   1      36.881  30.137  27.706  1.00  0.00     0.001 A 
ATOM     66  C   UNL A   1      36.002  29.971  28.776  1.00  0.00     0.000 A 
ENDBRANCH  47  61
BRANCH  48  67
ATOM     67  C   UNL A   1      48.267  26.519  29.468  1.00  0.00    -0.014 A 
ATOM     68  C   UNL A   1      48.788  25.882  30.604  1.00  0.00     0.009 A 
ATOM     69  C   UNL A   1      49.116  26.780  28.382  1.00  0.00     0.009 A 
ATOM     70  C   UNL A   1      50.138  25.532  30.660  1.00  0.00     0.001 A 
ATOM     71  C   UNL A   1      50.460  26.408  28.433  1.00  0.00     0.001 A 
ATOM     72  C   UNL A   1      50.972  25.792  29.574  1.00  0.00     0.000 A 
ENDBRANCH  48  67
BRANCH  60  73
ATOM     73  C   UNL A   1      44.854  32.299  31.273  1.00  0.00    -0.014 A 
ATOM     74  C   UNL A   1      44.895  32.471  32.666  1.00  0.00     0.009 A 
ATOM     75  C   UNL A   1      45.272  33.349  30.443  1.00  0.00     0.009 A 
ATOM     76  C   UNL A   1      45.315  33.685  33.213  1.00  0.00     0.001 A 
ATOM     77  C   UNL A   1      45.713  34.554  30.993  1.00  0.00     0.001 A 
ATOM     78  C   UNL A   1      45.725  34.724  32.377  1.00  0.00     0.000 A 
ENDBRANCH  60  73
ENDBRANCH  34  35
ENDBRANCH  26  29
ENDBRANCH  24  25
ENDBRANCH  23  24
ENDBRANCH   1  23
TORSDOF 15
ENDMDL
