MODEL 1
REMARK VINA RESULT:     -11.2      0.000      0.000
REMARK SMILES COc1ccc(CSc2ncccc2C(=O)NCCCNC(=O)c2ccc(-c3c4nc(c(-c5ccccc5)c5ccc([nH]5)c(-c5ccccc5)c5nc(c(-c6ccccc6)c6ccc3[nH]6)C=C5)C=C4)cc2)cc1
REMARK SMILES IDX 18 1 17 2 15 3 16 4 14 6 9 7 10 8 11 9 13 10 12 11 8 12 7 13
REMARK SMILES IDX 6 14 3 15 4 16 73 17 5 18 72 19 2 20 1 21 19 22 20 23 21 24
REMARK SMILES IDX 22 25 23 27 24 28 25 29 71 30 26 31 70 32 27 33 28 34 29 35
REMARK SMILES IDX 64 36 30 37 69 38 63 39 65 40 31 41 68 42 62 43 61 44 32 46
REMARK SMILES IDX 54 47 39 48 53 49 40 50 43 51 52 52 66 53 41 54 42 55 51 57
REMARK SMILES IDX 67 58 44 59 33 60 34 61 38 62 35 63 37 64 36 65 55 66 56 67
REMARK SMILES IDX 60 68 57 69 59 70 58 71 45 72 46 73 50 74 47 75 49 76 48 77
REMARK H PARENT 17 5 21 26 65 45 43 56
REMARK Flexibility Score: inf
ROOT
ATOM      1  C   UNL A   1      36.239  20.658  24.671  1.00  0.00     0.118 C 
ENDROOT
BRANCH   1   2
ATOM      2  N   UNL A   1      35.442  20.729  25.885  1.00  0.00    -0.352 N 
ATOM      3  C   UNL A   1      34.673  21.710  26.466  1.00  0.00     0.254 C 
ATOM      4  O   UNL A   1      34.353  21.511  27.636  1.00  0.00    -0.269 OA
ATOM      5  H   UNL A   1      35.457  19.892  26.404  1.00  0.00     0.163 HD
BRANCH   3   6
ATOM      6  C   UNL A   1      34.225  22.932  25.740  1.00  0.00     0.072 A 
ATOM      7  C   UNL A   1      33.008  22.977  25.037  1.00  0.00     0.109 A 
ATOM      8  N   UNL A   1      32.653  24.050  24.275  1.00  0.00    -0.249 NA
ATOM      9  C   UNL A   1      33.441  25.140  24.294  1.00  0.00     0.112 A 
ATOM     10  C   UNL A   1      34.989  24.106  25.766  1.00  0.00     0.018 A 
ATOM     11  C   UNL A   1      34.601  25.223  25.032  1.00  0.00     0.021 A 
BRANCH   7  12
ATOM     12  S   UNL A   1      31.801  21.653  25.047  1.00  0.00    -0.101 SA
BRANCH  12  13
ATOM     13  C   UNL A   1      32.376  20.578  23.698  1.00  0.00     0.112 C 
BRANCH  13  14
ATOM     14  C   UNL A   1      32.668  19.130  24.031  1.00  0.00    -0.037 A 
ATOM     15  C   UNL A   1      33.374  16.453  24.573  1.00  0.00     0.118 A 
ATOM     16  C   UNL A   1      32.924  17.289  25.597  1.00  0.00     0.047 A 
ATOM     17  C   UNL A   1      33.441  16.941  23.271  1.00  0.00     0.047 A 
ATOM     18  C   UNL A   1      32.586  18.623  25.333  1.00  0.00     0.008 A 
ATOM     19  C   UNL A   1      33.098  18.270  23.006  1.00  0.00     0.008 A 
BRANCH  15  20
ATOM     20  O   UNL A   1      33.684  15.170  24.934  1.00  0.00    -0.497 OA
ATOM     21  C   UNL A   1      32.657  14.496  25.657  1.00  0.00     0.278 C 
ENDBRANCH  15  20
ENDBRANCH  13  14
ENDBRANCH  12  13
ENDBRANCH   7  12
ENDBRANCH   3   6
ENDBRANCH   1   2
BRANCH   1  22
ATOM     22  C   UNL A   1      37.418  19.698  24.869  1.00  0.00     0.042 C 
BRANCH  22  23
ATOM     23  C   UNL A   1      38.557  20.288  25.704  1.00  0.00     0.118 C 
BRANCH  23  24
ATOM     24  N   UNL A   1      39.713  19.406  25.754  1.00  0.00    -0.352 N 
ATOM     25  C   UNL A   1      41.024  19.687  26.041  1.00  0.00     0.251 C 
ATOM     26  H   UNL A   1      39.524  18.461  25.549  1.00  0.00     0.163 HD
ATOM     27  O   UNL A   1      41.885  18.840  25.818  1.00  0.00    -0.269 OA
BRANCH  25  28
ATOM     28  C   UNL A   1      41.418  20.995  26.610  1.00  0.00     0.039 A 
ATOM     29  C   UNL A   1      41.878  21.991  25.742  1.00  0.00     0.014 A 
ATOM     30  C   UNL A   1      41.407  21.225  27.989  1.00  0.00     0.014 A 
ATOM     31  C   UNL A   1      42.288  23.226  26.250  1.00  0.00     0.010 A 
ATOM     32  C   UNL A   1      41.760  22.479  28.490  1.00  0.00     0.010 A 
ATOM     33  C   UNL A   1      42.214  23.487  27.626  1.00  0.00    -0.014 A 
BRANCH  33  34
ATOM     34  C   UNL A   1      42.623  24.805  28.179  1.00  0.00     0.031 A 
ATOM     35  C   UNL A   1      41.599  25.882  28.411  1.00  0.00     0.074 A 
ATOM     36  C   UNL A   1      43.924  25.050  28.423  1.00  0.00     0.049 A 
ATOM     37  N   UNL A   1      41.772  27.110  28.834  1.00  0.00    -0.248 NA
ATOM     38  C   UNL A   1      40.198  25.543  28.110  1.00  0.00     0.031 C 
ATOM     39  C   UNL A   1      45.021  24.104  28.210  1.00  0.00     0.029 A 
ATOM     40  N   UNL A   1      44.546  26.178  28.898  1.00  0.00    -0.354 N 
ATOM     41  C   UNL A   1      40.511  27.694  28.827  1.00  0.00     0.074 A 
ATOM     42  C   UNL A   1      39.588  26.699  28.323  1.00  0.00     0.031 C 
ATOM     43  C   UNL A   1      46.176  24.682  28.574  1.00  0.00     0.029 A 
ATOM     44  C   UNL A   1      45.908  26.049  29.011  1.00  0.00     0.049 A 
ATOM     45  H   UNL A   1      44.060  27.001  29.137  1.00  0.00     0.167 HD
ATOM     46  C   UNL A   1      40.150  28.940  29.218  1.00  0.00     0.031 A 
ATOM     47  C   UNL A   1      46.839  26.933  29.417  1.00  0.00     0.031 A 
ATOM     48  C   UNL A   1      41.062  29.925  29.736  1.00  0.00     0.049 A 
ATOM     49  C   UNL A   1      46.412  28.306  29.851  1.00  0.00     0.074 A 
ATOM     50  C   UNL A   1      40.783  31.195  30.207  1.00  0.00     0.029 A 
ATOM     51  N   UNL A   1      42.432  29.746  29.850  1.00  0.00    -0.354 N 
ATOM     52  N   UNL A   1      45.208  28.822  29.892  1.00  0.00    -0.248 NA
ATOM     53  C   UNL A   1      47.475  29.215  30.307  1.00  0.00     0.031 C 
ATOM     54  C   UNL A   1      41.991  31.801  30.572  1.00  0.00     0.029 A 
ATOM     55  C   UNL A   1      43.014  30.889  30.372  1.00  0.00     0.049 A 
ATOM     56  H   UNL A   1      42.919  28.928  29.599  1.00  0.00     0.167 HD
ATOM     57  C   UNL A   1      45.363  30.104  30.405  1.00  0.00     0.074 A 
ATOM     58  C   UNL A   1      46.776  30.281  30.673  1.00  0.00     0.031 C 
ATOM     59  C   UNL A   1      44.420  31.049  30.636  1.00  0.00     0.031 A 
BRANCH  46  60
ATOM     60  C   UNL A   1      38.697  29.309  29.095  1.00  0.00    -0.014 A 
ATOM     61  C   UNL A   1      37.823  29.195  30.187  1.00  0.00     0.009 A 
ATOM     62  C   UNL A   1      38.206  29.812  27.880  1.00  0.00     0.009 A 
ATOM     63  C   UNL A   1      36.476  29.542  30.053  1.00  0.00     0.001 A 
ATOM     64  C   UNL A   1      36.866  30.183  27.757  1.00  0.00     0.001 A 
ATOM     65  C   UNL A   1      36.000  30.039  28.841  1.00  0.00     0.000 A 
ENDBRANCH  46  60
BRANCH  47  66
ATOM     66  C   UNL A   1      48.271  26.539  29.453  1.00  0.00    -0.014 A 
ATOM     67  C   UNL A   1      49.104  26.787  28.352  1.00  0.00     0.009 A 
ATOM     68  C   UNL A   1      48.810  25.907  30.585  1.00  0.00     0.009 A 
ATOM     69  C   UNL A   1      50.442  26.387  28.372  1.00  0.00     0.001 A 
ATOM     70  C   UNL A   1      50.155  25.533  30.612  1.00  0.00     0.001 A 
ATOM     71  C   UNL A   1      50.967  25.765  29.504  1.00  0.00     0.000 A 
ENDBRANCH  47  66
BRANCH  59  72
ATOM     72  C   UNL A   1      44.880  32.341  31.244  1.00  0.00    -0.014 A 
ATOM     73  C   UNL A   1      44.950  32.509  32.636  1.00  0.00     0.009 A 
ATOM     74  C   UNL A   1      45.281  33.397  30.410  1.00  0.00     0.009 A 
ATOM     75  C   UNL A   1      45.381  33.720  33.179  1.00  0.00     0.001 A 
ATOM     76  C   UNL A   1      45.737  34.597  30.955  1.00  0.00     0.001 A 
ATOM     77  C   UNL A   1      45.778  34.762  32.339  1.00  0.00     0.000 A 
ENDBRANCH  59  72
ENDBRANCH  33  34
ENDBRANCH  25  28
ENDBRANCH  23  24
ENDBRANCH  22  23
ENDBRANCH   1  22
TORSDOF 14
ENDMDL
MODEL 2
REMARK VINA RESULT:     -10.8      0.941      6.126
REMARK SMILES COc1ccc(CSc2ncccc2C(=O)NCCCNC(=O)c2ccc(-c3c4nc(c(-c5ccccc5)c5ccc([nH]5)c(-c5ccccc5)c5nc(c(-c6ccccc6)c6ccc3[nH]6)C=C5)C=C4)cc2)cc1
REMARK SMILES IDX 18 1 17 2 15 3 16 4 14 6 9 7 10 8 11 9 13 10 12 11 8 12 7 13
REMARK SMILES IDX 6 14 3 15 4 16 73 17 5 18 72 19 2 20 1 21 19 22 20 23 21 24
REMARK SMILES IDX 22 25 23 27 24 28 25 29 71 30 26 31 70 32 27 33 28 34 29 35
REMARK SMILES IDX 64 36 30 37 69 38 63 39 65 40 31 41 68 42 62 43 61 44 32 46
REMARK SMILES IDX 54 47 39 48 53 49 40 50 43 51 52 52 66 53 41 54 42 55 51 57
REMARK SMILES IDX 67 58 44 59 33 60 34 61 38 62 35 63 37 64 36 65 55 66 56 67
REMARK SMILES IDX 60 68 57 69 59 70 58 71 45 72 46 73 50 74 47 75 49 76 48 77
REMARK H PARENT 17 5 21 26 65 45 43 56
REMARK Flexibility Score: inf
ROOT
ATOM      1  C   UNL A   1      36.447  20.147  24.909  1.00  0.00     0.118 C 
ENDROOT
BRANCH   1   2
ATOM      2  N   UNL A   1      36.742  21.569  24.965  1.00  0.00    -0.352 N 
ATOM      3  C   UNL A   1      35.997  22.688  25.253  1.00  0.00     0.254 C 
ATOM      4  O   UNL A   1      36.509  23.762  24.943  1.00  0.00    -0.269 OA
ATOM      5  H   UNL A   1      37.680  21.775  24.748  1.00  0.00     0.163 HD
BRANCH   3   6
ATOM      6  C   UNL A   1      34.664  22.632  25.917  1.00  0.00     0.072 A 
ATOM      7  C   UNL A   1      33.467  22.568  25.181  1.00  0.00     0.109 A 
ATOM      8  N   UNL A   1      32.246  22.637  25.781  1.00  0.00    -0.249 NA
ATOM      9  C   UNL A   1      32.190  22.651  27.125  1.00  0.00     0.112 A 
ATOM     10  C   UNL A   1      34.555  22.600  27.314  1.00  0.00     0.018 A 
ATOM     11  C   UNL A   1      33.307  22.616  27.930  1.00  0.00     0.021 A 
BRANCH   7  12
ATOM     12  S   UNL A   1      33.401  22.399  23.399  1.00  0.00    -0.101 SA
BRANCH  12  13
ATOM     13  C   UNL A   1      32.109  21.142  23.165  1.00  0.00     0.112 C 
BRANCH  13  14
ATOM     14  C   UNL A   1      32.452  19.709  23.513  1.00  0.00    -0.037 A 
ATOM     15  C   UNL A   1      33.217  17.044  24.032  1.00  0.00     0.118 A 
ATOM     16  C   UNL A   1      33.180  17.985  25.063  1.00  0.00     0.047 A 
ATOM     17  C   UNL A   1      32.840  17.422  22.747  1.00  0.00     0.047 A 
ATOM     18  C   UNL A   1      32.814  19.312  24.806  1.00  0.00     0.008 A 
ATOM     19  C   UNL A   1      32.469  18.745  22.490  1.00  0.00     0.008 A 
BRANCH  15  20
ATOM     20  O   UNL A   1      33.592  15.776  24.385  1.00  0.00    -0.497 OA
ATOM     21  C   UNL A   1      32.762  15.168  25.371  1.00  0.00     0.278 C 
ENDBRANCH  15  20
ENDBRANCH  13  14
ENDBRANCH  12  13
ENDBRANCH   7  12
ENDBRANCH   3   6
ENDBRANCH   1   2
BRANCH   1  22
ATOM     22  C   UNL A   1      37.746  19.335  24.966  1.00  0.00     0.042 C 
BRANCH  22  23
ATOM     23  C   UNL A   1      38.872  20.031  25.735  1.00  0.00     0.118 C 
BRANCH  23  24
ATOM     24  N   UNL A   1      40.077  19.220  25.794  1.00  0.00    -0.352 N 
ATOM     25  C   UNL A   1      41.376  19.585  26.044  1.00  0.00     0.251 C 
ATOM     26  H   UNL A   1      39.940  18.258  25.629  1.00  0.00     0.163 HD
ATOM     27  O   UNL A   1      42.280  18.781  25.835  1.00  0.00    -0.269 OA
BRANCH  25  28
ATOM     28  C   UNL A   1      41.704  20.936  26.555  1.00  0.00     0.039 A 
ATOM     29  C   UNL A   1      41.561  21.185  27.924  1.00  0.00     0.014 A 
ATOM     30  C   UNL A   1      42.080  21.971  25.694  1.00  0.00     0.014 A 
ATOM     31  C   UNL A   1      41.832  22.457  28.434  1.00  0.00     0.010 A 
ATOM     32  C   UNL A   1      42.406  23.224  26.212  1.00  0.00     0.010 A 
ATOM     33  C   UNL A   1      42.275  23.482  27.585  1.00  0.00    -0.014 A 
BRANCH  33  34
ATOM     34  C   UNL A   1      42.591  24.833  28.117  1.00  0.00     0.031 A 
ATOM     35  C   UNL A   1      43.996  25.178  28.532  1.00  0.00     0.074 A 
ATOM     36  C   UNL A   1      41.603  25.735  28.276  1.00  0.00     0.049 A 
ATOM     37  N   UNL A   1      44.452  26.283  29.067  1.00  0.00    -0.248 NA
ATOM     38  C   UNL A   1      45.019  24.137  28.339  1.00  0.00     0.031 C 
ATOM     39  C   UNL A   1      40.194  25.517  27.944  1.00  0.00     0.029 A 
ATOM     40  N   UNL A   1      41.635  27.017  28.765  1.00  0.00    -0.354 N 
ATOM     41  C   UNL A   1      45.805  26.062  29.295  1.00  0.00     0.074 A 
ATOM     42  C   UNL A   1      46.088  24.706  28.876  1.00  0.00     0.031 C 
ATOM     43  C   UNL A   1      39.501  26.633  28.218  1.00  0.00     0.029 A 
ATOM     44  C   UNL A   1      40.407  27.632  28.777  1.00  0.00     0.049 A 
ATOM     45  H   UNL A   1      42.460  27.454  29.076  1.00  0.00     0.167 HD
ATOM     46  C   UNL A   1      46.732  26.915  29.794  1.00  0.00     0.031 A 
ATOM     47  C   UNL A   1      40.048  28.860  29.195  1.00  0.00     0.031 A 
ATOM     48  C   UNL A   1      46.457  28.269  30.196  1.00  0.00     0.049 A 
ATOM     49  C   UNL A   1      41.096  29.788  29.740  1.00  0.00     0.074 A 
ATOM     50  C   UNL A   1      47.340  29.225  30.664  1.00  0.00     0.029 A 
ATOM     51  N   UNL A   1      45.203  28.858  30.175  1.00  0.00    -0.354 N 
ATOM     52  N   UNL A   1      42.382  29.583  29.895  1.00  0.00    -0.248 NA
ATOM     53  C   UNL A   1      40.644  31.124  30.155  1.00  0.00     0.031 C 
ATOM     54  C   UNL A   1      46.613  30.383  30.964  1.00  0.00     0.029 A 
ATOM     55  C   UNL A   1      45.286  30.160  30.635  1.00  0.00     0.049 A 
ATOM     56  H   UNL A   1      44.375  28.415  29.876  1.00  0.00     0.167 HD
ATOM     57  C   UNL A   1      42.897  30.771  30.398  1.00  0.00     0.074 A 
ATOM     58  C   UNL A   1      41.788  31.696  30.508  1.00  0.00     0.031 C 
ATOM     59  C   UNL A   1      44.174  31.070  30.736  1.00  0.00     0.031 A 
BRANCH  46  60
ATOM     60  C   UNL A   1      48.137  26.400  29.939  1.00  0.00    -0.014 A 
ATOM     61  C   UNL A   1      49.075  26.545  28.905  1.00  0.00     0.009 A 
ATOM     62  C   UNL A   1      48.539  25.794  31.140  1.00  0.00     0.009 A 
ATOM     63  C   UNL A   1      50.376  26.060  29.056  1.00  0.00     0.001 A 
ATOM     64  C   UNL A   1      49.848  25.334  31.298  1.00  0.00     0.001 A 
ATOM     65  C   UNL A   1      50.762  25.459  30.253  1.00  0.00     0.000 A 
ENDBRANCH  46  60
BRANCH  47  66
ATOM     66  C   UNL A   1      38.631  29.294  29.095  1.00  0.00    -0.014 A 
ATOM     67  C   UNL A   1      38.133  29.819  27.893  1.00  0.00     0.009 A 
ATOM     68  C   UNL A   1      37.772  29.193  30.200  1.00  0.00     0.009 A 
ATOM     69  C   UNL A   1      36.810  30.259  27.807  1.00  0.00     0.001 A 
ATOM     70  C   UNL A   1      36.443  29.608  30.103  1.00  0.00     0.001 A 
ATOM     71  C   UNL A   1      35.965  30.149  28.911  1.00  0.00     0.000 A 
ENDBRANCH  47  66
BRANCH  59  72
ATOM     72  C   UNL A   1      44.447  32.465  31.217  1.00  0.00    -0.014 A 
ATOM     73  C   UNL A   1      44.672  33.517  30.315  1.00  0.00     0.009 A 
ATOM     74  C   UNL A   1      44.446  32.737  32.594  1.00  0.00     0.009 A 
ATOM     75  C   UNL A   1      44.923  34.807  30.786  1.00  0.00     0.001 A 
ATOM     76  C   UNL A   1      44.670  34.032  33.061  1.00  0.00     0.001 A 
ATOM     77  C   UNL A   1      44.919  35.064  32.157  1.00  0.00     0.000 A 
ENDBRANCH  59  72
ENDBRANCH  33  34
ENDBRANCH  25  28
ENDBRANCH  23  24
ENDBRANCH  22  23
ENDBRANCH   1  22
TORSDOF 14
ENDMDL
MODEL 3
REMARK VINA RESULT:     -10.6      2.609      7.146
REMARK SMILES COc1ccc(CSc2ncccc2C(=O)NCCCNC(=O)c2ccc(-c3c4nc(c(-c5ccccc5)c5ccc([nH]5)c(-c5ccccc5)c5nc(c(-c6ccccc6)c6ccc3[nH]6)C=C5)C=C4)cc2)cc1
REMARK SMILES IDX 18 1 17 2 15 3 16 4 14 6 9 7 10 8 11 9 13 10 12 11 8 12 7 13
REMARK SMILES IDX 6 14 3 15 4 16 73 17 5 18 72 19 2 20 1 21 19 22 20 23 21 24
REMARK SMILES IDX 22 25 23 27 24 28 25 29 71 30 26 31 70 32 27 33 28 34 29 35
REMARK SMILES IDX 64 36 30 37 69 38 63 39 65 40 31 41 68 42 62 43 61 44 32 46
REMARK SMILES IDX 54 47 39 48 53 49 40 50 43 51 52 52 66 53 41 54 42 55 51 57
REMARK SMILES IDX 67 58 44 59 33 60 34 61 38 62 35 63 37 64 36 65 55 66 56 67
REMARK SMILES IDX 60 68 57 69 59 70 58 71 45 72 46 73 50 74 47 75 49 76 48 77
REMARK H PARENT 17 5 21 26 65 45 43 56
REMARK Flexibility Score: inf
ROOT
ATOM      1  C   UNL A   1      34.513  24.615  25.397  1.00  0.00     0.118 C 
ENDROOT
BRANCH   1   2
ATOM      2  N   UNL A   1      34.505  24.933  23.979  1.00  0.00    -0.352 N 
ATOM      3  C   UNL A   1      33.818  25.841  23.208  1.00  0.00     0.254 C 
ATOM      4  O   UNL A   1      33.866  25.652  21.994  1.00  0.00    -0.269 OA
ATOM      5  H   UNL A   1      35.127  24.376  23.457  1.00  0.00     0.163 HD
BRANCH   3   6
ATOM      6  C   UNL A   1      33.074  26.999  23.779  1.00  0.00     0.072 A 
ATOM      7  C   UNL A   1      31.670  27.019  23.854  1.00  0.00     0.109 A 
ATOM      8  N   UNL A   1      30.984  28.123  24.264  1.00  0.00    -0.249 NA
ATOM      9  C   UNL A   1      31.680  29.180  24.719  1.00  0.00     0.112 A 
ATOM     10  C   UNL A   1      33.755  28.105  24.306  1.00  0.00     0.018 A 
ATOM     11  C   UNL A   1      33.056  29.212  24.776  1.00  0.00     0.021 A 
BRANCH   7  12
ATOM     12  S   UNL A   1      30.629  25.627  23.419  1.00  0.00    -0.101 SA
BRANCH  12  13
ATOM     13  C   UNL A   1      30.867  24.497  24.824  1.00  0.00     0.112 C 
BRANCH  13  14
ATOM     14  C   UNL A   1      31.360  23.098  24.523  1.00  0.00    -0.037 A 
ATOM     15  C   UNL A   1      32.421  20.565  23.880  1.00  0.00     0.118 A 
ATOM     16  C   UNL A   1      32.096  20.882  25.200  1.00  0.00     0.047 A 
ATOM     17  C   UNL A   1      32.187  21.497  22.874  1.00  0.00     0.047 A 
ATOM     18  C   UNL A   1      31.582  22.144  25.524  1.00  0.00     0.008 A 
ATOM     19  C   UNL A   1      31.668  22.755  23.196  1.00  0.00     0.008 A 
BRANCH  15  20
ATOM     20  O   UNL A   1      32.922  19.308  23.667  1.00  0.00    -0.497 OA
ATOM     21  C   UNL A   1      33.938  18.915  24.586  1.00  0.00     0.278 C 
ENDBRANCH  15  20
ENDBRANCH  13  14
ENDBRANCH  12  13
ENDBRANCH   7  12
ENDBRANCH   3   6
ENDBRANCH   1   2
BRANCH   1  22
ATOM     22  C   UNL A   1      35.527  23.501  25.683  1.00  0.00     0.042 C 
BRANCH  22  23
ATOM     23  C   UNL A   1      36.888  23.724  25.018  1.00  0.00     0.118 C 
BRANCH  23  24
ATOM     24  N   UNL A   1      37.860  22.715  25.410  1.00  0.00    -0.352 N 
ATOM     25  C   UNL A   1      39.054  22.851  26.071  1.00  0.00     0.251 C 
ATOM     26  H   UNL A   1      37.624  21.791  25.162  1.00  0.00     0.163 HD
ATOM     27  O   UNL A   1      39.831  21.901  26.115  1.00  0.00    -0.269 OA
BRANCH  25  28
ATOM     28  C   UNL A   1      39.423  24.126  26.727  1.00  0.00     0.039 A 
ATOM     29  C   UNL A   1      40.197  25.046  26.012  1.00  0.00     0.014 A 
ATOM     30  C   UNL A   1      39.077  24.391  28.055  1.00  0.00     0.014 A 
ATOM     31  C   UNL A   1      40.589  26.244  26.613  1.00  0.00     0.010 A 
ATOM     32  C   UNL A   1      39.419  25.613  28.634  1.00  0.00     0.010 A 
ATOM     33  C   UNL A   1      40.187  26.547  27.923  1.00  0.00    -0.014 A 
BRANCH  33  34
ATOM     34  C   UNL A   1      40.575  27.828  28.566  1.00  0.00     0.031 A 
ATOM     35  C   UNL A   1      41.970  28.021  29.097  1.00  0.00     0.074 A 
ATOM     36  C   UNL A   1      39.657  28.802  28.721  1.00  0.00     0.049 A 
ATOM     37  N   UNL A   1      42.477  29.046  29.736  1.00  0.00    -0.248 NA
ATOM     38  C   UNL A   1      42.914  26.909  28.901  1.00  0.00     0.031 C 
ATOM     39  C   UNL A   1      38.262  28.729  28.282  1.00  0.00     0.029 A 
ATOM     40  N   UNL A   1      39.760  30.042  29.299  1.00  0.00    -0.354 N 
ATOM     41  C   UNL A   1      43.787  28.693  30.038  1.00  0.00     0.074 A 
ATOM     42  C   UNL A   1      43.985  27.347  29.546  1.00  0.00     0.031 C 
ATOM     43  C   UNL A   1      37.646  29.882  28.587  1.00  0.00     0.029 A 
ATOM     44  C   UNL A   1      38.589  30.760  29.273  1.00  0.00     0.049 A 
ATOM     45  H   UNL A   1      40.594  30.384  29.695  1.00  0.00     0.167 HD
ATOM     46  C   UNL A   1      44.743  29.427  30.656  1.00  0.00     0.031 A 
ATOM     47  C   UNL A   1      38.305  31.986  29.750  1.00  0.00     0.031 A 
ATOM     48  C   UNL A   1      44.554  30.772  31.131  1.00  0.00     0.049 A 
ATOM     49  C   UNL A   1      39.385  32.782  30.427  1.00  0.00     0.074 A 
ATOM     50  C   UNL A   1      45.477  31.615  31.722  1.00  0.00     0.029 A 
ATOM     51  N   UNL A   1      43.358  31.469  31.067  1.00  0.00    -0.354 N 
ATOM     52  N   UNL A   1      40.634  32.456  30.652  1.00  0.00    -0.248 NA
ATOM     53  C   UNL A   1      39.017  34.124  30.903  1.00  0.00     0.031 C 
ATOM     54  C   UNL A   1      44.829  32.812  32.052  1.00  0.00     0.029 A 
ATOM     55  C   UNL A   1      43.515  32.728  31.622  1.00  0.00     0.049 A 
ATOM     56  H   UNL A   1      42.520  31.121  30.684  1.00  0.00     0.167 HD
ATOM     57  C   UNL A   1      41.209  33.559  31.269  1.00  0.00     0.074 A 
ATOM     58  C   UNL A   1      40.175  34.569  31.369  1.00  0.00     0.031 C 
ATOM     59  C   UNL A   1      42.479  33.723  31.711  1.00  0.00     0.031 A 
BRANCH  46  60
ATOM     60  C   UNL A   1      46.087  28.783  30.857  1.00  0.00    -0.014 A 
ATOM     61  C   UNL A   1      47.104  28.908  29.899  1.00  0.00     0.009 A 
ATOM     62  C   UNL A   1      46.350  28.072  32.038  1.00  0.00     0.009 A 
ATOM     63  C   UNL A   1      48.346  28.301  30.102  1.00  0.00     0.001 A 
ATOM     64  C   UNL A   1      47.601  27.490  32.251  1.00  0.00     0.001 A 
ATOM     65  C   UNL A   1      48.595  27.597  31.279  1.00  0.00     0.000 A 
ENDBRANCH  46  60
BRANCH  47  66
ATOM     66  C   UNL A   1      36.940  32.549  29.587  1.00  0.00    -0.014 A 
ATOM     67  C   UNL A   1      36.623  33.327  28.463  1.00  0.00     0.009 A 
ATOM     68  C   UNL A   1      35.951  32.317  30.554  1.00  0.00     0.009 A 
ATOM     69  C   UNL A   1      35.350  33.884  28.324  1.00  0.00     0.001 A 
ATOM     70  C   UNL A   1      34.671  32.853  30.399  1.00  0.00     0.001 A 
ATOM     71  C   UNL A   1      34.374  33.643  29.290  1.00  0.00     0.000 A 
ENDBRANCH  47  66
BRANCH  59  72
ATOM     72  C   UNL A   1      42.831  35.055  32.305  1.00  0.00    -0.014 A 
ATOM     73  C   UNL A   1      43.491  36.038  31.551  1.00  0.00     0.009 A 
ATOM     74  C   UNL A   1      42.468  35.343  33.630  1.00  0.00     0.009 A 
ATOM     75  C   UNL A   1      43.809  37.271  32.124  1.00  0.00     0.001 A 
ATOM     76  C   UNL A   1      42.762  36.585  34.192  1.00  0.00     0.001 A 
ATOM     77  C   UNL A   1      43.441  37.545  33.442  1.00  0.00     0.000 A 
ENDBRANCH  59  72
ENDBRANCH  33  34
ENDBRANCH  25  28
ENDBRANCH  23  24
ENDBRANCH  22  23
ENDBRANCH   1  22
TORSDOF 14
ENDMDL
