MODEL 1
REMARK VINA RESULT:     -13.0      0.000      0.000
REMARK SMILES O=C(N[C@]1(C(=O)NCCCNC(=O)c2ccc(-c3c4nc(c(-c5ccccc5)c5ccc([nH]5)c(-c5ccccc5)c5nc(c(-c6ccccc6)c6ccc3[nH]6)C=C5)C=C4)cc2)CC[C@H](c2ccccc2)CC1)OCC1c2ccccc2-c2ccccc21
REMARK SMILES IDX 8 1 7 2 5 3 6 4 4 6 62 7 72 8 63 9 71 10 64 11 3 12 1 13
REMARK SMILES IDX 2 14 73 16 74 17 75 18 76 19 87 20 77 21 81 22 82 23 86 24
REMARK SMILES IDX 78 25 80 26 83 27 85 28 79 29 84 30 65 31 66 32 70 33 67 34
REMARK SMILES IDX 69 35 68 36 9 37 10 38 11 39 12 40 13 42 14 43 15 44 61 45
REMARK SMILES IDX 16 46 60 47 17 48 18 49 19 50 54 51 20 52 59 53 53 54 55 55
REMARK SMILES IDX 21 56 58 57 52 58 51 59 22 61 44 62 29 63 43 64 30 65 33 66
REMARK SMILES IDX 42 67 56 68 31 69 32 70 41 72 57 73 34 74 23 75 24 76 28 77
REMARK SMILES IDX 25 78 27 79 26 80 45 81 46 82 50 83 47 84 49 85 48 86 35 87
REMARK SMILES IDX 36 88 40 89 37 90 39 91 38 92
REMARK H PARENT 7 5 3 15 11 41 55 60 33 71
REMARK Flexibility Score: inf
ROOT
ATOM      1  C   UNL A   1      36.043  20.446  24.817  1.00  0.00     0.117 C 
ENDROOT
BRANCH   1   2
ATOM      2  N   UNL A   1      35.226  20.592  26.032  1.00  0.00    -0.354 N 
ATOM      3  C   UNL A   1      34.303  21.501  26.484  1.00  0.00     0.245 C 
ATOM      4  O   UNL A   1      33.696  21.165  27.512  1.00  0.00    -0.272 OA
ATOM      5  H   UNL A   1      35.378  19.863  26.675  1.00  0.00     0.163 HD
BRANCH   3   6
ATOM      6  C   UNL A   1      33.920  22.861  25.758  1.00  0.00     0.122 C 
ATOM      7  C   UNL A   1      33.132  22.531  24.456  1.00  0.00     0.039 C 
ATOM      8  C   UNL A   1      35.145  23.718  25.555  1.00  0.00     0.039 C 
ATOM      9  C   UNL A   1      33.852  22.745  23.125  1.00  0.00     0.011 C 
ATOM     10  C   UNL A   1      35.529  24.138  24.153  1.00  0.00     0.011 C 
ATOM     11  C   UNL A   1      34.516  24.118  23.005  1.00  0.00     0.019 C 
BRANCH   6  12
ATOM     12  N   UNL A   1      32.943  23.529  26.685  1.00  0.00    -0.307 N 
ATOM     13  O   UNL A   1      30.847  23.465  27.557  1.00  0.00    -0.225 OA
ATOM     14  C   UNL A   1      31.574  23.611  26.588  1.00  0.00     0.408 C 
ATOM     15  H   UNL A   1      33.339  23.969  27.472  1.00  0.00     0.168 HD
BRANCH  14  16
ATOM     16  O   UNL A   1      31.120  24.010  25.362  1.00  0.00    -0.449 OA
BRANCH  16  17
ATOM     17  C   UNL A   1      30.331  25.223  25.331  1.00  0.00     0.248 C 
BRANCH  17  18
ATOM     18  C   UNL A   1      31.088  26.558  24.914  1.00  0.00     0.088 C 
ATOM     19  C   UNL A   1      31.991  27.559  25.741  1.00  0.00    -0.029 A 
ATOM     20  C   UNL A   1      30.116  27.540  24.253  1.00  0.00    -0.029 A 
ATOM     21  C   UNL A   1      33.147  27.443  26.528  1.00  0.00     0.005 A 
ATOM     22  C   UNL A   1      31.596  28.880  25.453  1.00  0.00    -0.014 A 
ATOM     23  C   UNL A   1      30.528  28.863  24.488  1.00  0.00    -0.014 A 
ATOM     24  C   UNL A   1      28.980  27.281  23.503  1.00  0.00     0.005 A 
ATOM     25  C   UNL A   1      33.707  28.543  27.199  1.00  0.00     0.000 A 
ATOM     26  C   UNL A   1      32.184  29.995  26.064  1.00  0.00     0.009 A 
ATOM     27  C   UNL A   1      29.933  29.922  23.831  1.00  0.00     0.009 A 
ATOM     28  C   UNL A   1      28.325  28.359  22.906  1.00  0.00     0.000 A 
ATOM     29  C   UNL A   1      33.216  29.818  26.979  1.00  0.00     0.001 A 
ATOM     30  C   UNL A   1      28.829  29.661  23.026  1.00  0.00     0.001 A 
ENDBRANCH  17  18
ENDBRANCH  16  17
ENDBRANCH  14  16
ENDBRANCH   6  12
BRANCH  11  31
ATOM     31  C   UNL A   1      33.638  25.341  22.642  1.00  0.00    -0.045 A 
ATOM     32  C   UNL A   1      32.481  25.210  21.870  1.00  0.00     0.004 A 
ATOM     33  C   UNL A   1      34.030  26.675  22.866  1.00  0.00     0.004 A 
ATOM     34  C   UNL A   1      31.793  26.330  21.358  1.00  0.00     0.000 A 
ATOM     35  C   UNL A   1      33.359  27.804  22.374  1.00  0.00     0.000 A 
ATOM     36  C   UNL A   1      32.236  27.627  21.599  1.00  0.00     0.000 A 
ENDBRANCH  11  31
ENDBRANCH   3   6
ENDBRANCH   1   2
BRANCH   1  37
ATOM     37  C   UNL A   1      37.285  19.552  24.987  1.00  0.00     0.042 C 
BRANCH  37  38
ATOM     38  C   UNL A   1      38.556  20.195  25.504  1.00  0.00     0.118 C 
BRANCH  38  39
ATOM     39  N   UNL A   1      39.671  19.278  25.634  1.00  0.00    -0.352 N 
ATOM     40  C   UNL A   1      40.958  19.491  26.073  1.00  0.00     0.251 C 
ATOM     41  H   UNL A   1      39.477  18.352  25.364  1.00  0.00     0.163 HD
ATOM     42  O   UNL A   1      41.754  18.556  26.015  1.00  0.00    -0.269 OA
BRANCH  40  43
ATOM     43  C   UNL A   1      41.423  20.810  26.585  1.00  0.00     0.039 A 
ATOM     44  C   UNL A   1      41.816  21.781  25.653  1.00  0.00     0.014 A 
ATOM     45  C   UNL A   1      41.534  21.105  27.945  1.00  0.00     0.014 A 
ATOM     46  C   UNL A   1      42.273  23.034  26.078  1.00  0.00     0.010 A 
ATOM     47  C   UNL A   1      41.889  22.385  28.369  1.00  0.00     0.010 A 
ATOM     48  C   UNL A   1      42.288  23.358  27.442  1.00  0.00    -0.014 A 
BRANCH  48  49
ATOM     49  C   UNL A   1      42.762  24.681  27.928  1.00  0.00     0.031 A 
ATOM     50  C   UNL A   1      41.766  25.760  28.268  1.00  0.00     0.074 A 
ATOM     51  C   UNL A   1      44.082  24.937  28.006  1.00  0.00     0.049 A 
ATOM     52  N   UNL A   1      41.979  27.002  28.627  1.00  0.00    -0.248 NA
ATOM     53  C   UNL A   1      40.341  25.407  28.161  1.00  0.00     0.031 C 
ATOM     54  C   UNL A   1      45.151  23.994  27.673  1.00  0.00     0.029 A 
ATOM     55  N   UNL A   1      44.750  26.075  28.385  1.00  0.00    -0.354 N 
ATOM     56  C   UNL A   1      40.722  27.580  28.755  1.00  0.00     0.074 A 
ATOM     57  C   UNL A   1      39.754  26.571  28.389  1.00  0.00     0.031 C 
ATOM     58  C   UNL A   1      46.339  24.582  27.891  1.00  0.00     0.029 A 
ATOM     59  C   UNL A   1      46.118  25.953  28.335  1.00  0.00     0.049 A 
ATOM     60  H   UNL A   1      44.292  26.900  28.665  1.00  0.00     0.167 HD
ATOM     61  C   UNL A   1      40.397  28.831  29.163  1.00  0.00     0.031 A 
ATOM     62  C   UNL A   1      47.085  26.848  28.610  1.00  0.00     0.031 A 
ATOM     63  C   UNL A   1      41.358  29.828  29.552  1.00  0.00     0.049 A 
ATOM     64  C   UNL A   1      46.702  28.230  29.062  1.00  0.00     0.074 A 
ATOM     65  C   UNL A   1      41.131  31.103  30.037  1.00  0.00     0.029 A 
ATOM     66  N   UNL A   1      42.734  29.657  29.500  1.00  0.00    -0.354 N 
ATOM     67  N   UNL A   1      45.507  28.741  29.236  1.00  0.00    -0.248 NA
ATOM     68  C   UNL A   1      47.803  29.156  29.365  1.00  0.00     0.031 C 
ATOM     69  C   UNL A   1      42.369  31.722  30.234  1.00  0.00     0.029 A 
ATOM     70  C   UNL A   1      43.368  30.811  29.925  1.00  0.00     0.049 A 
ATOM     71  H   UNL A   1      43.191  28.837  29.205  1.00  0.00     0.167 HD
ATOM     72  C   UNL A   1      45.711  30.036  29.692  1.00  0.00     0.074 A 
ATOM     73  C   UNL A   1      47.145  30.227  29.785  1.00  0.00     0.031 C 
ATOM     74  C   UNL A   1      44.795  30.984  30.009  1.00  0.00     0.031 A 
BRANCH  61  75
ATOM     75  C   UNL A   1      38.936  29.190  29.199  1.00  0.00    -0.014 A 
ATOM     76  C   UNL A   1      38.173  29.029  30.366  1.00  0.00     0.009 A 
ATOM     77  C   UNL A   1      38.319  29.720  28.055  1.00  0.00     0.009 A 
ATOM     78  C   UNL A   1      36.813  29.347  30.374  1.00  0.00     0.001 A 
ATOM     79  C   UNL A   1      36.966  30.067  28.074  1.00  0.00     0.001 A 
ATOM     80  C   UNL A   1      36.211  29.869  29.229  1.00  0.00     0.000 A 
ENDBRANCH  61  75
BRANCH  62  81
ATOM     81  C   UNL A   1      48.514  26.459  28.487  1.00  0.00    -0.014 A 
ATOM     82  C   UNL A   1      49.194  26.624  27.270  1.00  0.00     0.009 A 
ATOM     83  C   UNL A   1      49.209  25.924  29.583  1.00  0.00     0.009 A 
ATOM     84  C   UNL A   1      50.531  26.242  27.147  1.00  0.00     0.001 A 
ATOM     85  C   UNL A   1      50.554  25.570  29.466  1.00  0.00     0.001 A 
ATOM     86  C   UNL A   1      51.212  25.721  28.246  1.00  0.00     0.000 A 
ENDBRANCH  62  81
BRANCH  74  87
ATOM     87  C   UNL A   1      45.314  32.299  30.516  1.00  0.00    -0.014 A 
ATOM     88  C   UNL A   1      45.510  33.388  29.652  1.00  0.00     0.009 A 
ATOM     89  C   UNL A   1      45.570  32.463  31.886  1.00  0.00     0.009 A 
ATOM     90  C   UNL A   1      45.983  34.605  30.148  1.00  0.00     0.001 A 
ATOM     91  C   UNL A   1      46.015  33.688  32.383  1.00  0.00     0.001 A 
ATOM     92  C   UNL A   1      46.231  34.755  31.512  1.00  0.00     0.000 A 
ENDBRANCH  74  87
ENDBRANCH  48  49
ENDBRANCH  40  43
ENDBRANCH  38  39
ENDBRANCH  37  38
ENDBRANCH   1  37
TORSDOF 15
ENDMDL
MODEL 2
REMARK VINA RESULT:     -12.8      0.541      5.521
REMARK SMILES O=C(N[C@]1(C(=O)NCCCNC(=O)c2ccc(-c3c4nc(c(-c5ccccc5)c5ccc([nH]5)c(-c5ccccc5)c5nc(c(-c6ccccc6)c6ccc3[nH]6)C=C5)C=C4)cc2)CC[C@H](c2ccccc2)CC1)OCC1c2ccccc2-c2ccccc21
REMARK SMILES IDX 8 1 7 2 5 3 6 4 4 6 62 7 72 8 63 9 71 10 64 11 3 12 1 13
REMARK SMILES IDX 2 14 73 16 74 17 75 18 76 19 87 20 77 21 81 22 82 23 86 24
REMARK SMILES IDX 78 25 80 26 83 27 85 28 79 29 84 30 65 31 66 32 70 33 67 34
REMARK SMILES IDX 69 35 68 36 9 37 10 38 11 39 12 40 13 42 14 43 15 44 61 45
REMARK SMILES IDX 16 46 60 47 17 48 18 49 19 50 54 51 20 52 59 53 53 54 55 55
REMARK SMILES IDX 21 56 58 57 52 58 51 59 22 61 44 62 29 63 43 64 30 65 33 66
REMARK SMILES IDX 42 67 56 68 31 69 32 70 41 72 57 73 34 74 23 75 24 76 28 77
REMARK SMILES IDX 25 78 27 79 26 80 45 81 46 82 50 83 47 84 49 85 48 86 35 87
REMARK SMILES IDX 36 88 40 89 37 90 39 91 38 92
REMARK H PARENT 7 5 3 15 11 41 55 60 33 71
REMARK Flexibility Score: inf
ROOT
ATOM      1  C   UNL A   1      35.916  20.358  24.846  1.00  0.00     0.117 C 
ENDROOT
BRANCH   1   2
ATOM      2  N   UNL A   1      35.165  20.556  26.095  1.00  0.00    -0.354 N 
ATOM      3  C   UNL A   1      34.288  21.499  26.568  1.00  0.00     0.245 C 
ATOM      4  O   UNL A   1      33.724  21.204  27.633  1.00  0.00    -0.272 OA
ATOM      5  H   UNL A   1      35.330  19.839  26.749  1.00  0.00     0.163 HD
BRANCH   3   6
ATOM      6  C   UNL A   1      33.903  22.850  25.828  1.00  0.00     0.122 C 
ATOM      7  C   UNL A   1      33.139  22.503  24.515  1.00  0.00     0.039 C 
ATOM      8  C   UNL A   1      35.122  23.718  25.638  1.00  0.00     0.039 C 
ATOM      9  C   UNL A   1      33.877  22.715  23.194  1.00  0.00     0.011 C 
ATOM     10  C   UNL A   1      35.524  24.132  24.239  1.00  0.00     0.011 C 
ATOM     11  C   UNL A   1      34.530  24.094  23.075  1.00  0.00     0.019 C 
BRANCH   6  12
ATOM     12  N   UNL A   1      32.905  23.514  26.734  1.00  0.00    -0.307 N 
ATOM     13  O   UNL A   1      30.757  23.515  27.471  1.00  0.00    -0.225 OA
ATOM     14  C   UNL A   1      31.551  23.679  26.560  1.00  0.00     0.408 C 
ATOM     15  H   UNL A   1      33.272  23.883  27.570  1.00  0.00     0.168 HD
BRANCH  14  16
ATOM     16  O   UNL A   1      31.198  24.176  25.337  1.00  0.00    -0.449 OA
BRANCH  16  17
ATOM     17  C   UNL A   1      30.400  25.384  25.338  1.00  0.00     0.248 C 
BRANCH  17  18
ATOM     18  C   UNL A   1      31.130  26.724  24.893  1.00  0.00     0.088 C 
ATOM     19  C   UNL A   1      32.028  27.750  25.694  1.00  0.00    -0.029 A 
ATOM     20  C   UNL A   1      30.134  27.682  24.232  1.00  0.00    -0.029 A 
ATOM     21  C   UNL A   1      33.196  27.663  26.466  1.00  0.00     0.005 A 
ATOM     22  C   UNL A   1      31.609  29.061  25.393  1.00  0.00    -0.014 A 
ATOM     23  C   UNL A   1      30.528  29.014  24.444  1.00  0.00    -0.014 A 
ATOM     24  C   UNL A   1      28.992  27.396  23.502  1.00  0.00     0.005 A 
ATOM     25  C   UNL A   1      33.748  28.781  27.114  1.00  0.00     0.000 A 
ATOM     26  C   UNL A   1      32.187  30.193  25.981  1.00  0.00     0.009 A 
ATOM     27  C   UNL A   1      29.908  30.055  23.780  1.00  0.00     0.009 A 
ATOM     28  C   UNL A   1      28.312  28.454  22.899  1.00  0.00     0.000 A 
ATOM     29  C   UNL A   1      33.234  30.045  26.883  1.00  0.00     0.001 A 
ATOM     30  C   UNL A   1      28.797  29.766  22.994  1.00  0.00     0.001 A 
ENDBRANCH  17  18
ENDBRANCH  16  17
ENDBRANCH  14  16
ENDBRANCH   6  12
BRANCH  11  31
ATOM     31  C   UNL A   1      33.646  25.306  22.690  1.00  0.00    -0.045 A 
ATOM     32  C   UNL A   1      32.462  25.149  21.965  1.00  0.00     0.004 A 
ATOM     33  C   UNL A   1      34.052  26.646  22.842  1.00  0.00     0.004 A 
ATOM     34  C   UNL A   1      31.762  26.250  21.429  1.00  0.00     0.000 A 
ATOM     35  C   UNL A   1      33.370  27.756  22.325  1.00  0.00     0.000 A 
ATOM     36  C   UNL A   1      32.219  27.553  21.597  1.00  0.00     0.000 A 
ENDBRANCH  11  31
ENDBRANCH   3   6
ENDBRANCH   1   2
BRANCH   1  37
ATOM     37  C   UNL A   1      37.212  19.541  25.003  1.00  0.00     0.042 C 
BRANCH  37  38
ATOM     38  C   UNL A   1      38.466  20.275  25.431  1.00  0.00     0.118 C 
BRANCH  38  39
ATOM     39  N   UNL A   1      39.624  19.419  25.598  1.00  0.00    -0.352 N 
ATOM     40  C   UNL A   1      40.881  19.700  26.082  1.00  0.00     0.251 C 
ATOM     41  H   UNL A   1      39.489  18.485  25.319  1.00  0.00     0.163 HD
ATOM     42  O   UNL A   1      41.729  18.809  26.050  1.00  0.00    -0.269 OA
BRANCH  40  43
ATOM     43  C   UNL A   1      41.256  21.040  26.614  1.00  0.00     0.039 A 
ATOM     44  C   UNL A   1      41.760  21.990  25.714  1.00  0.00     0.014 A 
ATOM     45  C   UNL A   1      41.178  21.374  27.967  1.00  0.00     0.014 A 
ATOM     46  C   UNL A   1      42.140  23.262  26.160  1.00  0.00     0.010 A 
ATOM     47  C   UNL A   1      41.457  22.671  28.396  1.00  0.00     0.010 A 
ATOM     48  C   UNL A   1      41.966  23.624  27.503  1.00  0.00    -0.014 A 
BRANCH  48  49
ATOM     49  C   UNL A   1      42.353  24.967  28.009  1.00  0.00     0.031 A 
ATOM     50  C   UNL A   1      43.797  25.268  28.323  1.00  0.00     0.074 A 
ATOM     51  C   UNL A   1      41.407  25.896  28.247  1.00  0.00     0.049 A 
ATOM     52  N   UNL A   1      44.323  26.346  28.850  1.00  0.00    -0.248 NA
ATOM     53  C   UNL A   1      44.773  24.205  28.036  1.00  0.00     0.031 C 
ATOM     54  C   UNL A   1      39.971  25.723  28.021  1.00  0.00     0.029 A 
ATOM     55  N   UNL A   1      41.513  27.173  28.739  1.00  0.00    -0.354 N 
ATOM     56  C   UNL A   1      45.680  26.077  28.984  1.00  0.00     0.074 A 
ATOM     57  C   UNL A   1      45.889  24.720  28.532  1.00  0.00     0.031 C 
ATOM     58  C   UNL A   1      39.335  26.860  28.345  1.00  0.00     0.029 A 
ATOM     59  C   UNL A   1      40.308  27.826  28.843  1.00  0.00     0.049 A 
ATOM     60  H   UNL A   1      42.371  27.582  28.995  1.00  0.00     0.167 HD
ATOM     61  C   UNL A   1      46.671  26.891  29.423  1.00  0.00     0.031 A 
ATOM     62  C   UNL A   1      40.020  29.061  29.293  1.00  0.00     0.031 A 
ATOM     63  C   UNL A   1      46.469  28.249  29.849  1.00  0.00     0.049 A 
ATOM     64  C   UNL A   1      41.134  29.948  29.774  1.00  0.00     0.074 A 
ATOM     65  C   UNL A   1      47.413  29.177  30.253  1.00  0.00     0.029 A 
ATOM     66  N   UNL A   1      45.233  28.875  29.924  1.00  0.00    -0.354 N 
ATOM     67  N   UNL A   1      42.420  29.698  29.838  1.00  0.00    -0.248 NA
ATOM     68  C   UNL A   1      40.758  31.291  30.236  1.00  0.00     0.031 C 
ATOM     69  C   UNL A   1      46.744  30.349  30.618  1.00  0.00     0.029 A 
ATOM     70  C   UNL A   1      45.389  30.170  30.387  1.00  0.00     0.049 A 
ATOM     71  H   UNL A   1      44.375  28.461  29.683  1.00  0.00     0.167 HD
ATOM     72  C   UNL A   1      43.008  30.860  30.322  1.00  0.00     0.074 A 
ATOM     73  C   UNL A   1      41.941  31.820  30.518  1.00  0.00     0.031 C 
ATOM     74  C   UNL A   1      44.315  31.110  30.578  1.00  0.00     0.031 A 
BRANCH  61  75
ATOM     75  C   UNL A   1      48.064  26.323  29.470  1.00  0.00    -0.014 A 
ATOM     76  C   UNL A   1      48.892  26.325  28.336  1.00  0.00     0.009 A 
ATOM     77  C   UNL A   1      48.565  25.800  30.672  1.00  0.00     0.009 A 
ATOM     78  C   UNL A   1      50.174  25.774  28.393  1.00  0.00     0.001 A 
ATOM     79  C   UNL A   1      49.858  25.278  30.735  1.00  0.00     0.001 A 
ATOM     80  C   UNL A   1      50.658  25.254  29.594  1.00  0.00     0.000 A 
ENDBRANCH  61  75
BRANCH  62  81
ATOM     81  C   UNL A   1      38.614  29.543  29.291  1.00  0.00    -0.014 A 
ATOM     82  C   UNL A   1      38.089  30.203  28.169  1.00  0.00     0.009 A 
ATOM     83  C   UNL A   1      37.786  29.342  30.407  1.00  0.00     0.009 A 
ATOM     84  C   UNL A   1      36.774  30.672  28.172  1.00  0.00     0.001 A 
ATOM     85  C   UNL A   1      36.461  29.786  30.396  1.00  0.00     0.001 A 
ATOM     86  C   UNL A   1      35.959  30.458  29.283  1.00  0.00     0.000 A 
ENDBRANCH  62  81
BRANCH  74  87
ATOM     87  C   UNL A   1      44.667  32.487  31.068  1.00  0.00    -0.014 A 
ATOM     88  C   UNL A   1      44.730  32.778  32.440  1.00  0.00     0.009 A 
ATOM     89  C   UNL A   1      44.982  33.493  30.143  1.00  0.00     0.009 A 
ATOM     90  C   UNL A   1      45.070  34.062  32.872  1.00  0.00     0.001 A 
ATOM     91  C   UNL A   1      45.348  34.767  30.578  1.00  0.00     0.001 A 
ATOM     92  C   UNL A   1      45.383  35.053  31.942  1.00  0.00     0.000 A 
ENDBRANCH  74  87
ENDBRANCH  48  49
ENDBRANCH  40  43
ENDBRANCH  38  39
ENDBRANCH  37  38
ENDBRANCH   1  37
TORSDOF 15
ENDMDL
MODEL 3
REMARK VINA RESULT:     -12.1      1.283      5.920
REMARK SMILES O=C(N[C@]1(C(=O)NCCCNC(=O)c2ccc(-c3c4nc(c(-c5ccccc5)c5ccc([nH]5)c(-c5ccccc5)c5nc(c(-c6ccccc6)c6ccc3[nH]6)C=C5)C=C4)cc2)CC[C@H](c2ccccc2)CC1)OCC1c2ccccc2-c2ccccc21
REMARK SMILES IDX 8 1 7 2 5 3 6 4 4 6 62 7 72 8 63 9 71 10 64 11 3 12 1 13
REMARK SMILES IDX 2 14 73 16 74 17 75 18 76 19 87 20 77 21 81 22 82 23 86 24
REMARK SMILES IDX 78 25 80 26 83 27 85 28 79 29 84 30 65 31 66 32 70 33 67 34
REMARK SMILES IDX 69 35 68 36 9 37 10 38 11 39 12 40 13 42 14 43 15 44 61 45
REMARK SMILES IDX 16 46 60 47 17 48 18 49 19 50 54 51 20 52 59 53 53 54 55 55
REMARK SMILES IDX 21 56 58 57 52 58 51 59 22 61 44 62 29 63 43 64 30 65 33 66
REMARK SMILES IDX 42 67 56 68 31 69 32 70 41 72 57 73 34 74 23 75 24 76 28 77
REMARK SMILES IDX 25 78 27 79 26 80 45 81 46 82 50 83 47 84 49 85 48 86 35 87
REMARK SMILES IDX 36 88 40 89 37 90 39 91 38 92
REMARK H PARENT 7 5 3 15 11 41 55 60 33 71
REMARK Flexibility Score: inf
ROOT
ATOM      1  C   UNL A   1      37.251  20.375  25.096  1.00  0.00     0.117 C 
ENDROOT
BRANCH   1   2
ATOM      2  N   UNL A   1      36.074  19.502  24.976  1.00  0.00    -0.354 N 
ATOM      3  C   UNL A   1      34.721  19.697  24.853  1.00  0.00     0.245 C 
ATOM      4  O   UNL A   1      34.064  18.677  24.595  1.00  0.00    -0.272 OA
ATOM      5  H   UNL A   1      36.313  18.547  24.986  1.00  0.00     0.163 HD
BRANCH   3   6
ATOM      6  C   UNL A   1      33.984  21.102  24.932  1.00  0.00     0.122 C 
ATOM      7  C   UNL A   1      32.503  20.870  25.355  1.00  0.00     0.039 C 
ATOM      8  C   UNL A   1      34.160  21.867  23.643  1.00  0.00     0.039 C 
ATOM      9  C   UNL A   1      31.428  21.064  24.288  1.00  0.00     0.011 C 
ATOM     10  C   UNL A   1      32.934  22.295  22.865  1.00  0.00     0.011 C 
ATOM     11  C   UNL A   1      31.557  22.385  23.526  1.00  0.00     0.019 C 
BRANCH   6  12
ATOM     12  N   UNL A   1      34.644  21.817  26.077  1.00  0.00    -0.307 N 
ATOM     13  O   UNL A   1      34.310  22.979  27.999  1.00  0.00    -0.225 OA
ATOM     14  C   UNL A   1      34.203  22.909  26.786  1.00  0.00     0.408 C 
ATOM     15  H   UNL A   1      35.514  21.453  26.360  1.00  0.00     0.168 HD
BRANCH  14  16
ATOM     16  O   UNL A   1      33.779  23.950  26.008  1.00  0.00    -0.449 OA
BRANCH  16  17
ATOM     17  C   UNL A   1      34.810  24.801  25.452  1.00  0.00     0.248 C 
BRANCH  17  18
ATOM     18  C   UNL A   1      34.378  26.277  25.047  1.00  0.00     0.088 C 
ATOM     19  C   UNL A   1      33.548  27.380  25.819  1.00  0.00    -0.029 A 
ATOM     20  C   UNL A   1      33.648  26.270  23.701  1.00  0.00    -0.029 A 
ATOM     21  C   UNL A   1      33.654  28.018  27.065  1.00  0.00     0.005 A 
ATOM     22  C   UNL A   1      32.594  27.934  24.944  1.00  0.00    -0.014 A 
ATOM     23  C   UNL A   1      32.721  27.325  23.646  1.00  0.00    -0.014 A 
ATOM     24  C   UNL A   1      33.802  25.415  22.622  1.00  0.00     0.005 A 
ATOM     25  C   UNL A   1      32.703  28.954  27.506  1.00  0.00     0.000 A 
ATOM     26  C   UNL A   1      31.678  28.914  25.347  1.00  0.00     0.009 A 
ATOM     27  C   UNL A   1      32.084  27.654  22.465  1.00  0.00     0.009 A 
ATOM     28  C   UNL A   1      33.094  25.694  21.453  1.00  0.00     0.000 A 
ATOM     29  C   UNL A   1      31.705  29.391  26.652  1.00  0.00     0.001 A 
ATOM     30  C   UNL A   1      32.283  26.834  21.359  1.00  0.00     0.001 A 
ENDBRANCH  17  18
ENDBRANCH  16  17
ENDBRANCH  14  16
ENDBRANCH   6  12
BRANCH  11  31
ATOM     31  C   UNL A   1      31.030  23.681  24.188  1.00  0.00    -0.045 A 
ATOM     32  C   UNL A   1      31.090  23.877  25.570  1.00  0.00     0.004 A 
ATOM     33  C   UNL A   1      30.271  24.653  23.504  1.00  0.00     0.004 A 
ATOM     34  C   UNL A   1      30.429  24.949  26.204  1.00  0.00     0.000 A 
ATOM     35  C   UNL A   1      29.612  25.731  24.111  1.00  0.00     0.000 A 
ATOM     36  C   UNL A   1      29.680  25.871  25.478  1.00  0.00     0.000 A 
ENDBRANCH  11  31
ENDBRANCH   3   6
ENDBRANCH   1   2
BRANCH   1  37
ATOM     37  C   UNL A   1      38.602  19.647  24.966  1.00  0.00     0.042 C 
BRANCH  37  38
ATOM     38  C   UNL A   1      39.548  19.692  26.148  1.00  0.00     0.118 C 
BRANCH  38  39
ATOM     39  N   UNL A   1      40.848  19.107  25.887  1.00  0.00    -0.352 N 
ATOM     40  C   UNL A   1      42.109  19.649  25.985  1.00  0.00     0.251 C 
ATOM     41  H   UNL A   1      40.826  18.169  25.590  1.00  0.00     0.163 HD
ATOM     42  O   UNL A   1      43.066  18.964  25.627  1.00  0.00    -0.269 OA
BRANCH  40  43
ATOM     43  C   UNL A   1      42.352  21.033  26.480  1.00  0.00     0.039 A 
ATOM     44  C   UNL A   1      42.254  21.269  27.859  1.00  0.00     0.014 A 
ATOM     45  C   UNL A   1      42.619  22.111  25.634  1.00  0.00     0.014 A 
ATOM     46  C   UNL A   1      42.459  22.552  28.379  1.00  0.00     0.010 A 
ATOM     47  C   UNL A   1      42.926  23.367  26.158  1.00  0.00     0.010 A 
ATOM     48  C   UNL A   1      42.825  23.610  27.534  1.00  0.00    -0.014 A 
BRANCH  48  49
ATOM     49  C   UNL A   1      43.056  24.983  28.053  1.00  0.00     0.031 A 
ATOM     50  C   UNL A   1      44.445  25.416  28.452  1.00  0.00     0.074 A 
ATOM     51  C   UNL A   1      42.017  25.822  28.227  1.00  0.00     0.049 A 
ATOM     52  N   UNL A   1      44.838  26.538  29.001  1.00  0.00    -0.248 NA
ATOM     53  C   UNL A   1      45.530  24.446  28.231  1.00  0.00     0.031 C 
ATOM     54  C   UNL A   1      40.619  25.518  27.916  1.00  0.00     0.029 A 
ATOM     55  N   UNL A   1      41.976  27.105  28.716  1.00  0.00    -0.354 N 
ATOM     56  C   UNL A   1      46.203  26.395  29.219  1.00  0.00     0.074 A 
ATOM     57  C   UNL A   1      46.562  25.061  28.790  1.00  0.00     0.031 C 
ATOM     58  C   UNL A   1      39.863  26.593  28.194  1.00  0.00     0.029 A 
ATOM     59  C   UNL A   1      40.713  27.644  28.743  1.00  0.00     0.049 A 
ATOM     60  H   UNL A   1      42.776  27.591  29.021  1.00  0.00     0.167 HD
ATOM     61  C   UNL A   1      47.087  27.296  29.711  1.00  0.00     0.031 A 
ATOM     62  C   UNL A   1      40.286  28.848  29.167  1.00  0.00     0.031 A 
ATOM     63  C   UNL A   1      46.737  28.631  30.115  1.00  0.00     0.049 A 
ATOM     64  C   UNL A   1      41.284  29.834  29.708  1.00  0.00     0.074 A 
ATOM     65  C   UNL A   1      47.566  29.642  30.569  1.00  0.00     0.029 A 
ATOM     66  N   UNL A   1      45.447  29.141  30.111  1.00  0.00    -0.354 N 
ATOM     67  N   UNL A   1      42.581  29.703  29.850  1.00  0.00    -0.248 NA
ATOM     68  C   UNL A   1      40.759  31.138  30.137  1.00  0.00     0.031 C 
ATOM     69  C   UNL A   1      46.772  30.748  30.885  1.00  0.00     0.029 A 
ATOM     70  C   UNL A   1      45.455  30.446  30.574  1.00  0.00     0.049 A 
ATOM     71  H   UNL A   1      44.646  28.650  29.821  1.00  0.00     0.167 HD
ATOM     72  C   UNL A   1      43.030  30.914  30.361  1.00  0.00     0.074 A 
ATOM     73  C   UNL A   1      41.869  31.773  30.486  1.00  0.00     0.031 C 
ATOM     74  C   UNL A   1      44.291  31.284  30.694  1.00  0.00     0.031 A 
BRANCH  61  75
ATOM     75  C   UNL A   1      48.520  26.858  29.846  1.00  0.00    -0.014 A 
ATOM     76  C   UNL A   1      48.985  26.226  31.011  1.00  0.00     0.009 A 
ATOM     77  C   UNL A   1      49.416  27.060  28.784  1.00  0.00     0.009 A 
ATOM     78  C   UNL A   1      50.324  25.847  31.126  1.00  0.00     0.001 A 
ATOM     79  C   UNL A   1      50.747  26.652  28.890  1.00  0.00     0.001 A 
ATOM     80  C   UNL A   1      51.203  26.057  30.065  1.00  0.00     0.000 A 
ENDBRANCH  61  75
BRANCH  62  81
ATOM     81  C   UNL A   1      38.844  29.199  29.077  1.00  0.00    -0.014 A 
ATOM     82  C   UNL A   1      38.310  29.712  27.884  1.00  0.00     0.009 A 
ATOM     83  C   UNL A   1      37.993  29.020  30.178  1.00  0.00     0.009 A 
ATOM     84  C   UNL A   1      36.960  30.059  27.804  1.00  0.00     0.001 A 
ATOM     85  C   UNL A   1      36.637  29.340  30.086  1.00  0.00     0.001 A 
ATOM     86  C   UNL A   1      36.123  29.868  28.902  1.00  0.00     0.000 A 
ENDBRANCH  62  81
BRANCH  74  87
ATOM     87  C   UNL A   1      44.485  32.687  31.195  1.00  0.00    -0.014 A 
ATOM     88  C   UNL A   1      44.542  32.970  32.568  1.00  0.00     0.009 A 
ATOM     89  C   UNL A   1      44.656  33.734  30.276  1.00  0.00     0.009 A 
ATOM     90  C   UNL A   1      44.735  34.281  33.011  1.00  0.00     0.001 A 
ATOM     91  C   UNL A   1      44.876  35.038  30.721  1.00  0.00     0.001 A 
ATOM     92  C   UNL A   1      44.906  35.312  32.087  1.00  0.00     0.000 A 
ENDBRANCH  74  87
ENDBRANCH  48  49
ENDBRANCH  40  43
ENDBRANCH  38  39
ENDBRANCH  37  38
ENDBRANCH   1  37
TORSDOF 15
ENDMDL
