MODEL 1
REMARK VINA RESULT:      -9.9      0.000      0.000
REMARK SMILES CC(C)C[C@@H](C)NS(=O)(=O)c1ccsc1C(=O)NCCCNC(=O)c1ccc(-c2c3nc(c(-c4ccccc4)c4ccc([nH]4)c(-c4ccccc4)c4nc(c(-c5ccccc5)c5ccc2[nH]5)C=C4)C=C3)cc1
REMARK SMILES IDX 16 1 17 2 18 3 15 5 11 6 12 7 13 8 14 9 8 10 9 11 10 12 7 13
REMARK SMILES IDX 5 15 6 16 4 17 2 18 1 19 3 20 19 21 20 22 21 23 22 24 23 25
REMARK SMILES IDX 24 27 25 28 26 29 72 30 27 31 71 32 28 33 29 34 30 35 65 36
REMARK SMILES IDX 31 37 70 38 64 39 66 40 32 41 69 42 63 43 62 44 33 46 55 47
REMARK SMILES IDX 40 48 54 49 41 50 44 51 53 52 67 53 42 54 43 55 52 57 68 58
REMARK SMILES IDX 45 59 34 60 35 61 39 62 36 63 38 64 37 65 56 66 57 67 61 68
REMARK SMILES IDX 58 69 60 70 59 71 46 72 47 73 51 74 48 75 50 76 49 77
REMARK H PARENT 18 4 7 14 22 26 66 45 44 56
REMARK Flexibility Score: inf
ROOT
ATOM      1  C   UNL A   1      33.513  24.696  23.715  1.00  0.00     0.262 C 
ATOM      2  O   UNL A   1      34.035  24.192  22.711  1.00  0.00    -0.268 OA
ATOM      3  N   UNL A   1      33.813  26.032  23.840  1.00  0.00    -0.351 N 
ATOM      4  H   UNL A   1      34.586  26.355  23.322  1.00  0.00     0.163 HD
ENDROOT
BRANCH   1   5
ATOM      5  C   UNL A   1      32.757  23.887  24.690  1.00  0.00     0.112 A 
ATOM      6  C   UNL A   1      32.929  23.136  25.859  1.00  0.00     0.106 A 
ATOM      7  C   UNL A   1      31.683  22.563  26.329  1.00  0.00     0.034 A 
ATOM      8  C   UNL A   1      30.599  22.885  25.562  1.00  0.00     0.067 A 
ATOM      9  S   UNL A   1      31.040  23.867  24.263  1.00  0.00    -0.137 S 
BRANCH   6  10
ATOM     10  S   UNL A   1      34.291  22.760  26.883  1.00  0.00     0.242 S 
ATOM     11  O   UNL A   1      33.897  22.699  28.254  1.00  0.00    -0.207 OA
ATOM     12  O   UNL A   1      35.325  23.677  26.446  1.00  0.00    -0.207 OA
BRANCH  10  13
ATOM     13  N   UNL A   1      34.829  21.207  26.539  1.00  0.00    -0.208 NA
ATOM     14  H   UNL A   1      35.727  21.092  27.009  1.00  0.00     0.141 HD
BRANCH  13  15
ATOM     15  C   UNL A   1      35.027  20.806  25.116  1.00  0.00     0.067 C 
ATOM     16  C   UNL A   1      34.070  19.716  24.629  1.00  0.00     0.025 C 
BRANCH  15  17
ATOM     17  C   UNL A   1      36.488  20.337  25.008  1.00  0.00     0.022 C 
BRANCH  17  18
ATOM     18  C   UNL A   1      37.481  21.400  24.512  1.00  0.00    -0.016 C 
ATOM     19  C   UNL A   1      36.794  22.464  23.655  1.00  0.00     0.007 C 
ATOM     20  C   UNL A   1      38.169  22.046  25.714  1.00  0.00     0.007 C 
ENDBRANCH  17  18
ENDBRANCH  15  17
ENDBRANCH  13  15
ENDBRANCH  10  13
ENDBRANCH   6  10
ENDBRANCH   1   5
BRANCH   3  21
ATOM     21  C   UNL A   1      33.135  27.004  24.633  1.00  0.00     0.118 C 
BRANCH  21  22
ATOM     22  C   UNL A   1      33.924  28.164  25.189  1.00  0.00     0.042 C 
BRANCH  22  23
ATOM     23  C   UNL A   1      33.964  28.210  26.709  1.00  0.00     0.118 C 
BRANCH  23  24
ATOM     24  N   UNL A   1      33.723  29.529  27.302  1.00  0.00    -0.352 N 
ATOM     25  C   UNL A   1      34.497  30.420  28.011  1.00  0.00     0.251 C 
ATOM     26  H   UNL A   1      32.802  29.849  27.163  1.00  0.00     0.163 HD
ATOM     27  O   UNL A   1      33.982  31.459  28.421  1.00  0.00    -0.269 OA
BRANCH  25  28
ATOM     28  C   UNL A   1      35.913  30.144  28.344  1.00  0.00     0.039 A 
ATOM     29  C   UNL A   1      36.238  29.671  29.624  1.00  0.00     0.014 A 
ATOM     30  C   UNL A   1      36.935  30.343  27.425  1.00  0.00     0.014 A 
ATOM     31  C   UNL A   1      37.552  29.293  29.922  1.00  0.00     0.010 A 
ATOM     32  C   UNL A   1      38.199  29.823  27.664  1.00  0.00     0.010 A 
ATOM     33  C   UNL A   1      38.532  29.299  28.919  1.00  0.00    -0.014 A 
BRANCH  33  34
ATOM     34  C   UNL A   1      39.914  28.794  29.139  1.00  0.00     0.031 A 
ATOM     35  C   UNL A   1      40.969  29.713  29.704  1.00  0.00     0.074 A 
ATOM     36  C   UNL A   1      40.255  27.557  28.725  1.00  0.00     0.049 A 
ATOM     37  N   UNL A   1      42.261  29.530  29.800  1.00  0.00    -0.248 NA
ATOM     38  C   UNL A   1      40.517  31.035  30.172  1.00  0.00     0.031 C 
ATOM     39  C   UNL A   1      39.353  26.583  28.106  1.00  0.00     0.029 A 
ATOM     40  N   UNL A   1      41.467  26.911  28.753  1.00  0.00    -0.354 N 
ATOM     41  C   UNL A   1      42.776  30.727  30.283  1.00  0.00     0.074 A 
ATOM     42  C   UNL A   1      41.667  31.647  30.405  1.00  0.00     0.031 C 
ATOM     43  C   UNL A   1      40.031  25.452  27.853  1.00  0.00     0.029 A 
ATOM     44  C   UNL A   1      41.424  25.637  28.241  1.00  0.00     0.049 A 
ATOM     45  H   UNL A   1      42.289  27.323  29.105  1.00  0.00     0.167 HD
ATOM     46  C   UNL A   1      44.050  31.032  30.623  1.00  0.00     0.031 A 
ATOM     47  C   UNL A   1      42.399  24.721  28.094  1.00  0.00     0.031 A 
ATOM     48  C   UNL A   1      45.143  30.101  30.564  1.00  0.00     0.049 A 
ATOM     49  C   UNL A   1      43.797  25.062  28.526  1.00  0.00     0.074 A 
ATOM     50  C   UNL A   1      46.454  30.282  30.966  1.00  0.00     0.029 A 
ATOM     51  N   UNL A   1      45.041  28.803  30.089  1.00  0.00    -0.354 N 
ATOM     52  N   UNL A   1      44.255  26.183  29.029  1.00  0.00    -0.248 NA
ATOM     53  C   UNL A   1      44.811  24.008  28.376  1.00  0.00     0.031 C 
ATOM     54  C   UNL A   1      47.156  29.101  30.703  1.00  0.00     0.029 A 
ATOM     55  C   UNL A   1      46.270  28.173  30.179  1.00  0.00     0.049 A 
ATOM     56  H   UNL A   1      44.218  28.391  29.739  1.00  0.00     0.167 HD
ATOM     57  C   UNL A   1      45.603  25.960  29.280  1.00  0.00     0.074 A 
ATOM     58  C   UNL A   1      45.884  24.595  28.887  1.00  0.00     0.031 C 
ATOM     59  C   UNL A   1      46.526  26.811  29.790  1.00  0.00     0.031 A 
BRANCH  46  60
ATOM     60  C   UNL A   1      44.321  32.431  31.104  1.00  0.00    -0.014 A 
ATOM     61  C   UNL A   1      44.207  32.770  32.462  1.00  0.00     0.009 A 
ATOM     62  C   UNL A   1      44.708  33.423  30.189  1.00  0.00     0.009 A 
ATOM     63  C   UNL A   1      44.427  34.082  32.886  1.00  0.00     0.001 A 
ATOM     64  C   UNL A   1      44.959  34.727  30.621  1.00  0.00     0.001 A 
ATOM     65  C   UNL A   1      44.807  35.058  31.966  1.00  0.00     0.000 A 
ENDBRANCH  46  60
BRANCH  47  66
ATOM     66  C   UNL A   1      42.082  23.376  27.548  1.00  0.00    -0.014 A 
ATOM     67  C   UNL A   1      42.342  23.083  26.200  1.00  0.00     0.009 A 
ATOM     68  C   UNL A   1      41.525  22.379  28.364  1.00  0.00     0.009 A 
ATOM     69  C   UNL A   1      42.026  21.829  25.673  1.00  0.00     0.001 A 
ATOM     70  C   UNL A   1      41.235  21.117  27.840  1.00  0.00     0.001 A 
ATOM     71  C   UNL A   1      41.477  20.846  26.495  1.00  0.00     0.000 A 
ENDBRANCH  47  66
BRANCH  59  72
ATOM     72  C   UNL A   1      47.914  26.278  29.987  1.00  0.00    -0.014 A 
ATOM     73  C   UNL A   1      48.333  25.785  31.232  1.00  0.00     0.009 A 
ATOM     74  C   UNL A   1      48.798  26.226  28.897  1.00  0.00     0.009 A 
ATOM     75  C   UNL A   1      49.624  25.275  31.389  1.00  0.00     0.001 A 
ATOM     76  C   UNL A   1      50.078  25.693  29.051  1.00  0.00     0.001 A 
ATOM     77  C   UNL A   1      50.492  25.226  30.298  1.00  0.00     0.000 A 
ENDBRANCH  59  72
ENDBRANCH  33  34
ENDBRANCH  25  28
ENDBRANCH  23  24
ENDBRANCH  22  23
ENDBRANCH  21  22
ENDBRANCH   3  21
TORSDOF 15
ENDMDL
MODEL 2
REMARK VINA RESULT:      -9.9      1.399      2.083
REMARK SMILES CC(C)C[C@@H](C)NS(=O)(=O)c1ccsc1C(=O)NCCCNC(=O)c1ccc(-c2c3nc(c(-c4ccccc4)c4ccc([nH]4)c(-c4ccccc4)c4nc(c(-c5ccccc5)c5ccc2[nH]5)C=C4)C=C3)cc1
REMARK SMILES IDX 16 1 17 2 18 3 15 5 11 6 12 7 13 8 14 9 8 10 9 11 10 12 7 13
REMARK SMILES IDX 5 15 6 16 4 17 2 18 1 19 3 20 19 21 20 22 21 23 22 24 23 25
REMARK SMILES IDX 24 27 25 28 26 29 72 30 27 31 71 32 28 33 29 34 30 35 65 36
REMARK SMILES IDX 31 37 70 38 64 39 66 40 32 41 69 42 63 43 62 44 33 46 55 47
REMARK SMILES IDX 40 48 54 49 41 50 44 51 53 52 67 53 42 54 43 55 52 57 68 58
REMARK SMILES IDX 45 59 34 60 35 61 39 62 36 63 38 64 37 65 56 66 57 67 61 68
REMARK SMILES IDX 58 69 60 70 59 71 46 72 47 73 51 74 48 75 50 76 49 77
REMARK H PARENT 18 4 7 14 22 26 66 45 44 56
REMARK Flexibility Score: inf
ROOT
ATOM      1  C   UNL A   1      31.651  27.106  23.090  1.00  0.00     0.262 C 
ATOM      2  O   UNL A   1      30.886  27.474  22.187  1.00  0.00    -0.268 OA
ATOM      3  N   UNL A   1      32.600  28.056  23.385  1.00  0.00    -0.351 N 
ATOM      4  H   UNL A   1      32.743  28.754  22.705  1.00  0.00     0.163 HD
ENDROOT
BRANCH   1   5
ATOM      5  C   UNL A   1      31.576  25.752  23.672  1.00  0.00     0.112 A 
ATOM      6  C   UNL A   1      32.076  24.456  23.498  1.00  0.00     0.106 A 
ATOM      7  C   UNL A   1      31.555  23.533  24.488  1.00  0.00     0.034 A 
ATOM      8  C   UNL A   1      30.711  24.108  25.394  1.00  0.00     0.067 A 
ATOM      9  S   UNL A   1      30.512  25.754  25.085  1.00  0.00    -0.137 S 
BRANCH   6  10
ATOM     10  S   UNL A   1      33.194  23.714  22.383  1.00  0.00     0.242 S 
ATOM     11  O   UNL A   1      33.089  24.303  21.087  1.00  0.00    -0.207 OA
ATOM     12  O   UNL A   1      32.989  22.291  22.572  1.00  0.00    -0.207 OA
BRANCH  10  13
ATOM     13  N   UNL A   1      34.766  24.054  22.867  1.00  0.00    -0.208 NA
ATOM     14  H   UNL A   1      35.382  23.753  22.111  1.00  0.00     0.141 HD
BRANCH  13  15
ATOM     15  C   UNL A   1      35.286  23.445  24.124  1.00  0.00     0.067 C 
ATOM     16  C   UNL A   1      35.228  24.367  25.343  1.00  0.00     0.025 C 
BRANCH  15  17
ATOM     17  C   UNL A   1      36.736  23.029  23.823  1.00  0.00     0.022 C 
BRANCH  17  18
ATOM     18  C   UNL A   1      37.196  21.727  24.498  1.00  0.00    -0.016 C 
ATOM     19  C   UNL A   1      38.109  21.997  25.694  1.00  0.00     0.007 C 
ATOM     20  C   UNL A   1      35.970  20.926  24.934  1.00  0.00     0.007 C 
ENDBRANCH  17  18
ENDBRANCH  15  17
ENDBRANCH  13  15
ENDBRANCH  10  13
ENDBRANCH   6  10
ENDBRANCH   1   5
BRANCH   3  21
ATOM     21  C   UNL A   1      33.400  28.148  24.562  1.00  0.00     0.118 C 
BRANCH  21  22
ATOM     22  C   UNL A   1      33.396  29.438  25.343  1.00  0.00     0.042 C 
BRANCH  22  23
ATOM     23  C   UNL A   1      33.326  29.247  26.851  1.00  0.00     0.118 C 
BRANCH  23  24
ATOM     24  N   UNL A   1      33.515  30.465  27.646  1.00  0.00    -0.352 N 
ATOM     25  C   UNL A   1      34.560  30.981  28.378  1.00  0.00     0.251 C 
ATOM     26  H   UNL A   1      32.717  31.041  27.659  1.00  0.00     0.163 HD
ATOM     27  O   UNL A   1      34.395  32.038  28.986  1.00  0.00    -0.269 OA
BRANCH  25  28
ATOM     28  C   UNL A   1      35.858  30.279  28.503  1.00  0.00     0.039 A 
ATOM     29  C   UNL A   1      36.769  30.327  27.438  1.00  0.00     0.014 A 
ATOM     30  C   UNL A   1      36.201  29.570  29.645  1.00  0.00     0.014 A 
ATOM     31  C   UNL A   1      38.047  29.772  27.578  1.00  0.00     0.010 A 
ATOM     32  C   UNL A   1      37.512  29.162  29.846  1.00  0.00     0.010 A 
ATOM     33  C   UNL A   1      38.454  29.246  28.812  1.00  0.00    -0.014 A 
BRANCH  33  34
ATOM     34  C   UNL A   1      39.836  28.754  29.062  1.00  0.00     0.031 A 
ATOM     35  C   UNL A   1      40.870  29.684  29.647  1.00  0.00     0.074 A 
ATOM     36  C   UNL A   1      40.197  27.520  28.657  1.00  0.00     0.049 A 
ATOM     37  N   UNL A   1      42.162  29.513  29.771  1.00  0.00    -0.248 NA
ATOM     38  C   UNL A   1      40.397  31.002  30.104  1.00  0.00     0.031 C 
ATOM     39  C   UNL A   1      39.317  26.536  28.021  1.00  0.00     0.029 A 
ATOM     40  N   UNL A   1      41.414  26.886  28.711  1.00  0.00    -0.354 N 
ATOM     41  C   UNL A   1      42.655  30.716  30.263  1.00  0.00     0.074 A 
ATOM     42  C   UNL A   1      41.535  31.625  30.360  1.00  0.00     0.031 C 
ATOM     43  C   UNL A   1      40.011  25.412  27.784  1.00  0.00     0.029 A 
ATOM     44  C   UNL A   1      41.394  25.610  28.201  1.00  0.00     0.049 A 
ATOM     45  H   UNL A   1      42.224  27.306  29.080  1.00  0.00     0.167 HD
ATOM     46  C   UNL A   1      43.919  31.033  30.629  1.00  0.00     0.031 A 
ATOM     47  C   UNL A   1      42.380  24.703  28.076  1.00  0.00     0.031 A 
ATOM     48  C   UNL A   1      45.021  30.112  30.594  1.00  0.00     0.049 A 
ATOM     49  C   UNL A   1      43.766  25.058  28.536  1.00  0.00     0.074 A 
ATOM     50  C   UNL A   1      46.323  30.306  31.022  1.00  0.00     0.029 A 
ATOM     51  N   UNL A   1      44.942  28.812  30.119  1.00  0.00    -0.354 N 
ATOM     52  N   UNL A   1      44.203  26.184  29.047  1.00  0.00    -0.248 NA
ATOM     53  C   UNL A   1      44.792  24.014  28.408  1.00  0.00     0.031 C 
ATOM     54  C   UNL A   1      47.040  29.131  30.776  1.00  0.00     0.029 A 
ATOM     55  C   UNL A   1      46.175  28.194  30.235  1.00  0.00     0.049 A 
ATOM     56  H   UNL A   1      44.130  28.393  29.752  1.00  0.00     0.167 HD
ATOM     57  C   UNL A   1      45.546  25.974  29.326  1.00  0.00     0.074 A 
ATOM     58  C   UNL A   1      45.849  24.611  28.941  1.00  0.00     0.031 C 
ATOM     59  C   UNL A   1      46.451  26.834  29.853  1.00  0.00     0.031 A 
BRANCH  46  60
ATOM     60  C   UNL A   1      44.167  32.435  31.113  1.00  0.00    -0.014 A 
ATOM     61  C   UNL A   1      44.404  33.486  30.213  1.00  0.00     0.009 A 
ATOM     62  C   UNL A   1      44.150  32.713  32.489  1.00  0.00     0.009 A 
ATOM     63  C   UNL A   1      44.667  34.775  30.681  1.00  0.00     0.001 A 
ATOM     64  C   UNL A   1      44.381  34.010  32.953  1.00  0.00     0.001 A 
ATOM     65  C   UNL A   1      44.652  35.036  32.050  1.00  0.00     0.000 A 
ENDBRANCH  46  60
BRANCH  47  66
ATOM     66  C   UNL A   1      42.087  23.355  27.525  1.00  0.00    -0.014 A 
ATOM     67  C   UNL A   1      41.567  22.350  28.356  1.00  0.00     0.009 A 
ATOM     68  C   UNL A   1      42.319  23.062  26.171  1.00  0.00     0.009 A 
ATOM     69  C   UNL A   1      41.311  21.074  27.852  1.00  0.00     0.001 A 
ATOM     70  C   UNL A   1      42.036  21.793  25.664  1.00  0.00     0.001 A 
ATOM     71  C   UNL A   1      41.541  20.798  26.505  1.00  0.00     0.000 A 
ENDBRANCH  47  66
BRANCH  59  72
ATOM     72  C   UNL A   1      47.840  26.314  30.081  1.00  0.00    -0.014 A 
ATOM     73  C   UNL A   1      48.231  25.810  31.330  1.00  0.00     0.009 A 
ATOM     74  C   UNL A   1      48.752  26.286  29.014  1.00  0.00     0.009 A 
ATOM     75  C   UNL A   1      49.524  25.313  31.514  1.00  0.00     0.001 A 
ATOM     76  C   UNL A   1      50.034  25.766  29.195  1.00  0.00     0.001 A 
ATOM     77  C   UNL A   1      50.420  25.287  30.446  1.00  0.00     0.000 A 
ENDBRANCH  59  72
ENDBRANCH  33  34
ENDBRANCH  25  28
ENDBRANCH  23  24
ENDBRANCH  22  23
ENDBRANCH  21  22
ENDBRANCH   3  21
TORSDOF 15
ENDMDL
MODEL 3
REMARK VINA RESULT:      -9.7      1.458      2.258
REMARK SMILES CC(C)C[C@@H](C)NS(=O)(=O)c1ccsc1C(=O)NCCCNC(=O)c1ccc(-c2c3nc(c(-c4ccccc4)c4ccc([nH]4)c(-c4ccccc4)c4nc(c(-c5ccccc5)c5ccc2[nH]5)C=C4)C=C3)cc1
REMARK SMILES IDX 16 1 17 2 18 3 15 5 11 6 12 7 13 8 14 9 8 10 9 11 10 12 7 13
REMARK SMILES IDX 5 15 6 16 4 17 2 18 1 19 3 20 19 21 20 22 21 23 22 24 23 25
REMARK SMILES IDX 24 27 25 28 26 29 72 30 27 31 71 32 28 33 29 34 30 35 65 36
REMARK SMILES IDX 31 37 70 38 64 39 66 40 32 41 69 42 63 43 62 44 33 46 55 47
REMARK SMILES IDX 40 48 54 49 41 50 44 51 53 52 67 53 42 54 43 55 52 57 68 58
REMARK SMILES IDX 45 59 34 60 35 61 39 62 36 63 38 64 37 65 56 66 57 67 61 68
REMARK SMILES IDX 58 69 60 70 59 71 46 72 47 73 51 74 48 75 50 76 49 77
REMARK H PARENT 18 4 7 14 22 26 66 45 44 56
REMARK Flexibility Score: inf
ROOT
ATOM      1  C   UNL A   1      30.840  25.293  26.134  1.00  0.00     0.262 C 
ATOM      2  O   UNL A   1      29.781  24.763  26.500  1.00  0.00    -0.268 OA
ATOM      3  N   UNL A   1      31.019  26.536  26.693  1.00  0.00    -0.351 N 
ATOM      4  H   UNL A   1      30.214  26.965  27.067  1.00  0.00     0.163 HD
ENDROOT
BRANCH   1   5
ATOM      5  C   UNL A   1      31.718  24.665  25.129  1.00  0.00     0.112 A 
ATOM      6  C   UNL A   1      32.544  23.550  24.939  1.00  0.00     0.106 A 
ATOM      7  C   UNL A   1      33.159  23.544  23.625  1.00  0.00     0.034 A 
ATOM      8  C   UNL A   1      32.797  24.599  22.837  1.00  0.00     0.067 A 
ATOM      9  S   UNL A   1      31.726  25.624  23.642  1.00  0.00    -0.137 S 
BRANCH   6  10
ATOM     10  S   UNL A   1      32.976  22.166  25.909  1.00  0.00     0.242 S 
ATOM     11  O   UNL A   1      32.544  22.336  27.260  1.00  0.00    -0.207 OA
ATOM     12  O   UNL A   1      34.373  21.939  25.598  1.00  0.00    -0.207 OA
BRANCH  10  13
ATOM     13  N   UNL A   1      32.124  20.824  25.369  1.00  0.00    -0.208 NA
ATOM     14  H   UNL A   1      31.965  20.226  26.180  1.00  0.00     0.141 HD
BRANCH  13  15
ATOM     15  C   UNL A   1      32.721  19.966  24.305  1.00  0.00     0.067 C 
ATOM     16  C   UNL A   1      32.149  20.204  22.907  1.00  0.00     0.025 C 
BRANCH  15  17
ATOM     17  C   UNL A   1      32.484  18.513  24.751  1.00  0.00     0.022 C 
BRANCH  17  18
ATOM     18  C   UNL A   1      33.693  17.576  24.595  1.00  0.00    -0.016 C 
ATOM     19  C   UNL A   1      33.631  16.401  25.572  1.00  0.00     0.007 C 
ATOM     20  C   UNL A   1      33.753  17.069  23.155  1.00  0.00     0.007 C 
ENDBRANCH  17  18
ENDBRANCH  15  17
ENDBRANCH  13  15
ENDBRANCH  10  13
ENDBRANCH   6  10
ENDBRANCH   1   5
BRANCH   3  21
ATOM     21  C   UNL A   1      32.233  27.276  26.795  1.00  0.00     0.118 C 
BRANCH  21  22
ATOM     22  C   UNL A   1      32.163  28.736  27.168  1.00  0.00     0.042 C 
BRANCH  22  23
ATOM     23  C   UNL A   1      33.477  29.483  26.988  1.00  0.00     0.118 C 
BRANCH  23  24
ATOM     24  N   UNL A   1      33.667  30.637  27.872  1.00  0.00    -0.352 N 
ATOM     25  C   UNL A   1      34.708  31.089  28.651  1.00  0.00     0.251 C 
ATOM     26  H   UNL A   1      32.873  31.218  27.920  1.00  0.00     0.163 HD
ATOM     27  O   UNL A   1      34.544  32.100  29.333  1.00  0.00    -0.269 OA
BRANCH  25  28
ATOM     28  C   UNL A   1      35.999  30.369  28.737  1.00  0.00     0.039 A 
ATOM     29  C   UNL A   1      36.859  30.367  27.629  1.00  0.00     0.014 A 
ATOM     30  C   UNL A   1      36.385  29.690  29.884  1.00  0.00     0.014 A 
ATOM     31  C   UNL A   1      38.133  29.794  27.727  1.00  0.00     0.010 A 
ATOM     32  C   UNL A   1      37.697  29.265  30.036  1.00  0.00     0.010 A 
ATOM     33  C   UNL A   1      38.590  29.300  28.957  1.00  0.00    -0.014 A 
BRANCH  33  34
ATOM     34  C   UNL A   1      39.974  28.792  29.157  1.00  0.00     0.031 A 
ATOM     35  C   UNL A   1      41.039  29.709  29.705  1.00  0.00     0.074 A 
ATOM     36  C   UNL A   1      40.306  27.554  28.739  1.00  0.00     0.049 A 
ATOM     37  N   UNL A   1      42.333  29.523  29.783  1.00  0.00    -0.248 NA
ATOM     38  C   UNL A   1      40.598  31.033  30.179  1.00  0.00     0.031 C 
ATOM     39  C   UNL A   1      39.392  26.582  28.134  1.00  0.00     0.029 A 
ATOM     40  N   UNL A   1      41.516  26.906  28.749  1.00  0.00    -0.354 N 
ATOM     41  C   UNL A   1      42.857  30.720  30.257  1.00  0.00     0.074 A 
ATOM     42  C   UNL A   1      41.752  31.643  30.394  1.00  0.00     0.031 C 
ATOM     43  C   UNL A   1      40.064  25.449  27.873  1.00  0.00     0.029 A 
ATOM     44  C   UNL A   1      41.464  25.631  28.240  1.00  0.00     0.049 A 
ATOM     45  H   UNL A   1      42.344  27.316  29.089  1.00  0.00     0.167 HD
ATOM     46  C   UNL A   1      44.137  31.022  30.577  1.00  0.00     0.031 A 
ATOM     47  C   UNL A   1      42.434  24.712  28.080  1.00  0.00     0.031 A 
ATOM     48  C   UNL A   1      45.226  30.089  30.503  1.00  0.00     0.049 A 
ATOM     49  C   UNL A   1      43.839  25.051  28.490  1.00  0.00     0.074 A 
ATOM     50  C   UNL A   1      46.544  30.267  30.885  1.00  0.00     0.029 A 
ATOM     51  N   UNL A   1      45.115  28.790  30.031  1.00  0.00    -0.354 N 
ATOM     52  N   UNL A   1      44.307  26.171  28.986  1.00  0.00    -0.248 NA
ATOM     53  C   UNL A   1      44.847  23.995  28.326  1.00  0.00     0.031 C 
ATOM     54  C   UNL A   1      47.239  29.084  30.613  1.00  0.00     0.029 A 
ATOM     55  C   UNL A   1      46.343  28.157  30.103  1.00  0.00     0.049 A 
ATOM     56  H   UNL A   1      44.286  28.380  29.693  1.00  0.00     0.167 HD
ATOM     57  C   UNL A   1      45.657  25.945  29.217  1.00  0.00     0.074 A 
ATOM     58  C   UNL A   1      45.930  24.579  28.821  1.00  0.00     0.031 C 
ATOM     59  C   UNL A   1      46.590  26.795  29.711  1.00  0.00     0.031 A 
BRANCH  46  60
ATOM     60  C   UNL A   1      44.418  32.421  31.053  1.00  0.00    -0.014 A 
ATOM     61  C   UNL A   1      44.352  32.755  32.415  1.00  0.00     0.009 A 
ATOM     62  C   UNL A   1      44.767  33.418  30.127  1.00  0.00     0.009 A 
ATOM     63  C   UNL A   1      44.580  34.067  32.835  1.00  0.00     0.001 A 
ATOM     64  C   UNL A   1      45.027  34.721  30.555  1.00  0.00     0.001 A 
ATOM     65  C   UNL A   1      44.922  35.048  31.906  1.00  0.00     0.000 A 
ENDBRANCH  46  60
BRANCH  47  66
ATOM     66  C   UNL A   1      42.106  23.368  27.539  1.00  0.00    -0.014 A 
ATOM     67  C   UNL A   1      41.562  22.383  28.379  1.00  0.00     0.009 A 
ATOM     68  C   UNL A   1      42.327  23.060  26.188  1.00  0.00     0.009 A 
ATOM     69  C   UNL A   1      41.272  21.110  27.885  1.00  0.00     0.001 A 
ATOM     70  C   UNL A   1      42.011  21.794  25.691  1.00  0.00     0.001 A 
ATOM     71  C   UNL A   1      41.492  20.818  26.540  1.00  0.00     0.000 A 
ENDBRANCH  47  66
BRANCH  59  72
ATOM     72  C   UNL A   1      47.980  26.258  29.889  1.00  0.00    -0.014 A 
ATOM     73  C   UNL A   1      48.902  26.265  28.832  1.00  0.00     0.009 A 
ATOM     74  C   UNL A   1      48.383  25.783  31.147  1.00  0.00     0.009 A 
ATOM     75  C   UNL A   1      50.196  25.777  29.025  1.00  0.00     0.001 A 
ATOM     76  C   UNL A   1      49.684  25.320  31.343  1.00  0.00     0.001 A 
ATOM     77  C   UNL A   1      50.587  25.310  30.280  1.00  0.00     0.000 A 
ENDBRANCH  59  72
ENDBRANCH  33  34
ENDBRANCH  25  28
ENDBRANCH  23  24
ENDBRANCH  22  23
ENDBRANCH  21  22
ENDBRANCH   3  21
TORSDOF 15
ENDMDL
