MODEL 1
REMARK VINA RESULT:      -9.1      0.000      0.000
REMARK SMILES Cc1ccc(Oc2ccc(NC(=O)CCCC(=O)NCCCNC(=O)c3ccc(-c4c5nc(c(-c6ccccc6)c6ccc([nH]6)c(-c6ccccc6)c6nc(c(-c7ccccc7)c7ccc4[nH]7)C=C6)C=C5)cc3)cc2)cc1C
REMARK SMILES IDX 17 1 18 2 19 3 16 5 15 6 14 7 12 8 11 9 13 11 10 12 7 13
REMARK SMILES IDX 8 14 75 15 9 16 74 17 6 18 5 19 1 20 2 21 3 22 77 23 4 24
REMARK SMILES IDX 76 25 78 26 20 27 21 28 22 29 23 30 24 31 25 33 26 34 27 35
REMARK SMILES IDX 73 36 28 37 72 38 29 39 30 40 31 41 66 42 32 43 71 44 65 45
REMARK SMILES IDX 67 46 33 47 70 48 64 49 63 50 34 52 56 53 41 54 55 55 42 56
REMARK SMILES IDX 45 57 54 58 68 59 43 60 44 61 53 63 69 64 46 65 35 66 36 67
REMARK SMILES IDX 40 68 37 69 39 70 38 71 57 72 58 73 62 74 59 75 61 76 60 77
REMARK SMILES IDX 47 78 48 79 52 80 49 81 51 82 50 83
REMARK H PARENT 19 4 11 10 23 32 67 51 45 62
REMARK Flexibility Score: inf
ROOT
ATOM      1  C   UNL A   1      34.481  34.398  31.551  1.00  0.00     0.220 C 
ATOM      2  O   UNL A   1      33.950  34.742  32.617  1.00  0.00    -0.275 OA
ATOM      3  N   UNL A   1      33.956  34.994  30.458  1.00  0.00    -0.356 N 
ATOM      4  H   UNL A   1      33.216  35.594  30.706  1.00  0.00     0.163 HD
ENDROOT
BRANCH   1   5
ATOM      5  C   UNL A   1      35.694  33.469  31.614  1.00  0.00     0.100 C 
BRANCH   5   6
ATOM      6  C   UNL A   1      35.614  32.023  32.090  1.00  0.00     0.020 C 
BRANCH   6   7
ATOM      7  C   UNL A   1      36.757  31.328  32.820  1.00  0.00     0.101 C 
BRANCH   7   8
ATOM      8  C   UNL A   1      37.392  31.882  34.095  1.00  0.00     0.224 C 
ATOM      9  N   UNL A   1      38.641  31.702  34.590  1.00  0.00    -0.326 N 
ATOM     10  H   UNL A   1      38.735  32.163  35.456  1.00  0.00     0.169 HD
ATOM     11  O   UNL A   1      36.655  32.555  34.838  1.00  0.00    -0.275 OA
BRANCH   9  12
ATOM     12  C   UNL A   1      39.839  31.060  34.247  1.00  0.00     0.041 A 
ATOM     13  C   UNL A   1      42.157  29.567  33.642  1.00  0.00     0.127 A 
ATOM     14  C   UNL A   1      42.248  30.700  34.428  1.00  0.00     0.049 A 
ATOM     15  C   UNL A   1      40.925  29.189  33.115  1.00  0.00     0.049 A 
ATOM     16  C   UNL A   1      41.087  31.422  34.705  1.00  0.00     0.030 A 
ATOM     17  C   UNL A   1      39.776  29.946  33.401  1.00  0.00     0.030 A 
BRANCH  13  18
ATOM     18  O   UNL A   1      43.231  28.727  33.541  1.00  0.00    -0.457 OA
BRANCH  18  19
ATOM     19  C   UNL A   1      43.079  27.407  33.897  1.00  0.00     0.127 A 
ATOM     20  C   UNL A   1      43.398  23.286  35.120  1.00  0.00     0.044 C 
ATOM     21  C   UNL A   1      43.234  24.694  34.619  1.00  0.00    -0.048 A 
ATOM     22  C   UNL A   1      42.477  25.604  35.377  1.00  0.00     0.007 A 
ATOM     23  C   UNL A   1      43.865  25.138  33.442  1.00  0.00    -0.045 A 
ATOM     24  C   UNL A   1      42.397  26.953  35.021  1.00  0.00     0.047 A 
ATOM     25  C   UNL A   1      43.772  26.496  33.095  1.00  0.00     0.050 A 
ATOM     26  C   UNL A   1      44.618  24.222  32.517  1.00  0.00     0.045 C 
ENDBRANCH  18  19
ENDBRANCH  13  18
ENDBRANCH   9  12
ENDBRANCH   7   8
ENDBRANCH   6   7
ENDBRANCH   5   6
ENDBRANCH   1   5
BRANCH   3  27
ATOM     27  C   UNL A   1      34.171  35.005  29.018  1.00  0.00     0.117 C 
BRANCH  27  28
ATOM     28  C   UNL A   1      33.487  33.830  28.342  1.00  0.00     0.042 C 
BRANCH  28  29
ATOM     29  C   UNL A   1      34.450  32.676  28.166  1.00  0.00     0.118 C 
BRANCH  29  30
ATOM     30  N   UNL A   1      33.786  31.411  27.858  1.00  0.00    -0.352 N 
ATOM     31  C   UNL A   1      34.356  30.156  27.828  1.00  0.00     0.251 C 
ATOM     32  H   UNL A   1      32.825  31.460  27.648  1.00  0.00     0.163 HD
ATOM     33  O   UNL A   1      33.725  29.176  27.448  1.00  0.00    -0.269 OA
BRANCH  31  34
ATOM     34  C   UNL A   1      35.774  30.036  28.220  1.00  0.00     0.039 A 
ATOM     35  C   UNL A   1      36.099  29.597  29.505  1.00  0.00     0.014 A 
ATOM     36  C   UNL A   1      36.765  30.197  27.250  1.00  0.00     0.014 A 
ATOM     37  C   UNL A   1      37.415  29.227  29.785  1.00  0.00     0.010 A 
ATOM     38  C   UNL A   1      38.037  29.703  27.492  1.00  0.00     0.010 A 
ATOM     39  C   UNL A   1      38.382  29.223  28.765  1.00  0.00    -0.014 A 
BRANCH  39  40
ATOM     40  C   UNL A   1      39.770  28.749  28.995  1.00  0.00     0.031 A 
ATOM     41  C   UNL A   1      40.786  29.698  29.576  1.00  0.00     0.074 A 
ATOM     42  C   UNL A   1      40.145  27.516  28.603  1.00  0.00     0.049 A 
ATOM     43  N   UNL A   1      42.072  29.531  29.745  1.00  0.00    -0.248 NA
ATOM     44  C   UNL A   1      40.298  31.031  29.971  1.00  0.00     0.031 C 
ATOM     45  C   UNL A   1      39.280  26.520  27.963  1.00  0.00     0.029 A 
ATOM     46  N   UNL A   1      41.365  26.890  28.679  1.00  0.00    -0.354 N 
ATOM     47  C   UNL A   1      42.547  30.748  30.218  1.00  0.00     0.074 A 
ATOM     48  C   UNL A   1      41.428  31.662  30.247  1.00  0.00     0.031 C 
ATOM     49  C   UNL A   1      39.984  25.396  27.749  1.00  0.00     0.029 A 
ATOM     50  C   UNL A   1      41.357  25.604  28.196  1.00  0.00     0.049 A 
ATOM     51  H   UNL A   1      42.169  27.322  29.046  1.00  0.00     0.167 HD
ATOM     52  C   UNL A   1      43.795  31.073  30.628  1.00  0.00     0.031 A 
ATOM     53  C   UNL A   1      42.346  24.693  28.124  1.00  0.00     0.031 A 
ATOM     54  C   UNL A   1      44.894  30.149  30.657  1.00  0.00     0.049 A 
ATOM     55  C   UNL A   1      43.715  25.058  28.632  1.00  0.00     0.074 A 
ATOM     56  C   UNL A   1      46.176  30.350  31.133  1.00  0.00     0.029 A 
ATOM     57  N   UNL A   1      44.830  28.841  30.203  1.00  0.00    -0.354 N 
ATOM     58  N   UNL A   1      44.130  26.192  29.142  1.00  0.00    -0.248 NA
ATOM     59  C   UNL A   1      44.745  24.012  28.565  1.00  0.00     0.031 C 
ATOM     60  C   UNL A   1      46.901  29.169  30.936  1.00  0.00     0.029 A 
ATOM     61  C   UNL A   1      46.054  28.224  30.379  1.00  0.00     0.049 A 
ATOM     62  H   UNL A   1      44.032  28.415  29.814  1.00  0.00     0.167 HD
ATOM     63  C   UNL A   1      45.461  25.988  29.482  1.00  0.00     0.074 A 
ATOM     64  C   UNL A   1      45.778  24.618  29.134  1.00  0.00     0.031 C 
ATOM     65  C   UNL A   1      46.344  26.857  30.032  1.00  0.00     0.031 A 
BRANCH  52  66
ATOM     66  C   UNL A   1      44.022  32.485  31.090  1.00  0.00    -0.014 A 
ATOM     67  C   UNL A   1      44.633  33.435  30.255  1.00  0.00     0.009 A 
ATOM     68  C   UNL A   1      43.619  32.872  32.377  1.00  0.00     0.009 A 
ATOM     69  C   UNL A   1      44.878  34.730  30.716  1.00  0.00     0.001 A 
ATOM     70  C   UNL A   1      43.836  34.177  32.824  1.00  0.00     0.001 A 
ATOM     71  C   UNL A   1      44.476  35.101  31.998  1.00  0.00     0.000 A 
ENDBRANCH  52  66
BRANCH  53  72
ATOM     72  C   UNL A   1      42.076  23.333  27.589  1.00  0.00    -0.014 A 
ATOM     73  C   UNL A   1      42.428  23.009  26.269  1.00  0.00     0.009 A 
ATOM     74  C   UNL A   1      41.460  22.355  28.384  1.00  0.00     0.009 A 
ATOM     75  C   UNL A   1      42.147  21.744  25.749  1.00  0.00     0.001 A 
ATOM     76  C   UNL A   1      41.203  21.082  27.870  1.00  0.00     0.001 A 
ATOM     77  C   UNL A   1      41.537  20.780  26.550  1.00  0.00     0.000 A 
ENDBRANCH  53  72
BRANCH  65  78
ATOM     78  C   UNL A   1      47.722  26.342  30.325  1.00  0.00    -0.014 A 
ATOM     79  C   UNL A   1      48.716  26.321  29.335  1.00  0.00     0.009 A 
ATOM     80  C   UNL A   1      48.042  25.921  31.625  1.00  0.00     0.009 A 
ATOM     81  C   UNL A   1      49.998  25.860  29.636  1.00  0.00     0.001 A 
ATOM     82  C   UNL A   1      49.333  25.486  31.928  1.00  0.00     0.001 A 
ATOM     83  C   UNL A   1      50.307  25.448  30.931  1.00  0.00     0.000 A 
ENDBRANCH  65  78
ENDBRANCH  39  40
ENDBRANCH  31  34
ENDBRANCH  29  30
ENDBRANCH  28  29
ENDBRANCH  27  28
ENDBRANCH   3  27
TORSDOF 16
ENDMDL
MODEL 2
REMARK VINA RESULT:      -9.1      3.774     11.232
REMARK SMILES Cc1ccc(Oc2ccc(NC(=O)CCCC(=O)NCCCNC(=O)c3ccc(-c4c5nc(c(-c6ccccc6)c6ccc([nH]6)c(-c6ccccc6)c6nc(c(-c7ccccc7)c7ccc4[nH]7)C=C6)C=C5)cc3)cc2)cc1C
REMARK SMILES IDX 17 1 18 2 19 3 16 5 15 6 14 7 12 8 11 9 13 11 10 12 7 13
REMARK SMILES IDX 8 14 75 15 9 16 74 17 6 18 5 19 1 20 2 21 3 22 77 23 4 24
REMARK SMILES IDX 76 25 78 26 20 27 21 28 22 29 23 30 24 31 25 33 26 34 27 35
REMARK SMILES IDX 73 36 28 37 72 38 29 39 30 40 31 41 66 42 32 43 71 44 65 45
REMARK SMILES IDX 67 46 33 47 70 48 64 49 63 50 34 52 56 53 41 54 55 55 42 56
REMARK SMILES IDX 45 57 54 58 68 59 43 60 44 61 53 63 69 64 46 65 35 66 36 67
REMARK SMILES IDX 40 68 37 69 39 70 38 71 57 72 58 73 62 74 59 75 61 76 60 77
REMARK SMILES IDX 47 78 48 79 52 80 49 81 51 82 50 83
REMARK H PARENT 19 4 11 10 23 32 67 51 45 62
REMARK Flexibility Score: inf
ROOT
ATOM      1  C   UNL A   1      44.338  23.989  30.338  1.00  0.00     0.220 C 
ATOM      2  O   UNL A   1      44.937  24.770  29.585  1.00  0.00    -0.275 OA
ATOM      3  N   UNL A   1      44.649  24.137  31.645  1.00  0.00    -0.356 N 
ATOM      4  H   UNL A   1      45.326  24.841  31.767  1.00  0.00     0.163 HD
ENDROOT
BRANCH   1   5
ATOM      5  C   UNL A   1      43.274  23.073  29.731  1.00  0.00     0.100 C 
BRANCH   5   6
ATOM      6  C   UNL A   1      42.327  23.515  28.621  1.00  0.00     0.020 C 
BRANCH   6   7
ATOM      7  C   UNL A   1      41.236  22.613  28.056  1.00  0.00     0.101 C 
BRANCH   7   8
ATOM      8  C   UNL A   1      41.154  22.228  26.579  1.00  0.00     0.224 C 
ATOM      9  N   UNL A   1      40.070  22.094  25.777  1.00  0.00    -0.326 N 
ATOM     10  H   UNL A   1      40.344  21.796  24.879  1.00  0.00     0.169 HD
ATOM     11  O   UNL A   1      42.226  21.930  26.020  1.00  0.00    -0.275 OA
BRANCH   9  12
ATOM     12  C   UNL A   1      38.678  22.250  25.836  1.00  0.00     0.041 A 
ATOM     13  C   UNL A   1      35.870  22.516  25.721  1.00  0.00     0.127 A 
ATOM     14  C   UNL A   1      36.644  23.550  26.209  1.00  0.00     0.049 A 
ATOM     15  C   UNL A   1      36.476  21.327  25.326  1.00  0.00     0.049 A 
ATOM     16  C   UNL A   1      38.029  23.389  26.260  1.00  0.00     0.030 A 
ATOM     17  C   UNL A   1      37.873  21.189  25.403  1.00  0.00     0.030 A 
BRANCH  13  18
ATOM     18  O   UNL A   1      34.546  22.730  25.455  1.00  0.00    -0.457 OA
BRANCH  18  19
ATOM     19  C   UNL A   1      34.170  23.913  24.860  1.00  0.00     0.127 A 
ATOM     20  C   UNL A   1      33.644  27.920  23.360  1.00  0.00     0.044 C 
ATOM     21  C   UNL A   1      33.735  26.523  23.909  1.00  0.00    -0.048 A 
ATOM     22  C   UNL A   1      33.951  25.454  23.021  1.00  0.00     0.007 A 
ATOM     23  C   UNL A   1      33.667  26.265  25.291  1.00  0.00    -0.045 A 
ATOM     24  C   UNL A   1      34.167  24.155  23.491  1.00  0.00     0.047 A 
ATOM     25  C   UNL A   1      33.882  24.954  25.747  1.00  0.00     0.050 A 
ATOM     26  C   UNL A   1      33.349  27.324  26.310  1.00  0.00     0.045 C 
ENDBRANCH  18  19
ENDBRANCH  13  18
ENDBRANCH   9  12
ENDBRANCH   7   8
ENDBRANCH   6   7
ENDBRANCH   5   6
ENDBRANCH   1   5
BRANCH   3  27
ATOM     27  C   UNL A   1      44.270  23.555  32.924  1.00  0.00     0.117 C 
BRANCH  27  28
ATOM     28  C   UNL A   1      45.484  23.274  33.792  1.00  0.00     0.042 C 
BRANCH  28  29
ATOM     29  C   UNL A   1      45.198  23.603  35.241  1.00  0.00     0.118 C 
BRANCH  29  30
ATOM     30  N   UNL A   1      46.331  24.218  35.929  1.00  0.00    -0.352 N 
ATOM     31  C   UNL A   1      46.562  25.564  36.114  1.00  0.00     0.251 C 
ATOM     32  H   UNL A   1      47.003  23.603  36.302  1.00  0.00     0.163 HD
ATOM     33  O   UNL A   1      47.607  25.971  36.612  1.00  0.00    -0.269 OA
BRANCH  31  34
ATOM     34  C   UNL A   1      45.532  26.511  35.642  1.00  0.00     0.039 A 
ATOM     35  C   UNL A   1      45.895  27.550  34.783  1.00  0.00     0.014 A 
ATOM     36  C   UNL A   1      44.190  26.253  35.922  1.00  0.00     0.014 A 
ATOM     37  C   UNL A   1      44.895  28.271  34.129  1.00  0.00     0.010 A 
ATOM     38  C   UNL A   1      43.208  26.879  35.171  1.00  0.00     0.010 A 
ATOM     39  C   UNL A   1      43.546  27.903  34.274  1.00  0.00    -0.014 A 
BRANCH  39  40
ATOM     40  C   UNL A   1      42.458  28.583  33.526  1.00  0.00     0.031 A 
ATOM     41  C   UNL A   1      41.562  29.555  34.247  1.00  0.00     0.074 A 
ATOM     42  C   UNL A   1      42.212  28.264  32.239  1.00  0.00     0.049 A 
ATOM     43  N   UNL A   1      40.485  30.162  33.820  1.00  0.00    -0.248 NA
ATOM     44  C   UNL A   1      41.893  29.843  35.654  1.00  0.00     0.031 C 
ATOM     45  C   UNL A   1      42.958  27.288  31.440  1.00  0.00     0.029 A 
ATOM     46  N   UNL A   1      41.250  28.728  31.376  1.00  0.00    -0.354 N 
ATOM     47  C   UNL A   1      39.991  30.859  34.915  1.00  0.00     0.074 A 
ATOM     48  C   UNL A   1      40.843  30.549  36.040  1.00  0.00     0.031 C 
ATOM     49  C   UNL A   1      42.456  27.261  30.195  1.00  0.00     0.029 A 
ATOM     50  C   UNL A   1      41.329  28.184  30.117  1.00  0.00     0.049 A 
ATOM     51  H   UNL A   1      40.569  29.389  31.635  1.00  0.00     0.167 HD
ATOM     52  C   UNL A   1      38.941  31.712  34.978  1.00  0.00     0.031 A 
ATOM     53  C   UNL A   1      40.579  28.408  29.022  1.00  0.00     0.031 A 
ATOM     54  C   UNL A   1      38.130  32.067  33.848  1.00  0.00     0.049 A 
ATOM     55  C   UNL A   1      39.448  29.397  29.099  1.00  0.00     0.074 A 
ATOM     56  C   UNL A   1      37.098  32.984  33.782  1.00  0.00     0.029 A 
ATOM     57  N   UNL A   1      38.275  31.529  32.579  1.00  0.00    -0.354 N 
ATOM     58  N   UNL A   1      39.037  30.102  30.126  1.00  0.00    -0.248 NA
ATOM     59  C   UNL A   1      38.688  29.631  27.863  1.00  0.00     0.031 C 
ATOM     60  C   UNL A   1      36.595  32.978  32.476  1.00  0.00     0.029 A 
ATOM     61  C   UNL A   1      37.345  32.088  31.723  1.00  0.00     0.049 A 
ATOM     62  H   UNL A   1      38.942  30.850  32.324  1.00  0.00     0.167 HD
ATOM     63  C   UNL A   1      37.989  30.881  29.653  1.00  0.00     0.074 A 
ATOM     64  C   UNL A   1      37.839  30.574  28.245  1.00  0.00     0.031 C 
ATOM     65  C   UNL A   1      37.219  31.772  30.324  1.00  0.00     0.031 A 
BRANCH  52  66
ATOM     66  C   UNL A   1      38.631  32.323  36.314  1.00  0.00    -0.014 A 
ATOM     67  C   UNL A   1      37.790  31.674  37.235  1.00  0.00     0.009 A 
ATOM     68  C   UNL A   1      39.186  33.565  36.661  1.00  0.00     0.009 A 
ATOM     69  C   UNL A   1      37.474  32.278  38.453  1.00  0.00     0.001 A 
ATOM     70  C   UNL A   1      38.895  34.150  37.894  1.00  0.00     0.001 A 
ATOM     71  C   UNL A   1      38.030  33.513  38.784  1.00  0.00     0.000 A 
ENDBRANCH  52  66
BRANCH  53  72
ATOM     72  C   UNL A   1      40.892  27.716  27.744  1.00  0.00    -0.014 A 
ATOM     73  C   UNL A   1      40.275  26.494  27.431  1.00  0.00     0.009 A 
ATOM     74  C   UNL A   1      41.810  28.262  26.835  1.00  0.00     0.009 A 
ATOM     75  C   UNL A   1      40.591  25.822  26.248  1.00  0.00     0.001 A 
ATOM     76  C   UNL A   1      42.105  27.601  25.640  1.00  0.00     0.001 A 
ATOM     77  C   UNL A   1      41.503  26.377  25.352  1.00  0.00     0.000 A 
ENDBRANCH  53  72
BRANCH  65  78
ATOM     78  C   UNL A   1      36.171  32.503  29.538  1.00  0.00    -0.014 A 
ATOM     79  C   UNL A   1      36.417  33.778  29.009  1.00  0.00     0.009 A 
ATOM     80  C   UNL A   1      34.939  31.882  29.281  1.00  0.00     0.009 A 
ATOM     81  C   UNL A   1      35.437  34.430  28.259  1.00  0.00     0.001 A 
ATOM     82  C   UNL A   1      33.971  32.525  28.509  1.00  0.00     0.001 A 
ATOM     83  C   UNL A   1      34.218  33.803  28.006  1.00  0.00     0.000 A 
ENDBRANCH  65  78
ENDBRANCH  39  40
ENDBRANCH  31  34
ENDBRANCH  29  30
ENDBRANCH  28  29
ENDBRANCH  27  28
ENDBRANCH   3  27
TORSDOF 16
ENDMDL
MODEL 3
REMARK VINA RESULT:      -9.1      4.260      8.493
REMARK SMILES Cc1ccc(Oc2ccc(NC(=O)CCCC(=O)NCCCNC(=O)c3ccc(-c4c5nc(c(-c6ccccc6)c6ccc([nH]6)c(-c6ccccc6)c6nc(c(-c7ccccc7)c7ccc4[nH]7)C=C6)C=C5)cc3)cc2)cc1C
REMARK SMILES IDX 17 1 18 2 19 3 16 5 15 6 14 7 12 8 11 9 13 11 10 12 7 13
REMARK SMILES IDX 8 14 75 15 9 16 74 17 6 18 5 19 1 20 2 21 3 22 77 23 4 24
REMARK SMILES IDX 76 25 78 26 20 27 21 28 22 29 23 30 24 31 25 33 26 34 27 35
REMARK SMILES IDX 73 36 28 37 72 38 29 39 30 40 31 41 66 42 32 43 71 44 65 45
REMARK SMILES IDX 67 46 33 47 70 48 64 49 63 50 34 52 56 53 41 54 55 55 42 56
REMARK SMILES IDX 45 57 54 58 68 59 43 60 44 61 53 63 69 64 46 65 35 66 36 67
REMARK SMILES IDX 40 68 37 69 39 70 38 71 57 72 58 73 62 74 59 75 61 76 60 77
REMARK SMILES IDX 47 78 48 79 52 80 49 81 51 82 50 83
REMARK H PARENT 19 4 11 10 23 32 67 51 45 62
REMARK Flexibility Score: inf
ROOT
ATOM      1  C   UNL A   1      34.859  24.590  24.639  1.00  0.00     0.220 C 
ATOM      2  O   UNL A   1      34.463  24.012  23.616  1.00  0.00    -0.275 OA
ATOM      3  N   UNL A   1      34.053  25.594  25.051  1.00  0.00    -0.356 N 
ATOM      4  H   UNL A   1      33.288  25.702  24.441  1.00  0.00     0.163 HD
ENDROOT
BRANCH   1   5
ATOM      5  C   UNL A   1      36.098  24.040  25.346  1.00  0.00     0.100 C 
BRANCH   5   6
ATOM      6  C   UNL A   1      37.143  23.176  24.647  1.00  0.00     0.020 C 
BRANCH   6   7
ATOM      7  C   UNL A   1      37.752  21.935  25.287  1.00  0.00     0.101 C 
BRANCH   7   8
ATOM      8  C   UNL A   1      37.217  20.524  25.046  1.00  0.00     0.224 C 
ATOM      9  N   UNL A   1      35.946  20.056  25.107  1.00  0.00    -0.326 N 
ATOM     10  H   UNL A   1      35.931  19.086  24.936  1.00  0.00     0.169 HD
ATOM     11  O   UNL A   1      38.062  19.639  24.813  1.00  0.00    -0.275 OA
BRANCH   9  12
ATOM     12  C   UNL A   1      34.648  20.532  25.341  1.00  0.00     0.041 A 
ATOM     13  C   UNL A   1      32.041  21.584  25.593  1.00  0.00     0.127 A 
ATOM     14  C   UNL A   1      33.008  21.896  26.529  1.00  0.00     0.049 A 
ATOM     15  C   UNL A   1      32.346  20.716  24.549  1.00  0.00     0.049 A 
ATOM     16  C   UNL A   1      34.286  21.357  26.383  1.00  0.00     0.030 A 
ATOM     17  C   UNL A   1      33.639  20.177  24.437  1.00  0.00     0.030 A 
BRANCH  13  18
ATOM     18  O   UNL A   1      30.858  22.270  25.590  1.00  0.00    -0.457 OA
BRANCH  18  19
ATOM     19  C   UNL A   1      30.772  23.444  24.879  1.00  0.00     0.127 A 
ATOM     20  C   UNL A   1      31.153  27.340  23.073  1.00  0.00     0.044 C 
ATOM     21  C   UNL A   1      30.927  26.000  23.718  1.00  0.00    -0.048 A 
ATOM     22  C   UNL A   1      31.040  24.839  22.933  1.00  0.00     0.007 A 
ATOM     23  C   UNL A   1      30.663  25.876  25.094  1.00  0.00    -0.045 A 
ATOM     24  C   UNL A   1      30.963  23.567  23.508  1.00  0.00     0.047 A 
ATOM     25  C   UNL A   1      30.583  24.592  25.656  1.00  0.00     0.050 A 
ATOM     26  C   UNL A   1      30.433  27.058  25.997  1.00  0.00     0.045 C 
ENDBRANCH  18  19
ENDBRANCH  13  18
ENDBRANCH   9  12
ENDBRANCH   7   8
ENDBRANCH   6   7
ENDBRANCH   5   6
ENDBRANCH   1   5
BRANCH   3  27
ATOM     27  C   UNL A   1      33.990  26.560  26.138  1.00  0.00     0.117 C 
BRANCH  27  28
ATOM     28  C   UNL A   1      33.833  27.977  25.618  1.00  0.00     0.042 C 
BRANCH  28  29
ATOM     29  C   UNL A   1      34.764  28.923  26.344  1.00  0.00     0.118 C 
BRANCH  29  30
ATOM     30  N   UNL A   1      34.108  30.151  26.789  1.00  0.00    -0.352 N 
ATOM     31  C   UNL A   1      34.512  30.989  27.807  1.00  0.00     0.251 C 
ATOM     32  H   UNL A   1      33.287  30.408  26.310  1.00  0.00     0.163 HD
ATOM     33  O   UNL A   1      33.822  31.936  28.167  1.00  0.00    -0.269 OA
BRANCH  31  34
ATOM     34  C   UNL A   1      35.784  30.679  28.490  1.00  0.00     0.039 A 
ATOM     35  C   UNL A   1      35.780  29.836  29.603  1.00  0.00     0.014 A 
ATOM     36  C   UNL A   1      36.986  31.092  27.913  1.00  0.00     0.014 A 
ATOM     37  C   UNL A   1      36.991  29.331  30.078  1.00  0.00     0.010 A 
ATOM     38  C   UNL A   1      38.168  30.484  28.302  1.00  0.00     0.010 A 
ATOM     39  C   UNL A   1      38.189  29.605  29.396  1.00  0.00    -0.014 A 
BRANCH  39  40
ATOM     40  C   UNL A   1      39.486  29.014  29.811  1.00  0.00     0.031 A 
ATOM     41  C   UNL A   1      40.338  29.740  30.819  1.00  0.00     0.074 A 
ATOM     42  C   UNL A   1      39.944  27.891  29.224  1.00  0.00     0.049 A 
ATOM     43  N   UNL A   1      41.550  29.467  31.228  1.00  0.00    -0.248 NA
ATOM     44  C   UNL A   1      39.770  30.966  31.408  1.00  0.00     0.031 C 
ATOM     45  C   UNL A   1      39.253  27.125  28.182  1.00  0.00     0.029 A 
ATOM     46  N   UNL A   1      41.113  27.198  29.418  1.00  0.00    -0.354 N 
ATOM     47  C   UNL A   1      41.900  30.508  32.079  1.00  0.00     0.074 A 
ATOM     48  C   UNL A   1      40.804  31.449  32.076  1.00  0.00     0.031 C 
ATOM     49  C   UNL A   1      39.988  26.048  27.865  1.00  0.00     0.029 A 
ATOM     50  C   UNL A   1      41.220  26.066  28.647  1.00  0.00     0.049 A 
ATOM     51  H   UNL A   1      41.809  27.485  30.051  1.00  0.00     0.167 HD
ATOM     52  C   UNL A   1      43.019  30.657  32.826  1.00  0.00     0.031 A 
ATOM     53  C   UNL A   1      42.200  25.146  28.580  1.00  0.00     0.031 A 
ATOM     54  C   UNL A   1      44.082  29.693  32.876  1.00  0.00     0.049 A 
ATOM     55  C   UNL A   1      43.412  25.303  29.456  1.00  0.00     0.074 A 
ATOM     56  C   UNL A   1      45.218  29.703  33.662  1.00  0.00     0.029 A 
ATOM     57  N   UNL A   1      44.127  28.536  32.114  1.00  0.00    -0.354 N 
ATOM     58  N   UNL A   1      43.696  26.258  30.308  1.00  0.00    -0.248 NA
ATOM     59  C   UNL A   1      44.431  24.247  29.371  1.00  0.00     0.031 C 
ATOM     60  C   UNL A   1      45.971  28.565  33.353  1.00  0.00     0.029 A 
ATOM     61  C   UNL A   1      45.278  27.827  32.405  1.00  0.00     0.049 A 
ATOM     62  H   UNL A   1      43.442  28.260  31.463  1.00  0.00     0.167 HD
ATOM     63  C   UNL A   1      44.912  25.906  30.879  1.00  0.00     0.074 A 
ATOM     64  C   UNL A   1      45.303  24.642  30.288  1.00  0.00     0.031 C 
ATOM     65  C   UNL A   1      45.642  26.569  31.809  1.00  0.00     0.031 A 
BRANCH  52  66
ATOM     66  C   UNL A   1      43.130  31.903  33.658  1.00  0.00    -0.014 A 
ATOM     67  C   UNL A   1      43.740  33.063  33.152  1.00  0.00     0.009 A 
ATOM     68  C   UNL A   1      42.617  31.920  34.964  1.00  0.00     0.009 A 
ATOM     69  C   UNL A   1      43.877  34.198  33.954  1.00  0.00     0.001 A 
ATOM     70  C   UNL A   1      42.726  33.067  35.752  1.00  0.00     0.001 A 
ATOM     71  C   UNL A   1      43.367  34.200  35.251  1.00  0.00     0.000 A 
ENDBRANCH  52  66
BRANCH  53  72
ATOM     72  C   UNL A   1      42.063  23.969  27.682  1.00  0.00    -0.014 A 
ATOM     73  C   UNL A   1      41.409  22.810  28.129  1.00  0.00     0.009 A 
ATOM     74  C   UNL A   1      42.589  23.990  26.381  1.00  0.00     0.009 A 
ATOM     75  C   UNL A   1      41.307  21.689  27.302  1.00  0.00     0.001 A 
ATOM     76  C   UNL A   1      42.463  22.876  25.547  1.00  0.00     0.001 A 
ATOM     77  C   UNL A   1      41.831  21.724  26.011  1.00  0.00     0.000 A 
ENDBRANCH  53  72
BRANCH  65  78
ATOM     78  C   UNL A   1      46.915  25.923  32.271  1.00  0.00    -0.014 A 
ATOM     79  C   UNL A   1      48.128  26.147  31.602  1.00  0.00     0.009 A 
ATOM     80  C   UNL A   1      46.907  25.120  33.422  1.00  0.00     0.009 A 
ATOM     81  C   UNL A   1      49.305  25.556  32.063  1.00  0.00     0.001 A 
ATOM     82  C   UNL A   1      48.090  24.553  33.895  1.00  0.00     0.001 A 
ATOM     83  C   UNL A   1      49.287  24.764  33.210  1.00  0.00     0.000 A 
ENDBRANCH  65  78
ENDBRANCH  39  40
ENDBRANCH  31  34
ENDBRANCH  29  30
ENDBRANCH  28  29
ENDBRANCH  27  28
ENDBRANCH   3  27
TORSDOF 16
ENDMDL
