MODEL 1
REMARK VINA RESULT:     -10.3      0.000      0.000
REMARK SMILES C=C(c1ccccc1)[C@@H](C(=O)NCCCNC(=O)c1ccc(-c2c3nc(c(-c4ccccc4)c4ccc([nH]4)c(-c4ccccc4)c4nc(c(-c5ccccc5)c5ccc2[nH]5)C=C4)C=C3)cc1)S(C)(=O)=O
REMARK SMILES IDX 14 1 13 2 12 3 10 4 11 5 9 7 2 8 1 9 3 10 4 11 8 12 5 13
REMARK SMILES IDX 7 14 6 15 67 16 68 17 69 18 70 19 15 20 16 21 17 22 18 24
REMARK SMILES IDX 19 25 20 26 66 27 21 28 65 29 22 30 23 31 24 32 59 33 25 34
REMARK SMILES IDX 64 35 58 36 60 37 26 38 63 39 57 40 56 41 27 43 49 44 34 45
REMARK SMILES IDX 48 46 35 47 38 48 47 49 61 50 36 51 37 52 46 54 62 55 39 56
REMARK SMILES IDX 28 57 29 58 33 59 30 60 32 61 31 62 50 63 51 64 55 65 52 66
REMARK SMILES IDX 54 67 53 68 40 69 41 70 45 71 42 72 44 73 43 74
REMARK H PARENT 12 6 16 23 60 42 38 53
REMARK Flexibility Score: inf
ROOT
ATOM      1  C   UNL A   1      33.650  28.594  25.791  1.00  0.00     0.042 C 
ENDROOT
BRANCH   1   2
ATOM      2  C   UNL A   1      33.907  27.136  25.414  1.00  0.00     0.117 C 
BRANCH   2   3
ATOM      3  N   UNL A   1      32.663  26.425  25.188  1.00  0.00    -0.355 N 
ATOM      4  C   UNL A   1      32.399  25.079  25.201  1.00  0.00     0.242 C 
ATOM      5  O   UNL A   1      31.304  24.746  24.750  1.00  0.00    -0.273 OA
ATOM      6  H   UNL A   1      31.887  26.998  24.996  1.00  0.00     0.163 HD
BRANCH   4   7
ATOM      7  C   UNL A   1      33.435  24.105  25.763  1.00  0.00     0.227 C 
BRANCH   7   8
ATOM      8  C   UNL A   1      34.337  23.510  24.684  1.00  0.00    -0.020 C 
ATOM      9  C   UNL A   1      33.995  23.477  23.381  1.00  0.00     0.015 C 
BRANCH   8  10
ATOM     10  C   UNL A   1      35.681  23.006  25.100  1.00  0.00    -0.021 A 
ATOM     11  C   UNL A   1      36.639  23.844  25.689  1.00  0.00     0.008 A 
ATOM     12  C   UNL A   1      36.066  21.683  24.818  1.00  0.00     0.008 A 
ATOM     13  C   UNL A   1      37.933  23.387  25.965  1.00  0.00     0.001 A 
ATOM     14  C   UNL A   1      37.362  21.228  25.079  1.00  0.00     0.001 A 
ATOM     15  C   UNL A   1      38.297  22.083  25.650  1.00  0.00     0.000 A 
ENDBRANCH   8  10
ENDBRANCH   7   8
BRANCH   7  16
ATOM     16  S   UNL A   1      32.571  22.816  26.699  1.00  0.00     0.163 S 
ATOM     17  C   UNL A   1      33.796  22.156  27.802  1.00  0.00     0.159 C 
ATOM     18  O   UNL A   1      31.598  23.466  27.567  1.00  0.00    -0.228 OA
ATOM     19  O   UNL A   1      32.177  21.712  25.846  1.00  0.00    -0.228 OA
ENDBRANCH   7  16
ENDBRANCH   4   7
ENDBRANCH   2   3
ENDBRANCH   1   2
BRANCH   1  20
ATOM     20  C   UNL A   1      33.422  28.824  27.282  1.00  0.00     0.118 C 
BRANCH  20  21
ATOM     21  N   UNL A   1      33.541  30.226  27.657  1.00  0.00    -0.352 N 
ATOM     22  C   UNL A   1      34.562  30.896  28.284  1.00  0.00     0.251 C 
ATOM     23  H   UNL A   1      32.764  30.784  27.423  1.00  0.00     0.163 HD
ATOM     24  O   UNL A   1      34.379  32.042  28.684  1.00  0.00    -0.269 OA
BRANCH  22  25
ATOM     25  C   UNL A   1      35.871  30.243  28.509  1.00  0.00     0.039 A 
ATOM     26  C   UNL A   1      36.791  30.205  27.457  1.00  0.00     0.014 A 
ATOM     27  C   UNL A   1      36.187  29.650  29.733  1.00  0.00     0.014 A 
ATOM     28  C   UNL A   1      38.059  29.650  27.660  1.00  0.00     0.010 A 
ATOM     29  C   UNL A   1      37.474  29.163  29.957  1.00  0.00     0.010 A 
ATOM     30  C   UNL A   1      38.427  29.170  28.927  1.00  0.00    -0.014 A 
BRANCH  30  31
ATOM     31  C   UNL A   1      39.810  28.707  29.209  1.00  0.00     0.031 A 
ATOM     32  C   UNL A   1      40.811  29.633  29.841  1.00  0.00     0.074 A 
ATOM     33  C   UNL A   1      40.187  27.471  28.821  1.00  0.00     0.049 A 
ATOM     34  N   UNL A   1      42.088  29.443  30.059  1.00  0.00    -0.248 NA
ATOM     35  C   UNL A   1      40.317  30.950  30.272  1.00  0.00     0.031 C 
ATOM     36  C   UNL A   1      39.317  26.478  28.184  1.00  0.00     0.029 A 
ATOM     37  N   UNL A   1      41.406  26.844  28.894  1.00  0.00    -0.354 N 
ATOM     38  C   UNL A   1      42.551  30.615  30.642  1.00  0.00     0.074 A 
ATOM     39  C   UNL A   1      41.429  31.528  30.701  1.00  0.00     0.031 C 
ATOM     40  C   UNL A   1      40.025  25.363  27.944  1.00  0.00     0.029 A 
ATOM     41  C   UNL A   1      41.407  25.578  28.356  1.00  0.00     0.049 A 
ATOM     42  H   UNL A   1      42.203  27.260  29.292  1.00  0.00     0.167 HD
ATOM     43  C   UNL A   1      43.792  30.901  31.103  1.00  0.00     0.031 A 
ATOM     44  C   UNL A   1      42.413  24.699  28.191  1.00  0.00     0.031 A 
ATOM     45  C   UNL A   1      44.910  29.997  31.037  1.00  0.00     0.049 A 
ATOM     46  C   UNL A   1      43.799  25.074  28.639  1.00  0.00     0.074 A 
ATOM     47  C   UNL A   1      46.200  30.187  31.505  1.00  0.00     0.029 A 
ATOM     48  N   UNL A   1      44.875  28.737  30.463  1.00  0.00    -0.354 N 
ATOM     49  N   UNL A   1      44.207  26.167  29.236  1.00  0.00    -0.248 NA
ATOM     50  C   UNL A   1      44.864  24.091  28.389  1.00  0.00     0.031 C 
ATOM     51  C   UNL A   1      46.959  29.065  31.160  1.00  0.00     0.029 A 
ATOM     52  C   UNL A   1      46.126  28.150  30.535  1.00  0.00     0.049 A 
ATOM     53  H   UNL A   1      44.077  28.320  30.063  1.00  0.00     0.167 HD
ATOM     54  C   UNL A   1      45.567  25.991  29.459  1.00  0.00     0.074 A 
ATOM     55  C   UNL A   1      45.909  24.680  28.952  1.00  0.00     0.031 C 
ATOM     56  C   UNL A   1      46.453  26.841  30.030  1.00  0.00     0.031 A 
BRANCH  43  57
ATOM     57  C   UNL A   1      44.011  32.257  31.717  1.00  0.00    -0.014 A 
ATOM     58  C   UNL A   1      43.843  32.464  33.095  1.00  0.00     0.009 A 
ATOM     59  C   UNL A   1      44.446  33.327  30.919  1.00  0.00     0.009 A 
ATOM     60  C   UNL A   1      44.074  33.722  33.656  1.00  0.00     0.001 A 
ATOM     61  C   UNL A   1      44.706  34.576  31.486  1.00  0.00     0.001 A 
ATOM     62  C   UNL A   1      44.511  34.774  32.852  1.00  0.00     0.000 A 
ENDBRANCH  43  57
BRANCH  44  63
ATOM     63  C   UNL A   1      42.162  23.376  27.556  1.00  0.00    -0.014 A 
ATOM     64  C   UNL A   1      41.681  22.301  28.319  1.00  0.00     0.009 A 
ATOM     65  C   UNL A   1      42.435  23.170  26.194  1.00  0.00     0.009 A 
ATOM     66  C   UNL A   1      41.515  21.041  27.742  1.00  0.00     0.001 A 
ATOM     67  C   UNL A   1      42.236  21.917  25.611  1.00  0.00     0.001 A 
ATOM     68  C   UNL A   1      41.789  20.850  26.388  1.00  0.00     0.000 A 
ENDBRANCH  44  63
BRANCH  56  69
ATOM     69  C   UNL A   1      47.873  26.369  30.169  1.00  0.00    -0.014 A 
ATOM     70  C   UNL A   1      48.806  26.549  29.136  1.00  0.00     0.009 A 
ATOM     71  C   UNL A   1      48.295  25.776  31.370  1.00  0.00     0.009 A 
ATOM     72  C   UNL A   1      50.126  26.120  29.293  1.00  0.00     0.001 A 
ATOM     73  C   UNL A   1      49.621  25.377  31.537  1.00  0.00     0.001 A 
ATOM     74  C   UNL A   1      50.533  25.542  30.495  1.00  0.00     0.000 A 
ENDBRANCH  56  69
ENDBRANCH  30  31
ENDBRANCH  22  25
ENDBRANCH  20  21
ENDBRANCH   1  20
TORSDOF 13
ENDMDL
MODEL 2
REMARK VINA RESULT:     -10.2      0.400      6.175
REMARK SMILES C=C(c1ccccc1)[C@@H](C(=O)NCCCNC(=O)c1ccc(-c2c3nc(c(-c4ccccc4)c4ccc([nH]4)c(-c4ccccc4)c4nc(c(-c5ccccc5)c5ccc2[nH]5)C=C4)C=C3)cc1)S(C)(=O)=O
REMARK SMILES IDX 14 1 13 2 12 3 10 4 11 5 9 7 2 8 1 9 3 10 4 11 8 12 5 13
REMARK SMILES IDX 7 14 6 15 67 16 68 17 69 18 70 19 15 20 16 21 17 22 18 24
REMARK SMILES IDX 19 25 20 26 66 27 21 28 65 29 22 30 23 31 24 32 59 33 25 34
REMARK SMILES IDX 64 35 58 36 60 37 26 38 63 39 57 40 56 41 27 43 49 44 34 45
REMARK SMILES IDX 48 46 35 47 38 48 47 49 61 50 36 51 37 52 46 54 62 55 39 56
REMARK SMILES IDX 28 57 29 58 33 59 30 60 32 61 31 62 50 63 51 64 55 65 52 66
REMARK SMILES IDX 54 67 53 68 40 69 41 70 45 71 42 72 44 73 43 74
REMARK H PARENT 12 6 16 23 60 42 38 53
REMARK Flexibility Score: inf
ROOT
ATOM      1  C   UNL A   1      33.416  28.609  25.737  1.00  0.00     0.042 C 
ENDROOT
BRANCH   1   2
ATOM      2  C   UNL A   1      33.670  27.187  25.239  1.00  0.00     0.117 C 
BRANCH   2   3
ATOM      3  N   UNL A   1      32.426  26.463  25.057  1.00  0.00    -0.355 N 
ATOM      4  C   UNL A   1      32.175  25.115  25.082  1.00  0.00     0.242 C 
ATOM      5  O   UNL A   1      31.069  24.770  24.670  1.00  0.00    -0.273 OA
ATOM      6  H   UNL A   1      31.638  27.029  24.891  1.00  0.00     0.163 HD
BRANCH   4   7
ATOM      7  C   UNL A   1      33.239  24.152  25.610  1.00  0.00     0.227 C 
BRANCH   7   8
ATOM      8  C   UNL A   1      34.084  23.532  24.499  1.00  0.00    -0.020 C 
ATOM      9  C   UNL A   1      33.634  23.380  23.238  1.00  0.00     0.015 C 
BRANCH   8  10
ATOM     10  C   UNL A   1      35.488  23.143  24.826  1.00  0.00    -0.021 A 
ATOM     11  C   UNL A   1      36.012  21.888  24.483  1.00  0.00     0.008 A 
ATOM     12  C   UNL A   1      36.306  23.997  25.589  1.00  0.00     0.008 A 
ATOM     13  C   UNL A   1      37.289  21.494  24.900  1.00  0.00     0.001 A 
ATOM     14  C   UNL A   1      37.576  23.601  26.019  1.00  0.00     0.001 A 
ATOM     15  C   UNL A   1      38.065  22.345  25.677  1.00  0.00     0.000 A 
ENDBRANCH   8  10
ENDBRANCH   7   8
BRANCH   7  16
ATOM     16  S   UNL A   1      32.425  22.885  26.619  1.00  0.00     0.163 S 
ATOM     17  C   UNL A   1      33.706  22.250  27.672  1.00  0.00     0.159 C 
ATOM     18  O   UNL A   1      31.497  23.555  27.520  1.00  0.00    -0.228 OA
ATOM     19  O   UNL A   1      31.990  21.762  25.812  1.00  0.00    -0.228 OA
ENDBRANCH   7  16
ENDBRANCH   4   7
ENDBRANCH   2   3
ENDBRANCH   1   2
BRANCH   1  20
ATOM     20  C   UNL A   1      33.422  28.752  27.256  1.00  0.00     0.118 C 
BRANCH  20  21
ATOM     21  N   UNL A   1      33.483  30.141  27.687  1.00  0.00    -0.352 N 
ATOM     22  C   UNL A   1      34.485  30.833  28.321  1.00  0.00     0.251 C 
ATOM     23  H   UNL A   1      32.676  30.670  27.493  1.00  0.00     0.163 HD
ATOM     24  O   UNL A   1      34.256  31.952  28.772  1.00  0.00    -0.269 OA
BRANCH  22  25
ATOM     25  C   UNL A   1      35.827  30.235  28.491  1.00  0.00     0.039 A 
ATOM     26  C   UNL A   1      36.721  30.276  27.417  1.00  0.00     0.014 A 
ATOM     27  C   UNL A   1      36.202  29.618  29.687  1.00  0.00     0.014 A 
ATOM     28  C   UNL A   1      38.018  29.775  27.570  1.00  0.00     0.010 A 
ATOM     29  C   UNL A   1      37.516  29.186  29.862  1.00  0.00     0.010 A 
ATOM     30  C   UNL A   1      38.440  29.271  28.811  1.00  0.00    -0.014 A 
BRANCH  30  31
ATOM     31  C   UNL A   1      39.850  28.865  29.043  1.00  0.00     0.031 A 
ATOM     32  C   UNL A   1      40.321  27.490  28.657  1.00  0.00     0.074 A 
ATOM     33  C   UNL A   1      40.689  29.711  29.675  1.00  0.00     0.049 A 
ATOM     34  N   UNL A   1      41.479  26.921  28.883  1.00  0.00    -0.248 NA
ATOM     35  C   UNL A   1      39.361  26.637  27.938  1.00  0.00     0.031 C 
ATOM     36  C   UNL A   1      40.354  31.069  30.114  1.00  0.00     0.029 A 
ATOM     37  N   UNL A   1      41.994  29.549  30.070  1.00  0.00    -0.354 N 
ATOM     38  C   UNL A   1      41.384  25.645  28.343  1.00  0.00     0.074 A 
ATOM     39  C   UNL A   1      40.041  25.506  27.821  1.00  0.00     0.031 C 
ATOM     40  C   UNL A   1      41.431  31.619  30.698  1.00  0.00     0.029 A 
ATOM     41  C   UNL A   1      42.511  30.641  30.726  1.00  0.00     0.049 A 
ATOM     42  H   UNL A   1      42.510  28.728  29.900  1.00  0.00     0.167 HD
ATOM     43  C   UNL A   1      42.334  24.681  28.272  1.00  0.00     0.031 A 
ATOM     44  C   UNL A   1      43.711  30.825  31.307  1.00  0.00     0.031 A 
ATOM     45  C   UNL A   1      43.667  24.815  28.798  1.00  0.00     0.049 A 
ATOM     46  C   UNL A   1      44.719  29.708  31.283  1.00  0.00     0.074 A 
ATOM     47  C   UNL A   1      44.708  23.904  28.747  1.00  0.00     0.029 A 
ATOM     48  N   UNL A   1      44.140  25.927  29.477  1.00  0.00    -0.354 N 
ATOM     49  N   UNL A   1      44.630  28.527  30.722  1.00  0.00    -0.248 NA
ATOM     50  C   UNL A   1      45.993  29.953  31.975  1.00  0.00     0.031 C 
ATOM     51  C   UNL A   1      45.793  24.442  29.447  1.00  0.00     0.029 A 
ATOM     52  C   UNL A   1      45.448  25.713  29.878  1.00  0.00     0.049 A 
ATOM     53  H   UNL A   1      43.624  26.748  29.648  1.00  0.00     0.167 HD
ATOM     54  C   UNL A   1      45.846  27.900  30.967  1.00  0.00     0.074 A 
ATOM     55  C   UNL A   1      46.660  28.839  31.709  1.00  0.00     0.031 C 
ATOM     56  C   UNL A   1      46.250  26.657  30.613  1.00  0.00     0.031 A 
BRANCH  43  57
ATOM     57  C   UNL A   1      41.962  23.386  27.603  1.00  0.00    -0.014 A 
ATOM     58  C   UNL A   1      42.288  23.145  26.260  1.00  0.00     0.009 A 
ATOM     59  C   UNL A   1      41.330  22.372  28.340  1.00  0.00     0.009 A 
ATOM     60  C   UNL A   1      41.959  21.928  25.658  1.00  0.00     0.001 A 
ATOM     61  C   UNL A   1      41.028  21.146  27.746  1.00  0.00     0.001 A 
ATOM     62  C   UNL A   1      41.336  20.927  26.404  1.00  0.00     0.000 A 
ENDBRANCH  43  57
BRANCH  44  63
ATOM     63  C   UNL A   1      44.033  32.112  31.980  1.00  0.00    -0.014 A 
ATOM     64  C   UNL A   1      43.721  32.305  33.334  1.00  0.00     0.009 A 
ATOM     65  C   UNL A   1      44.622  33.168  31.265  1.00  0.00     0.009 A 
ATOM     66  C   UNL A   1      43.955  33.538  33.947  1.00  0.00     0.001 A 
ATOM     67  C   UNL A   1      44.886  34.389  31.890  1.00  0.00     0.001 A 
ATOM     68  C   UNL A   1      44.540  34.577  33.226  1.00  0.00     0.000 A 
ENDBRANCH  44  63
BRANCH  56  69
ATOM     69  C   UNL A   1      47.646  26.249  30.991  1.00  0.00    -0.014 A 
ATOM     70  C   UNL A   1      47.927  25.691  32.248  1.00  0.00     0.009 A 
ATOM     71  C   UNL A   1      48.687  26.383  30.059  1.00  0.00     0.009 A 
ATOM     72  C   UNL A   1      49.228  25.302  32.572  1.00  0.00     0.001 A 
ATOM     73  C   UNL A   1      49.980  25.964  30.373  1.00  0.00     0.001 A 
ATOM     74  C   UNL A   1      50.250  25.431  31.633  1.00  0.00     0.000 A 
ENDBRANCH  56  69
ENDBRANCH  30  31
ENDBRANCH  22  25
ENDBRANCH  20  21
ENDBRANCH   1  20
TORSDOF 13
ENDMDL
MODEL 3
REMARK VINA RESULT:     -10.1      3.572      6.439
REMARK SMILES C=C(c1ccccc1)[C@@H](C(=O)NCCCNC(=O)c1ccc(-c2c3nc(c(-c4ccccc4)c4ccc([nH]4)c(-c4ccccc4)c4nc(c(-c5ccccc5)c5ccc2[nH]5)C=C4)C=C3)cc1)S(C)(=O)=O
REMARK SMILES IDX 14 1 13 2 12 3 10 4 11 5 9 7 2 8 1 9 3 10 4 11 8 12 5 13
REMARK SMILES IDX 7 14 6 15 67 16 68 17 69 18 70 19 15 20 16 21 17 22 18 24
REMARK SMILES IDX 19 25 20 26 66 27 21 28 65 29 22 30 23 31 24 32 59 33 25 34
REMARK SMILES IDX 64 35 58 36 60 37 26 38 63 39 57 40 56 41 27 43 49 44 34 45
REMARK SMILES IDX 48 46 35 47 38 48 47 49 61 50 36 51 37 52 46 54 62 55 39 56
REMARK SMILES IDX 28 57 29 58 33 59 30 60 32 61 31 62 50 63 51 64 55 65 52 66
REMARK SMILES IDX 54 67 53 68 40 69 41 70 45 71 42 72 44 73 43 74
REMARK H PARENT 12 6 16 23 60 42 38 53
REMARK Flexibility Score: inf
ROOT
ATOM      1  C   UNL A   1      34.819  32.744  31.284  1.00  0.00     0.042 C 
ENDROOT
BRANCH   1   2
ATOM      2  C   UNL A   1      35.873  31.891  31.988  1.00  0.00     0.117 C 
BRANCH   2   3
ATOM      3  N   UNL A   1      36.046  32.302  33.368  1.00  0.00    -0.355 N 
ATOM      4  C   UNL A   1      37.191  32.463  34.106  1.00  0.00     0.242 C 
ATOM      5  O   UNL A   1      37.029  32.599  35.318  1.00  0.00    -0.273 OA
ATOM      6  H   UNL A   1      35.211  32.497  33.850  1.00  0.00     0.163 HD
BRANCH   4   7
ATOM      7  C   UNL A   1      38.551  32.474  33.409  1.00  0.00     0.227 C 
BRANCH   7   8
ATOM      8  C   UNL A   1      39.650  31.814  34.239  1.00  0.00    -0.020 C 
ATOM      9  C   UNL A   1      40.234  32.419  35.292  1.00  0.00     0.015 C 
BRANCH   8  10
ATOM     10  C   UNL A   1      40.035  30.412  33.896  1.00  0.00    -0.021 A 
ATOM     11  C   UNL A   1      41.342  29.935  34.071  1.00  0.00     0.008 A 
ATOM     12  C   UNL A   1      39.109  29.548  33.283  1.00  0.00     0.008 A 
ATOM     13  C   UNL A   1      41.715  28.658  33.635  1.00  0.00     0.001 A 
ATOM     14  C   UNL A   1      39.482  28.277  32.834  1.00  0.00     0.001 A 
ATOM     15  C   UNL A   1      40.789  27.834  33.007  1.00  0.00     0.000 A 
ENDBRANCH   8  10
ENDBRANCH   7   8
BRANCH   7  16
ATOM     16  S   UNL A   1      38.970  34.185  32.983  1.00  0.00     0.163 S 
ATOM     17  C   UNL A   1      38.311  34.422  31.352  1.00  0.00     0.159 C 
ATOM     18  O   UNL A   1      38.185  35.067  33.836  1.00  0.00    -0.228 OA
ATOM     19  O   UNL A   1      40.404  34.366  32.855  1.00  0.00    -0.228 OA
ENDBRANCH   7  16
ENDBRANCH   4   7
ENDBRANCH   2   3
ENDBRANCH   1   2
BRANCH   1  20
ATOM     20  C   UNL A   1      35.057  32.925  29.787  1.00  0.00     0.118 C 
BRANCH  20  21
ATOM     21  N   UNL A   1      34.249  32.024  28.979  1.00  0.00    -0.352 N 
ATOM     22  C   UNL A   1      34.593  30.873  28.315  1.00  0.00     0.251 C 
ATOM     23  H   UNL A   1      33.302  32.280  28.895  1.00  0.00     0.163 HD
ATOM     24  O   UNL A   1      33.798  30.367  27.528  1.00  0.00    -0.269 OA
BRANCH  22  25
ATOM     25  C   UNL A   1      35.920  30.250  28.517  1.00  0.00     0.039 A 
ATOM     26  C   UNL A   1      36.896  30.415  27.529  1.00  0.00     0.014 A 
ATOM     27  C   UNL A   1      36.202  29.490  29.654  1.00  0.00     0.014 A 
ATOM     28  C   UNL A   1      38.178  29.891  27.721  1.00  0.00     0.010 A 
ATOM     29  C   UNL A   1      37.498  29.031  29.878  1.00  0.00     0.010 A 
ATOM     30  C   UNL A   1      38.503  29.238  28.921  1.00  0.00    -0.014 A 
BRANCH  30  31
ATOM     31  C   UNL A   1      39.891  28.797  29.212  1.00  0.00     0.031 A 
ATOM     32  C   UNL A   1      40.870  29.738  29.858  1.00  0.00     0.074 A 
ATOM     33  C   UNL A   1      40.293  27.571  28.820  1.00  0.00     0.049 A 
ATOM     34  N   UNL A   1      42.149  29.568  30.085  1.00  0.00    -0.248 NA
ATOM     35  C   UNL A   1      40.350  31.044  30.291  1.00  0.00     0.031 C 
ATOM     36  C   UNL A   1      39.446  26.566  28.171  1.00  0.00     0.029 A 
ATOM     37  N   UNL A   1      41.523  26.964  28.900  1.00  0.00    -0.354 N 
ATOM     38  C   UNL A   1      42.586  30.746  30.679  1.00  0.00     0.074 A 
ATOM     39  C   UNL A   1      41.449  31.639  30.733  1.00  0.00     0.031 C 
ATOM     40  C   UNL A   1      40.176  25.465  27.931  1.00  0.00     0.029 A 
ATOM     41  C   UNL A   1      41.550  25.702  28.356  1.00  0.00     0.049 A 
ATOM     42  H   UNL A   1      42.309  27.392  29.308  1.00  0.00     0.167 HD
ATOM     43  C   UNL A   1      43.819  31.050  31.152  1.00  0.00     0.031 A 
ATOM     44  C   UNL A   1      42.573  24.841  28.194  1.00  0.00     0.031 A 
ATOM     45  C   UNL A   1      44.953  30.167  31.090  1.00  0.00     0.049 A 
ATOM     46  C   UNL A   1      43.948  25.238  28.657  1.00  0.00     0.074 A 
ATOM     47  C   UNL A   1      46.235  30.376  31.571  1.00  0.00     0.029 A 
ATOM     48  N   UNL A   1      44.944  28.909  30.509  1.00  0.00    -0.354 N 
ATOM     49  N   UNL A   1      44.332  26.335  29.263  1.00  0.00    -0.248 NA
ATOM     50  C   UNL A   1      45.032  24.275  28.411  1.00  0.00     0.031 C 
ATOM     51  C   UNL A   1      47.016  29.269  31.226  1.00  0.00     0.029 A 
ATOM     52  C   UNL A   1      46.205  28.343  30.589  1.00  0.00     0.049 A 
ATOM     53  H   UNL A   1      44.158  28.480  30.100  1.00  0.00     0.167 HD
ATOM     54  C   UNL A   1      45.693  26.181  29.497  1.00  0.00     0.074 A 
ATOM     55  C   UNL A   1      46.062  24.879  28.986  1.00  0.00     0.031 C 
ATOM     56  C   UNL A   1      46.559  27.044  30.080  1.00  0.00     0.031 A 
BRANCH  43  57
ATOM     57  C   UNL A   1      44.009  32.406  31.775  1.00  0.00    -0.014 A 
ATOM     58  C   UNL A   1      44.386  33.514  31.000  1.00  0.00     0.009 A 
ATOM     59  C   UNL A   1      43.753  32.592  33.143  1.00  0.00     0.009 A 
ATOM     60  C   UNL A   1      44.534  34.772  31.587  1.00  0.00     0.001 A 
ATOM     61  C   UNL A   1      43.872  33.856  33.722  1.00  0.00     0.001 A 
ATOM     62  C   UNL A   1      44.270  34.943  32.946  1.00  0.00     0.000 A 
ENDBRANCH  43  57
BRANCH  44  63
ATOM     63  C   UNL A   1      42.350  23.518  27.551  1.00  0.00    -0.014 A 
ATOM     64  C   UNL A   1      41.955  22.411  28.318  1.00  0.00     0.009 A 
ATOM     65  C   UNL A   1      42.566  23.345  26.174  1.00  0.00     0.009 A 
ATOM     66  C   UNL A   1      41.818  21.153  27.728  1.00  0.00     0.001 A 
ATOM     67  C   UNL A   1      42.394  22.092  25.580  1.00  0.00     0.001 A 
ATOM     68  C   UNL A   1      42.034  20.995  26.360  1.00  0.00     0.000 A 
ENDBRANCH  44  63
BRANCH  56  69
ATOM     69  C   UNL A   1      47.986  26.595  30.229  1.00  0.00    -0.014 A 
ATOM     70  C   UNL A   1      48.424  25.931  31.385  1.00  0.00     0.009 A 
ATOM     71  C   UNL A   1      48.893  26.799  29.177  1.00  0.00     0.009 A 
ATOM     72  C   UNL A   1      49.750  25.506  31.495  1.00  0.00     0.001 A 
ATOM     73  C   UNL A   1      50.208  26.344  29.276  1.00  0.00     0.001 A 
ATOM     74  C   UNL A   1      50.637  25.706  30.439  1.00  0.00     0.000 A 
ENDBRANCH  56  69
ENDBRANCH  30  31
ENDBRANCH  22  25
ENDBRANCH  20  21
ENDBRANCH   1  20
TORSDOF 13
ENDMDL
