MODEL 1
REMARK VINA RESULT:     -11.1      0.000      0.000
REMARK SMILES CN(C(=O)N[C@@](C)(C(=O)NCCCNC(=O)c1ccc(-c2c3nc(c(-c4ccccc4)c4ccc([nH]4)c(-c4ccccc4)c4nc(c(-c5ccccc5)c5ccc2[nH]5)C=C4)C=C3)cc1)C(F)(F)F)c1ccc(F)cc1
REMARK SMILES IDX 11 1 10 2 8 3 9 4 6 6 7 7 5 8 3 9 4 10 2 12 1 13 69 14 70 15
REMARK SMILES IDX 75 16 71 17 74 18 72 19 73 20 65 21 66 22 67 23 68 24 12 25
REMARK SMILES IDX 13 26 14 27 15 28 16 30 17 31 18 32 64 33 19 34 63 35 20 36
REMARK SMILES IDX 21 37 22 38 57 39 23 40 62 41 56 42 58 43 24 44 61 45 55 46
REMARK SMILES IDX 54 47 25 49 47 50 32 51 46 52 33 53 36 54 45 55 59 56 34 57
REMARK SMILES IDX 35 58 44 60 60 61 37 62 26 63 27 64 31 65 28 66 30 67 29 68
REMARK SMILES IDX 48 69 49 70 53 71 50 72 52 73 51 74 38 75 39 76 43 77 40 78
REMARK SMILES IDX 42 79 41 80
REMARK H PARENT 10 5 5 11 14 29 58 48 36 59
REMARK Flexibility Score: inf
ROOT
ATOM      1  C   UNL A   1      36.076  21.412  25.417  1.00  0.00     0.117 C 
ENDROOT
BRANCH   1   2
ATOM      2  N   UNL A   1      34.869  20.615  25.537  1.00  0.00    -0.354 N 
ATOM      3  C   UNL A   1      33.542  20.889  25.619  1.00  0.00     0.255 C 
ATOM      4  O   UNL A   1      32.855  19.898  25.891  1.00  0.00    -0.272 OA
ATOM      5  H   UNL A   1      35.056  19.649  25.565  1.00  0.00     0.163 HD
BRANCH   3   6
ATOM      6  C   UNL A   1      32.930  22.305  25.463  1.00  0.00     0.213 C 
ATOM      7  C   UNL A   1      31.396  22.271  25.320  1.00  0.00     0.056 C 
BRANCH   6   8
ATOM      8  N   UNL A   1      33.495  22.853  24.175  1.00  0.00    -0.316 N 
ATOM      9  C   UNL A   1      33.592  23.944  23.399  1.00  0.00     0.322 C 
ATOM     10  O   UNL A   1      34.606  23.909  22.687  1.00  0.00    -0.248 OA
ATOM     11  H   UNL A   1      33.984  22.124  23.728  1.00  0.00     0.166 HD
BRANCH   9  12
ATOM     12  N   UNL A   1      32.687  24.966  23.360  1.00  0.00    -0.298 N 
ATOM     13  C   UNL A   1      31.973  25.416  22.178  1.00  0.00     0.155 C 
BRANCH  12  14
ATOM     14  C   UNL A   1      32.581  25.893  24.455  1.00  0.00     0.045 A 
ATOM     15  C   UNL A   1      31.349  26.150  25.078  1.00  0.00     0.029 A 
ATOM     16  C   UNL A   1      33.748  26.445  25.011  1.00  0.00     0.029 A 
ATOM     17  C   UNL A   1      31.293  26.910  26.251  1.00  0.00     0.041 A 
ATOM     18  C   UNL A   1      33.687  27.224  26.168  1.00  0.00     0.041 A 
ATOM     19  C   UNL A   1      32.462  27.437  26.786  1.00  0.00     0.123 A 
ATOM     20  F   UNL A   1      32.409  28.146  27.921  1.00  0.00    -0.207 F 
ENDBRANCH  12  14
ENDBRANCH   9  12
ENDBRANCH   6   8
BRANCH   6  21
ATOM     21  C   UNL A   1      33.212  22.937  26.848  1.00  0.00     0.420 C 
ATOM     22  F   UNL A   1      33.386  22.040  27.837  1.00  0.00    -0.168 F 
ATOM     23  F   UNL A   1      34.312  23.732  26.819  1.00  0.00    -0.168 F 
ATOM     24  F   UNL A   1      32.205  23.774  27.222  1.00  0.00    -0.168 F 
ENDBRANCH   6  21
ENDBRANCH   3   6
ENDBRANCH   1   2
BRANCH   1  25
ATOM     25  C   UNL A   1      37.263  20.564  24.981  1.00  0.00     0.042 C 
BRANCH  25  26
ATOM     26  C   UNL A   1      38.599  20.960  25.600  1.00  0.00     0.118 C 
BRANCH  26  27
ATOM     27  N   UNL A   1      39.566  19.872  25.630  1.00  0.00    -0.352 N 
ATOM     28  C   UNL A   1      40.889  19.891  26.001  1.00  0.00     0.251 C 
ATOM     29  H   UNL A   1      39.222  18.996  25.342  1.00  0.00     0.163 HD
ATOM     30  O   UNL A   1      41.596  18.904  25.815  1.00  0.00    -0.269 OA
BRANCH  28  31
ATOM     31  C   UNL A   1      41.468  21.113  26.596  1.00  0.00     0.039 A 
ATOM     32  C   UNL A   1      42.020  22.083  25.757  1.00  0.00     0.014 A 
ATOM     33  C   UNL A   1      41.441  21.313  27.979  1.00  0.00     0.014 A 
ATOM     34  C   UNL A   1      42.468  23.291  26.298  1.00  0.00     0.010 A 
ATOM     35  C   UNL A   1      41.801  22.548  28.503  1.00  0.00     0.010 A 
ATOM     36  C   UNL A   1      42.320  23.551  27.669  1.00  0.00    -0.014 A 
BRANCH  36  37
ATOM     37  C   UNL A   1      42.707  24.854  28.266  1.00  0.00     0.031 A 
ATOM     38  C   UNL A   1      41.666  25.922  28.467  1.00  0.00     0.074 A 
ATOM     39  C   UNL A   1      44.000  25.110  28.547  1.00  0.00     0.049 A 
ATOM     40  N   UNL A   1      41.820  27.163  28.853  1.00  0.00    -0.248 NA
ATOM     41  C   UNL A   1      40.273  25.554  28.166  1.00  0.00     0.031 C 
ATOM     42  C   UNL A   1      45.112  24.171  28.372  1.00  0.00     0.029 A 
ATOM     43  N   UNL A   1      44.601  26.247  29.027  1.00  0.00    -0.354 N 
ATOM     44  C   UNL A   1      40.551  27.727  28.816  1.00  0.00     0.074 A 
ATOM     45  C   UNL A   1      39.648  26.711  28.324  1.00  0.00     0.031 C 
ATOM     46  C   UNL A   1      46.253  24.764  28.759  1.00  0.00     0.029 A 
ATOM     47  C   UNL A   1      45.965  26.136  29.162  1.00  0.00     0.049 A 
ATOM     48  H   UNL A   1      44.102  27.065  29.254  1.00  0.00     0.167 HD
ATOM     49  C   UNL A   1      40.166  28.974  29.178  1.00  0.00     0.031 A 
ATOM     50  C   UNL A   1      46.881  27.043  29.552  1.00  0.00     0.031 A 
ATOM     51  C   UNL A   1      41.061  29.980  29.681  1.00  0.00     0.049 A 
ATOM     52  C   UNL A   1      46.431  28.428  29.925  1.00  0.00     0.074 A 
ATOM     53  C   UNL A   1      40.761  31.259  30.118  1.00  0.00     0.029 A 
ATOM     54  N   UNL A   1      42.431  29.820  29.818  1.00  0.00    -0.354 N 
ATOM     55  N   UNL A   1      45.219  28.930  29.935  1.00  0.00    -0.248 NA
ATOM     56  C   UNL A   1      47.475  29.371  30.352  1.00  0.00     0.031 C 
ATOM     57  C   UNL A   1      41.957  31.889  30.475  1.00  0.00     0.029 A 
ATOM     58  C   UNL A   1      42.993  30.982  30.317  1.00  0.00     0.049 A 
ATOM     59  H   UNL A   1      42.929  29.001  29.592  1.00  0.00     0.167 HD
ATOM     60  C   UNL A   1      45.352  30.230  30.405  1.00  0.00     0.074 A 
ATOM     61  C   UNL A   1      46.759  30.438  30.677  1.00  0.00     0.031 C 
ATOM     62  C   UNL A   1      44.392  31.166  30.599  1.00  0.00     0.031 A 
BRANCH  49  63
ATOM     63  C   UNL A   1      38.710  29.319  29.036  1.00  0.00    -0.014 A 
ATOM     64  C   UNL A   1      38.180  29.751  27.809  1.00  0.00     0.009 A 
ATOM     65  C   UNL A   1      37.846  29.173  30.134  1.00  0.00     0.009 A 
ATOM     66  C   UNL A   1      36.824  30.063  27.695  1.00  0.00     0.001 A 
ATOM     67  C   UNL A   1      36.486  29.456  30.007  1.00  0.00     0.001 A 
ATOM     68  C   UNL A   1      35.978  29.909  28.791  1.00  0.00     0.000 A 
ENDBRANCH  49  63
BRANCH  50  69
ATOM     69  C   UNL A   1      48.320  26.672  29.620  1.00  0.00    -0.014 A 
ATOM     70  C   UNL A   1      49.162  26.887  28.517  1.00  0.00     0.009 A 
ATOM     71  C   UNL A   1      48.856  26.084  30.776  1.00  0.00     0.009 A 
ATOM     72  C   UNL A   1      50.501  26.491  28.560  1.00  0.00     0.001 A 
ATOM     73  C   UNL A   1      50.202  25.718  30.828  1.00  0.00     0.001 A 
ATOM     74  C   UNL A   1      51.021  25.910  29.717  1.00  0.00     0.000 A 
ENDBRANCH  50  69
BRANCH  62  75
ATOM     75  C   UNL A   1      44.816  32.481  31.189  1.00  0.00    -0.014 A 
ATOM     76  C   UNL A   1      45.170  33.571  30.380  1.00  0.00     0.009 A 
ATOM     77  C   UNL A   1      44.802  32.644  32.584  1.00  0.00     0.009 A 
ATOM     78  C   UNL A   1      45.529  34.790  30.958  1.00  0.00     0.001 A 
ATOM     79  C   UNL A   1      45.134  33.872  33.158  1.00  0.00     0.001 A 
ATOM     80  C   UNL A   1      45.504  34.942  32.345  1.00  0.00     0.000 A 
ENDBRANCH  62  75
ENDBRANCH  36  37
ENDBRANCH  28  31
ENDBRANCH  26  27
ENDBRANCH  25  26
ENDBRANCH   1  25
TORSDOF 14
ENDMDL
MODEL 2
REMARK VINA RESULT:     -11.1      1.366      6.158
REMARK SMILES CN(C(=O)N[C@@](C)(C(=O)NCCCNC(=O)c1ccc(-c2c3nc(c(-c4ccccc4)c4ccc([nH]4)c(-c4ccccc4)c4nc(c(-c5ccccc5)c5ccc2[nH]5)C=C4)C=C3)cc1)C(F)(F)F)c1ccc(F)cc1
REMARK SMILES IDX 11 1 10 2 8 3 9 4 6 6 7 7 5 8 3 9 4 10 2 12 1 13 69 14 70 15
REMARK SMILES IDX 75 16 71 17 74 18 72 19 73 20 65 21 66 22 67 23 68 24 12 25
REMARK SMILES IDX 13 26 14 27 15 28 16 30 17 31 18 32 64 33 19 34 63 35 20 36
REMARK SMILES IDX 21 37 22 38 57 39 23 40 62 41 56 42 58 43 24 44 61 45 55 46
REMARK SMILES IDX 54 47 25 49 47 50 32 51 46 52 33 53 36 54 45 55 59 56 34 57
REMARK SMILES IDX 35 58 44 60 60 61 37 62 26 63 27 64 31 65 28 66 30 67 29 68
REMARK SMILES IDX 48 69 49 70 53 71 50 72 52 73 51 74 38 75 39 76 43 77 40 78
REMARK SMILES IDX 42 79 41 80
REMARK H PARENT 10 5 5 11 14 29 58 48 36 59
REMARK Flexibility Score: inf
ROOT
ATOM      1  C   UNL A   1      36.638  21.107  24.841  1.00  0.00     0.117 C 
ENDROOT
BRANCH   1   2
ATOM      2  N   UNL A   1      35.516  20.815  25.714  1.00  0.00    -0.354 N 
ATOM      3  C   UNL A   1      34.338  21.426  26.002  1.00  0.00     0.255 C 
ATOM      4  O   UNL A   1      33.742  20.914  26.955  1.00  0.00    -0.272 OA
ATOM      5  H   UNL A   1      35.637  19.977  26.216  1.00  0.00     0.163 HD
BRANCH   3   6
ATOM      6  C   UNL A   1      33.807  22.686  25.271  1.00  0.00     0.213 C 
ATOM      7  C   UNL A   1      34.920  23.712  24.984  1.00  0.00     0.056 C 
BRANCH   6   8
ATOM      8  N   UNL A   1      32.831  23.330  26.226  1.00  0.00    -0.316 N 
ATOM      9  C   UNL A   1      31.905  24.293  26.361  1.00  0.00     0.322 C 
ATOM     10  O   UNL A   1      31.088  24.017  27.251  1.00  0.00    -0.248 OA
ATOM     11  H   UNL A   1      32.901  22.859  27.088  1.00  0.00     0.166 HD
BRANCH   9  12
ATOM     12  N   UNL A   1      31.863  25.452  25.641  1.00  0.00    -0.298 N 
ATOM     13  C   UNL A   1      31.657  25.548  24.207  1.00  0.00     0.155 C 
BRANCH  12  14
ATOM     14  C   UNL A   1      32.320  26.689  26.217  1.00  0.00     0.045 A 
ATOM     15  C   UNL A   1      33.649  27.115  26.072  1.00  0.00     0.029 A 
ATOM     16  C   UNL A   1      31.392  27.560  26.811  1.00  0.00     0.029 A 
ATOM     17  C   UNL A   1      34.031  28.398  26.479  1.00  0.00     0.041 A 
ATOM     18  C   UNL A   1      31.780  28.832  27.239  1.00  0.00     0.041 A 
ATOM     19  C   UNL A   1      33.093  29.244  27.055  1.00  0.00     0.123 A 
ATOM     20  F   UNL A   1      33.455  30.480  27.423  1.00  0.00    -0.207 F 
ENDBRANCH  12  14
ENDBRANCH   9  12
ENDBRANCH   6   8
BRANCH   6  21
ATOM     21  C   UNL A   1      33.392  22.115  23.893  1.00  0.00     0.420 C 
ATOM     22  F   UNL A   1      33.316  20.771  23.855  1.00  0.00    -0.168 F 
ATOM     23  F   UNL A   1      32.190  22.604  23.492  1.00  0.00    -0.168 F 
ATOM     24  F   UNL A   1      34.255  22.508  22.916  1.00  0.00    -0.168 F 
ENDBRANCH   6  21
ENDBRANCH   3   6
ENDBRANCH   1   2
BRANCH   1  25
ATOM     25  C   UNL A   1      37.724  20.045  24.954  1.00  0.00     0.042 C 
BRANCH  25  26
ATOM     26  C   UNL A   1      38.872  20.398  25.893  1.00  0.00     0.118 C 
BRANCH  26  27
ATOM     27  N   UNL A   1      39.941  19.409  25.893  1.00  0.00    -0.352 N 
ATOM     28  C   UNL A   1      41.288  19.581  26.106  1.00  0.00     0.251 C 
ATOM     29  H   UNL A   1      39.657  18.483  25.716  1.00  0.00     0.163 HD
ATOM     30  O   UNL A   1      42.066  18.650  25.915  1.00  0.00    -0.269 OA
BRANCH  28  31
ATOM     31  C   UNL A   1      41.802  20.898  26.534  1.00  0.00     0.039 A 
ATOM     32  C   UNL A   1      42.254  21.799  25.568  1.00  0.00     0.014 A 
ATOM     33  C   UNL A   1      41.814  21.252  27.886  1.00  0.00     0.014 A 
ATOM     34  C   UNL A   1      42.636  23.087  25.950  1.00  0.00     0.010 A 
ATOM     35  C   UNL A   1      42.107  22.559  28.252  1.00  0.00     0.010 A 
ATOM     36  C   UNL A   1      42.523  23.492  27.289  1.00  0.00    -0.014 A 
BRANCH  36  37
ATOM     37  C   UNL A   1      42.841  24.877  27.719  1.00  0.00     0.031 A 
ATOM     38  C   UNL A   1      44.271  25.272  27.970  1.00  0.00     0.074 A 
ATOM     39  C   UNL A   1      41.845  25.751  27.968  1.00  0.00     0.049 A 
ATOM     40  N   UNL A   1      44.745  26.386  28.468  1.00  0.00    -0.248 NA
ATOM     41  C   UNL A   1      45.301  24.272  27.645  1.00  0.00     0.031 C 
ATOM     42  C   UNL A   1      40.414  25.484  27.794  1.00  0.00     0.029 A 
ATOM     43  N   UNL A   1      41.886  27.040  28.437  1.00  0.00    -0.354 N 
ATOM     44  C   UNL A   1      46.121  26.209  28.538  1.00  0.00     0.074 A 
ATOM     45  C   UNL A   1      46.401  24.867  28.080  1.00  0.00     0.031 C 
ATOM     46  C   UNL A   1      39.718  26.582  28.130  1.00  0.00     0.029 A 
ATOM     47  C   UNL A   1      40.645  27.612  28.590  1.00  0.00     0.049 A 
ATOM     48  H   UNL A   1      42.725  27.512  28.644  1.00  0.00     0.167 HD
ATOM     49  C   UNL A   1      47.071  27.091  28.930  1.00  0.00     0.031 A 
ATOM     50  C   UNL A   1      40.292  28.822  29.062  1.00  0.00     0.031 A 
ATOM     51  C   UNL A   1      46.794  28.431  29.372  1.00  0.00     0.049 A 
ATOM     52  C   UNL A   1      41.364  29.775  29.514  1.00  0.00     0.074 A 
ATOM     53  C   UNL A   1      47.690  29.417  29.746  1.00  0.00     0.029 A 
ATOM     54  N   UNL A   1      45.525  28.974  29.495  1.00  0.00    -0.354 N 
ATOM     55  N   UNL A   1      42.666  29.612  29.525  1.00  0.00    -0.248 NA
ATOM     56  C   UNL A   1      40.920  31.086  30.011  1.00  0.00     0.031 C 
ATOM     57  C   UNL A   1      46.961  30.542  30.142  1.00  0.00     0.029 A 
ATOM     58  C   UNL A   1      45.613  30.276  29.956  1.00  0.00     0.049 A 
ATOM     59  H   UNL A   1      44.686  28.503  29.287  1.00  0.00     0.167 HD
ATOM     60  C   UNL A   1      43.194  30.809  29.990  1.00  0.00     0.074 A 
ATOM     61  C   UNL A   1      42.075  31.692  30.244  1.00  0.00     0.031 C 
ATOM     62  C   UNL A   1      44.491  31.148  30.185  1.00  0.00     0.031 A 
BRANCH  49  63
ATOM     63  C   UNL A   1      48.500  26.629  28.902  1.00  0.00    -0.014 A 
ATOM     64  C   UNL A   1      49.298  26.797  27.758  1.00  0.00     0.009 A 
ATOM     65  C   UNL A   1      49.073  26.053  30.048  1.00  0.00     0.009 A 
ATOM     66  C   UNL A   1      50.625  26.366  27.751  1.00  0.00     0.001 A 
ATOM     67  C   UNL A   1      50.409  25.653  30.048  1.00  0.00     0.001 A 
ATOM     68  C   UNL A   1      51.181  25.800  28.897  1.00  0.00     0.000 A 
ENDBRANCH  49  63
BRANCH  50  69
ATOM     69  C   UNL A   1      38.859  29.214  29.126  1.00  0.00    -0.014 A 
ATOM     70  C   UNL A   1      38.120  29.019  30.305  1.00  0.00     0.009 A 
ATOM     71  C   UNL A   1      38.214  29.764  28.007  1.00  0.00     0.009 A 
ATOM     72  C   UNL A   1      36.761  29.336  30.350  1.00  0.00     0.001 A 
ATOM     73  C   UNL A   1      36.863  30.109  28.065  1.00  0.00     0.001 A 
ATOM     74  C   UNL A   1      36.134  29.885  29.231  1.00  0.00     0.000 A 
ENDBRANCH  50  69
BRANCH  62  75
ATOM     75  C   UNL A   1      44.780  32.551  30.636  1.00  0.00    -0.014 A 
ATOM     76  C   UNL A   1      44.905  32.875  31.995  1.00  0.00     0.009 A 
ATOM     77  C   UNL A   1      44.989  33.553  29.675  1.00  0.00     0.009 A 
ATOM     78  C   UNL A   1      45.206  34.183  32.383  1.00  0.00     0.001 A 
ATOM     79  C   UNL A   1      45.319  34.852  30.064  1.00  0.00     0.001 A 
ATOM     80  C   UNL A   1      45.419  35.167  31.418  1.00  0.00     0.000 A 
ENDBRANCH  62  75
ENDBRANCH  36  37
ENDBRANCH  28  31
ENDBRANCH  26  27
ENDBRANCH  25  26
ENDBRANCH   1  25
TORSDOF 14
ENDMDL
MODEL 3
REMARK VINA RESULT:     -11.1      3.523      8.442
REMARK SMILES CN(C(=O)N[C@@](C)(C(=O)NCCCNC(=O)c1ccc(-c2c3nc(c(-c4ccccc4)c4ccc([nH]4)c(-c4ccccc4)c4nc(c(-c5ccccc5)c5ccc2[nH]5)C=C4)C=C3)cc1)C(F)(F)F)c1ccc(F)cc1
REMARK SMILES IDX 11 1 10 2 8 3 9 4 6 6 7 7 5 8 3 9 4 10 2 12 1 13 69 14 70 15
REMARK SMILES IDX 75 16 71 17 74 18 72 19 73 20 65 21 66 22 67 23 68 24 12 25
REMARK SMILES IDX 13 26 14 27 15 28 16 30 17 31 18 32 64 33 19 34 63 35 20 36
REMARK SMILES IDX 21 37 22 38 57 39 23 40 62 41 56 42 58 43 24 44 61 45 55 46
REMARK SMILES IDX 54 47 25 49 47 50 32 51 46 52 33 53 36 54 45 55 59 56 34 57
REMARK SMILES IDX 35 58 44 60 60 61 37 62 26 63 27 64 31 65 28 66 30 67 29 68
REMARK SMILES IDX 48 69 49 70 53 71 50 72 52 73 51 74 38 75 39 76 43 77 40 78
REMARK SMILES IDX 42 79 41 80
REMARK H PARENT 10 5 5 11 14 29 58 48 36 59
REMARK Flexibility Score: inf
ROOT
ATOM      1  C   UNL A   1      32.290  29.652  25.326  1.00  0.00     0.117 C 
ENDROOT
BRANCH   1   2
ATOM      2  N   UNL A   1      31.529  29.493  24.101  1.00  0.00    -0.354 N 
ATOM      3  C   UNL A   1      31.358  28.492  23.200  1.00  0.00     0.255 C 
ATOM      4  O   UNL A   1      30.746  28.846  22.187  1.00  0.00    -0.272 OA
ATOM      5  H   UNL A   1      31.016  30.300  23.868  1.00  0.00     0.163 HD
BRANCH   3   6
ATOM      6  C   UNL A   1      31.925  27.059  23.368  1.00  0.00     0.213 C 
ATOM      7  C   UNL A   1      31.379  26.082  22.308  1.00  0.00     0.056 C 
BRANCH   6   8
ATOM      8  N   UNL A   1      31.439  26.584  24.716  1.00  0.00    -0.316 N 
ATOM      9  C   UNL A   1      31.525  25.601  25.627  1.00  0.00     0.322 C 
ATOM     10  O   UNL A   1      31.260  26.010  26.766  1.00  0.00    -0.248 OA
ATOM     11  H   UNL A   1      30.814  27.260  25.065  1.00  0.00     0.166 HD
BRANCH   9  12
ATOM     12  N   UNL A   1      31.835  24.299  25.354  1.00  0.00    -0.298 N 
ATOM     13  C   UNL A   1      31.030  23.146  25.714  1.00  0.00     0.155 C 
BRANCH  12  14
ATOM     14  C   UNL A   1      33.162  23.936  24.932  1.00  0.00     0.045 A 
ATOM     15  C   UNL A   1      33.378  23.180  23.770  1.00  0.00     0.029 A 
ATOM     16  C   UNL A   1      34.273  24.465  25.610  1.00  0.00     0.029 A 
ATOM     17  C   UNL A   1      34.673  22.990  23.277  1.00  0.00     0.041 A 
ATOM     18  C   UNL A   1      35.568  24.254  25.131  1.00  0.00     0.041 A 
ATOM     19  C   UNL A   1      35.754  23.531  23.960  1.00  0.00     0.123 A 
ATOM     20  F   UNL A   1      36.992  23.367  23.475  1.00  0.00    -0.207 F 
ENDBRANCH  12  14
ENDBRANCH   9  12
ENDBRANCH   6   8
BRANCH   6  21
ATOM     21  C   UNL A   1      33.422  27.257  23.029  1.00  0.00     0.420 C 
ATOM     22  F   UNL A   1      33.670  28.313  22.231  1.00  0.00    -0.168 F 
ATOM     23  F   UNL A   1      34.172  27.409  24.151  1.00  0.00    -0.168 F 
ATOM     24  F   UNL A   1      33.942  26.153  22.427  1.00  0.00    -0.168 F 
ENDBRANCH   6  21
ENDBRANCH   3   6
ENDBRANCH   1   2
BRANCH   1  25
ATOM     25  C   UNL A   1      31.711  30.753  26.204  1.00  0.00     0.042 C 
BRANCH  25  26
ATOM     26  C   UNL A   1      32.716  31.441  27.122  1.00  0.00     0.118 C 
BRANCH  26  27
ATOM     27  N   UNL A   1      32.383  32.830  27.404  1.00  0.00    -0.352 N 
ATOM     28  C   UNL A   1      33.062  33.753  28.162  1.00  0.00     0.251 C 
ATOM     29  H   UNL A   1      31.550  33.154  26.992  1.00  0.00     0.163 HD
ATOM     30  O   UNL A   1      32.550  34.839  28.416  1.00  0.00    -0.269 OA
BRANCH  28  31
ATOM     31  C   UNL A   1      34.399  33.423  28.697  1.00  0.00     0.039 A 
ATOM     32  C   UNL A   1      34.497  32.771  29.929  1.00  0.00     0.014 A 
ATOM     33  C   UNL A   1      35.552  33.733  27.972  1.00  0.00     0.014 A 
ATOM     34  C   UNL A   1      35.747  32.354  30.391  1.00  0.00     0.010 A 
ATOM     35  C   UNL A   1      36.781  33.238  28.389  1.00  0.00     0.010 A 
ATOM     36  C   UNL A   1      36.894  32.544  29.604  1.00  0.00    -0.014 A 
BRANCH  36  37
ATOM     37  C   UNL A   1      38.226  32.041  30.024  1.00  0.00     0.031 A 
ATOM     38  C   UNL A   1      38.725  30.720  29.502  1.00  0.00     0.074 A 
ATOM     39  C   UNL A   1      38.947  32.722  30.936  1.00  0.00     0.049 A 
ATOM     40  N   UNL A   1      39.796  30.049  29.841  1.00  0.00    -0.248 NA
ATOM     41  C   UNL A   1      37.894  30.054  28.486  1.00  0.00     0.031 C 
ATOM     42  C   UNL A   1      38.565  34.000  31.544  1.00  0.00     0.029 A 
ATOM     43  N   UNL A   1      40.152  32.425  31.525  1.00  0.00    -0.354 N 
ATOM     44  C   UNL A   1      39.752  28.874  29.100  1.00  0.00     0.074 A 
ATOM     45  C   UNL A   1      38.527  28.901  28.333  1.00  0.00     0.031 C 
ATOM     46  C   UNL A   1      39.525  34.385  32.401  1.00  0.00     0.029 A 
ATOM     47  C   UNL A   1      40.565  33.362  32.442  1.00  0.00     0.049 A 
ATOM     48  H   UNL A   1      40.671  31.616  31.310  1.00  0.00     0.167 HD
ATOM     49  C   UNL A   1      40.660  27.871  29.047  1.00  0.00     0.031 A 
ATOM     50  C   UNL A   1      41.651  33.387  33.237  1.00  0.00     0.031 A 
ATOM     51  C   UNL A   1      41.885  27.852  29.799  1.00  0.00     0.049 A 
ATOM     52  C   UNL A   1      42.631  32.249  33.178  1.00  0.00     0.074 A 
ATOM     53  C   UNL A   1      42.892  26.902  29.780  1.00  0.00     0.029 A 
ATOM     54  N   UNL A   1      42.272  28.829  30.703  1.00  0.00    -0.354 N 
ATOM     55  N   UNL A   1      42.602  31.170  32.433  1.00  0.00    -0.248 NA
ATOM     56  C   UNL A   1      43.803  32.336  34.062  1.00  0.00     0.031 C 
ATOM     57  C   UNL A   1      43.866  27.281  30.708  1.00  0.00     0.029 A 
ATOM     58  C   UNL A   1      43.494  28.497  31.260  1.00  0.00     0.049 A 
ATOM     59  H   UNL A   1      41.753  29.638  30.917  1.00  0.00     0.167 HD
ATOM     60  C   UNL A   1      43.766  30.473  32.730  1.00  0.00     0.074 A 
ATOM     61  C   UNL A   1      44.483  31.253  33.716  1.00  0.00     0.031 C 
ATOM     62  C   UNL A   1      44.203  29.293  32.226  1.00  0.00     0.031 A 
BRANCH  49  63
ATOM     63  C   UNL A   1      40.355  26.708  28.146  1.00  0.00    -0.014 A 
ATOM     64  C   UNL A   1      40.880  26.638  26.845  1.00  0.00     0.009 A 
ATOM     65  C   UNL A   1      39.566  25.646  28.617  1.00  0.00     0.009 A 
ATOM     66  C   UNL A   1      40.591  25.547  26.023  1.00  0.00     0.001 A 
ATOM     67  C   UNL A   1      39.305  24.542  27.803  1.00  0.00     0.001 A 
ATOM     68  C   UNL A   1      39.809  24.498  26.505  1.00  0.00     0.000 A 
ENDBRANCH  49  63
BRANCH  50  69
ATOM     69  C   UNL A   1      41.880  34.534  34.157  1.00  0.00    -0.014 A 
ATOM     70  C   UNL A   1      41.389  34.499  35.472  1.00  0.00     0.009 A 
ATOM     71  C   UNL A   1      42.570  35.676  33.722  1.00  0.00     0.009 A 
ATOM     72  C   UNL A   1      41.556  35.596  36.321  1.00  0.00     0.001 A 
ATOM     73  C   UNL A   1      42.764  36.758  34.582  1.00  0.00     0.001 A 
ATOM     74  C   UNL A   1      42.247  36.723  35.876  1.00  0.00     0.000 A 
ENDBRANCH  50  69
BRANCH  62  75
ATOM     75  C   UNL A   1      45.548  28.801  32.682  1.00  0.00    -0.014 A 
ATOM     76  C   UNL A   1      45.682  27.943  33.784  1.00  0.00     0.009 A 
ATOM     77  C   UNL A   1      46.694  29.160  31.955  1.00  0.00     0.009 A 
ATOM     78  C   UNL A   1      46.942  27.477  34.165  1.00  0.00     0.001 A 
ATOM     79  C   UNL A   1      47.948  28.670  32.320  1.00  0.00     0.001 A 
ATOM     80  C   UNL A   1      48.072  27.835  33.429  1.00  0.00     0.000 A 
ENDBRANCH  62  75
ENDBRANCH  36  37
ENDBRANCH  28  31
ENDBRANCH  26  27
ENDBRANCH  25  26
ENDBRANCH   1  25
TORSDOF 14
ENDMDL
