MODEL 1
REMARK VINA RESULT:     -14.0      0.000      0.000
REMARK SMILES Cc1coc2cc3c(cc12)[C@@H](C)[C@H](CCC(=O)N[C@@H](Cc1c[nH]c2ccccc12)C(=O)NCCCNC(=O)c1ccc(-c2c4nc(c(-c5ccccc5)c5ccc([nH]5)c(-c5ccccc5)c5nc(c(-c6ccccc6)c6ccc2[nH]6)C=C5)C=C4)cc1)C(=O)O3
REMARK SMILES IDX 33 1 32 2 30 3 31 4 19 6 18 7 16 8 17 9 15 11 14 12 13 13
REMARK SMILES IDX 1 14 2 15 3 16 10 17 4 18 5 19 9 20 6 21 8 22 7 23 11 24
REMARK SMILES IDX 89 25 12 26 87 27 88 28 20 29 21 30 22 31 29 32 23 33 24 34
REMARK SMILES IDX 28 35 25 37 27 38 26 39 34 40 35 41 36 42 37 43 38 45 39 46
REMARK SMILES IDX 40 47 86 48 41 49 85 50 42 51 43 52 44 53 79 54 45 55 84 56
REMARK SMILES IDX 78 57 80 58 46 59 83 60 77 61 76 62 47 64 69 65 54 66 68 67
REMARK SMILES IDX 55 68 58 69 67 70 81 71 56 72 57 73 66 75 82 76 59 77 48 78
REMARK SMILES IDX 49 79 53 80 50 81 52 82 51 83 70 84 71 85 75 86 72 87 74 88
REMARK SMILES IDX 73 89 60 90 61 91 65 92 62 93 64 94 63 95
REMARK H PARENT 32 5 18 10 23 36 36 44 80 63 58 74
REMARK Flexibility Score: inf
ROOT
ATOM      1  C   UNL A   1      32.206  27.066  26.375  1.00  0.00     0.117 C 
ENDROOT
BRANCH   1   2
ATOM      2  N   UNL A   1      31.033  26.262  26.671  1.00  0.00    -0.354 N 
ATOM      3  C   UNL A   1      30.620  25.091  26.102  1.00  0.00     0.242 C 
ATOM      4  O   UNL A   1      29.884  24.357  26.767  1.00  0.00    -0.273 OA
ATOM      5  H   UNL A   1      30.450  26.613  27.383  1.00  0.00     0.163 HD
BRANCH   3   6
ATOM      6  C   UNL A   1      31.111  24.651  24.721  1.00  0.00     0.175 C 
BRANCH   6   7
ATOM      7  N   UNL A   1      31.324  23.184  24.742  1.00  0.00    -0.344 N 
ATOM      8  C   UNL A   1      32.149  22.314  24.093  1.00  0.00     0.220 C 
ATOM      9  O   UNL A   1      32.164  21.141  24.473  1.00  0.00    -0.275 OA
ATOM     10  H   UNL A   1      30.726  22.728  25.379  1.00  0.00     0.164 HD
BRANCH   8  11
ATOM     11  C   UNL A   1      32.965  22.718  22.875  1.00  0.00     0.101 C 
BRANCH  11  12
ATOM     12  C   UNL A   1      34.434  23.129  23.154  1.00  0.00     0.026 C 
BRANCH  12  13
ATOM     13  C   UNL A   1      34.951  22.544  24.468  1.00  0.00     0.107 C 
ATOM     14  C   UNL A   1      41.506  20.431  26.565  1.00  0.00     0.048 C 
ATOM     15  C   UNL A   1      40.723  21.630  26.935  1.00  0.00    -0.005 A 
ATOM     16  C   UNL A   1      41.133  22.660  27.758  1.00  0.00     0.199 A 
ATOM     17  C   UNL A   1      39.436  22.005  26.452  1.00  0.00     0.024 A 
ATOM     18  O   UNL A   1      40.225  23.666  27.767  1.00  0.00    -0.464 OA
ATOM     19  C   UNL A   1      39.226  23.292  26.930  1.00  0.00     0.137 A 
ATOM     20  C   UNL A   1      38.457  21.413  25.623  1.00  0.00     0.020 A 
ATOM     21  C   UNL A   1      38.171  24.098  26.552  1.00  0.00     0.095 A 
ATOM     22  C   UNL A   1      37.349  22.176  25.229  1.00  0.00    -0.001 A 
ATOM     23  C   UNL A   1      37.291  23.520  25.640  1.00  0.00     0.138 A 
ATOM     24  C   UNL A   1      36.191  21.603  24.421  1.00  0.00     0.034 C 
ATOM     25  O   UNL A   1      36.328  24.364  25.132  1.00  0.00    -0.426 OA
ATOM     26  C   UNL A   1      35.787  20.208  24.965  1.00  0.00     0.014 C 
ATOM     27  C   UNL A   1      35.208  23.674  25.470  1.00  0.00     0.314 C 
ATOM     28  O   UNL A   1      34.546  23.968  26.439  1.00  0.00    -0.251 OA
ENDBRANCH  12  13
ENDBRANCH  11  12
ENDBRANCH   8  11
ENDBRANCH   6   7
BRANCH   6  29
ATOM     29  C   UNL A   1      30.291  25.343  23.578  1.00  0.00     0.072 C 
BRANCH  29  30
ATOM     30  C   UNL A   1      30.540  26.744  23.108  1.00  0.00    -0.020 A 
ATOM     31  C   UNL A   1      31.750  27.312  22.746  1.00  0.00     0.087 A 
ATOM     32  C   UNL A   1      29.574  27.795  23.043  1.00  0.00     0.003 A 
ATOM     33  N   UNL A   1      31.526  28.598  22.333  1.00  0.00    -0.361 N 
ATOM     34  C   UNL A   1      30.193  28.900  22.459  1.00  0.00     0.046 A 
ATOM     35  C   UNL A   1      28.200  27.860  23.338  1.00  0.00     0.010 A 
ATOM     36  H   UNL A   1      32.218  29.213  21.997  1.00  0.00     0.166 HD
ATOM     37  C   UNL A   1      29.486  30.039  22.067  1.00  0.00     0.026 A 
ATOM     38  C   UNL A   1      27.478  28.991  22.957  1.00  0.00     0.001 A 
ATOM     39  C   UNL A   1      28.110  30.051  22.311  1.00  0.00     0.002 A 
ENDBRANCH  29  30
ENDBRANCH   6  29
ENDBRANCH   3   6
ENDBRANCH   1   2
BRANCH   1  40
ATOM     40  C   UNL A   1      32.062  28.537  26.705  1.00  0.00     0.042 C 
BRANCH  40  41
ATOM     41  C   UNL A   1      33.393  29.288  26.664  1.00  0.00     0.118 C 
BRANCH  41  42
ATOM     42  N   UNL A   1      33.533  30.329  27.668  1.00  0.00    -0.352 N 
ATOM     43  C   UNL A   1      34.586  31.019  28.192  1.00  0.00     0.251 C 
ATOM     44  H   UNL A   1      32.669  30.596  28.059  1.00  0.00     0.163 HD
ATOM     45  O   UNL A   1      34.322  32.050  28.815  1.00  0.00    -0.269 OA
BRANCH  43  46
ATOM     46  C   UNL A   1      35.999  30.574  28.134  1.00  0.00     0.039 A 
ATOM     47  C   UNL A   1      36.431  29.336  27.662  1.00  0.00     0.014 A 
ATOM     48  C   UNL A   1      36.941  31.443  28.717  1.00  0.00     0.014 A 
ATOM     49  C   UNL A   1      37.739  28.927  27.867  1.00  0.00     0.010 A 
ATOM     50  C   UNL A   1      38.259  31.052  28.901  1.00  0.00     0.010 A 
ATOM     51  C   UNL A   1      38.636  29.770  28.526  1.00  0.00    -0.014 A 
BRANCH  51  52
ATOM     52  C   UNL A   1      39.988  29.273  28.728  1.00  0.00     0.031 A 
ATOM     53  C   UNL A   1      40.316  28.892  30.131  1.00  0.00     0.074 A 
ATOM     54  C   UNL A   1      40.864  29.087  27.724  1.00  0.00     0.049 A 
ATOM     55  N   UNL A   1      41.235  29.386  30.895  1.00  0.00    -0.248 NA
ATOM     56  C   UNL A   1      39.440  27.917  30.799  1.00  0.00     0.031 C 
ATOM     57  C   UNL A   1      40.636  29.138  26.278  1.00  0.00     0.029 A 
ATOM     58  N   UNL A   1      42.157  28.681  27.815  1.00  0.00    -0.354 N 
ATOM     59  C   UNL A   1      41.146  28.703  32.105  1.00  0.00     0.074 A 
ATOM     60  C   UNL A   1      39.959  27.888  32.026  1.00  0.00     0.031 C 
ATOM     61  C   UNL A   1      41.659  28.512  25.651  1.00  0.00     0.029 A 
ATOM     62  C   UNL A   1      42.669  28.162  26.636  1.00  0.00     0.049 A 
ATOM     63  H   UNL A   1      42.684  28.751  28.643  1.00  0.00     0.167 HD
ATOM     64  C   UNL A   1      42.140  28.730  33.035  1.00  0.00     0.031 A 
ATOM     65  C   UNL A   1      43.785  27.400  26.526  1.00  0.00     0.031 A 
ATOM     66  C   UNL A   1      43.054  29.819  32.824  1.00  0.00     0.049 A 
ATOM     67  C   UNL A   1      44.620  27.665  27.727  1.00  0.00     0.074 A 
ATOM     68  C   UNL A   1      42.923  31.193  32.818  1.00  0.00     0.029 A 
ATOM     69  N   UNL A   1      44.241  29.555  32.182  1.00  0.00    -0.354 N 
ATOM     70  N   UNL A   1      45.179  28.816  27.971  1.00  0.00    -0.248 NA
ATOM     71  C   UNL A   1      44.445  26.796  28.882  1.00  0.00     0.031 C 
ATOM     72  C   UNL A   1      43.735  31.627  31.732  1.00  0.00     0.029 A 
ATOM     73  C   UNL A   1      44.366  30.502  31.198  1.00  0.00     0.049 A 
ATOM     74  H   UNL A   1      44.875  28.830  32.389  1.00  0.00     0.167 HD
ATOM     75  C   UNL A   1      45.028  28.999  29.339  1.00  0.00     0.074 A 
ATOM     76  C   UNL A   1      44.645  27.686  29.858  1.00  0.00     0.031 C 
ATOM     77  C   UNL A   1      44.937  30.245  29.893  1.00  0.00     0.031 A 
BRANCH  64  78
ATOM     78  C   UNL A   1      42.455  27.582  33.954  1.00  0.00    -0.014 A 
ATOM     79  C   UNL A   1      41.648  27.251  35.059  1.00  0.00     0.009 A 
ATOM     80  C   UNL A   1      43.425  26.638  33.572  1.00  0.00     0.009 A 
ATOM     81  C   UNL A   1      41.789  26.042  35.744  1.00  0.00     0.001 A 
ATOM     82  C   UNL A   1      43.542  25.408  34.230  1.00  0.00     0.001 A 
ATOM     83  C   UNL A   1      42.721  25.108  35.313  1.00  0.00     0.000 A 
ENDBRANCH  64  78
BRANCH  65  84
ATOM     84  C   UNL A   1      43.904  26.146  25.741  1.00  0.00    -0.014 A 
ATOM     85  C   UNL A   1      42.799  25.282  25.604  1.00  0.00     0.009 A 
ATOM     86  C   UNL A   1      45.165  25.651  25.373  1.00  0.00     0.009 A 
ATOM     87  C   UNL A   1      42.952  23.964  25.161  1.00  0.00     0.001 A 
ATOM     88  C   UNL A   1      45.319  24.328  24.933  1.00  0.00     0.001 A 
ATOM     89  C   UNL A   1      44.215  23.482  24.843  1.00  0.00     0.000 A 
ENDBRANCH  65  84
BRANCH  77  90
ATOM     90  C   UNL A   1      45.147  31.458  29.015  1.00  0.00    -0.014 A 
ATOM     91  C   UNL A   1      46.261  32.276  29.263  1.00  0.00     0.009 A 
ATOM     92  C   UNL A   1      44.170  31.931  28.120  1.00  0.00     0.009 A 
ATOM     93  C   UNL A   1      46.385  33.530  28.659  1.00  0.00     0.001 A 
ATOM     94  C   UNL A   1      44.306  33.176  27.494  1.00  0.00     0.001 A 
ATOM     95  C   UNL A   1      45.407  33.981  27.775  1.00  0.00     0.000 A 
ENDBRANCH  77  90
ENDBRANCH  51  52
ENDBRANCH  43  46
ENDBRANCH  41  42
ENDBRANCH  40  41
ENDBRANCH   1  40
TORSDOF 16
ENDMDL
MODEL 2
REMARK VINA RESULT:     -13.0      4.735      9.529
REMARK SMILES Cc1coc2cc3c(cc12)[C@@H](C)[C@H](CCC(=O)N[C@@H](Cc1c[nH]c2ccccc12)C(=O)NCCCNC(=O)c1ccc(-c2c4nc(c(-c5ccccc5)c5ccc([nH]5)c(-c5ccccc5)c5nc(c(-c6ccccc6)c6ccc2[nH]6)C=C5)C=C4)cc1)C(=O)O3
REMARK SMILES IDX 33 1 32 2 30 3 31 4 19 6 18 7 16 8 17 9 15 11 14 12 13 13
REMARK SMILES IDX 1 14 2 15 3 16 10 17 4 18 5 19 9 20 6 21 8 22 7 23 11 24
REMARK SMILES IDX 89 25 12 26 87 27 88 28 20 29 21 30 22 31 29 32 23 33 24 34
REMARK SMILES IDX 28 35 25 37 27 38 26 39 34 40 35 41 36 42 37 43 38 45 39 46
REMARK SMILES IDX 40 47 86 48 41 49 85 50 42 51 43 52 44 53 79 54 45 55 84 56
REMARK SMILES IDX 78 57 80 58 46 59 83 60 77 61 76 62 47 64 69 65 54 66 68 67
REMARK SMILES IDX 55 68 58 69 67 70 81 71 56 72 57 73 66 75 82 76 59 77 48 78
REMARK SMILES IDX 49 79 53 80 50 81 52 82 51 83 70 84 71 85 75 86 72 87 74 88
REMARK SMILES IDX 73 89 60 90 61 91 65 92 62 93 64 94 63 95
REMARK H PARENT 32 5 18 10 23 36 36 44 80 63 58 74
REMARK Flexibility Score: inf
ROOT
ATOM      1  C   UNL A   1      34.909  32.757  32.304  1.00  0.00     0.117 C 
ENDROOT
BRANCH   1   2
ATOM      2  N   UNL A   1      35.503  31.497  31.890  1.00  0.00    -0.354 N 
ATOM      3  C   UNL A   1      36.564  30.824  32.427  1.00  0.00     0.242 C 
ATOM      4  O   UNL A   1      36.628  29.606  32.235  1.00  0.00    -0.273 OA
ATOM      5  H   UNL A   1      35.083  31.068  31.111  1.00  0.00     0.163 HD
BRANCH   3   6
ATOM      6  C   UNL A   1      37.600  31.526  33.307  1.00  0.00     0.175 C 
BRANCH   6   7
ATOM      7  N   UNL A   1      37.682  30.808  34.602  1.00  0.00    -0.344 N 
ATOM      8  C   UNL A   1      38.379  30.977  35.761  1.00  0.00     0.220 C 
ATOM      9  O   UNL A   1      38.085  30.260  36.721  1.00  0.00    -0.275 OA
ATOM     10  H   UNL A   1      37.089  30.022  34.632  1.00  0.00     0.164 HD
BRANCH   8  11
ATOM     11  C   UNL A   1      39.551  31.938  35.877  1.00  0.00     0.101 C 
BRANCH  11  12
ATOM     12  C   UNL A   1      39.268  33.258  36.642  1.00  0.00     0.026 C 
BRANCH  12  13
ATOM     13  C   UNL A   1      40.439  34.236  36.547  1.00  0.00     0.107 C 
ATOM     14  C   UNL A   1      46.730  33.910  33.062  1.00  0.00     0.048 C 
ATOM     15  C   UNL A   1      45.515  34.702  32.772  1.00  0.00    -0.005 A 
ATOM     16  C   UNL A   1      45.317  35.541  31.693  1.00  0.00     0.199 A 
ATOM     17  C   UNL A   1      44.285  34.692  33.490  1.00  0.00     0.024 A 
ATOM     18  O   UNL A   1      44.041  35.996  31.660  1.00  0.00    -0.464 OA
ATOM     19  C   UNL A   1      43.402  35.434  32.715  1.00  0.00     0.137 A 
ATOM     20  C   UNL A   1      43.815  34.092  34.680  1.00  0.00     0.020 A 
ATOM     21  C   UNL A   1      42.047  35.532  32.961  1.00  0.00     0.095 A 
ATOM     22  C   UNL A   1      42.452  34.184  34.995  1.00  0.00    -0.001 A 
ATOM     23  C   UNL A   1      41.603  34.829  34.078  1.00  0.00     0.138 A 
ATOM     24  C   UNL A   1      41.864  33.659  36.300  1.00  0.00     0.034 C 
ATOM     25  O   UNL A   1      40.236  34.785  34.243  1.00  0.00    -0.426 OA
ATOM     26  C   UNL A   1      42.776  34.037  37.497  1.00  0.00     0.014 C 
ATOM     27  C   UNL A   1      40.133  35.306  35.493  1.00  0.00     0.314 C 
ATOM     28  O   UNL A   1      39.830  36.462  35.680  1.00  0.00    -0.251 OA
ENDBRANCH  12  13
ENDBRANCH  11  12
ENDBRANCH   8  11
ENDBRANCH   6   7
BRANCH   6  29
ATOM     29  C   UNL A   1      38.888  31.890  32.491  1.00  0.00     0.072 C 
BRANCH  29  30
ATOM     30  C   UNL A   1      38.996  33.092  31.602  1.00  0.00    -0.020 A 
ATOM     31  C   UNL A   1      38.042  34.073  31.386  1.00  0.00     0.087 A 
ATOM     32  C   UNL A   1      40.083  33.397  30.726  1.00  0.00     0.003 A 
ATOM     33  N   UNL A   1      38.563  35.015  30.542  1.00  0.00    -0.361 N 
ATOM     34  C   UNL A   1      39.831  34.649  30.163  1.00  0.00     0.046 A 
ATOM     35  C   UNL A   1      41.304  32.758  30.447  1.00  0.00     0.010 A 
ATOM     36  H   UNL A   1      38.099  35.833  30.249  1.00  0.00     0.166 HD
ATOM     37  C   UNL A   1      40.781  35.338  29.406  1.00  0.00     0.026 A 
ATOM     38  C   UNL A   1      42.264  33.430  29.691  1.00  0.00     0.001 A 
ATOM     39  C   UNL A   1      42.012  34.709  29.201  1.00  0.00     0.002 A 
ENDBRANCH  29  30
ENDBRANCH   6  29
ENDBRANCH   3   6
ENDBRANCH   1   2
BRANCH   1  40
ATOM     40  C   UNL A   1      34.324  33.578  31.173  1.00  0.00     0.042 C 
BRANCH  40  41
ATOM     41  C   UNL A   1      35.113  33.439  29.871  1.00  0.00     0.118 C 
BRANCH  41  42
ATOM     42  N   UNL A   1      34.486  32.592  28.870  1.00  0.00    -0.352 N 
ATOM     43  C   UNL A   1      34.772  31.371  28.334  1.00  0.00     0.251 C 
ATOM     44  H   UNL A   1      33.669  32.992  28.493  1.00  0.00     0.163 HD
ATOM     45  O   UNL A   1      33.864  30.806  27.720  1.00  0.00    -0.269 OA
BRANCH  43  46
ATOM     46  C   UNL A   1      36.106  30.725  28.368  1.00  0.00     0.039 A 
ATOM     47  C   UNL A   1      36.339  29.358  28.232  1.00  0.00     0.014 A 
ATOM     48  C   UNL A   1      37.188  31.569  28.682  1.00  0.00     0.014 A 
ATOM     49  C   UNL A   1      37.589  28.830  28.513  1.00  0.00     0.010 A 
ATOM     50  C   UNL A   1      38.449  31.051  28.937  1.00  0.00     0.010 A 
ATOM     51  C   UNL A   1      38.628  29.674  28.908  1.00  0.00    -0.014 A 
BRANCH  51  52
ATOM     52  C   UNL A   1      39.909  29.056  29.209  1.00  0.00     0.031 A 
ATOM     53  C   UNL A   1      40.152  28.779  30.653  1.00  0.00     0.074 A 
ATOM     54  C   UNL A   1      40.788  28.681  28.261  1.00  0.00     0.049 A 
ATOM     55  N   UNL A   1      41.097  29.241  31.403  1.00  0.00    -0.248 NA
ATOM     56  C   UNL A   1      39.153  27.973  31.372  1.00  0.00     0.031 C 
ATOM     57  C   UNL A   1      40.609  28.617  26.809  1.00  0.00     0.029 A 
ATOM     58  N   UNL A   1      42.025  28.148  28.440  1.00  0.00    -0.354 N 
ATOM     59  C   UNL A   1      40.898  28.690  32.666  1.00  0.00     0.074 A 
ATOM     60  C   UNL A   1      39.629  28.005  32.616  1.00  0.00     0.031 C 
ATOM     61  C   UNL A   1      41.574  27.827  26.283  1.00  0.00     0.029 A 
ATOM     62  C   UNL A   1      42.509  27.466  27.335  1.00  0.00     0.049 A 
ATOM     63  H   UNL A   1      42.532  28.240  29.278  1.00  0.00     0.167 HD
ATOM     64  C   UNL A   1      41.860  28.699  33.629  1.00  0.00     0.031 A 
ATOM     65  C   UNL A   1      43.536  26.580  27.341  1.00  0.00     0.031 A 
ATOM     66  C   UNL A   1      42.896  29.657  33.354  1.00  0.00     0.049 A 
ATOM     67  C   UNL A   1      44.360  26.867  28.543  1.00  0.00     0.074 A 
ATOM     68  C   UNL A   1      42.919  31.031  33.217  1.00  0.00     0.029 A 
ATOM     69  N   UNL A   1      44.064  29.206  32.787  1.00  0.00    -0.354 N 
ATOM     70  N   UNL A   1      45.036  27.970  28.702  1.00  0.00    -0.248 NA
ATOM     71  C   UNL A   1      44.056  26.137  29.766  1.00  0.00     0.031 C 
ATOM     72  C   UNL A   1      43.806  31.268  32.129  1.00  0.00     0.029 A 
ATOM     73  C   UNL A   1      44.323  30.035  31.726  1.00  0.00     0.049 A 
ATOM     74  H   UNL A   1      44.607  28.439  33.085  1.00  0.00     0.167 HD
ATOM     75  C   UNL A   1      44.867  28.298  30.040  1.00  0.00     0.074 A 
ATOM     76  C   UNL A   1      44.325  27.090  30.663  1.00  0.00     0.031 C 
ATOM     77  C   UNL A   1      44.899  29.594  30.473  1.00  0.00     0.031 A 
BRANCH  64  78
ATOM     78  C   UNL A   1      42.019  27.617  34.662  1.00  0.00    -0.014 A 
ATOM     79  C   UNL A   1      41.478  27.720  35.957  1.00  0.00     0.009 A 
ATOM     80  C   UNL A   1      42.484  26.350  34.267  1.00  0.00     0.009 A 
ATOM     81  C   UNL A   1      41.396  26.621  36.815  1.00  0.00     0.001 A 
ATOM     82  C   UNL A   1      42.365  25.237  35.109  1.00  0.00     0.001 A 
ATOM     83  C   UNL A   1      41.817  25.372  36.381  1.00  0.00     0.000 A 
ENDBRANCH  64  78
BRANCH  65  84
ATOM     84  C   UNL A   1      43.538  25.252  26.680  1.00  0.00    -0.014 A 
ATOM     85  C   UNL A   1      44.342  25.019  25.546  1.00  0.00     0.009 A 
ATOM     86  C   UNL A   1      42.543  24.306  26.975  1.00  0.00     0.009 A 
ATOM     87  C   UNL A   1      44.134  23.913  24.716  1.00  0.00     0.001 A 
ATOM     88  C   UNL A   1      42.332  23.199  26.139  1.00  0.00     0.001 A 
ATOM     89  C   UNL A   1      43.116  23.013  25.002  1.00  0.00     0.000 A 
ENDBRANCH  65  84
BRANCH  77  90
ATOM     90  C   UNL A   1      45.269  30.687  29.496  1.00  0.00    -0.014 A 
ATOM     91  C   UNL A   1      46.305  31.569  29.843  1.00  0.00     0.009 A 
ATOM     92  C   UNL A   1      44.484  31.004  28.372  1.00  0.00     0.009 A 
ATOM     93  C   UNL A   1      46.536  32.736  29.110  1.00  0.00     0.001 A 
ATOM     94  C   UNL A   1      44.731  32.160  27.622  1.00  0.00     0.001 A 
ATOM     95  C   UNL A   1      45.748  33.032  28.000  1.00  0.00     0.000 A 
ENDBRANCH  77  90
ENDBRANCH  51  52
ENDBRANCH  43  46
ENDBRANCH  41  42
ENDBRANCH  40  41
ENDBRANCH   1  40
TORSDOF 16
ENDMDL
MODEL 3
REMARK VINA RESULT:     -13.0      2.189      7.675
REMARK SMILES Cc1coc2cc3c(cc12)[C@@H](C)[C@H](CCC(=O)N[C@@H](Cc1c[nH]c2ccccc12)C(=O)NCCCNC(=O)c1ccc(-c2c4nc(c(-c5ccccc5)c5ccc([nH]5)c(-c5ccccc5)c5nc(c(-c6ccccc6)c6ccc2[nH]6)C=C5)C=C4)cc1)C(=O)O3
REMARK SMILES IDX 33 1 32 2 30 3 31 4 19 6 18 7 16 8 17 9 15 11 14 12 13 13
REMARK SMILES IDX 1 14 2 15 3 16 10 17 4 18 5 19 9 20 6 21 8 22 7 23 11 24
REMARK SMILES IDX 89 25 12 26 87 27 88 28 20 29 21 30 22 31 29 32 23 33 24 34
REMARK SMILES IDX 28 35 25 37 27 38 26 39 34 40 35 41 36 42 37 43 38 45 39 46
REMARK SMILES IDX 40 47 86 48 41 49 85 50 42 51 43 52 44 53 79 54 45 55 84 56
REMARK SMILES IDX 78 57 80 58 46 59 83 60 77 61 76 62 47 64 69 65 54 66 68 67
REMARK SMILES IDX 55 68 58 69 67 70 81 71 56 72 57 73 66 75 82 76 59 77 48 78
REMARK SMILES IDX 49 79 53 80 50 81 52 82 51 83 70 84 71 85 75 86 72 87 74 88
REMARK SMILES IDX 73 89 60 90 61 91 65 92 62 93 64 94 63 95
REMARK H PARENT 32 5 18 10 23 36 36 44 80 63 58 74
REMARK Flexibility Score: inf
ROOT
ATOM      1  C   UNL A   1      35.077  21.845  24.790  1.00  0.00     0.117 C 
ENDROOT
BRANCH   1   2
ATOM      2  N   UNL A   1      35.203  23.205  24.296  1.00  0.00    -0.354 N 
ATOM      3  C   UNL A   1      34.233  24.147  24.099  1.00  0.00     0.242 C 
ATOM      4  O   UNL A   1      34.573  25.334  24.110  1.00  0.00    -0.273 OA
ATOM      5  H   UNL A   1      36.117  23.489  24.070  1.00  0.00     0.163 HD
BRANCH   3   6
ATOM      6  C   UNL A   1      32.759  23.764  23.949  1.00  0.00     0.175 C 
BRANCH   6   7
ATOM      7  N   UNL A   1      32.116  23.836  25.283  1.00  0.00    -0.344 N 
ATOM      8  C   UNL A   1      31.894  24.820  26.200  1.00  0.00     0.220 C 
ATOM      9  O   UNL A   1      31.175  24.555  27.167  1.00  0.00    -0.275 OA
ATOM     10  H   UNL A   1      31.765  22.964  25.577  1.00  0.00     0.164 HD
BRANCH   8  11
ATOM     11  C   UNL A   1      32.568  26.180  26.118  1.00  0.00     0.101 C 
BRANCH  11  12
ATOM     12  C   UNL A   1      31.688  27.394  26.516  1.00  0.00     0.026 C 
BRANCH  12  13
ATOM     13  C   UNL A   1      32.260  28.711  25.990  1.00  0.00     0.107 C 
ATOM     14  C   UNL A   1      34.117  34.830  29.296  1.00  0.00     0.048 C 
ATOM     15  C   UNL A   1      34.960  33.762  28.716  1.00  0.00    -0.005 A 
ATOM     16  C   UNL A   1      36.339  33.697  28.738  1.00  0.00     0.199 A 
ATOM     17  C   UNL A   1      34.522  32.553  28.102  1.00  0.00     0.024 A 
ATOM     18  O   UNL A   1      36.778  32.515  28.243  1.00  0.00    -0.464 OA
ATOM     19  C   UNL A   1      35.674  31.800  27.913  1.00  0.00     0.137 A 
ATOM     20  C   UNL A   1      33.274  32.000  27.738  1.00  0.00     0.020 A 
ATOM     21  C   UNL A   1      35.681  30.483  27.501  1.00  0.00     0.095 A 
ATOM     22  C   UNL A   1      33.224  30.674  27.286  1.00  0.00    -0.001 A 
ATOM     23  C   UNL A   1      34.422  29.937  27.265  1.00  0.00     0.138 A 
ATOM     24  C   UNL A   1      31.946  30.018  26.776  1.00  0.00     0.034 C 
ATOM     25  O   UNL A   1      34.403  28.583  27.011  1.00  0.00    -0.426 OA
ATOM     26  C   UNL A   1      31.170  30.990  25.849  1.00  0.00     0.014 C 
ATOM     27  C   UNL A   1      33.776  28.579  25.806  1.00  0.00     0.314 C 
ATOM     28  O   UNL A   1      34.388  28.474  24.768  1.00  0.00    -0.251 OA
ENDBRANCH  12  13
ENDBRANCH  11  12
ENDBRANCH   8  11
ENDBRANCH   6   7
BRANCH   6  29
ATOM     29  C   UNL A   1      32.117  24.450  22.693  1.00  0.00     0.072 C 
BRANCH  29  30
ATOM     30  C   UNL A   1      31.762  25.905  22.633  1.00  0.00    -0.020 A 
ATOM     31  C   UNL A   1      32.560  26.953  22.205  1.00  0.00     0.087 A 
ATOM     32  C   UNL A   1      30.551  26.497  23.108  1.00  0.00     0.003 A 
ATOM     33  N   UNL A   1      31.834  28.112  22.265  1.00  0.00    -0.361 N 
ATOM     34  C   UNL A   1      30.584  27.850  22.769  1.00  0.00     0.046 A 
ATOM     35  C   UNL A   1      29.391  25.971  23.704  1.00  0.00     0.010 A 
ATOM     36  H   UNL A   1      32.160  28.999  21.990  1.00  0.00     0.166 HD
ATOM     37  C   UNL A   1      29.475  28.688  22.911  1.00  0.00     0.026 A 
ATOM     38  C   UNL A   1      28.275  26.794  23.857  1.00  0.00     0.001 A 
ATOM     39  C   UNL A   1      28.313  28.123  23.444  1.00  0.00     0.002 A 
ENDBRANCH  29  30
ENDBRANCH   6  29
ENDBRANCH   3   6
ENDBRANCH   1   2
BRANCH   1  40
ATOM     40  C   UNL A   1      35.992  21.509  25.949  1.00  0.00     0.042 C 
BRANCH  40  41
ATOM     41  C   UNL A   1      37.121  22.526  26.127  1.00  0.00     0.118 C 
BRANCH  41  42
ATOM     42  N   UNL A   1      38.459  21.971  26.017  1.00  0.00    -0.352 N 
ATOM     43  C   UNL A   1      39.679  22.302  26.531  1.00  0.00     0.251 C 
ATOM     44  H   UNL A   1      38.493  21.174  25.438  1.00  0.00     0.163 HD
ATOM     45  O   UNL A   1      40.559  21.439  26.477  1.00  0.00    -0.269 OA
BRANCH  43  46
ATOM     46  C   UNL A   1      40.035  23.638  27.065  1.00  0.00     0.039 A 
ATOM     47  C   UNL A   1      41.254  23.967  27.654  1.00  0.00     0.014 A 
ATOM     48  C   UNL A   1      39.000  24.592  27.070  1.00  0.00     0.014 A 
ATOM     49  C   UNL A   1      41.402  25.168  28.330  1.00  0.00     0.010 A 
ATOM     50  C   UNL A   1      39.150  25.808  27.721  1.00  0.00     0.010 A 
ATOM     51  C   UNL A   1      40.334  26.064  28.399  1.00  0.00    -0.014 A 
BRANCH  51  52
ATOM     52  C   UNL A   1      40.547  27.296  29.141  1.00  0.00     0.031 A 
ATOM     53  C   UNL A   1      41.462  28.275  28.488  1.00  0.00     0.074 A 
ATOM     54  C   UNL A   1      39.912  27.584  30.292  1.00  0.00     0.049 A 
ATOM     55  N   UNL A   1      42.578  28.744  28.941  1.00  0.00    -0.248 NA
ATOM     56  C   UNL A   1      41.145  28.698  27.115  1.00  0.00     0.031 C 
ATOM     57  C   UNL A   1      38.793  26.886  30.928  1.00  0.00     0.029 A 
ATOM     58  N   UNL A   1      40.079  28.676  31.082  1.00  0.00    -0.354 N 
ATOM     59  C   UNL A   1      43.054  29.623  27.971  1.00  0.00     0.074 A 
ATOM     60  C   UNL A   1      42.189  29.475  26.827  1.00  0.00     0.031 C 
ATOM     61  C   UNL A   1      38.215  27.713  31.830  1.00  0.00     0.029 A 
ATOM     62  C   UNL A   1      39.015  28.923  31.935  1.00  0.00     0.049 A 
ATOM     63  H   UNL A   1      40.885  29.240  31.053  1.00  0.00     0.167 HD
ATOM     64  C   UNL A   1      44.035  30.533  28.226  1.00  0.00     0.031 A 
ATOM     65  C   UNL A   1      38.770  30.092  32.576  1.00  0.00     0.031 A 
ATOM     66  C   UNL A   1      44.774  30.216  29.417  1.00  0.00     0.049 A 
ATOM     67  C   UNL A   1      40.055  30.835  32.646  1.00  0.00     0.074 A 
ATOM     68  C   UNL A   1      45.563  29.150  29.802  1.00  0.00     0.029 A 
ATOM     69  N   UNL A   1      44.448  30.876  30.578  1.00  0.00    -0.354 N 
ATOM     70  N   UNL A   1      41.081  30.429  33.340  1.00  0.00    -0.248 NA
ATOM     71  C   UNL A   1      40.356  31.776  31.576  1.00  0.00     0.031 C 
ATOM     72  C   UNL A   1      45.222  28.925  31.166  1.00  0.00     0.029 A 
ATOM     73  C   UNL A   1      44.310  29.913  31.545  1.00  0.00     0.049 A 
ATOM     74  H   UNL A   1      44.335  31.848  30.693  1.00  0.00     0.167 HD
ATOM     75  C   UNL A   1      42.181  30.706  32.540  1.00  0.00     0.074 A 
ATOM     76  C   UNL A   1      41.680  31.611  31.504  1.00  0.00     0.031 C 
ATOM     77  C   UNL A   1      43.324  29.960  32.603  1.00  0.00     0.031 A 
BRANCH  64  78
ATOM     78  C   UNL A   1      44.120  31.878  27.560  1.00  0.00    -0.014 A 
ATOM     79  C   UNL A   1      43.691  33.063  28.186  1.00  0.00     0.009 A 
ATOM     80  C   UNL A   1      44.887  32.021  26.389  1.00  0.00     0.009 A 
ATOM     81  C   UNL A   1      44.011  34.326  27.682  1.00  0.00     0.001 A 
ATOM     82  C   UNL A   1      45.244  33.285  25.904  1.00  0.00     0.001 A 
ATOM     83  C   UNL A   1      44.810  34.437  26.553  1.00  0.00     0.000 A 
ENDBRANCH  64  78
BRANCH  65  84
ATOM     84  C   UNL A   1      37.456  30.776  32.658  1.00  0.00    -0.014 A 
ATOM     85  C   UNL A   1      36.548  30.710  31.582  1.00  0.00     0.009 A 
ATOM     86  C   UNL A   1      37.208  31.730  33.658  1.00  0.00     0.009 A 
ATOM     87  C   UNL A   1      35.464  31.587  31.484  1.00  0.00     0.001 A 
ATOM     88  C   UNL A   1      36.122  32.613  33.557  1.00  0.00     0.001 A 
ATOM     89  C   UNL A   1      35.262  32.551  32.463  1.00  0.00     0.000 A 
ENDBRANCH  65  84
BRANCH  77  90
ATOM     90  C   UNL A   1      43.449  28.894  33.669  1.00  0.00    -0.014 A 
ATOM     91  C   UNL A   1      44.236  29.170  34.798  1.00  0.00     0.009 A 
ATOM     92  C   UNL A   1      43.008  27.571  33.480  1.00  0.00     0.009 A 
ATOM     93  C   UNL A   1      44.591  28.159  35.695  1.00  0.00     0.001 A 
ATOM     94  C   UNL A   1      43.342  26.563  34.392  1.00  0.00     0.001 A 
ATOM     95  C   UNL A   1      44.144  26.855  35.492  1.00  0.00     0.000 A 
ENDBRANCH  77  90
ENDBRANCH  51  52
ENDBRANCH  43  46
ENDBRANCH  41  42
ENDBRANCH  40  41
ENDBRANCH   1  40
TORSDOF 16
ENDMDL
