MODEL 1
REMARK VINA RESULT:     -10.6      0.000      0.000
REMARK SMILES Cc1nsc(N(C)C(=O)[C@@H](C)CCC[C@H](C)[NH3+])c1C(=O)NCCCNC(=O)c1ccc(-c2c3nc(c(-c4ccccc4)c4ccc([nH]4)c(-c4ccccc4)c4nc(c(-c5ccccc5)c5ccc2[nH]5)C=C4)C=C3)cc1
REMARK SMILES IDX 1 1 2 2 3 3 4 4 5 5 18 6 19 7 20 8 21 9 22 11 23 12 24 13
REMARK SMILES IDX 25 14 26 15 27 17 28 18 29 19 75 20 30 21 74 22 31 23 32 24
REMARK SMILES IDX 33 25 68 26 34 27 73 28 67 29 69 30 35 31 72 32 66 33 65 34
REMARK SMILES IDX 36 36 58 37 43 38 57 39 44 40 47 41 56 42 70 43 45 44 46 45
REMARK SMILES IDX 55 47 71 48 48 49 37 50 38 51 42 52 39 53 41 54 40 55 59 56
REMARK SMILES IDX 60 57 64 58 61 59 63 60 62 61 49 62 50 63 54 64 51 65 53 66
REMARK SMILES IDX 52 67 6 68 7 69 8 70 9 71 10 72 11 73 12 74 13 75 14 76
REMARK SMILES IDX 15 77 16 78 17 79
REMARK H PARENT 21 10 25 16 69 35 47 46 17 80 17 81 17 82
REMARK Flexibility Score: inf
ROOT
ATOM      1  C   UNL A   1      36.567  24.002  25.797  1.00  0.00     0.069 C 
ATOM      2  C   UNL A   1      35.139  23.570  25.880  1.00  0.00     0.066 A 
ATOM      3  N   UNL A   1      34.938  22.554  26.714  1.00  0.00    -0.195 NA
ATOM      4  S   UNL A   1      33.340  22.310  26.886  1.00  0.00    -0.017 S 
ATOM      5  C   UNL A   1      32.805  23.506  25.769  1.00  0.00     0.131 A 
ATOM      6  C   UNL A   1      33.949  24.111  25.209  1.00  0.00     0.097 A 
ENDROOT
BRANCH   6   7
ATOM      7  C   UNL A   1      33.896  25.222  24.250  1.00  0.00     0.256 C 
ATOM      8  O   UNL A   1      33.747  25.017  23.042  1.00  0.00    -0.269 OA
ATOM      9  N   UNL A   1      34.018  26.544  24.659  1.00  0.00    -0.352 N 
ATOM     10  H   UNL A   1      34.330  27.178  23.974  1.00  0.00     0.163 HD
BRANCH   9  11
ATOM     11  C   UNL A   1      33.745  27.109  25.964  1.00  0.00     0.118 C 
BRANCH  11  12
ATOM     12  C   UNL A   1      33.725  28.617  26.146  1.00  0.00     0.042 C 
BRANCH  12  13
ATOM     13  C   UNL A   1      34.850  29.201  26.967  1.00  0.00     0.118 C 
BRANCH  13  14
ATOM     14  N   UNL A   1      34.780  30.641  27.207  1.00  0.00    -0.352 N 
ATOM     15  C   UNL A   1      35.464  31.340  28.188  1.00  0.00     0.251 C 
ATOM     16  H   UNL A   1      34.192  31.164  26.615  1.00  0.00     0.163 HD
ATOM     17  O   UNL A   1      35.133  32.483  28.505  1.00  0.00    -0.269 OA
BRANCH  15  18
ATOM     18  C   UNL A   1      36.596  30.674  28.863  1.00  0.00     0.039 A 
ATOM     19  C   UNL A   1      36.394  29.695  29.836  1.00  0.00     0.014 A 
ATOM     20  C   UNL A   1      37.885  30.983  28.426  1.00  0.00     0.014 A 
ATOM     21  C   UNL A   1      37.490  28.954  30.274  1.00  0.00     0.010 A 
ATOM     22  C   UNL A   1      38.936  30.156  28.741  1.00  0.00     0.010 A 
ATOM     23  C   UNL A   1      38.755  29.155  29.686  1.00  0.00    -0.014 A 
BRANCH  23  24
ATOM     24  C   UNL A   1      39.832  28.185  29.890  1.00  0.00     0.031 A 
ATOM     25  C   UNL A   1      40.285  28.139  31.305  1.00  0.00     0.074 A 
ATOM     26  C   UNL A   1      40.253  27.285  28.971  1.00  0.00     0.049 A 
ATOM     27  N   UNL A   1      41.363  28.665  31.782  1.00  0.00    -0.248 NA
ATOM     28  C   UNL A   1      39.360  27.647  32.343  1.00  0.00     0.031 C 
ATOM     29  C   UNL A   1      39.675  27.029  27.645  1.00  0.00     0.029 A 
ATOM     30  N   UNL A   1      41.234  26.334  29.050  1.00  0.00    -0.354 N 
ATOM     31  C   UNL A   1      41.389  28.314  33.127  1.00  0.00     0.074 A 
ATOM     32  C   UNL A   1      40.048  27.910  33.458  1.00  0.00     0.031 C 
ATOM     33  C   UNL A   1      40.157  25.866  27.148  1.00  0.00     0.029 A 
ATOM     34  C   UNL A   1      41.203  25.382  28.030  1.00  0.00     0.049 A 
ATOM     35  H   UNL A   1      41.907  26.323  29.769  1.00  0.00     0.167 HD
ATOM     36  C   UNL A   1      42.583  28.043  33.727  1.00  0.00     0.031 A 
ATOM     37  C   UNL A   1      41.994  24.285  27.896  1.00  0.00     0.031 A 
ATOM     38  C   UNL A   1      43.674  28.456  32.876  1.00  0.00     0.049 A 
ATOM     39  C   UNL A   1      43.212  24.528  28.692  1.00  0.00     0.074 A 
ATOM     40  C   UNL A   1      44.236  29.641  32.458  1.00  0.00     0.029 A 
ATOM     41  N   UNL A   1      44.043  27.487  31.980  1.00  0.00    -0.354 N 
ATOM     42  N   UNL A   1      44.108  25.407  28.353  1.00  0.00    -0.248 NA
ATOM     43  C   UNL A   1      43.289  24.042  30.062  1.00  0.00     0.031 C 
ATOM     44  C   UNL A   1      44.818  29.372  31.183  1.00  0.00     0.029 A 
ATOM     45  C   UNL A   1      44.666  28.019  30.889  1.00  0.00     0.049 A 
ATOM     46  H   UNL A   1      43.880  26.524  32.109  1.00  0.00     0.167 HD
ATOM     47  C   UNL A   1      44.527  25.927  29.559  1.00  0.00     0.074 A 
ATOM     48  C   UNL A   1      44.153  24.932  30.558  1.00  0.00     0.031 C 
ATOM     49  C   UNL A   1      44.817  27.254  29.672  1.00  0.00     0.031 A 
BRANCH  36  50
ATOM     50  C   UNL A   1      42.796  26.917  34.725  1.00  0.00    -0.014 A 
ATOM     51  C   UNL A   1      42.890  25.602  34.222  1.00  0.00     0.009 A 
ATOM     52  C   UNL A   1      42.599  27.037  36.113  1.00  0.00     0.009 A 
ATOM     53  C   UNL A   1      42.702  24.482  35.042  1.00  0.00     0.001 A 
ATOM     54  C   UNL A   1      42.440  25.920  36.940  1.00  0.00     0.001 A 
ATOM     55  C   UNL A   1      42.464  24.643  36.401  1.00  0.00     0.000 A 
ENDBRANCH  36  50
BRANCH  37  56
ATOM     56  C   UNL A   1      41.804  22.984  27.218  1.00  0.00    -0.014 A 
ATOM     57  C   UNL A   1      42.814  22.450  26.395  1.00  0.00     0.009 A 
ATOM     58  C   UNL A   1      40.778  22.122  27.634  1.00  0.00     0.009 A 
ATOM     59  C   UNL A   1      42.834  21.089  26.061  1.00  0.00     0.001 A 
ATOM     60  C   UNL A   1      40.799  20.760  27.301  1.00  0.00     0.001 A 
ATOM     61  C   UNL A   1      41.837  20.241  26.532  1.00  0.00     0.000 A 
ENDBRANCH  37  56
BRANCH  49  62
ATOM     62  C   UNL A   1      45.175  27.994  28.415  1.00  0.00    -0.014 A 
ATOM     63  C   UNL A   1      44.267  28.751  27.658  1.00  0.00     0.009 A 
ATOM     64  C   UNL A   1      46.521  27.972  28.027  1.00  0.00     0.009 A 
ATOM     65  C   UNL A   1      44.700  29.448  26.525  1.00  0.00     0.001 A 
ATOM     66  C   UNL A   1      46.956  28.685  26.912  1.00  0.00     0.001 A 
ATOM     67  C   UNL A   1      46.045  29.417  26.156  1.00  0.00     0.000 A 
ENDBRANCH  49  62
ENDBRANCH  23  24
ENDBRANCH  15  18
ENDBRANCH  13  14
ENDBRANCH  12  13
ENDBRANCH  11  12
ENDBRANCH   9  11
ENDBRANCH   6   7
BRANCH   5  68
ATOM     68  N   UNL A   1      31.391  23.655  25.639  1.00  0.00    -0.305 N 
ATOM     69  C   UNL A   1      30.470  23.034  26.600  1.00  0.00     0.154 C 
BRANCH  68  70
ATOM     70  C   UNL A   1      30.900  24.334  24.521  1.00  0.00     0.230 C 
ATOM     71  O   UNL A   1      30.832  23.789  23.409  1.00  0.00    -0.274 OA
BRANCH  70  72
ATOM     72  C   UNL A   1      30.297  25.760  24.650  1.00  0.00     0.076 C 
ATOM     73  C   UNL A   1      30.474  26.316  26.069  1.00  0.00     0.018 C 
BRANCH  72  74
ATOM     74  C   UNL A   1      30.659  26.817  23.586  1.00  0.00     0.013 C 
BRANCH  74  75
ATOM     75  C   UNL A   1      29.509  27.713  23.118  1.00  0.00     0.007 C 
BRANCH  75  76
ATOM     76  C   UNL A   1      29.511  29.180  23.572  1.00  0.00     0.064 C 
BRANCH  76  77
ATOM     77  C   UNL A   1      29.486  30.260  22.470  1.00  0.00     0.177 C 
ATOM     78  C   UNL A   1      28.261  30.228  21.559  1.00  0.00     0.075 C 
BRANCH  77  79
ATOM     79  N   UNL A   1      30.663  30.078  21.610  1.00  0.00    -0.355 N 
ATOM     80  H   UNL A   1      31.504  30.043  22.185  1.00  0.00     0.344 HD
ATOM     81  H   UNL A   1      30.730  30.858  20.956  1.00  0.00     0.344 HD
ATOM     82  H   UNL A   1      30.571  29.206  21.089  1.00  0.00     0.344 HD
ENDBRANCH  77  79
ENDBRANCH  76  77
ENDBRANCH  75  76
ENDBRANCH  74  75
ENDBRANCH  72  74
ENDBRANCH  70  72
ENDBRANCH  68  70
ENDBRANCH   5  68
TORSDOF 18
ENDMDL
MODEL 2
REMARK VINA RESULT:     -10.5      1.937      6.033
REMARK SMILES Cc1nsc(N(C)C(=O)[C@@H](C)CCC[C@H](C)[NH3+])c1C(=O)NCCCNC(=O)c1ccc(-c2c3nc(c(-c4ccccc4)c4ccc([nH]4)c(-c4ccccc4)c4nc(c(-c5ccccc5)c5ccc2[nH]5)C=C4)C=C3)cc1
REMARK SMILES IDX 1 1 2 2 3 3 4 4 5 5 18 6 19 7 20 8 21 9 22 11 23 12 24 13
REMARK SMILES IDX 25 14 26 15 27 17 28 18 29 19 75 20 30 21 74 22 31 23 32 24
REMARK SMILES IDX 33 25 68 26 34 27 73 28 67 29 69 30 35 31 72 32 66 33 65 34
REMARK SMILES IDX 36 36 58 37 43 38 57 39 44 40 47 41 56 42 70 43 45 44 46 45
REMARK SMILES IDX 55 47 71 48 48 49 37 50 38 51 42 52 39 53 41 54 40 55 59 56
REMARK SMILES IDX 60 57 64 58 61 59 63 60 62 61 49 62 50 63 54 64 51 65 53 66
REMARK SMILES IDX 52 67 6 68 7 69 8 70 9 71 10 72 11 73 12 74 13 75 14 76
REMARK SMILES IDX 15 77 16 78 17 79
REMARK H PARENT 21 10 25 16 69 35 47 46 17 80 17 81 17 82
REMARK Flexibility Score: inf
ROOT
ATOM      1  C   UNL A   1      36.230  24.041  25.686  1.00  0.00     0.069 C 
ATOM      2  C   UNL A   1      34.748  23.883  25.582  1.00  0.00     0.066 A 
ATOM      3  N   UNL A   1      34.298  22.736  26.084  1.00  0.00    -0.195 NA
ATOM      4  S   UNL A   1      32.673  22.764  26.111  1.00  0.00    -0.017 S 
ATOM      5  C   UNL A   1      32.459  24.297  25.357  1.00  0.00     0.131 A 
ATOM      6  C   UNL A   1      33.737  24.801  25.041  1.00  0.00     0.097 A 
ENDROOT
BRANCH   6   7
ATOM      7  C   UNL A   1      33.966  26.119  24.435  1.00  0.00     0.256 C 
ATOM      8  O   UNL A   1      34.176  26.238  23.225  1.00  0.00    -0.269 OA
ATOM      9  N   UNL A   1      33.960  27.281  25.195  1.00  0.00    -0.352 N 
ATOM     10  H   UNL A   1      34.457  28.043  24.819  1.00  0.00     0.163 HD
BRANCH   9  11
ATOM     11  C   UNL A   1      33.315  27.518  26.470  1.00  0.00     0.118 C 
BRANCH  11  12
ATOM     12  C   UNL A   1      33.615  28.790  27.245  1.00  0.00     0.042 C 
BRANCH  12  13
ATOM     13  C   UNL A   1      35.073  29.074  27.516  1.00  0.00     0.118 C 
BRANCH  13  14
ATOM     14  N   UNL A   1      35.348  29.962  28.644  1.00  0.00    -0.352 N 
ATOM     15  C   UNL A   1      36.495  29.967  29.419  1.00  0.00     0.251 C 
ATOM     16  H   UNL A   1      34.651  30.619  28.875  1.00  0.00     0.163 HD
ATOM     17  O   UNL A   1      36.526  30.536  30.511  1.00  0.00    -0.269 OA
BRANCH  15  18
ATOM     18  C   UNL A   1      37.686  29.255  28.913  1.00  0.00     0.039 A 
ATOM     19  C   UNL A   1      38.363  29.682  27.770  1.00  0.00     0.014 A 
ATOM     20  C   UNL A   1      38.179  28.192  29.672  1.00  0.00     0.014 A 
ATOM     21  C   UNL A   1      39.596  29.105  27.471  1.00  0.00     0.010 A 
ATOM     22  C   UNL A   1      39.458  27.733  29.466  1.00  0.00     0.010 A 
ATOM     23  C   UNL A   1      40.164  28.164  28.352  1.00  0.00    -0.014 A 
BRANCH  23  24
ATOM     24  C   UNL A   1      41.575  27.793  28.235  1.00  0.00     0.031 A 
ATOM     25  C   UNL A   1      41.761  26.508  27.510  1.00  0.00     0.074 A 
ATOM     26  C   UNL A   1      42.619  28.593  28.560  1.00  0.00     0.049 A 
ATOM     27  N   UNL A   1      42.034  25.364  28.038  1.00  0.00    -0.248 NA
ATOM     28  C   UNL A   1      41.404  26.429  26.082  1.00  0.00     0.031 C 
ATOM     29  C   UNL A   1      42.565  29.994  28.996  1.00  0.00     0.029 A 
ATOM     30  N   UNL A   1      43.965  28.360  28.487  1.00  0.00    -0.354 N 
ATOM     31  C   UNL A   1      42.170  24.481  26.972  1.00  0.00     0.074 A 
ATOM     32  C   UNL A   1      41.547  25.121  25.845  1.00  0.00     0.031 C 
ATOM     33  C   UNL A   1      43.800  30.545  28.929  1.00  0.00     0.029 A 
ATOM     34  C   UNL A   1      44.759  29.502  28.619  1.00  0.00     0.049 A 
ATOM     35  H   UNL A   1      44.343  27.461  28.352  1.00  0.00     0.167 HD
ATOM     36  C   UNL A   1      43.099  23.485  27.040  1.00  0.00     0.031 A 
ATOM     37  C   UNL A   1      46.110  29.588  28.508  1.00  0.00     0.031 A 
ATOM     38  C   UNL A   1      43.604  23.366  28.387  1.00  0.00     0.049 A 
ATOM     39  C   UNL A   1      46.652  28.237  28.742  1.00  0.00     0.074 A 
ATOM     40  C   UNL A   1      43.142  22.916  29.603  1.00  0.00     0.029 A 
ATOM     41  N   UNL A   1      44.662  24.201  28.632  1.00  0.00    -0.354 N 
ATOM     42  N   UNL A   1      46.630  27.664  29.908  1.00  0.00    -0.248 NA
ATOM     43  C   UNL A   1      46.921  27.359  27.611  1.00  0.00     0.031 C 
ATOM     44  C   UNL A   1      43.861  23.651  30.593  1.00  0.00     0.029 A 
ATOM     45  C   UNL A   1      44.795  24.471  29.963  1.00  0.00     0.049 A 
ATOM     46  H   UNL A   1      45.255  24.563  27.934  1.00  0.00     0.167 HD
ATOM     47  C   UNL A   1      46.394  26.337  29.615  1.00  0.00     0.074 A 
ATOM     48  C   UNL A   1      46.780  26.178  28.217  1.00  0.00     0.031 C 
ATOM     49  C   UNL A   1      45.591  25.587  30.421  1.00  0.00     0.031 A 
BRANCH  36  50
ATOM     50  C   UNL A   1      43.970  23.056  25.871  1.00  0.00    -0.014 A 
ATOM     51  C   UNL A   1      44.127  21.672  25.643  1.00  0.00     0.009 A 
ATOM     52  C   UNL A   1      44.869  23.901  25.196  1.00  0.00     0.009 A 
ATOM     53  C   UNL A   1      45.177  21.166  24.866  1.00  0.00     0.001 A 
ATOM     54  C   UNL A   1      45.902  23.401  24.396  1.00  0.00     0.001 A 
ATOM     55  C   UNL A   1      46.073  22.032  24.253  1.00  0.00     0.000 A 
ENDBRANCH  36  50
BRANCH  37  56
ATOM     56  C   UNL A   1      47.020  30.695  28.140  1.00  0.00    -0.014 A 
ATOM     57  C   UNL A   1      46.890  31.349  26.900  1.00  0.00     0.009 A 
ATOM     58  C   UNL A   1      47.795  31.320  29.129  1.00  0.00     0.009 A 
ATOM     59  C   UNL A   1      47.455  32.613  26.684  1.00  0.00     0.001 A 
ATOM     60  C   UNL A   1      48.359  32.585  28.912  1.00  0.00     0.001 A 
ATOM     61  C   UNL A   1      48.172  33.240  27.697  1.00  0.00     0.000 A 
ENDBRANCH  37  56
BRANCH  49  62
ATOM     62  C   UNL A   1      45.411  26.045  31.839  1.00  0.00    -0.014 A 
ATOM     63  C   UNL A   1      44.353  26.856  32.281  1.00  0.00     0.009 A 
ATOM     64  C   UNL A   1      46.330  25.566  32.783  1.00  0.00     0.009 A 
ATOM     65  C   UNL A   1      44.238  27.195  33.633  1.00  0.00     0.001 A 
ATOM     66  C   UNL A   1      46.202  25.886  34.133  1.00  0.00     0.001 A 
ATOM     67  C   UNL A   1      45.161  26.706  34.558  1.00  0.00     0.000 A 
ENDBRANCH  49  62
ENDBRANCH  23  24
ENDBRANCH  15  18
ENDBRANCH  13  14
ENDBRANCH  12  13
ENDBRANCH  11  12
ENDBRANCH   9  11
ENDBRANCH   6   7
BRANCH   5  68
ATOM     68  N   UNL A   1      31.109  24.742  25.214  1.00  0.00    -0.305 N 
ATOM     69  C   UNL A   1      30.182  24.735  26.353  1.00  0.00     0.154 C 
BRANCH  68  70
ATOM     70  C   UNL A   1      30.665  25.102  23.939  1.00  0.00     0.230 C 
ATOM     71  O   UNL A   1      30.370  24.247  23.090  1.00  0.00    -0.274 OA
BRANCH  70  72
ATOM     72  C   UNL A   1      30.399  26.588  23.572  1.00  0.00     0.076 C 
ATOM     73  C   UNL A   1      31.098  26.974  22.263  1.00  0.00     0.018 C 
BRANCH  72  74
ATOM     74  C   UNL A   1      28.948  27.111  23.608  1.00  0.00     0.013 C 
BRANCH  74  75
ATOM     75  C   UNL A   1      28.669  28.360  22.768  1.00  0.00     0.007 C 
BRANCH  75  76
ATOM     76  C   UNL A   1      28.897  29.731  23.423  1.00  0.00     0.064 C 
BRANCH  76  77
ATOM     77  C   UNL A   1      29.496  30.845  22.538  1.00  0.00     0.177 C 
ATOM     78  C   UNL A   1      28.474  31.759  21.868  1.00  0.00     0.075 C 
BRANCH  77  79
ATOM     79  N   UNL A   1      30.278  30.219  21.464  1.00  0.00    -0.355 N 
ATOM     80  H   UNL A   1      31.015  30.857  21.162  1.00  0.00     0.344 HD
ATOM     81  H   UNL A   1      29.665  30.010  20.675  1.00  0.00     0.344 HD
ATOM     82  H   UNL A   1      30.696  29.354  21.807  1.00  0.00     0.344 HD
ENDBRANCH  77  79
ENDBRANCH  76  77
ENDBRANCH  75  76
ENDBRANCH  74  75
ENDBRANCH  72  74
ENDBRANCH  70  72
ENDBRANCH  68  70
ENDBRANCH   5  68
TORSDOF 18
ENDMDL
MODEL 3
REMARK VINA RESULT:     -10.4      2.525      4.393
REMARK SMILES Cc1nsc(N(C)C(=O)[C@@H](C)CCC[C@H](C)[NH3+])c1C(=O)NCCCNC(=O)c1ccc(-c2c3nc(c(-c4ccccc4)c4ccc([nH]4)c(-c4ccccc4)c4nc(c(-c5ccccc5)c5ccc2[nH]5)C=C4)C=C3)cc1
REMARK SMILES IDX 1 1 2 2 3 3 4 4 5 5 18 6 19 7 20 8 21 9 22 11 23 12 24 13
REMARK SMILES IDX 25 14 26 15 27 17 28 18 29 19 75 20 30 21 74 22 31 23 32 24
REMARK SMILES IDX 33 25 68 26 34 27 73 28 67 29 69 30 35 31 72 32 66 33 65 34
REMARK SMILES IDX 36 36 58 37 43 38 57 39 44 40 47 41 56 42 70 43 45 44 46 45
REMARK SMILES IDX 55 47 71 48 48 49 37 50 38 51 42 52 39 53 41 54 40 55 59 56
REMARK SMILES IDX 60 57 64 58 61 59 63 60 62 61 49 62 50 63 54 64 51 65 53 66
REMARK SMILES IDX 52 67 6 68 7 69 8 70 9 71 10 72 11 73 12 74 13 75 14 76
REMARK SMILES IDX 15 77 16 78 17 79
REMARK H PARENT 21 10 25 16 69 35 47 46 17 80 17 81 17 82
REMARK Flexibility Score: inf
ROOT
ATOM      1  C   UNL A   1      30.609  29.276  23.954  1.00  0.00     0.069 C 
ATOM      2  C   UNL A   1      31.324  27.995  23.672  1.00  0.00     0.066 A 
ATOM      3  N   UNL A   1      32.056  28.027  22.562  1.00  0.00    -0.195 NA
ATOM      4  S   UNL A   1      32.948  26.671  22.468  1.00  0.00    -0.017 S 
ATOM      5  C   UNL A   1      32.335  25.898  23.879  1.00  0.00     0.131 A 
ATOM      6  C   UNL A   1      31.355  26.742  24.439  1.00  0.00     0.097 A 
ENDROOT
BRANCH   6   7
ATOM      7  C   UNL A   1      30.642  26.447  25.689  1.00  0.00     0.256 C 
ATOM      8  O   UNL A   1      29.697  25.654  25.714  1.00  0.00    -0.269 OA
ATOM      9  N   UNL A   1      30.997  27.049  26.889  1.00  0.00    -0.352 N 
ATOM     10  H   UNL A   1      30.291  27.093  27.573  1.00  0.00     0.163 HD
BRANCH   9  11
ATOM     11  C   UNL A   1      32.273  27.622  27.264  1.00  0.00     0.118 C 
BRANCH  11  12
ATOM     12  C   UNL A   1      32.476  29.126  27.201  1.00  0.00     0.042 C 
BRANCH  12  13
ATOM     13  C   UNL A   1      33.888  29.594  26.939  1.00  0.00     0.118 C 
BRANCH  13  14
ATOM     14  N   UNL A   1      34.077  31.043  26.888  1.00  0.00    -0.352 N 
ATOM     15  C   UNL A   1      34.988  31.775  27.631  1.00  0.00     0.251 C 
ATOM     16  H   UNL A   1      33.503  31.546  26.265  1.00  0.00     0.163 HD
ATOM     17  O   UNL A   1      34.886  32.997  27.742  1.00  0.00    -0.269 OA
BRANCH  15  18
ATOM     18  C   UNL A   1      36.082  31.051  28.309  1.00  0.00     0.039 A 
ATOM     19  C   UNL A   1      36.141  29.657  28.319  1.00  0.00     0.014 A 
ATOM     20  C   UNL A   1      37.118  31.808  28.859  1.00  0.00     0.014 A 
ATOM     21  C   UNL A   1      37.304  29.042  28.780  1.00  0.00     0.010 A 
ATOM     22  C   UNL A   1      38.317  31.212  29.169  1.00  0.00     0.010 A 
ATOM     23  C   UNL A   1      38.411  29.827  29.159  1.00  0.00    -0.014 A 
BRANCH  23  24
ATOM     24  C   UNL A   1      39.730  29.217  29.333  1.00  0.00     0.031 A 
ATOM     25  C   UNL A   1      40.018  28.898  30.757  1.00  0.00     0.074 A 
ATOM     26  C   UNL A   1      40.533  28.799  28.326  1.00  0.00     0.049 A 
ATOM     27  N   UNL A   1      40.789  29.562  31.549  1.00  0.00    -0.248 NA
ATOM     28  C   UNL A   1      39.218  27.866  31.441  1.00  0.00     0.031 C 
ATOM     29  C   UNL A   1      40.224  28.780  26.890  1.00  0.00     0.029 A 
ATOM     30  N   UNL A   1      41.769  28.213  28.367  1.00  0.00    -0.354 N 
ATOM     31  C   UNL A   1      40.793  28.858  32.748  1.00  0.00     0.074 A 
ATOM     32  C   UNL A   1      39.649  27.986  32.700  1.00  0.00     0.031 C 
ATOM     33  C   UNL A   1      41.129  28.018  26.233  1.00  0.00     0.029 A 
ATOM     34  C   UNL A   1      42.179  27.640  27.161  1.00  0.00     0.049 A 
ATOM     35  H   UNL A   1      42.323  28.197  29.180  1.00  0.00     0.167 HD
ATOM     36  C   UNL A   1      41.936  28.800  33.489  1.00  0.00     0.031 A 
ATOM     37  C   UNL A   1      43.311  26.927  26.927  1.00  0.00     0.031 A 
ATOM     38  C   UNL A   1      42.898  29.757  32.996  1.00  0.00     0.049 A 
ATOM     39  C   UNL A   1      44.277  27.285  27.982  1.00  0.00     0.074 A 
ATOM     40  C   UNL A   1      43.055  31.124  32.996  1.00  0.00     0.029 A 
ATOM     41  N   UNL A   1      43.675  29.254  31.984  1.00  0.00    -0.354 N 
ATOM     42  N   UNL A   1      44.843  28.453  28.050  1.00  0.00    -0.248 NA
ATOM     43  C   UNL A   1      44.373  26.465  29.182  1.00  0.00     0.031 C 
ATOM     44  C   UNL A   1      43.826  31.432  31.835  1.00  0.00     0.029 A 
ATOM     45  C   UNL A   1      44.186  30.246  31.199  1.00  0.00     0.049 A 
ATOM     46  H   UNL A   1      43.844  28.294  31.842  1.00  0.00     0.167 HD
ATOM     47  C   UNL A   1      44.924  28.698  29.404  1.00  0.00     0.074 A 
ATOM     48  C   UNL A   1      44.816  27.389  30.039  1.00  0.00     0.031 C 
ATOM     49  C   UNL A   1      44.721  29.957  29.888  1.00  0.00     0.031 A 
BRANCH  36  50
ATOM     50  C   UNL A   1      42.419  27.552  34.208  1.00  0.00    -0.014 A 
ATOM     51  C   UNL A   1      43.420  26.779  33.581  1.00  0.00     0.009 A 
ATOM     52  C   UNL A   1      41.746  26.942  35.282  1.00  0.00     0.009 A 
ATOM     53  C   UNL A   1      43.661  25.448  33.945  1.00  0.00     0.001 A 
ATOM     54  C   UNL A   1      42.004  25.622  35.667  1.00  0.00     0.001 A 
ATOM     55  C   UNL A   1      42.942  24.865  34.981  1.00  0.00     0.000 A 
ENDBRANCH  36  50
BRANCH  37  56
ATOM     56  C   UNL A   1      43.658  25.889  25.931  1.00  0.00    -0.014 A 
ATOM     57  C   UNL A   1      44.994  25.702  25.526  1.00  0.00     0.009 A 
ATOM     58  C   UNL A   1      42.737  24.876  25.627  1.00  0.00     0.009 A 
ATOM     59  C   UNL A   1      45.404  24.514  24.904  1.00  0.00     0.001 A 
ATOM     60  C   UNL A   1      43.147  23.688  25.006  1.00  0.00     0.001 A 
ATOM     61  C   UNL A   1      44.484  23.499  24.664  1.00  0.00     0.000 A 
ENDBRANCH  37  56
BRANCH  49  62
ATOM     62  C   UNL A   1      44.931  31.104  28.944  1.00  0.00    -0.014 A 
ATOM     63  C   UNL A   1      43.916  31.680  28.162  1.00  0.00     0.009 A 
ATOM     64  C   UNL A   1      46.213  31.669  28.904  1.00  0.00     0.009 A 
ATOM     65  C   UNL A   1      44.192  32.780  27.344  1.00  0.00     0.001 A 
ATOM     66  C   UNL A   1      46.482  32.779  28.107  1.00  0.00     0.001 A 
ATOM     67  C   UNL A   1      45.474  33.331  27.321  1.00  0.00     0.000 A 
ENDBRANCH  49  62
ENDBRANCH  23  24
ENDBRANCH  15  18
ENDBRANCH  13  14
ENDBRANCH  12  13
ENDBRANCH  11  12
ENDBRANCH   9  11
ENDBRANCH   6   7
BRANCH   5  68
ATOM     68  N   UNL A   1      32.911  24.631  24.199  1.00  0.00    -0.305 N 
ATOM     69  C   UNL A   1      34.354  24.487  24.428  1.00  0.00     0.154 C 
BRANCH  68  70
ATOM     70  C   UNL A   1      32.076  23.510  24.203  1.00  0.00     0.230 C 
ATOM     71  O   UNL A   1      31.230  23.328  23.314  1.00  0.00    -0.274 OA
BRANCH  70  72
ATOM     72  C   UNL A   1      32.259  22.377  25.251  1.00  0.00     0.076 C 
ATOM     73  C   UNL A   1      31.433  22.646  26.515  1.00  0.00     0.018 C 
BRANCH  72  74
ATOM     74  C   UNL A   1      32.117  20.912  24.790  1.00  0.00     0.013 C 
BRANCH  74  75
ATOM     75  C   UNL A   1      33.249  19.970  25.207  1.00  0.00     0.007 C 
BRANCH  75  76
ATOM     76  C   UNL A   1      33.736  18.935  24.181  1.00  0.00     0.064 C 
BRANCH  76  77
ATOM     77  C   UNL A   1      32.808  17.735  23.894  1.00  0.00     0.177 C 
ATOM     78  C   UNL A   1      33.515  16.389  23.754  1.00  0.00     0.075 C 
BRANCH  77  79
ATOM     79  N   UNL A   1      32.105  17.981  22.627  1.00  0.00    -0.355 N 
ATOM     80  H   UNL A   1      31.702  17.109  22.286  1.00  0.00     0.344 HD
ATOM     81  H   UNL A   1      32.764  18.344  21.938  1.00  0.00     0.344 HD
ATOM     82  H   UNL A   1      31.362  18.663  22.778  1.00  0.00     0.344 HD
ENDBRANCH  77  79
ENDBRANCH  76  77
ENDBRANCH  75  76
ENDBRANCH  74  75
ENDBRANCH  72  74
ENDBRANCH  70  72
ENDBRANCH  68  70
ENDBRANCH   5  68
TORSDOF 18
ENDMDL
