MODEL 1
REMARK VINA RESULT:     -12.4      0.000      0.000
REMARK SMILES C[C@@H]([C@H]1CC=CS1)n1nccc1NC(=O)CC1(CC(=O)NCCCNC(=O)c2ccc(-c3c4nc(c(-c5ccccc5)c5ccc([nH]5)c(-c5ccccc5)c5nc(c(-c6ccccc6)c6ccc3[nH]6)C=C5)C=C4)cc2)CCCCC1
REMARK SMILES IDX 19 1 20 2 21 3 18 5 17 6 76 7 80 8 77 9 79 10 78 11 16 12
REMARK SMILES IDX 14 13 13 14 15 16 12 17 8 18 9 19 10 20 11 21 2 22 1 23 3 24
REMARK SMILES IDX 4 25 7 26 5 27 6 28 22 29 23 30 24 31 25 32 26 33 27 35
REMARK SMILES IDX 28 36 29 37 75 38 30 39 74 40 31 41 32 42 33 43 68 44 34 45
REMARK SMILES IDX 73 46 67 47 69 48 35 49 72 50 66 51 65 52 36 54 58 55 43 56
REMARK SMILES IDX 57 57 44 58 47 59 56 60 70 61 45 62 46 63 55 65 71 66 48 67
REMARK SMILES IDX 37 68 38 69 42 70 39 71 41 72 40 73 59 74 60 75 64 76 61 77
REMARK SMILES IDX 63 78 62 79 49 80 50 81 54 82 51 83 53 84 52 85
REMARK H PARENT 21 4 13 15 25 34 69 53 47 64
REMARK Flexibility Score: inf
ROOT
ATOM      1  C   UNL A   1      32.003  28.313  27.371  1.00  0.00     0.220 C 
ATOM      2  O   UNL A   1      31.456  27.658  28.258  1.00  0.00    -0.275 OA
ATOM      3  N   UNL A   1      31.582  29.587  27.166  1.00  0.00    -0.356 N 
ATOM      4  H   UNL A   1      30.842  29.879  27.746  1.00  0.00     0.163 HD
ENDROOT
BRANCH   1   5
ATOM      5  C   UNL A   1      33.108  27.692  26.529  1.00  0.00     0.107 C 
BRANCH   5   6
ATOM      6  C   UNL A   1      32.742  26.479  25.617  1.00  0.00    -0.012 C 
ATOM      7  C   UNL A   1      33.731  26.480  24.418  1.00  0.00     0.008 C 
ATOM      8  C   UNL A   1      31.350  26.549  24.939  1.00  0.00     0.008 C 
ATOM      9  C   UNL A   1      33.558  27.630  23.414  1.00  0.00     0.001 C 
ATOM     10  C   UNL A   1      31.136  27.749  24.024  1.00  0.00     0.001 C 
ATOM     11  C   UNL A   1      32.131  27.711  22.880  1.00  0.00     0.000 C 
BRANCH   6  12
ATOM     12  C   UNL A   1      32.719  25.151  26.453  1.00  0.00     0.108 C 
BRANCH  12  13
ATOM     13  C   UNL A   1      31.513  24.238  26.368  1.00  0.00     0.226 C 
ATOM     14  N   UNL A   1      31.399  23.231  25.359  1.00  0.00    -0.311 N 
ATOM     15  H   UNL A   1      30.650  22.598  25.449  1.00  0.00     0.171 HD
ATOM     16  O   UNL A   1      30.575  24.269  27.136  1.00  0.00    -0.275 OA
BRANCH  14  17
ATOM     17  C   UNL A   1      32.230  23.057  24.273  1.00  0.00     0.131 A 
ATOM     18  N   UNL A   1      33.430  22.373  24.255  1.00  0.00    -0.246 N 
ATOM     19  N   UNL A   1      34.091  22.546  23.096  1.00  0.00    -0.179 NA
ATOM     20  C   UNL A   1      33.253  23.233  22.327  1.00  0.00     0.137 A 
ATOM     21  C   UNL A   1      32.042  23.503  22.982  1.00  0.00     0.068 A 
BRANCH  18  22
ATOM     22  C   UNL A   1      33.862  21.339  25.198  1.00  0.00     0.120 C 
ATOM     23  C   UNL A   1      33.459  19.994  24.591  1.00  0.00     0.034 C 
BRANCH  22  24
ATOM     24  C   UNL A   1      35.318  21.439  25.735  1.00  0.00     0.079 C 
ATOM     25  C   UNL A   1      36.330  20.554  24.964  1.00  0.00     0.045 C 
ATOM     26  S   UNL A   1      36.151  23.080  25.794  1.00  0.00    -0.128 SA
ATOM     27  C   UNL A   1      37.698  21.140  25.134  1.00  0.00    -0.019 C 
ATOM     28  C   UNL A   1      37.722  22.410  25.548  1.00  0.00     0.037 C 
ENDBRANCH  22  24
ENDBRANCH  18  22
ENDBRANCH  14  17
ENDBRANCH  12  13
ENDBRANCH   6  12
ENDBRANCH   5   6
ENDBRANCH   1   5
BRANCH   3  29
ATOM     29  C   UNL A   1      32.052  30.584  26.220  1.00  0.00     0.117 C 
BRANCH  29  30
ATOM     30  C   UNL A   1      31.668  31.998  26.657  1.00  0.00     0.042 C 
BRANCH  30  31
ATOM     31  C   UNL A   1      32.746  32.703  27.423  1.00  0.00     0.118 C 
BRANCH  31  32
ATOM     32  N   UNL A   1      32.491  34.120  27.682  1.00  0.00    -0.352 N 
ATOM     33  C   UNL A   1      33.037  34.889  28.713  1.00  0.00     0.251 C 
ATOM     34  H   UNL A   1      31.874  34.578  27.068  1.00  0.00     0.163 HD
ATOM     35  O   UNL A   1      32.538  35.943  29.062  1.00  0.00    -0.269 OA
BRANCH  33  36
ATOM     36  C   UNL A   1      34.262  34.368  29.354  1.00  0.00     0.039 A 
ATOM     37  C   UNL A   1      34.299  33.577  30.504  1.00  0.00     0.014 A 
ATOM     38  C   UNL A   1      35.403  34.554  28.609  1.00  0.00     0.014 A 
ATOM     39  C   UNL A   1      35.513  32.962  30.829  1.00  0.00     0.010 A 
ATOM     40  C   UNL A   1      36.291  33.536  28.634  1.00  0.00     0.010 A 
ATOM     41  C   UNL A   1      36.523  32.972  29.864  1.00  0.00    -0.014 A 
BRANCH  41  42
ATOM     42  C   UNL A   1      37.853  32.399  29.983  1.00  0.00     0.031 A 
ATOM     43  C   UNL A   1      37.946  30.985  29.568  1.00  0.00     0.074 A 
ATOM     44  C   UNL A   1      38.942  33.203  30.111  1.00  0.00     0.049 A 
ATOM     45  N   UNL A   1      38.184  29.962  30.314  1.00  0.00    -0.248 NA
ATOM     46  C   UNL A   1      37.581  30.646  28.181  1.00  0.00     0.031 C 
ATOM     47  C   UNL A   1      39.011  34.679  30.157  1.00  0.00     0.029 A 
ATOM     48  N   UNL A   1      40.255  32.869  30.087  1.00  0.00    -0.354 N 
ATOM     49  C   UNL A   1      38.215  28.871  29.456  1.00  0.00     0.074 A 
ATOM     50  C   UNL A   1      37.623  29.312  28.219  1.00  0.00     0.031 C 
ATOM     51  C   UNL A   1      40.273  35.092  29.909  1.00  0.00     0.029 A 
ATOM     52  C   UNL A   1      41.134  33.927  29.872  1.00  0.00     0.049 A 
ATOM     53  H   UNL A   1      40.566  31.943  30.212  1.00  0.00     0.167 HD
ATOM     54  C   UNL A   1      38.983  27.779  29.727  1.00  0.00     0.031 A 
ATOM     55  C   UNL A   1      42.471  33.841  29.659  1.00  0.00     0.031 A 
ATOM     56  C   UNL A   1      39.473  27.804  31.083  1.00  0.00     0.049 A 
ATOM     57  C   UNL A   1      42.892  32.502  30.138  1.00  0.00     0.074 A 
ATOM     58  C   UNL A   1      38.880  27.818  32.330  1.00  0.00     0.029 A 
ATOM     59  N   UNL A   1      40.754  28.270  31.272  1.00  0.00    -0.354 N 
ATOM     60  N   UNL A   1      42.821  32.142  31.388  1.00  0.00    -0.248 NA
ATOM     61  C   UNL A   1      42.895  31.412  29.173  1.00  0.00     0.031 C 
ATOM     62  C   UNL A   1      39.651  28.749  33.088  1.00  0.00     0.029 A 
ATOM     63  C   UNL A   1      40.719  29.181  32.297  1.00  0.00     0.049 A 
ATOM     64  H   UNL A   1      41.552  27.999  30.762  1.00  0.00     0.167 HD
ATOM     65  C   UNL A   1      42.333  30.842  31.358  1.00  0.00     0.074 A 
ATOM     66  C   UNL A   1      42.479  30.417  29.964  1.00  0.00     0.031 C 
ATOM     67  C   UNL A   1      41.576  30.345  32.383  1.00  0.00     0.031 A 
BRANCH  54  68
ATOM     68  C   UNL A   1      39.633  26.930  28.666  1.00  0.00    -0.014 A 
ATOM     69  C   UNL A   1      40.434  27.561  27.698  1.00  0.00     0.009 A 
ATOM     70  C   UNL A   1      39.277  25.591  28.416  1.00  0.00     0.009 A 
ATOM     71  C   UNL A   1      40.799  26.905  26.516  1.00  0.00     0.001 A 
ATOM     72  C   UNL A   1      39.674  24.920  27.257  1.00  0.00     0.001 A 
ATOM     73  C   UNL A   1      40.411  25.588  26.293  1.00  0.00     0.000 A 
ENDBRANCH  54  68
BRANCH  55  74
ATOM     74  C   UNL A   1      43.322  34.687  28.787  1.00  0.00    -0.014 A 
ATOM     75  C   UNL A   1      44.607  35.089  29.185  1.00  0.00     0.009 A 
ATOM     76  C   UNL A   1      42.973  34.875  27.436  1.00  0.00     0.009 A 
ATOM     77  C   UNL A   1      45.516  35.626  28.259  1.00  0.00     0.001 A 
ATOM     78  C   UNL A   1      43.881  35.409  26.512  1.00  0.00     0.001 A 
ATOM     79  C   UNL A   1      45.158  35.771  26.921  1.00  0.00     0.000 A 
ENDBRANCH  55  74
BRANCH  67  80
ATOM     80  C   UNL A   1      41.420  31.199  33.624  1.00  0.00    -0.014 A 
ATOM     81  C   UNL A   1      42.296  31.127  34.725  1.00  0.00     0.009 A 
ATOM     82  C   UNL A   1      40.469  32.226  33.607  1.00  0.00     0.009 A 
ATOM     83  C   UNL A   1      42.207  32.042  35.781  1.00  0.00     0.001 A 
ATOM     84  C   UNL A   1      40.390  33.151  34.653  1.00  0.00     0.001 A 
ATOM     85  C   UNL A   1      41.256  33.058  35.741  1.00  0.00     0.000 A 
ENDBRANCH  67  80
ENDBRANCH  41  42
ENDBRANCH  33  36
ENDBRANCH  31  32
ENDBRANCH  30  31
ENDBRANCH  29  30
ENDBRANCH   3  29
TORSDOF 16
ENDMDL
MODEL 2
REMARK VINA RESULT:     -12.3      3.989      9.146
REMARK SMILES C[C@@H]([C@H]1CC=CS1)n1nccc1NC(=O)CC1(CC(=O)NCCCNC(=O)c2ccc(-c3c4nc(c(-c5ccccc5)c5ccc([nH]5)c(-c5ccccc5)c5nc(c(-c6ccccc6)c6ccc3[nH]6)C=C5)C=C4)cc2)CCCCC1
REMARK SMILES IDX 19 1 20 2 21 3 18 5 17 6 76 7 80 8 77 9 79 10 78 11 16 12
REMARK SMILES IDX 14 13 13 14 15 16 12 17 8 18 9 19 10 20 11 21 2 22 1 23 3 24
REMARK SMILES IDX 4 25 7 26 5 27 6 28 22 29 23 30 24 31 25 32 26 33 27 35
REMARK SMILES IDX 28 36 29 37 75 38 30 39 74 40 31 41 32 42 33 43 68 44 34 45
REMARK SMILES IDX 73 46 67 47 69 48 35 49 72 50 66 51 65 52 36 54 58 55 43 56
REMARK SMILES IDX 57 57 44 58 47 59 56 60 70 61 45 62 46 63 55 65 71 66 48 67
REMARK SMILES IDX 37 68 38 69 42 70 39 71 41 72 40 73 59 74 60 75 64 76 61 77
REMARK SMILES IDX 63 78 62 79 49 80 50 81 54 82 51 83 53 84 52 85
REMARK H PARENT 21 4 13 15 25 34 69 53 47 64
REMARK Flexibility Score: inf
ROOT
ATOM      1  C   UNL A   1      34.806  21.740  26.576  1.00  0.00     0.220 C 
ATOM      2  O   UNL A   1      34.487  21.870  27.758  1.00  0.00    -0.275 OA
ATOM      3  N   UNL A   1      36.125  21.621  26.280  1.00  0.00    -0.356 N 
ATOM      4  H   UNL A   1      36.731  21.670  27.054  1.00  0.00     0.163 HD
ENDROOT
BRANCH   1   5
ATOM      5  C   UNL A   1      33.739  21.728  25.490  1.00  0.00     0.107 C 
BRANCH   5   6
ATOM      6  C   UNL A   1      33.090  23.088  25.085  1.00  0.00    -0.012 C 
ATOM      7  C   UNL A   1      31.927  22.777  24.103  1.00  0.00     0.008 C 
ATOM      8  C   UNL A   1      34.000  24.049  24.279  1.00  0.00     0.008 C 
ATOM      9  C   UNL A   1      32.345  22.260  22.719  1.00  0.00     0.001 C 
ATOM     10  C   UNL A   1      34.507  23.497  22.951  1.00  0.00     0.001 C 
ATOM     11  C   UNL A   1      33.335  23.198  22.035  1.00  0.00     0.000 C 
BRANCH   6  12
ATOM     12  C   UNL A   1      32.677  23.901  26.363  1.00  0.00     0.108 C 
BRANCH  12  13
ATOM     13  C   UNL A   1      31.321  24.574  26.411  1.00  0.00     0.226 C 
ATOM     14  N   UNL A   1      31.136  25.929  25.993  1.00  0.00    -0.311 N 
ATOM     15  H   UNL A   1      30.206  26.251  25.934  1.00  0.00     0.171 HD
ATOM     16  O   UNL A   1      30.300  24.033  26.781  1.00  0.00    -0.275 OA
BRANCH  14  17
ATOM     17  C   UNL A   1      32.126  26.831  25.665  1.00  0.00     0.131 A 
ATOM     18  N   UNL A   1      32.365  27.374  24.418  1.00  0.00    -0.246 N 
ATOM     19  N   UNL A   1      33.516  28.071  24.385  1.00  0.00    -0.179 NA
ATOM     20  C   UNL A   1      33.943  28.081  25.642  1.00  0.00     0.137 A 
ATOM     21  C   UNL A   1      33.068  27.395  26.499  1.00  0.00     0.068 A 
BRANCH  18  22
ATOM     22  C   UNL A   1      31.410  27.483  23.313  1.00  0.00     0.120 C 
ATOM     23  C   UNL A   1      31.281  26.087  22.702  1.00  0.00     0.034 C 
BRANCH  22  24
ATOM     24  C   UNL A   1      30.076  28.228  23.606  1.00  0.00     0.079 C 
ATOM     25  C   UNL A   1      29.827  29.449  22.685  1.00  0.00     0.045 C 
ATOM     26  S   UNL A   1      28.485  27.304  23.523  1.00  0.00    -0.128 SA
ATOM     27  C   UNL A   1      28.353  29.707  22.628  1.00  0.00    -0.019 C 
ATOM     28  C   UNL A   1      27.585  28.691  23.027  1.00  0.00     0.037 C 
ENDBRANCH  22  24
ENDBRANCH  18  22
ENDBRANCH  14  17
ENDBRANCH  12  13
ENDBRANCH   6  12
ENDBRANCH   5   6
ENDBRANCH   1   5
BRANCH   3  29
ATOM     29  C   UNL A   1      36.780  21.435  24.997  1.00  0.00     0.117 C 
BRANCH  29  30
ATOM     30  C   UNL A   1      37.711  20.223  25.012  1.00  0.00     0.042 C 
BRANCH  30  31
ATOM     31  C   UNL A   1      39.040  20.493  25.651  1.00  0.00     0.118 C 
BRANCH  31  32
ATOM     32  N   UNL A   1      39.892  19.317  25.822  1.00  0.00    -0.352 N 
ATOM     33  C   UNL A   1      41.277  19.311  26.004  1.00  0.00     0.251 C 
ATOM     34  H   UNL A   1      39.444  18.440  25.808  1.00  0.00     0.163 HD
ATOM     35  O   UNL A   1      41.947  18.314  25.810  1.00  0.00    -0.269 OA
BRANCH  33  36
ATOM     36  C   UNL A   1      41.893  20.575  26.460  1.00  0.00     0.039 A 
ATOM     37  C   UNL A   1      42.538  21.503  25.641  1.00  0.00     0.014 A 
ATOM     38  C   UNL A   1      41.610  20.891  27.769  1.00  0.00     0.014 A 
ATOM     39  C   UNL A   1      42.836  22.755  26.188  1.00  0.00     0.010 A 
ATOM     40  C   UNL A   1      41.390  22.201  28.020  1.00  0.00     0.010 A 
ATOM     41  C   UNL A   1      42.254  23.081  27.416  1.00  0.00    -0.014 A 
BRANCH  41  42
ATOM     42  C   UNL A   1      42.422  24.315  28.164  1.00  0.00     0.031 A 
ATOM     43  C   UNL A   1      41.329  25.292  27.981  1.00  0.00     0.074 A 
ATOM     44  C   UNL A   1      43.305  24.382  29.194  1.00  0.00     0.049 A 
ATOM     45  N   UNL A   1      41.392  26.439  27.398  1.00  0.00    -0.248 NA
ATOM     46  C   UNL A   1      39.964  24.880  28.355  1.00  0.00     0.031 C 
ATOM     47  C   UNL A   1      44.199  23.332  29.726  1.00  0.00     0.029 A 
ATOM     48  N   UNL A   1      43.494  25.381  30.091  1.00  0.00    -0.354 N 
ATOM     49  C   UNL A   1      40.124  26.993  27.524  1.00  0.00     0.074 A 
ATOM     50  C   UNL A   1      39.249  25.916  27.909  1.00  0.00     0.031 C 
ATOM     51  C   UNL A   1      44.626  23.668  30.964  1.00  0.00     0.029 A 
ATOM     52  C   UNL A   1      44.196  25.025  31.239  1.00  0.00     0.049 A 
ATOM     53  H   UNL A   1      43.158  26.294  29.941  1.00  0.00     0.167 HD
ATOM     54  C   UNL A   1      39.944  28.341  27.583  1.00  0.00     0.031 A 
ATOM     55  C   UNL A   1      44.388  25.789  32.343  1.00  0.00     0.031 A 
ATOM     56  C   UNL A   1      41.145  29.050  27.213  1.00  0.00     0.049 A 
ATOM     57  C   UNL A   1      44.122  27.192  31.940  1.00  0.00     0.074 A 
ATOM     58  C   UNL A   1      41.928  29.106  26.078  1.00  0.00     0.029 A 
ATOM     59  N   UNL A   1      41.941  29.500  28.241  1.00  0.00    -0.354 N 
ATOM     60  N   UNL A   1      44.853  27.830  31.071  1.00  0.00    -0.248 NA
ATOM     61  C   UNL A   1      42.765  27.693  32.103  1.00  0.00     0.031 C 
ATOM     62  C   UNL A   1      43.270  29.101  26.563  1.00  0.00     0.029 A 
ATOM     63  C   UNL A   1      43.232  29.134  27.958  1.00  0.00     0.049 A 
ATOM     64  H   UNL A   1      41.638  29.996  29.037  1.00  0.00     0.167 HD
ATOM     65  C   UNL A   1      43.944  28.512  30.272  1.00  0.00     0.074 A 
ATOM     66  C   UNL A   1      42.680  28.458  31.009  1.00  0.00     0.031 C 
ATOM     67  C   UNL A   1      44.218  28.784  28.960  1.00  0.00     0.031 A 
BRANCH  54  68
ATOM     68  C   UNL A   1      38.846  29.004  28.374  1.00  0.00    -0.014 A 
ATOM     69  C   UNL A   1      38.740  28.718  29.747  1.00  0.00     0.009 A 
ATOM     70  C   UNL A   1      37.759  29.674  27.782  1.00  0.00     0.009 A 
ATOM     71  C   UNL A   1      37.580  29.027  30.466  1.00  0.00     0.001 A 
ATOM     72  C   UNL A   1      36.616  30.021  28.507  1.00  0.00     0.001 A 
ATOM     73  C   UNL A   1      36.516  29.671  29.844  1.00  0.00     0.000 A 
ENDBRANCH  54  68
BRANCH  55  74
ATOM     74  C   UNL A   1      44.458  25.361  33.761  1.00  0.00    -0.014 A 
ATOM     75  C   UNL A   1      45.400  25.908  34.647  1.00  0.00     0.009 A 
ATOM     76  C   UNL A   1      43.410  24.603  34.318  1.00  0.00     0.009 A 
ATOM     77  C   UNL A   1      45.278  25.731  36.035  1.00  0.00     0.001 A 
ATOM     78  C   UNL A   1      43.286  24.427  35.702  1.00  0.00     0.001 A 
ATOM     79  C   UNL A   1      44.212  25.004  36.561  1.00  0.00     0.000 A 
ENDBRANCH  55  74
BRANCH  67  80
ATOM     80  C   UNL A   1      45.606  28.462  28.447  1.00  0.00    -0.014 A 
ATOM     81  C   UNL A   1      45.971  27.196  27.950  1.00  0.00     0.009 A 
ATOM     82  C   UNL A   1      46.518  29.514  28.298  1.00  0.00     0.009 A 
ATOM     83  C   UNL A   1      47.215  26.987  27.343  1.00  0.00     0.001 A 
ATOM     84  C   UNL A   1      47.755  29.312  27.677  1.00  0.00     0.001 A 
ATOM     85  C   UNL A   1      48.106  28.049  27.202  1.00  0.00     0.000 A 
ENDBRANCH  67  80
ENDBRANCH  41  42
ENDBRANCH  33  36
ENDBRANCH  31  32
ENDBRANCH  30  31
ENDBRANCH  29  30
ENDBRANCH   3  29
TORSDOF 16
ENDMDL
MODEL 3
REMARK VINA RESULT:     -12.2      4.248      9.352
REMARK SMILES C[C@@H]([C@H]1CC=CS1)n1nccc1NC(=O)CC1(CC(=O)NCCCNC(=O)c2ccc(-c3c4nc(c(-c5ccccc5)c5ccc([nH]5)c(-c5ccccc5)c5nc(c(-c6ccccc6)c6ccc3[nH]6)C=C5)C=C4)cc2)CCCCC1
REMARK SMILES IDX 19 1 20 2 21 3 18 5 17 6 76 7 80 8 77 9 79 10 78 11 16 12
REMARK SMILES IDX 14 13 13 14 15 16 12 17 8 18 9 19 10 20 11 21 2 22 1 23 3 24
REMARK SMILES IDX 4 25 7 26 5 27 6 28 22 29 23 30 24 31 25 32 26 33 27 35
REMARK SMILES IDX 28 36 29 37 75 38 30 39 74 40 31 41 32 42 33 43 68 44 34 45
REMARK SMILES IDX 73 46 67 47 69 48 35 49 72 50 66 51 65 52 36 54 58 55 43 56
REMARK SMILES IDX 57 57 44 58 47 59 56 60 70 61 45 62 46 63 55 65 71 66 48 67
REMARK SMILES IDX 37 68 38 69 42 70 39 71 41 72 40 73 59 74 60 75 64 76 61 77
REMARK SMILES IDX 63 78 62 79 49 80 50 81 54 82 51 83 53 84 52 85
REMARK H PARENT 21 4 13 15 25 34 69 53 47 64
REMARK Flexibility Score: inf
ROOT
ATOM      1  C   UNL A   1      36.359  23.210  25.005  1.00  0.00     0.220 C 
ATOM      2  O   UNL A   1      36.633  24.328  25.442  1.00  0.00    -0.275 OA
ATOM      3  N   UNL A   1      36.857  22.130  25.658  1.00  0.00    -0.356 N 
ATOM      4  H   UNL A   1      37.426  22.339  26.434  1.00  0.00     0.163 HD
ENDROOT
BRANCH   1   5
ATOM      5  C   UNL A   1      35.495  23.063  23.760  1.00  0.00     0.107 C 
BRANCH   5   6
ATOM      6  C   UNL A   1      34.043  23.633  23.803  1.00  0.00    -0.012 C 
ATOM      7  C   UNL A   1      33.489  23.391  25.235  1.00  0.00     0.008 C 
ATOM      8  C   UNL A   1      33.017  22.918  22.889  1.00  0.00     0.008 C 
ATOM      9  C   UNL A   1      33.209  21.926  25.601  1.00  0.00     0.001 C 
ATOM     10  C   UNL A   1      32.816  21.435  23.180  1.00  0.00     0.001 C 
ATOM     11  C   UNL A   1      32.286  21.251  24.589  1.00  0.00     0.000 C 
BRANCH   6  12
ATOM     12  C   UNL A   1      34.028  25.131  23.333  1.00  0.00     0.108 C 
BRANCH  12  13
ATOM     13  C   UNL A   1      33.046  25.567  22.266  1.00  0.00     0.226 C 
ATOM     14  N   UNL A   1      31.737  26.040  22.593  1.00  0.00    -0.311 N 
ATOM     15  H   UNL A   1      31.208  26.424  21.855  1.00  0.00     0.171 HD
ATOM     16  O   UNL A   1      33.283  25.568  21.076  1.00  0.00    -0.275 OA
BRANCH  14  17
ATOM     17  C   UNL A   1      31.140  26.015  23.835  1.00  0.00     0.131 A 
ATOM     18  N   UNL A   1      30.997  27.081  24.702  1.00  0.00    -0.246 N 
ATOM     19  N   UNL A   1      30.544  26.691  25.908  1.00  0.00    -0.179 NA
ATOM     20  C   UNL A   1      30.275  25.397  25.768  1.00  0.00     0.137 A 
ATOM     21  C   UNL A   1      30.546  24.943  24.468  1.00  0.00     0.068 A 
BRANCH  18  22
ATOM     22  C   UNL A   1      31.021  28.503  24.353  1.00  0.00     0.120 C 
ATOM     23  C   UNL A   1      32.474  28.853  24.029  1.00  0.00     0.034 C 
BRANCH  22  24
ATOM     24  C   UNL A   1      29.954  28.996  23.333  1.00  0.00     0.079 C 
ATOM     25  C   UNL A   1      28.682  28.113  23.285  1.00  0.00     0.045 C 
ATOM     26  S   UNL A   1      29.279  30.703  23.482  1.00  0.00    -0.128 SA
ATOM     27  C   UNL A   1      27.546  28.945  22.775  1.00  0.00    -0.019 C 
ATOM     28  C   UNL A   1      27.743  30.265  22.830  1.00  0.00     0.037 C 
ENDBRANCH  22  24
ENDBRANCH  18  22
ENDBRANCH  14  17
ENDBRANCH  12  13
ENDBRANCH   6  12
ENDBRANCH   5   6
ENDBRANCH   1   5
BRANCH   3  29
ATOM     29  C   UNL A   1      36.683  20.713  25.387  1.00  0.00     0.117 C 
BRANCH  29  30
ATOM     30  C   UNL A   1      37.970  20.081  24.857  1.00  0.00     0.042 C 
BRANCH  30  31
ATOM     31  C   UNL A   1      39.166  20.334  25.724  1.00  0.00     0.118 C 
BRANCH  31  32
ATOM     32  N   UNL A   1      40.076  19.198  25.866  1.00  0.00    -0.352 N 
ATOM     33  C   UNL A   1      41.465  19.256  26.002  1.00  0.00     0.251 C 
ATOM     34  H   UNL A   1      39.668  18.302  25.866  1.00  0.00     0.163 HD
ATOM     35  O   UNL A   1      42.173  18.290  25.784  1.00  0.00    -0.269 OA
BRANCH  33  36
ATOM     36  C   UNL A   1      42.037  20.546  26.439  1.00  0.00     0.039 A 
ATOM     37  C   UNL A   1      42.589  21.513  25.596  1.00  0.00     0.014 A 
ATOM     38  C   UNL A   1      41.808  20.837  27.764  1.00  0.00     0.014 A 
ATOM     39  C   UNL A   1      42.850  22.775  26.140  1.00  0.00     0.010 A 
ATOM     40  C   UNL A   1      41.534  22.131  28.040  1.00  0.00     0.010 A 
ATOM     41  C   UNL A   1      42.318  23.060  27.400  1.00  0.00    -0.014 A 
BRANCH  41  42
ATOM     42  C   UNL A   1      42.460  24.296  28.151  1.00  0.00     0.031 A 
ATOM     43  C   UNL A   1      41.364  25.263  27.946  1.00  0.00     0.074 A 
ATOM     44  C   UNL A   1      43.322  24.369  29.200  1.00  0.00     0.049 A 
ATOM     45  N   UNL A   1      41.429  26.411  27.365  1.00  0.00    -0.248 NA
ATOM     46  C   UNL A   1      39.995  24.841  28.293  1.00  0.00     0.031 C 
ATOM     47  C   UNL A   1      44.214  23.326  29.750  1.00  0.00     0.029 A 
ATOM     48  N   UNL A   1      43.485  25.369  30.101  1.00  0.00    -0.354 N 
ATOM     49  C   UNL A   1      40.155  26.955  27.465  1.00  0.00     0.074 A 
ATOM     50  C   UNL A   1      39.281  25.871  27.832  1.00  0.00     0.031 C 
ATOM     51  C   UNL A   1      44.612  23.666  30.996  1.00  0.00     0.029 A 
ATOM     52  C   UNL A   1      44.166  25.019  31.262  1.00  0.00     0.049 A 
ATOM     53  H   UNL A   1      43.144  26.280  29.944  1.00  0.00     0.167 HD
ATOM     54  C   UNL A   1      39.963  28.301  27.521  1.00  0.00     0.031 A 
ATOM     55  C   UNL A   1      44.329  25.785  32.370  1.00  0.00     0.031 A 
ATOM     56  C   UNL A   1      41.165  29.020  27.175  1.00  0.00     0.049 A 
ATOM     57  C   UNL A   1      44.060  27.185  31.962  1.00  0.00     0.074 A 
ATOM     58  C   UNL A   1      41.971  29.083  26.056  1.00  0.00     0.029 A 
ATOM     59  N   UNL A   1      41.937  29.477  28.219  1.00  0.00    -0.354 N 
ATOM     60  N   UNL A   1      44.804  27.829  31.107  1.00  0.00    -0.248 NA
ATOM     61  C   UNL A   1      42.697  27.676  32.097  1.00  0.00     0.031 C 
ATOM     62  C   UNL A   1      43.303  29.089  26.568  1.00  0.00     0.029 A 
ATOM     63  C   UNL A   1      43.236  29.121  27.962  1.00  0.00     0.049 A 
ATOM     64  H   UNL A   1      41.614  29.969  29.008  1.00  0.00     0.167 HD
ATOM     65  C   UNL A   1      43.906  28.504  30.290  1.00  0.00     0.074 A 
ATOM     66  C   UNL A   1      42.628  28.439  31.002  1.00  0.00     0.031 C 
ATOM     67  C   UNL A   1      44.204  28.779  28.984  1.00  0.00     0.031 A 
BRANCH  54  68
ATOM     68  C   UNL A   1      38.844  28.955  28.289  1.00  0.00    -0.014 A 
ATOM     69  C   UNL A   1      38.741  28.705  29.669  1.00  0.00     0.009 A 
ATOM     70  C   UNL A   1      37.740  29.578  27.675  1.00  0.00     0.009 A 
ATOM     71  C   UNL A   1      37.569  29.002  30.375  1.00  0.00     0.001 A 
ATOM     72  C   UNL A   1      36.586  29.913  28.386  1.00  0.00     0.001 A 
ATOM     73  C   UNL A   1      36.490  29.599  29.732  1.00  0.00     0.000 A 
ENDBRANCH  54  68
BRANCH  55  74
ATOM     74  C   UNL A   1      44.374  25.356  33.789  1.00  0.00    -0.014 A 
ATOM     75  C   UNL A   1      43.290  24.697  34.390  1.00  0.00     0.009 A 
ATOM     76  C   UNL A   1      45.600  25.354  34.483  1.00  0.00     0.009 A 
ATOM     77  C   UNL A   1      43.438  24.034  35.620  1.00  0.00     0.001 A 
ATOM     78  C   UNL A   1      45.748  24.691  35.708  1.00  0.00     0.001 A 
ATOM     79  C   UNL A   1      44.670  24.018  36.269  1.00  0.00     0.000 A 
ENDBRANCH  55  74
BRANCH  67  80
ATOM     80  C   UNL A   1      45.605  28.468  28.499  1.00  0.00    -0.014 A 
ATOM     81  C   UNL A   1      46.664  29.395  28.554  1.00  0.00     0.009 A 
ATOM     82  C   UNL A   1      45.906  27.148  28.142  1.00  0.00     0.009 A 
ATOM     83  C   UNL A   1      47.975  29.015  28.241  1.00  0.00     0.001 A 
ATOM     84  C   UNL A   1      47.217  26.763  27.846  1.00  0.00     0.001 A 
ATOM     85  C   UNL A   1      48.251  27.696  27.892  1.00  0.00     0.000 A 
ENDBRANCH  67  80
ENDBRANCH  41  42
ENDBRANCH  33  36
ENDBRANCH  31  32
ENDBRANCH  30  31
ENDBRANCH  29  30
ENDBRANCH   3  29
TORSDOF 16
ENDMDL
