MODEL 1
REMARK VINA RESULT:     -11.1      0.000      0.000
REMARK SMILES C[C@@H](C(=O)NCCCNC(=O)c1ccc(-c2c3nc(c(-c4ccccc4)c4ccc([nH]4)c(-c4ccccc4)c4nc(c(-c5ccccc5)c5ccc2[nH]5)C=C4)C=C3)cc1)c1ccc(C[C@H]2CCC[C@H]2O)cc1
REMARK SMILES IDX 6 1 5 2 3 3 4 4 2 6 1 7 60 8 61 9 72 10 62 11 71 12 63 13
REMARK SMILES IDX 64 14 65 15 66 16 69 17 67 18 68 19 70 20 7 22 8 23 9 24
REMARK SMILES IDX 10 25 11 27 12 28 13 29 59 30 14 31 58 32 15 33 16 34 17 35
REMARK SMILES IDX 52 36 18 37 57 38 51 39 53 40 19 41 56 42 50 43 49 44 20 46
REMARK SMILES IDX 42 47 27 48 41 49 28 50 31 51 40 52 54 53 29 54 30 55 39 57
REMARK SMILES IDX 55 58 32 59 21 60 22 61 26 62 23 63 25 64 24 65 43 66 44 67
REMARK SMILES IDX 48 68 45 69 47 70 46 71 33 72 34 73 38 74 35 75 37 76 36 77
REMARK H PARENT 5 5 70 21 9 26 53 45 31 56
REMARK Flexibility Score: inf
ROOT
ATOM      1  C   UNL A   1      31.558  29.219  25.545  1.00  0.00     0.117 C 
ENDROOT
BRANCH   1   2
ATOM      2  N   UNL A   1      31.084  28.247  24.581  1.00  0.00    -0.356 N 
ATOM      3  C   UNL A   1      31.758  27.645  23.556  1.00  0.00     0.227 C 
ATOM      4  O   UNL A   1      31.070  27.267  22.607  1.00  0.00    -0.274 OA
ATOM      5  H   UNL A   1      30.141  27.982  24.678  1.00  0.00     0.163 HD
BRANCH   3   6
ATOM      6  C   UNL A   1      33.287  27.469  23.641  1.00  0.00     0.105 C 
ATOM      7  C   UNL A   1      33.907  27.890  22.304  1.00  0.00     0.023 C 
BRANCH   6   8
ATOM      8  C   UNL A   1      33.753  26.072  24.079  1.00  0.00    -0.036 A 
ATOM      9  C   UNL A   1      34.056  25.069  23.148  1.00  0.00     0.005 A 
ATOM     10  C   UNL A   1      33.826  25.725  25.440  1.00  0.00     0.005 A 
ATOM     11  C   UNL A   1      34.463  23.799  23.555  1.00  0.00     0.004 A 
ATOM     12  C   UNL A   1      34.186  24.436  25.847  1.00  0.00     0.004 A 
ATOM     13  C   UNL A   1      34.476  23.448  24.903  1.00  0.00    -0.048 A 
BRANCH  13  14
ATOM     14  C   UNL A   1      34.738  22.025  25.319  1.00  0.00     0.041 C 
BRANCH  14  15
ATOM     15  C   UNL A   1      34.097  20.921  24.456  1.00  0.00     0.022 C 
ATOM     16  C   UNL A   1      34.556  19.483  24.753  1.00  0.00     0.007 C 
ATOM     17  C   UNL A   1      32.562  20.832  24.391  1.00  0.00     0.117 C 
ATOM     18  C   UNL A   1      33.375  18.577  24.394  1.00  0.00     0.003 C 
ATOM     19  C   UNL A   1      32.342  19.477  23.727  1.00  0.00     0.032 C 
BRANCH  17  20
ATOM     20  O   UNL A   1      31.899  20.815  25.642  1.00  0.00    -0.393 OA
ATOM     21  H   UNL A   1      31.760  21.725  25.947  1.00  0.00     0.210 HD
ENDBRANCH  17  20
ENDBRANCH  14  15
ENDBRANCH  13  14
ENDBRANCH   6   8
ENDBRANCH   3   6
ENDBRANCH   1   2
BRANCH   1  22
ATOM     22  C   UNL A   1      31.916  28.538  26.869  1.00  0.00     0.042 C 
BRANCH  22  23
ATOM     23  C   UNL A   1      33.310  28.881  27.393  1.00  0.00     0.118 C 
BRANCH  23  24
ATOM     24  N   UNL A   1      33.477  30.303  27.642  1.00  0.00    -0.352 N 
ATOM     25  C   UNL A   1      34.541  30.980  28.190  1.00  0.00     0.251 C 
ATOM     26  H   UNL A   1      32.714  30.866  27.378  1.00  0.00     0.163 HD
ATOM     27  O   UNL A   1      34.417  32.156  28.508  1.00  0.00    -0.269 OA
BRANCH  25  28
ATOM     28  C   UNL A   1      35.824  30.283  28.426  1.00  0.00     0.039 A 
ATOM     29  C   UNL A   1      36.765  30.244  27.394  1.00  0.00     0.014 A 
ATOM     30  C   UNL A   1      36.102  29.670  29.651  1.00  0.00     0.014 A 
ATOM     31  C   UNL A   1      38.019  29.671  27.621  1.00  0.00     0.010 A 
ATOM     32  C   UNL A   1      37.376  29.161  29.897  1.00  0.00     0.010 A 
ATOM     33  C   UNL A   1      38.353  29.174  28.890  1.00  0.00    -0.014 A 
BRANCH  33  34
ATOM     34  C   UNL A   1      39.735  28.728  29.206  1.00  0.00     0.031 A 
ATOM     35  C   UNL A   1      40.725  29.678  29.824  1.00  0.00     0.074 A 
ATOM     36  C   UNL A   1      40.124  27.488  28.846  1.00  0.00     0.049 A 
ATOM     37  N   UNL A   1      41.996  29.492  30.073  1.00  0.00    -0.248 NA
ATOM     38  C   UNL A   1      40.229  31.013  30.193  1.00  0.00     0.031 C 
ATOM     39  C   UNL A   1      39.269  26.483  28.208  1.00  0.00     0.029 A 
ATOM     40  N   UNL A   1      41.344  26.865  28.947  1.00  0.00    -0.354 N 
ATOM     41  C   UNL A   1      42.457  30.690  30.605  1.00  0.00     0.074 A 
ATOM     42  C   UNL A   1      41.336  31.605  30.621  1.00  0.00     0.031 C 
ATOM     43  C   UNL A   1      39.987  25.371  27.984  1.00  0.00     0.029 A 
ATOM     44  C   UNL A   1      41.362  25.599  28.410  1.00  0.00     0.049 A 
ATOM     45  H   UNL A   1      42.131  27.285  29.363  1.00  0.00     0.167 HD
ATOM     46  C   UNL A   1      43.700  30.994  31.046  1.00  0.00     0.031 A 
ATOM     47  C   UNL A   1      42.377  24.728  28.250  1.00  0.00     0.031 A 
ATOM     48  C   UNL A   1      44.809  30.077  31.043  1.00  0.00     0.049 A 
ATOM     49  C   UNL A   1      43.756  25.116  28.713  1.00  0.00     0.074 A 
ATOM     50  C   UNL A   1      46.083  30.271  31.551  1.00  0.00     0.029 A 
ATOM     51  N   UNL A   1      44.785  28.806  30.494  1.00  0.00    -0.354 N 
ATOM     52  N   UNL A   1      44.148  26.214  29.311  1.00  0.00    -0.248 NA
ATOM     53  C   UNL A   1      44.834  24.142  28.477  1.00  0.00     0.031 C 
ATOM     54  C   UNL A   1      46.851  29.145  31.242  1.00  0.00     0.029 A 
ATOM     55  C   UNL A   1      46.038  28.225  30.602  1.00  0.00     0.049 A 
ATOM     56  H   UNL A   1      43.996  28.380  30.088  1.00  0.00     0.167 HD
ATOM     57  C   UNL A   1      45.508  26.054  29.541  1.00  0.00     0.074 A 
ATOM     58  C   UNL A   1      45.869  24.743  29.044  1.00  0.00     0.031 C 
ATOM     59  C   UNL A   1      46.383  26.919  30.106  1.00  0.00     0.031 A 
BRANCH  46  60
ATOM     60  C   UNL A   1      43.952  32.385  31.557  1.00  0.00    -0.014 A 
ATOM     61  C   UNL A   1      44.326  33.425  30.693  1.00  0.00     0.009 A 
ATOM     62  C   UNL A   1      43.710  32.679  32.908  1.00  0.00     0.009 A 
ATOM     63  C   UNL A   1      44.467  34.728  31.176  1.00  0.00     0.001 A 
ATOM     64  C   UNL A   1      43.826  33.986  33.384  1.00  0.00     0.001 A 
ATOM     65  C   UNL A   1      44.208  35.008  32.518  1.00  0.00     0.000 A 
ENDBRANCH  46  60
BRANCH  47  66
ATOM     66  C   UNL A   1      42.151  23.417  27.583  1.00  0.00    -0.014 A 
ATOM     67  C   UNL A   1      41.747  22.295  28.323  1.00  0.00     0.009 A 
ATOM     68  C   UNL A   1      42.389  23.267  26.207  1.00  0.00     0.009 A 
ATOM     69  C   UNL A   1      41.629  21.046  27.710  1.00  0.00     0.001 A 
ATOM     70  C   UNL A   1      42.233  22.025  25.589  1.00  0.00     0.001 A 
ATOM     71  C   UNL A   1      41.870  20.912  26.344  1.00  0.00     0.000 A 
ENDBRANCH  47  66
BRANCH  59  72
ATOM     72  C   UNL A   1      47.811  26.473  30.239  1.00  0.00    -0.014 A 
ATOM     73  C   UNL A   1      48.263  25.821  31.397  1.00  0.00     0.009 A 
ATOM     74  C   UNL A   1      48.700  26.652  29.167  1.00  0.00     0.009 A 
ATOM     75  C   UNL A   1      49.584  25.380  31.488  1.00  0.00     0.001 A 
ATOM     76  C   UNL A   1      50.011  26.181  29.249  1.00  0.00     0.001 A 
ATOM     77  C   UNL A   1      50.454  25.553  30.411  1.00  0.00     0.000 A 
ENDBRANCH  59  72
ENDBRANCH  33  34
ENDBRANCH  25  28
ENDBRANCH  23  24
ENDBRANCH  22  23
ENDBRANCH   1  22
TORSDOF 14
ENDMDL
MODEL 2
REMARK VINA RESULT:     -11.1      3.820      7.074
REMARK SMILES C[C@@H](C(=O)NCCCNC(=O)c1ccc(-c2c3nc(c(-c4ccccc4)c4ccc([nH]4)c(-c4ccccc4)c4nc(c(-c5ccccc5)c5ccc2[nH]5)C=C4)C=C3)cc1)c1ccc(C[C@H]2CCC[C@H]2O)cc1
REMARK SMILES IDX 6 1 5 2 3 3 4 4 2 6 1 7 60 8 61 9 72 10 62 11 71 12 63 13
REMARK SMILES IDX 64 14 65 15 66 16 69 17 67 18 68 19 70 20 7 22 8 23 9 24
REMARK SMILES IDX 10 25 11 27 12 28 13 29 59 30 14 31 58 32 15 33 16 34 17 35
REMARK SMILES IDX 52 36 18 37 57 38 51 39 53 40 19 41 56 42 50 43 49 44 20 46
REMARK SMILES IDX 42 47 27 48 41 49 28 50 31 51 40 52 54 53 29 54 30 55 39 57
REMARK SMILES IDX 55 58 32 59 21 60 22 61 26 62 23 63 25 64 24 65 43 66 44 67
REMARK SMILES IDX 48 68 45 69 47 70 46 71 33 72 34 73 38 74 35 75 37 76 36 77
REMARK H PARENT 5 5 70 21 9 26 53 45 31 56
REMARK Flexibility Score: inf
ROOT
ATOM      1  C   UNL A   1      33.696  35.016  28.982  1.00  0.00     0.117 C 
ENDROOT
BRANCH   1   2
ATOM      2  N   UNL A   1      33.748  36.232  29.770  1.00  0.00    -0.356 N 
ATOM      3  C   UNL A   1      33.079  36.548  30.918  1.00  0.00     0.227 C 
ATOM      4  O   UNL A   1      32.893  37.749  31.121  1.00  0.00    -0.274 OA
ATOM      5  H   UNL A   1      34.352  36.930  29.428  1.00  0.00     0.163 HD
BRANCH   3   6
ATOM      6  C   UNL A   1      32.616  35.428  31.871  1.00  0.00     0.105 C 
ATOM      7  C   UNL A   1      31.507  35.977  32.775  1.00  0.00     0.023 C 
BRANCH   6   8
ATOM      8  C   UNL A   1      33.740  34.760  32.677  1.00  0.00    -0.036 A 
ATOM      9  C   UNL A   1      34.326  35.385  33.787  1.00  0.00     0.005 A 
ATOM     10  C   UNL A   1      34.276  33.520  32.286  1.00  0.00     0.005 A 
ATOM     11  C   UNL A   1      35.357  34.779  34.503  1.00  0.00     0.004 A 
ATOM     12  C   UNL A   1      35.344  32.935  32.975  1.00  0.00     0.004 A 
ATOM     13  C   UNL A   1      35.918  33.578  34.073  1.00  0.00    -0.048 A 
BRANCH  13  14
ATOM     14  C   UNL A   1      37.147  33.027  34.745  1.00  0.00     0.041 C 
BRANCH  14  15
ATOM     15  C   UNL A   1      38.024  32.072  33.913  1.00  0.00     0.022 C 
ATOM     16  C   UNL A   1      39.531  32.380  33.901  1.00  0.00     0.007 C 
ATOM     17  C   UNL A   1      37.940  30.561  34.190  1.00  0.00     0.117 C 
ATOM     18  C   UNL A   1      40.239  31.036  33.704  1.00  0.00     0.003 C 
ATOM     19  C   UNL A   1      39.138  30.020  33.419  1.00  0.00     0.032 C 
BRANCH  17  20
ATOM     20  O   UNL A   1      38.088  30.180  35.546  1.00  0.00    -0.393 OA
ATOM     21  H   UNL A   1      38.103  29.213  35.610  1.00  0.00     0.210 HD
ENDBRANCH  17  20
ENDBRANCH  14  15
ENDBRANCH  13  14
ENDBRANCH   6   8
ENDBRANCH   3   6
ENDBRANCH   1   2
BRANCH   1  22
ATOM     22  C   UNL A   1      35.102  34.590  28.551  1.00  0.00     0.042 C 
BRANCH  22  23
ATOM     23  C   UNL A   1      35.468  33.158  28.936  1.00  0.00     0.118 C 
BRANCH  23  24
ATOM     24  N   UNL A   1      34.486  32.190  28.474  1.00  0.00    -0.352 N 
ATOM     25  C   UNL A   1      34.655  30.877  28.103  1.00  0.00     0.251 C 
ATOM     26  H   UNL A   1      33.562  32.524  28.421  1.00  0.00     0.163 HD
ATOM     27  O   UNL A   1      33.742  30.278  27.548  1.00  0.00    -0.269 OA
BRANCH  25  28
ATOM     28  C   UNL A   1      35.946  30.196  28.342  1.00  0.00     0.039 A 
ATOM     29  C   UNL A   1      36.876  30.136  27.301  1.00  0.00     0.014 A 
ATOM     30  C   UNL A   1      36.243  29.619  29.580  1.00  0.00     0.014 A 
ATOM     31  C   UNL A   1      38.138  29.580  27.529  1.00  0.00     0.010 A 
ATOM     32  C   UNL A   1      37.524  29.127  29.826  1.00  0.00     0.010 A 
ATOM     33  C   UNL A   1      38.490  29.119  28.807  1.00  0.00    -0.014 A 
BRANCH  33  34
ATOM     34  C   UNL A   1      39.879  28.693  29.118  1.00  0.00     0.031 A 
ATOM     35  C   UNL A   1      40.863  29.662  29.715  1.00  0.00     0.074 A 
ATOM     36  C   UNL A   1      40.277  27.452  28.773  1.00  0.00     0.049 A 
ATOM     37  N   UNL A   1      42.138  29.494  29.957  1.00  0.00    -0.248 NA
ATOM     38  C   UNL A   1      40.355  30.997  30.069  1.00  0.00     0.031 C 
ATOM     39  C   UNL A   1      39.429  26.429  28.157  1.00  0.00     0.029 A 
ATOM     40  N   UNL A   1      41.505  26.843  28.874  1.00  0.00    -0.354 N 
ATOM     41  C   UNL A   1      42.590  30.703  30.468  1.00  0.00     0.074 A 
ATOM     42  C   UNL A   1      41.460  31.607  30.479  1.00  0.00     0.031 C 
ATOM     43  C   UNL A   1      40.157  25.321  27.944  1.00  0.00     0.029 A 
ATOM     44  C   UNL A   1      41.533  25.570  28.356  1.00  0.00     0.049 A 
ATOM     45  H   UNL A   1      42.291  27.278  29.278  1.00  0.00     0.167 HD
ATOM     46  C   UNL A   1      43.833  31.027  30.894  1.00  0.00     0.031 A 
ATOM     47  C   UNL A   1      42.556  24.708  28.201  1.00  0.00     0.031 A 
ATOM     48  C   UNL A   1      44.952  30.122  30.896  1.00  0.00     0.049 A 
ATOM     49  C   UNL A   1      43.934  25.117  28.647  1.00  0.00     0.074 A 
ATOM     50  C   UNL A   1      46.227  30.337  31.391  1.00  0.00     0.029 A 
ATOM     51  N   UNL A   1      44.937  28.843  30.366  1.00  0.00    -0.354 N 
ATOM     52  N   UNL A   1      44.318  26.227  29.226  1.00  0.00    -0.248 NA
ATOM     53  C   UNL A   1      45.020  24.151  28.418  1.00  0.00     0.031 C 
ATOM     54  C   UNL A   1      47.005  29.215  31.093  1.00  0.00     0.029 A 
ATOM     55  C   UNL A   1      46.197  28.277  30.473  1.00  0.00     0.049 A 
ATOM     56  H   UNL A   1      44.150  28.403  29.973  1.00  0.00     0.167 HD
ATOM     57  C   UNL A   1      45.682  26.085  29.448  1.00  0.00     0.074 A 
ATOM     58  C   UNL A   1      46.054  24.771  28.968  1.00  0.00     0.031 C 
ATOM     59  C   UNL A   1      46.552  26.968  29.994  1.00  0.00     0.031 A 
BRANCH  46  60
ATOM     60  C   UNL A   1      44.074  32.429  31.383  1.00  0.00    -0.014 A 
ATOM     61  C   UNL A   1      44.465  33.452  30.507  1.00  0.00     0.009 A 
ATOM     62  C   UNL A   1      43.805  32.748  32.723  1.00  0.00     0.009 A 
ATOM     63  C   UNL A   1      44.595  34.764  30.967  1.00  0.00     0.001 A 
ATOM     64  C   UNL A   1      43.911  34.065  33.175  1.00  0.00     0.001 A 
ATOM     65  C   UNL A   1      44.310  35.070  32.298  1.00  0.00     0.000 A 
ENDBRANCH  46  60
BRANCH  47  66
ATOM     66  C   UNL A   1      42.339  23.384  27.555  1.00  0.00    -0.014 A 
ATOM     67  C   UNL A   1      41.904  22.282  28.306  1.00  0.00     0.009 A 
ATOM     68  C   UNL A   1      42.616  23.204  26.190  1.00  0.00     0.009 A 
ATOM     69  C   UNL A   1      41.794  21.021  27.715  1.00  0.00     0.001 A 
ATOM     70  C   UNL A   1      42.468  21.950  25.593  1.00  0.00     0.001 A 
ATOM     71  C   UNL A   1      42.073  20.857  26.360  1.00  0.00     0.000 A 
ENDBRANCH  47  66
BRANCH  59  72
ATOM     72  C   UNL A   1      47.986  26.539  30.122  1.00  0.00    -0.014 A 
ATOM     73  C   UNL A   1      48.444  25.874  31.269  1.00  0.00     0.009 A 
ATOM     74  C   UNL A   1      48.874  26.747  29.055  1.00  0.00     0.009 A 
ATOM     75  C   UNL A   1      49.771  25.449  31.356  1.00  0.00     0.001 A 
ATOM     76  C   UNL A   1      50.192  26.293  29.132  1.00  0.00     0.001 A 
ATOM     77  C   UNL A   1      50.641  25.651  30.284  1.00  0.00     0.000 A 
ENDBRANCH  59  72
ENDBRANCH  33  34
ENDBRANCH  25  28
ENDBRANCH  23  24
ENDBRANCH  22  23
ENDBRANCH   1  22
TORSDOF 14
ENDMDL
MODEL 3
REMARK VINA RESULT:     -11.0      2.183      7.689
REMARK SMILES C[C@@H](C(=O)NCCCNC(=O)c1ccc(-c2c3nc(c(-c4ccccc4)c4ccc([nH]4)c(-c4ccccc4)c4nc(c(-c5ccccc5)c5ccc2[nH]5)C=C4)C=C3)cc1)c1ccc(C[C@H]2CCC[C@H]2O)cc1
REMARK SMILES IDX 6 1 5 2 3 3 4 4 2 6 1 7 60 8 61 9 72 10 62 11 71 12 63 13
REMARK SMILES IDX 64 14 65 15 66 16 69 17 67 18 68 19 70 20 7 22 8 23 9 24
REMARK SMILES IDX 10 25 11 27 12 28 13 29 59 30 14 31 58 32 15 33 16 34 17 35
REMARK SMILES IDX 52 36 18 37 57 38 51 39 53 40 19 41 56 42 50 43 49 44 20 46
REMARK SMILES IDX 42 47 27 48 41 49 28 50 31 51 40 52 54 53 29 54 30 55 39 57
REMARK SMILES IDX 55 58 32 59 21 60 22 61 26 62 23 63 25 64 24 65 43 66 44 67
REMARK SMILES IDX 48 68 45 69 47 70 46 71 33 72 34 73 38 74 35 75 37 76 36 77
REMARK H PARENT 5 5 70 21 9 26 53 45 31 56
REMARK Flexibility Score: inf
ROOT
ATOM      1  C   UNL A   1      36.456  21.621  24.590  1.00  0.00     0.117 C 
ENDROOT
BRANCH   1   2
ATOM      2  N   UNL A   1      35.065  21.217  24.646  1.00  0.00    -0.356 N 
ATOM      3  C   UNL A   1      34.136  21.448  25.620  1.00  0.00     0.227 C 
ATOM      4  O   UNL A   1      33.220  20.628  25.697  1.00  0.00    -0.274 OA
ATOM      5  H   UNL A   1      34.745  20.702  23.871  1.00  0.00     0.163 HD
BRANCH   3   6
ATOM      6  C   UNL A   1      34.271  22.683  26.533  1.00  0.00     0.105 C 
ATOM      7  C   UNL A   1      33.601  22.376  27.877  1.00  0.00     0.023 C 
BRANCH   6   8
ATOM      8  C   UNL A   1      33.763  23.997  25.922  1.00  0.00    -0.036 A 
ATOM      9  C   UNL A   1      34.511  24.710  24.975  1.00  0.00     0.005 A 
ATOM     10  C   UNL A   1      32.553  24.575  26.347  1.00  0.00     0.005 A 
ATOM     11  C   UNL A   1      34.049  25.911  24.437  1.00  0.00     0.004 A 
ATOM     12  C   UNL A   1      32.114  25.805  25.845  1.00  0.00     0.004 A 
ATOM     13  C   UNL A   1      32.878  26.502  24.907  1.00  0.00    -0.048 A 
BRANCH  13  14
ATOM     14  C   UNL A   1      32.487  27.884  24.454  1.00  0.00     0.041 C 
BRANCH  14  15
ATOM     15  C   UNL A   1      30.986  28.137  24.216  1.00  0.00     0.022 C 
ATOM     16  C   UNL A   1      30.563  29.611  24.096  1.00  0.00     0.007 C 
ATOM     17  C   UNL A   1      30.297  27.438  23.031  1.00  0.00     0.117 C 
ATOM     18  C   UNL A   1      29.333  29.628  23.184  1.00  0.00     0.003 C 
ATOM     19  C   UNL A   1      28.960  28.167  22.954  1.00  0.00     0.032 C 
BRANCH  17  20
ATOM     20  O   UNL A   1      30.943  27.582  21.779  1.00  0.00    -0.393 OA
ATOM     21  H   UNL A   1      31.711  28.166  21.877  1.00  0.00     0.210 HD
ENDBRANCH  17  20
ENDBRANCH  14  15
ENDBRANCH  13  14
ENDBRANCH   6   8
ENDBRANCH   3   6
ENDBRANCH   1   2
BRANCH   1  22
ATOM     22  C   UNL A   1      37.375  20.444  24.933  1.00  0.00     0.042 C 
BRANCH  22  23
ATOM     23  C   UNL A   1      38.665  20.844  25.646  1.00  0.00     0.118 C 
BRANCH  23  24
ATOM     24  N   UNL A   1      39.639  19.765  25.681  1.00  0.00    -0.352 N 
ATOM     25  C   UNL A   1      40.975  19.798  26.004  1.00  0.00     0.251 C 
ATOM     26  H   UNL A   1      39.290  18.878  25.436  1.00  0.00     0.163 HD
ATOM     27  O   UNL A   1      41.682  18.823  25.779  1.00  0.00    -0.269 OA
BRANCH  25  28
ATOM     28  C   UNL A   1      41.568  21.019  26.592  1.00  0.00     0.039 A 
ATOM     29  C   UNL A   1      42.054  22.009  25.734  1.00  0.00     0.014 A 
ATOM     30  C   UNL A   1      41.649  21.191  27.977  1.00  0.00     0.014 A 
ATOM     31  C   UNL A   1      42.535  23.210  26.264  1.00  0.00     0.010 A 
ATOM     32  C   UNL A   1      42.064  22.414  28.500  1.00  0.00     0.010 A 
ATOM     33  C   UNL A   1      42.494  23.443  27.647  1.00  0.00    -0.014 A 
BRANCH  33  34
ATOM     34  C   UNL A   1      42.828  24.774  28.216  1.00  0.00     0.031 A 
ATOM     35  C   UNL A   1      41.757  25.806  28.433  1.00  0.00     0.074 A 
ATOM     36  C   UNL A   1      44.121  25.082  28.450  1.00  0.00     0.049 A 
ATOM     37  N   UNL A   1      41.880  27.050  28.823  1.00  0.00    -0.248 NA
ATOM     38  C   UNL A   1      40.369  25.397  28.160  1.00  0.00     0.031 C 
ATOM     39  C   UNL A   1      45.258  24.181  28.249  1.00  0.00     0.029 A 
ATOM     40  N   UNL A   1      44.700  26.248  28.891  1.00  0.00    -0.354 N 
ATOM     41  C   UNL A   1      40.595  27.577  28.821  1.00  0.00     0.074 A 
ATOM     42  C   UNL A   1      39.707  26.528  28.367  1.00  0.00     0.031 C 
ATOM     43  C   UNL A   1      46.392  24.822  28.573  1.00  0.00     0.029 A 
ATOM     44  C   UNL A   1      46.072  26.193  28.952  1.00  0.00     0.049 A 
ATOM     45  H   UNL A   1      44.180  27.047  29.140  1.00  0.00     0.167 HD
ATOM     46  C   UNL A   1      40.193  28.821  29.172  1.00  0.00     0.031 A 
ATOM     47  C   UNL A   1      46.976  27.145  29.250  1.00  0.00     0.031 A 
ATOM     48  C   UNL A   1      41.076  29.858  29.638  1.00  0.00     0.049 A 
ATOM     49  C   UNL A   1      46.496  28.530  29.594  1.00  0.00     0.074 A 
ATOM     50  C   UNL A   1      40.746  31.121  30.099  1.00  0.00     0.029 A 
ATOM     51  N   UNL A   1      42.456  29.761  29.687  1.00  0.00    -0.354 N 
ATOM     52  N   UNL A   1      45.269  28.978  29.688  1.00  0.00    -0.248 NA
ATOM     53  C   UNL A   1      47.529  29.540  29.872  1.00  0.00     0.031 C 
ATOM     54  C   UNL A   1      41.931  31.815  30.355  1.00  0.00     0.029 A 
ATOM     55  C   UNL A   1      42.995  30.961  30.118  1.00  0.00     0.049 A 
ATOM     56  H   UNL A   1      42.975  28.959  29.450  1.00  0.00     0.167 HD
ATOM     57  C   UNL A   1      45.382  30.313  30.057  1.00  0.00     0.074 A 
ATOM     58  C   UNL A   1      46.796  30.594  30.196  1.00  0.00     0.031 C 
ATOM     59  C   UNL A   1      44.403  31.226  30.255  1.00  0.00     0.031 A 
BRANCH  46  60
ATOM     60  C   UNL A   1      38.732  29.156  29.053  1.00  0.00    -0.014 A 
ATOM     61  C   UNL A   1      37.858  29.011  30.140  1.00  0.00     0.009 A 
ATOM     62  C   UNL A   1      38.249  29.724  27.864  1.00  0.00     0.009 A 
ATOM     63  C   UNL A   1      36.525  29.414  30.033  1.00  0.00     0.001 A 
ATOM     64  C   UNL A   1      36.922  30.149  27.767  1.00  0.00     0.001 A 
ATOM     65  C   UNL A   1      36.061  29.990  28.850  1.00  0.00     0.000 A 
ENDBRANCH  46  60
BRANCH  47  66
ATOM     66  C   UNL A   1      48.434  26.848  29.195  1.00  0.00    -0.014 A 
ATOM     67  C   UNL A   1      49.136  26.486  30.355  1.00  0.00     0.009 A 
ATOM     68  C   UNL A   1      49.142  26.977  27.990  1.00  0.00     0.009 A 
ATOM     69  C   UNL A   1      50.520  26.301  30.318  1.00  0.00     0.001 A 
ATOM     70  C   UNL A   1      50.520  26.755  27.947  1.00  0.00     0.001 A 
ATOM     71  C   UNL A   1      51.210  26.434  29.114  1.00  0.00     0.000 A 
ENDBRANCH  47  66
BRANCH  59  72
ATOM     72  C   UNL A   1      44.819  32.611  30.663  1.00  0.00    -0.014 A 
ATOM     73  C   UNL A   1      45.006  32.944  32.013  1.00  0.00     0.009 A 
ATOM     74  C   UNL A   1      45.088  33.576  29.679  1.00  0.00     0.009 A 
ATOM     75  C   UNL A   1      45.429  34.225  32.371  1.00  0.00     0.001 A 
ATOM     76  C   UNL A   1      45.542  34.846  30.039  1.00  0.00     0.001 A 
ATOM     77  C   UNL A   1      45.705  35.172  31.384  1.00  0.00     0.000 A 
ENDBRANCH  59  72
ENDBRANCH  33  34
ENDBRANCH  25  28
ENDBRANCH  23  24
ENDBRANCH  22  23
ENDBRANCH   1  22
TORSDOF 14
ENDMDL
