MODEL 1
REMARK VINA RESULT:     -13.7      0.000      0.000
REMARK SMILES CC(=O)Nc1cnc(N2CC=C(c3ccccc3C)CC2)c(C(=O)NCCCNC(=O)c2ccc(-c3c4nc(c(-c5ccccc5)c5ccc([nH]5)c(-c5ccccc5)c5nc(c(-c6ccccc6)c6ccc3[nH]6)C=C5)C=C4)cc2)c1
REMARK SMILES IDX 27 1 26 2 25 3 23 4 24 5 22 7 5 8 6 9 80 10 7 11 8 12 4 13
REMARK SMILES IDX 1 14 2 15 3 16 9 18 10 19 21 20 11 21 20 22 12 23 13 24
REMARK SMILES IDX 14 25 18 26 15 27 17 28 19 29 16 30 28 31 29 32 30 33 31 35
REMARK SMILES IDX 32 36 33 37 79 38 34 39 78 40 35 41 36 42 37 43 72 44 38 45
REMARK SMILES IDX 77 46 71 47 73 48 39 49 76 50 70 51 69 52 40 54 62 55 47 56
REMARK SMILES IDX 61 57 48 58 51 59 60 60 74 61 49 62 50 63 59 65 75 66 52 67
REMARK SMILES IDX 41 68 42 69 46 70 43 71 45 72 44 73 63 74 64 75 68 76 65 77
REMARK SMILES IDX 67 78 66 79 53 80 54 81 58 82 55 83 57 84 56 85
REMARK H PARENT 25 6 4 17 29 34 73 53 51 64
REMARK Flexibility Score: inf
ROOT
ATOM      1  C   UNL A   1      34.080  29.075  26.522  1.00  0.00     0.042 C 
ENDROOT
BRANCH   1   2
ATOM      2  C   UNL A   1      33.158  29.564  25.405  1.00  0.00     0.118 C 
BRANCH   2   3
ATOM      3  N   UNL A   1      33.335  28.788  24.187  1.00  0.00    -0.352 N 
ATOM      4  C   UNL A   1      32.542  28.423  23.120  1.00  0.00     0.255 C 
ATOM      5  O   UNL A   1      33.171  27.808  22.259  1.00  0.00    -0.269 OA
ATOM      6  H   UNL A   1      34.251  28.435  24.104  1.00  0.00     0.163 HD
BRANCH   4   7
ATOM      7  C   UNL A   1      31.067  28.721  22.971  1.00  0.00     0.084 A 
ATOM      8  C   UNL A   1      29.266  30.076  21.999  1.00  0.00     0.060 A 
ATOM      9  C   UNL A   1      28.373  29.238  22.628  1.00  0.00     0.139 A 
ATOM     10  C   UNL A   1      30.616  29.818  22.212  1.00  0.00     0.045 A 
ATOM     11  N   UNL A   1      28.744  28.177  23.371  1.00  0.00    -0.236 NA
ATOM     12  C   UNL A   1      30.069  27.910  23.560  1.00  0.00     0.141 A 
BRANCH   8  13
ATOM     13  N   UNL A   1      28.778  31.163  21.251  1.00  0.00    -0.325 N 
ATOM     14  C   UNL A   1      28.775  32.972  22.972  1.00  0.00     0.114 C 
ATOM     15  C   UNL A   1      28.396  32.421  21.624  1.00  0.00     0.221 C 
ATOM     16  O   UNL A   1      27.786  33.122  20.814  1.00  0.00    -0.275 OA
ATOM     17  H   UNL A   1      28.699  30.987  20.286  1.00  0.00     0.169 HD
ENDBRANCH   8  13
BRANCH  12  18
ATOM     18  N   UNL A   1      30.286  26.819  24.365  1.00  0.00    -0.352 N 
ATOM     19  C   UNL A   1      30.602  27.040  25.767  1.00  0.00     0.146 C 
ATOM     20  C   UNL A   1      30.335  25.465  23.824  1.00  0.00     0.123 C 
ATOM     21  C   UNL A   1      31.529  25.987  26.310  1.00  0.00    -0.002 C 
ATOM     22  C   UNL A   1      31.689  24.815  24.133  1.00  0.00     0.057 C 
ATOM     23  C   UNL A   1      32.045  24.976  25.587  1.00  0.00    -0.041 C 
BRANCH  23  24
ATOM     24  C   UNL A   1      32.932  23.976  26.210  1.00  0.00    -0.020 A 
ATOM     25  C   UNL A   1      32.358  23.042  27.090  1.00  0.00     0.008 A 
ATOM     26  C   UNL A   1      34.316  23.916  25.954  1.00  0.00    -0.044 A 
ATOM     27  C   UNL A   1      33.134  22.053  27.696  1.00  0.00     0.001 A 
ATOM     28  C   UNL A   1      35.082  22.903  26.560  1.00  0.00     0.004 A 
ATOM     29  C   UNL A   1      35.007  24.885  25.034  1.00  0.00     0.045 C 
ATOM     30  C   UNL A   1      34.495  21.982  27.427  1.00  0.00     0.000 A 
ENDBRANCH  23  24
ENDBRANCH  12  18
ENDBRANCH   4   7
ENDBRANCH   2   3
ENDBRANCH   1   2
BRANCH   1  31
ATOM     31  C   UNL A   1      34.583  30.189  27.421  1.00  0.00     0.118 C 
BRANCH  31  32
ATOM     32  N   UNL A   1      33.715  31.364  27.442  1.00  0.00    -0.352 N 
ATOM     33  C   UNL A   1      33.895  32.545  28.147  1.00  0.00     0.251 C 
ATOM     34  H   UNL A   1      32.902  31.311  26.891  1.00  0.00     0.163 HD
ATOM     35  O   UNL A   1      33.100  33.463  28.058  1.00  0.00    -0.269 OA
BRANCH  33  36
ATOM     36  C   UNL A   1      35.151  32.700  28.914  1.00  0.00     0.039 A 
ATOM     37  C   UNL A   1      36.199  33.386  28.296  1.00  0.00     0.014 A 
ATOM     38  C   UNL A   1      35.364  31.929  30.055  1.00  0.00     0.014 A 
ATOM     39  C   UNL A   1      37.503  33.091  28.673  1.00  0.00     0.010 A 
ATOM     40  C   UNL A   1      36.659  31.565  30.364  1.00  0.00     0.010 A 
ATOM     41  C   UNL A   1      37.721  32.090  29.619  1.00  0.00    -0.014 A 
BRANCH  41  42
ATOM     42  C   UNL A   1      39.019  31.451  29.793  1.00  0.00     0.031 A 
ATOM     43  C   UNL A   1      39.266  30.112  29.232  1.00  0.00     0.074 A 
ATOM     44  C   UNL A   1      39.995  32.078  30.486  1.00  0.00     0.049 A 
ATOM     45  N   UNL A   1      40.146  29.290  29.699  1.00  0.00    -0.248 NA
ATOM     46  C   UNL A   1      38.461  29.545  28.153  1.00  0.00     0.031 C 
ATOM     47  C   UNL A   1      41.406  31.708  30.570  1.00  0.00     0.029 A 
ATOM     48  N   UNL A   1      39.833  33.058  31.469  1.00  0.00    -0.354 N 
ATOM     49  C   UNL A   1      40.246  28.256  28.803  1.00  0.00     0.074 A 
ATOM     50  C   UNL A   1      39.077  28.374  27.966  1.00  0.00     0.031 C 
ATOM     51  C   UNL A   1      41.926  32.236  31.689  1.00  0.00     0.029 A 
ATOM     52  C   UNL A   1      40.833  32.836  32.434  1.00  0.00     0.049 A 
ATOM     53  H   UNL A   1      39.150  33.767  31.482  1.00  0.00     0.167 HD
ATOM     54  C   UNL A   1      41.392  27.524  28.765  1.00  0.00     0.031 A 
ATOM     55  C   UNL A   1      40.521  32.546  33.730  1.00  0.00     0.031 A 
ATOM     56  C   UNL A   1      42.252  27.794  29.919  1.00  0.00     0.049 A 
ATOM     57  C   UNL A   1      41.054  31.214  34.209  1.00  0.00     0.074 A 
ATOM     58  C   UNL A   1      43.457  28.459  30.076  1.00  0.00     0.029 A 
ATOM     59  N   UNL A   1      41.761  27.564  31.200  1.00  0.00    -0.354 N 
ATOM     60  N   UNL A   1      41.480  30.269  33.419  1.00  0.00    -0.248 NA
ATOM     61  C   UNL A   1      41.097  30.824  35.616  1.00  0.00     0.031 C 
ATOM     62  C   UNL A   1      43.652  28.690  31.465  1.00  0.00     0.029 A 
ATOM     63  C   UNL A   1      42.587  28.130  32.150  1.00  0.00     0.049 A 
ATOM     64  H   UNL A   1      40.937  27.064  31.402  1.00  0.00     0.167 HD
ATOM     65  C   UNL A   1      41.828  29.169  34.161  1.00  0.00     0.074 A 
ATOM     66  C   UNL A   1      41.589  29.574  35.534  1.00  0.00     0.031 C 
ATOM     67  C   UNL A   1      42.262  28.015  33.568  1.00  0.00     0.031 A 
BRANCH  54  68
ATOM     68  C   UNL A   1      41.857  26.744  27.550  1.00  0.00    -0.014 A 
ATOM     69  C   UNL A   1      42.207  25.388  27.692  1.00  0.00     0.009 A 
ATOM     70  C   UNL A   1      42.093  27.299  26.278  1.00  0.00     0.009 A 
ATOM     71  C   UNL A   1      42.784  24.653  26.644  1.00  0.00     0.001 A 
ATOM     72  C   UNL A   1      42.646  26.567  25.219  1.00  0.00     0.001 A 
ATOM     73  C   UNL A   1      43.005  25.244  25.406  1.00  0.00     0.000 A 
ENDBRANCH  54  68
BRANCH  55  74
ATOM     74  C   UNL A   1      39.253  33.167  34.200  1.00  0.00    -0.014 A 
ATOM     75  C   UNL A   1      38.035  32.554  33.844  1.00  0.00     0.009 A 
ATOM     76  C   UNL A   1      39.254  34.102  35.243  1.00  0.00     0.009 A 
ATOM     77  C   UNL A   1      36.873  32.787  34.586  1.00  0.00     0.001 A 
ATOM     78  C   UNL A   1      38.085  34.338  35.978  1.00  0.00     0.001 A 
ATOM     79  C   UNL A   1      36.907  33.658  35.672  1.00  0.00     0.000 A 
ENDBRANCH  55  74
BRANCH  67  80
ATOM     80  C   UNL A   1      42.478  26.676  34.240  1.00  0.00    -0.014 A 
ATOM     81  C   UNL A   1      41.565  26.047  35.098  1.00  0.00     0.009 A 
ATOM     82  C   UNL A   1      43.633  25.929  33.907  1.00  0.00     0.009 A 
ATOM     83  C   UNL A   1      41.812  24.769  35.624  1.00  0.00     0.001 A 
ATOM     84  C   UNL A   1      43.862  24.638  34.390  1.00  0.00     0.001 A 
ATOM     85  C   UNL A   1      42.953  24.061  35.263  1.00  0.00     0.000 A 
ENDBRANCH  67  80
ENDBRANCH  41  42
ENDBRANCH  33  36
ENDBRANCH  31  32
ENDBRANCH   1  31
TORSDOF 13
ENDMDL
MODEL 2
REMARK VINA RESULT:     -13.5      4.121      9.567
REMARK SMILES CC(=O)Nc1cnc(N2CC=C(c3ccccc3C)CC2)c(C(=O)NCCCNC(=O)c2ccc(-c3c4nc(c(-c5ccccc5)c5ccc([nH]5)c(-c5ccccc5)c5nc(c(-c6ccccc6)c6ccc3[nH]6)C=C5)C=C4)cc2)c1
REMARK SMILES IDX 27 1 26 2 25 3 23 4 24 5 22 7 5 8 6 9 80 10 7 11 8 12 4 13
REMARK SMILES IDX 1 14 2 15 3 16 9 18 10 19 21 20 11 21 20 22 12 23 13 24
REMARK SMILES IDX 14 25 18 26 15 27 17 28 19 29 16 30 28 31 29 32 30 33 31 35
REMARK SMILES IDX 32 36 33 37 79 38 34 39 78 40 35 41 36 42 37 43 72 44 38 45
REMARK SMILES IDX 77 46 71 47 73 48 39 49 76 50 70 51 69 52 40 54 62 55 47 56
REMARK SMILES IDX 61 57 48 58 51 59 60 60 74 61 49 62 50 63 59 65 75 66 52 67
REMARK SMILES IDX 41 68 42 69 46 70 43 71 45 72 44 73 63 74 64 75 68 76 65 77
REMARK SMILES IDX 67 78 66 79 53 80 54 81 58 82 55 83 57 84 56 85
REMARK H PARENT 25 6 4 17 29 34 73 53 51 64
REMARK Flexibility Score: inf
ROOT
ATOM      1  C   UNL A   1      38.617  21.517  25.927  1.00  0.00     0.042 C 
ENDROOT
BRANCH   1   2
ATOM      2  C   UNL A   1      37.748  22.767  25.788  1.00  0.00     0.118 C 
BRANCH   2   3
ATOM      3  N   UNL A   1      37.332  22.980  24.412  1.00  0.00    -0.352 N 
ATOM      4  C   UNL A   1      36.177  22.789  23.683  1.00  0.00     0.255 C 
ATOM      5  O   UNL A   1      36.277  23.204  22.529  1.00  0.00    -0.269 OA
ATOM      6  H   UNL A   1      38.057  23.356  23.861  1.00  0.00     0.163 HD
BRANCH   4   7
ATOM      7  C   UNL A   1      34.904  22.152  24.194  1.00  0.00     0.084 A 
ATOM      8  C   UNL A   1      33.746  20.223  25.177  1.00  0.00     0.060 A 
ATOM      9  C   UNL A   1      32.604  20.992  25.197  1.00  0.00     0.139 A 
ATOM     10  C   UNL A   1      34.883  20.816  24.637  1.00  0.00     0.045 A 
ATOM     11  N   UNL A   1      32.561  22.273  24.782  1.00  0.00    -0.236 NA
ATOM     12  C   UNL A   1      33.683  22.861  24.274  1.00  0.00     0.141 A 
BRANCH   8  13
ATOM     13  N   UNL A   1      33.687  18.892  25.626  1.00  0.00    -0.325 N 
ATOM     14  C   UNL A   1      33.056  17.700  23.526  1.00  0.00     0.114 C 
ATOM     15  C   UNL A   1      33.256  17.748  25.016  1.00  0.00     0.221 C 
ATOM     16  O   UNL A   1      33.090  16.736  25.699  1.00  0.00    -0.275 OA
ATOM     17  H   UNL A   1      34.015  18.760  26.545  1.00  0.00     0.169 HD
ENDBRANCH   8  13
BRANCH  12  18
ATOM     18  N   UNL A   1      33.472  24.154  23.863  1.00  0.00    -0.352 N 
ATOM     19  C   UNL A   1      33.441  25.206  24.866  1.00  0.00     0.146 C 
ATOM     20  C   UNL A   1      33.154  24.476  22.476  1.00  0.00     0.123 C 
ATOM     21  C   UNL A   1      32.497  26.316  24.491  1.00  0.00    -0.002 C 
ATOM     22  C   UNL A   1      31.805  25.199  22.391  1.00  0.00     0.057 C 
ATOM     23  C   UNL A   1      31.736  26.330  23.382  1.00  0.00    -0.041 C 
BRANCH  23  24
ATOM     24  C   UNL A   1      30.851  27.473  23.084  1.00  0.00    -0.020 A 
ATOM     25  C   UNL A   1      31.417  28.600  22.463  1.00  0.00     0.008 A 
ATOM     26  C   UNL A   1      29.476  27.475  23.389  1.00  0.00    -0.044 A 
ATOM     27  C   UNL A   1      30.635  29.707  22.132  1.00  0.00     0.001 A 
ATOM     28  C   UNL A   1      28.698  28.592  23.033  1.00  0.00     0.004 A 
ATOM     29  C   UNL A   1      28.799  26.313  24.062  1.00  0.00     0.045 C 
ATOM     30  C   UNL A   1      29.274  29.700  22.414  1.00  0.00     0.000 A 
ENDBRANCH  23  24
ENDBRANCH  12  18
ENDBRANCH   4   7
ENDBRANCH   2   3
ENDBRANCH   1   2
BRANCH   1  31
ATOM     31  C   UNL A   1      40.080  21.824  26.187  1.00  0.00     0.118 C 
BRANCH  31  32
ATOM     32  N   UNL A   1      40.993  20.795  25.693  1.00  0.00    -0.352 N 
ATOM     33  C   UNL A   1      42.356  20.687  25.918  1.00  0.00     0.251 C 
ATOM     34  H   UNL A   1      40.591  20.094  25.132  1.00  0.00     0.163 HD
ATOM     35  O   UNL A   1      43.002  19.760  25.462  1.00  0.00    -0.269 OA
BRANCH  33  36
ATOM     36  C   UNL A   1      42.981  21.668  26.833  1.00  0.00     0.039 A 
ATOM     37  C   UNL A   1      42.590  21.634  28.173  1.00  0.00     0.014 A 
ATOM     38  C   UNL A   1      43.676  22.757  26.309  1.00  0.00     0.014 A 
ATOM     39  C   UNL A   1      42.671  22.801  28.922  1.00  0.00     0.010 A 
ATOM     40  C   UNL A   1      43.668  23.940  27.021  1.00  0.00     0.010 A 
ATOM     41  C   UNL A   1      43.095  23.974  28.298  1.00  0.00    -0.014 A 
BRANCH  41  42
ATOM     42  C   UNL A   1      42.852  25.292  28.868  1.00  0.00     0.031 A 
ATOM     43  C   UNL A   1      41.702  26.094  28.417  1.00  0.00     0.074 A 
ATOM     44  C   UNL A   1      43.693  25.793  29.801  1.00  0.00     0.049 A 
ATOM     45  N   UNL A   1      41.656  27.383  28.483  1.00  0.00    -0.248 NA
ATOM     46  C   UNL A   1      40.541  25.509  27.751  1.00  0.00     0.031 C 
ATOM     47  C   UNL A   1      43.492  26.971  30.640  1.00  0.00     0.029 A 
ATOM     48  N   UNL A   1      45.033  25.450  29.995  1.00  0.00    -0.354 N 
ATOM     49  C   UNL A   1      40.369  27.755  28.186  1.00  0.00     0.074 A 
ATOM     50  C   UNL A   1      39.774  26.589  27.583  1.00  0.00     0.031 C 
ATOM     51  C   UNL A   1      44.688  27.416  31.053  1.00  0.00     0.029 A 
ATOM     52  C   UNL A   1      45.703  26.628  30.375  1.00  0.00     0.049 A 
ATOM     53  H   UNL A   1      45.432  24.556  29.887  1.00  0.00     0.167 HD
ATOM     54  C   UNL A   1      39.907  28.951  28.642  1.00  0.00     0.031 A 
ATOM     55  C   UNL A   1      46.719  27.144  29.625  1.00  0.00     0.031 A 
ATOM     56  C   UNL A   1      40.987  29.796  29.155  1.00  0.00     0.049 A 
ATOM     57  C   UNL A   1      46.462  28.548  29.123  1.00  0.00     0.074 A 
ATOM     58  C   UNL A   1      41.362  30.199  30.426  1.00  0.00     0.029 A 
ATOM     59  N   UNL A   1      42.031  30.153  28.307  1.00  0.00    -0.354 N 
ATOM     60  N   UNL A   1      45.289  29.115  29.100  1.00  0.00    -0.248 NA
ATOM     61  C   UNL A   1      47.503  29.402  28.556  1.00  0.00     0.031 C 
ATOM     62  C   UNL A   1      42.674  30.740  30.346  1.00  0.00     0.029 A 
ATOM     63  C   UNL A   1      43.078  30.700  29.022  1.00  0.00     0.049 A 
ATOM     64  H   UNL A   1      42.024  30.032  27.330  1.00  0.00     0.167 HD
ATOM     65  C   UNL A   1      45.386  30.355  28.523  1.00  0.00     0.074 A 
ATOM     66  C   UNL A   1      46.798  30.497  28.218  1.00  0.00     0.031 C 
ATOM     67  C   UNL A   1      44.285  31.143  28.333  1.00  0.00     0.031 A 
BRANCH  54  68
ATOM     68  C   UNL A   1      38.439  29.262  28.858  1.00  0.00    -0.014 A 
ATOM     69  C   UNL A   1      37.670  29.750  27.784  1.00  0.00     0.009 A 
ATOM     70  C   UNL A   1      37.781  29.222  30.102  1.00  0.00     0.009 A 
ATOM     71  C   UNL A   1      36.350  30.198  27.953  1.00  0.00     0.001 A 
ATOM     72  C   UNL A   1      36.456  29.643  30.276  1.00  0.00     0.001 A 
ATOM     73  C   UNL A   1      35.742  30.145  29.201  1.00  0.00     0.000 A 
ENDBRANCH  54  68
BRANCH  55  74
ATOM     74  C   UNL A   1      47.514  26.119  28.897  1.00  0.00    -0.014 A 
ATOM     75  C   UNL A   1      47.208  25.869  27.545  1.00  0.00     0.009 A 
ATOM     76  C   UNL A   1      48.743  25.672  29.400  1.00  0.00     0.009 A 
ATOM     77  C   UNL A   1      48.152  25.289  26.692  1.00  0.00     0.001 A 
ATOM     78  C   UNL A   1      49.682  25.083  28.544  1.00  0.00     0.001 A 
ATOM     79  C   UNL A   1      49.400  24.922  27.188  1.00  0.00     0.000 A 
ENDBRANCH  55  74
BRANCH  67  80
ATOM     80  C   UNL A   1      44.216  32.427  27.533  1.00  0.00    -0.014 A 
ATOM     81  C   UNL A   1      44.369  32.521  26.143  1.00  0.00     0.009 A 
ATOM     82  C   UNL A   1      43.860  33.623  28.201  1.00  0.00     0.009 A 
ATOM     83  C   UNL A   1      44.218  33.743  25.468  1.00  0.00     0.001 A 
ATOM     84  C   UNL A   1      43.663  34.832  27.529  1.00  0.00     0.001 A 
ATOM     85  C   UNL A   1      43.856  34.895  26.158  1.00  0.00     0.000 A 
ENDBRANCH  67  80
ENDBRANCH  41  42
ENDBRANCH  33  36
ENDBRANCH  31  32
ENDBRANCH   1  31
TORSDOF 13
ENDMDL
MODEL 3
REMARK VINA RESULT:     -13.5      3.955      9.070
REMARK SMILES CC(=O)Nc1cnc(N2CC=C(c3ccccc3C)CC2)c(C(=O)NCCCNC(=O)c2ccc(-c3c4nc(c(-c5ccccc5)c5ccc([nH]5)c(-c5ccccc5)c5nc(c(-c6ccccc6)c6ccc3[nH]6)C=C5)C=C4)cc2)c1
REMARK SMILES IDX 27 1 26 2 25 3 23 4 24 5 22 7 5 8 6 9 80 10 7 11 8 12 4 13
REMARK SMILES IDX 1 14 2 15 3 16 9 18 10 19 21 20 11 21 20 22 12 23 13 24
REMARK SMILES IDX 14 25 18 26 15 27 17 28 19 29 16 30 28 31 29 32 30 33 31 35
REMARK SMILES IDX 32 36 33 37 79 38 34 39 78 40 35 41 36 42 37 43 72 44 38 45
REMARK SMILES IDX 77 46 71 47 73 48 39 49 76 50 70 51 69 52 40 54 62 55 47 56
REMARK SMILES IDX 61 57 48 58 51 59 60 60 74 61 49 62 50 63 59 65 75 66 52 67
REMARK SMILES IDX 41 68 42 69 46 70 43 71 45 72 44 73 63 74 64 75 68 76 65 77
REMARK SMILES IDX 67 78 66 79 53 80 54 81 58 82 55 83 57 84 56 85
REMARK H PARENT 25 6 4 17 29 34 73 53 51 64
REMARK Flexibility Score: inf
ROOT
ATOM      1  C   UNL A   1      38.678  21.590  25.761  1.00  0.00     0.042 C 
ENDROOT
BRANCH   1   2
ATOM      2  C   UNL A   1      37.343  21.558  25.016  1.00  0.00     0.118 C 
BRANCH   2   3
ATOM      3  N   UNL A   1      36.259  22.071  25.837  1.00  0.00    -0.352 N 
ATOM      4  C   UNL A   1      34.894  21.889  25.905  1.00  0.00     0.255 C 
ATOM      5  O   UNL A   1      34.387  22.497  26.847  1.00  0.00    -0.269 OA
ATOM      6  H   UNL A   1      36.580  22.709  26.515  1.00  0.00     0.163 HD
BRANCH   4   7
ATOM      7  C   UNL A   1      34.066  21.048  24.960  1.00  0.00     0.084 A 
ATOM      8  C   UNL A   1      33.478  18.848  24.041  1.00  0.00     0.060 A 
ATOM      9  C   UNL A   1      32.513  19.483  23.291  1.00  0.00     0.139 A 
ATOM     10  C   UNL A   1      34.269  19.659  24.848  1.00  0.00     0.045 A 
ATOM     11  N   UNL A   1      32.276  20.808  23.351  1.00  0.00    -0.236 NA
ATOM     12  C   UNL A   1      33.037  21.599  24.160  1.00  0.00     0.141 A 
BRANCH   8  13
ATOM     13  N   UNL A   1      33.653  17.460  23.901  1.00  0.00    -0.325 N 
ATOM     14  C   UNL A   1      32.455  16.614  25.921  1.00  0.00     0.114 C 
ATOM     15  C   UNL A   1      33.370  16.421  24.742  1.00  0.00     0.221 C 
ATOM     16  O   UNL A   1      33.828  15.306  24.485  1.00  0.00    -0.275 OA
ATOM     17  H   UNL A   1      34.051  17.188  23.043  1.00  0.00     0.169 HD
ENDBRANCH   8  13
BRANCH  12  18
ATOM     18  N   UNL A   1      32.697  22.927  24.087  1.00  0.00    -0.352 N 
ATOM     19  C   UNL A   1      33.598  23.840  23.402  1.00  0.00     0.146 C 
ATOM     20  C   UNL A   1      31.530  23.459  24.783  1.00  0.00     0.123 C 
ATOM     21  C   UNL A   1      33.579  25.216  24.013  1.00  0.00    -0.002 C 
ATOM     22  C   UNL A   1      31.948  24.564  25.760  1.00  0.00     0.057 C 
ATOM     23  C   UNL A   1      32.850  25.565  25.088  1.00  0.00    -0.041 C 
BRANCH  23  24
ATOM     24  C   UNL A   1      32.880  26.946  25.607  1.00  0.00    -0.020 A 
ATOM     25  C   UNL A   1      33.968  27.325  26.412  1.00  0.00     0.008 A 
ATOM     26  C   UNL A   1      31.874  27.891  25.324  1.00  0.00    -0.044 A 
ATOM     27  C   UNL A   1      34.072  28.620  26.918  1.00  0.00     0.001 A 
ATOM     28  C   UNL A   1      32.002  29.198  25.827  1.00  0.00     0.004 A 
ATOM     29  C   UNL A   1      30.674  27.560  24.480  1.00  0.00     0.045 C 
ATOM     30  C   UNL A   1      33.090  29.558  26.621  1.00  0.00     0.000 A 
ENDBRANCH  23  24
ENDBRANCH  12  18
ENDBRANCH   4   7
ENDBRANCH   2   3
ENDBRANCH   1   2
BRANCH   1  31
ATOM     31  C   UNL A   1      38.956  22.915  26.446  1.00  0.00     0.118 C 
BRANCH  31  32
ATOM     32  N   UNL A   1      40.272  22.986  27.077  1.00  0.00    -0.352 N 
ATOM     33  C   UNL A   1      40.866  24.079  27.688  1.00  0.00     0.251 C 
ATOM     34  H   UNL A   1      40.801  22.156  27.067  1.00  0.00     0.163 HD
ATOM     35  O   UNL A   1      41.969  23.997  28.200  1.00  0.00    -0.269 OA
BRANCH  33  36
ATOM     36  C   UNL A   1      40.066  25.318  27.807  1.00  0.00     0.039 A 
ATOM     37  C   UNL A   1      40.420  26.392  26.988  1.00  0.00     0.014 A 
ATOM     38  C   UNL A   1      39.216  25.490  28.899  1.00  0.00     0.014 A 
ATOM     39  C   UNL A   1      40.130  27.682  27.416  1.00  0.00     0.010 A 
ATOM     40  C   UNL A   1      39.011  26.771  29.371  1.00  0.00     0.010 A 
ATOM     41  C   UNL A   1      39.537  27.860  28.666  1.00  0.00    -0.014 A 
BRANCH  41  42
ATOM     42  C   UNL A   1      39.546  29.141  29.358  1.00  0.00     0.031 A 
ATOM     43  C   UNL A   1      38.578  30.189  28.990  1.00  0.00     0.074 A 
ATOM     44  C   UNL A   1      40.457  29.381  30.327  1.00  0.00     0.049 A 
ATOM     45  N   UNL A   1      38.781  31.450  29.177  1.00  0.00    -0.248 NA
ATOM     46  C   UNL A   1      37.334  29.903  28.281  1.00  0.00     0.031 C 
ATOM     47  C   UNL A   1      40.478  30.493  31.274  1.00  0.00     0.029 A 
ATOM     48  N   UNL A   1      41.704  28.769  30.481  1.00  0.00    -0.354 N 
ATOM     49  C   UNL A   1      37.594  32.090  28.924  1.00  0.00     0.074 A 
ATOM     50  C   UNL A   1      36.792  31.122  28.219  1.00  0.00     0.031 C 
ATOM     51  C   UNL A   1      41.733  30.659  31.719  1.00  0.00     0.029 A 
ATOM     52  C   UNL A   1      42.584  29.755  30.964  1.00  0.00     0.049 A 
ATOM     53  H   UNL A   1      41.923  27.829  30.287  1.00  0.00     0.167 HD
ATOM     54  C   UNL A   1      37.367  33.306  29.492  1.00  0.00     0.031 A 
ATOM     55  C   UNL A   1      43.689  30.132  30.259  1.00  0.00     0.031 A 
ATOM     56  C   UNL A   1      38.584  33.874  30.075  1.00  0.00     0.049 A 
ATOM     57  C   UNL A   1      43.715  31.599  29.890  1.00  0.00     0.074 A 
ATOM     58  C   UNL A   1      39.014  34.078  31.375  1.00  0.00     0.029 A 
ATOM     59  N   UNL A   1      39.686  34.099  29.256  1.00  0.00    -0.354 N 
ATOM     60  N   UNL A   1      42.673  32.382  29.928  1.00  0.00    -0.248 NA
ATOM     61  C   UNL A   1      44.907  32.285  29.399  1.00  0.00     0.031 C 
ATOM     62  C   UNL A   1      40.407  34.360  31.337  1.00  0.00     0.029 A 
ATOM     63  C   UNL A   1      40.811  34.365  30.012  1.00  0.00     0.049 A 
ATOM     64  H   UNL A   1      39.667  34.073  28.272  1.00  0.00     0.167 HD
ATOM     65  C   UNL A   1      43.015  33.628  29.469  1.00  0.00     0.074 A 
ATOM     66  C   UNL A   1      44.431  33.522  29.169  1.00  0.00     0.031 C 
ATOM     67  C   UNL A   1      42.089  34.628  29.359  1.00  0.00     0.031 A 
BRANCH  54  68
ATOM     68  C   UNL A   1      35.984  33.874  29.745  1.00  0.00    -0.014 A 
ATOM     69  C   UNL A   1      35.265  34.445  28.678  1.00  0.00     0.009 A 
ATOM     70  C   UNL A   1      35.382  33.996  31.013  1.00  0.00     0.009 A 
ATOM     71  C   UNL A   1      34.049  35.119  28.873  1.00  0.00     0.001 A 
ATOM     72  C   UNL A   1      34.157  34.646  31.214  1.00  0.00     0.001 A 
ATOM     73  C   UNL A   1      33.495  35.221  30.143  1.00  0.00     0.000 A 
ENDBRANCH  54  68
BRANCH  55  74
ATOM     74  C   UNL A   1      44.280  29.044  29.433  1.00  0.00    -0.014 A 
ATOM     75  C   UNL A   1      44.857  27.941  30.092  1.00  0.00     0.009 A 
ATOM     76  C   UNL A   1      43.968  28.925  28.073  1.00  0.00     0.009 A 
ATOM     77  C   UNL A   1      45.013  26.716  29.436  1.00  0.00     0.001 A 
ATOM     78  C   UNL A   1      44.135  27.699  27.417  1.00  0.00     0.001 A 
ATOM     79  C   UNL A   1      44.624  26.589  28.105  1.00  0.00     0.000 A 
ENDBRANCH  55  74
BRANCH  67  80
ATOM     80  C   UNL A   1      42.278  35.970  28.682  1.00  0.00    -0.014 A 
ATOM     81  C   UNL A   1      41.740  36.330  27.440  1.00  0.00     0.009 A 
ATOM     82  C   UNL A   1      42.953  36.994  29.388  1.00  0.00     0.009 A 
ATOM     83  C   UNL A   1      41.904  37.622  26.915  1.00  0.00     0.001 A 
ATOM     84  C   UNL A   1      43.079  38.294  28.891  1.00  0.00     0.001 A 
ATOM     85  C   UNL A   1      42.563  38.605  27.643  1.00  0.00     0.000 A 
ENDBRANCH  67  80
ENDBRANCH  41  42
ENDBRANCH  33  36
ENDBRANCH  31  32
ENDBRANCH   1  31
TORSDOF 13
ENDMDL
