MODEL 1
REMARK VINA RESULT:     -11.9      0.000      0.000
REMARK SMILES Cc1nc(-c2ccc(S(=O)(=O)N3CC[NH2+][C@H](C(=O)NCCCNC(=O)c4ccc(-c5c6nc(c(-c7ccccc7)c7ccc([nH]7)c(-c7ccccc7)c7nc(c(-c8ccccc8)c8ccc5[nH]8)C=C7)C=C6)cc4)C3)s2)cs1
REMARK SMILES IDX 20 1 19 2 17 3 18 4 16 6 12 7 13 8 74 9 14 10 15 11 9 14
REMARK SMILES IDX 10 15 11 16 8 17 5 18 6 19 75 20 7 21 4 22 1 23 2 24 3 25
REMARK SMILES IDX 77 26 76 27 21 28 22 29 23 30 24 31 25 33 26 34 27 35 73 36
REMARK SMILES IDX 28 37 72 38 29 39 30 40 31 41 66 42 32 43 71 44 65 45 67 46
REMARK SMILES IDX 33 47 70 48 64 49 63 50 34 52 56 53 41 54 55 55 42 56 45 57
REMARK SMILES IDX 54 58 68 59 43 60 44 61 53 63 69 64 46 65 35 66 36 67 40 68
REMARK SMILES IDX 37 69 39 70 38 71 57 72 58 73 62 74 59 75 61 76 60 77 47 78
REMARK SMILES IDX 48 79 52 80 49 81 51 82 50 83
REMARK H PARENT 19 5 15 12 15 13 23 32 67 51 45 62
REMARK Flexibility Score: inf
ROOT
ATOM      1  C   UNL A   1      36.307  20.701  24.889  1.00  0.00     0.118 C 
ENDROOT
BRANCH   1   2
ATOM      2  N   UNL A   1      36.824  21.796  24.088  1.00  0.00    -0.351 N 
ATOM      3  C   UNL A   1      36.164  22.813  23.469  1.00  0.00     0.279 C 
ATOM      4  O   UNL A   1      36.702  23.268  22.453  1.00  0.00    -0.268 OA
ATOM      5  H   UNL A   1      37.801  21.804  23.976  1.00  0.00     0.163 HD
BRANCH   3   6
ATOM      6  C   UNL A   1      34.890  23.463  24.070  1.00  0.00     0.287 C 
ATOM      7  N   UNL A   1      32.794  24.723  23.862  1.00  0.00    -0.185 NA
ATOM      8  C   UNL A   1      33.154  25.740  24.864  1.00  0.00     0.164 C 
ATOM      9  C   UNL A   1      33.988  24.245  23.123  1.00  0.00     0.178 C 
ATOM     10  C   UNL A   1      34.343  25.299  25.741  1.00  0.00     0.278 C 
ATOM     11  N   UNL A   1      35.306  24.306  25.237  1.00  0.00    -0.334 N 
ATOM     12  H   UNL A   1      35.523  23.673  26.008  1.00  0.00     0.347 HD
ATOM     13  H   UNL A   1      36.090  24.859  24.890  1.00  0.00     0.347 HD
BRANCH   7  14
ATOM     14  S   UNL A   1      31.492  23.670  24.130  1.00  0.00     0.253 S 
ATOM     15  O   UNL A   1      30.457  24.049  23.184  1.00  0.00    -0.206 OA
ATOM     16  O   UNL A   1      31.248  23.650  25.554  1.00  0.00    -0.206 OA
BRANCH  14  17
ATOM     17  C   UNL A   1      31.853  21.958  23.732  1.00  0.00     0.135 A 
ATOM     18  C   UNL A   1      32.576  19.609  24.083  1.00  0.00     0.055 A 
ATOM     19  C   UNL A   1      32.375  19.898  22.756  1.00  0.00     0.023 A 
ATOM     20  S   UNL A   1      32.195  20.932  25.086  1.00  0.00    -0.121 S 
ATOM     21  C   UNL A   1      31.944  21.230  22.563  1.00  0.00     0.034 A 
BRANCH  18  22
ATOM     22  C   UNL A   1      33.110  18.273  24.486  1.00  0.00     0.091 A 
ATOM     23  C   UNL A   1      32.180  15.046  25.899  1.00  0.00     0.079 C 
ATOM     24  C   UNL A   1      32.863  16.240  25.331  1.00  0.00     0.090 A 
ATOM     25  N   UNL A   1      32.266  17.393  25.146  1.00  0.00    -0.241 NA
ATOM     26  S   UNL A   1      34.514  16.191  24.860  1.00  0.00    -0.127 S 
ATOM     27  C   UNL A   1      34.382  17.798  24.257  1.00  0.00     0.096 A 
ENDBRANCH  18  22
ENDBRANCH  14  17
ENDBRANCH   7  14
ENDBRANCH   3   6
ENDBRANCH   1   2
BRANCH   1  28
ATOM     28  C   UNL A   1      37.433  19.705  25.186  1.00  0.00     0.042 C 
BRANCH  28  29
ATOM     29  C   UNL A   1      38.742  20.392  25.579  1.00  0.00     0.118 C 
BRANCH  29  30
ATOM     30  N   UNL A   1      39.824  19.435  25.739  1.00  0.00    -0.352 N 
ATOM     31  C   UNL A   1      41.123  19.655  26.118  1.00  0.00     0.251 C 
ATOM     32  H   UNL A   1      39.592  18.497  25.548  1.00  0.00     0.163 HD
ATOM     33  O   UNL A   1      41.954  18.759  25.996  1.00  0.00    -0.269 OA
BRANCH  31  34
ATOM     34  C   UNL A   1      41.532  20.967  26.660  1.00  0.00     0.039 A 
ATOM     35  C   UNL A   1      42.006  21.940  25.776  1.00  0.00     0.014 A 
ATOM     36  C   UNL A   1      41.497  21.224  28.034  1.00  0.00     0.014 A 
ATOM     37  C   UNL A   1      42.411  23.184  26.263  1.00  0.00     0.010 A 
ATOM     38  C   UNL A   1      41.848  22.484  28.514  1.00  0.00     0.010 A 
ATOM     39  C   UNL A   1      42.319  23.472  27.634  1.00  0.00    -0.014 A 
BRANCH  39  40
ATOM     40  C   UNL A   1      42.724  24.797  28.165  1.00  0.00     0.031 A 
ATOM     41  C   UNL A   1      41.693  25.867  28.395  1.00  0.00     0.074 A 
ATOM     42  C   UNL A   1      44.026  25.053  28.389  1.00  0.00     0.049 A 
ATOM     43  N   UNL A   1      41.859  27.096  28.816  1.00  0.00    -0.248 NA
ATOM     44  C   UNL A   1      40.296  25.519  28.091  1.00  0.00     0.031 C 
ATOM     45  C   UNL A   1      45.125  24.110  28.176  1.00  0.00     0.029 A 
ATOM     46  N   UNL A   1      44.645  26.188  28.846  1.00  0.00    -0.354 N 
ATOM     47  C   UNL A   1      40.595  27.673  28.803  1.00  0.00     0.074 A 
ATOM     48  C   UNL A   1      39.679  26.674  28.297  1.00  0.00     0.031 C 
ATOM     49  C   UNL A   1      46.280  24.695  28.531  1.00  0.00     0.029 A 
ATOM     50  C   UNL A   1      46.008  26.062  28.962  1.00  0.00     0.049 A 
ATOM     51  H   UNL A   1      44.159  27.015  29.070  1.00  0.00     0.167 HD
ATOM     52  C   UNL A   1      40.228  28.918  29.189  1.00  0.00     0.031 A 
ATOM     53  C   UNL A   1      46.934  26.948  29.371  1.00  0.00     0.031 A 
ATOM     54  C   UNL A   1      41.135  29.904  29.712  1.00  0.00     0.049 A 
ATOM     55  C   UNL A   1      46.500  28.324  29.791  1.00  0.00     0.074 A 
ATOM     56  C   UNL A   1      40.849  31.168  30.200  1.00  0.00     0.029 A 
ATOM     57  N   UNL A   1      42.507  29.738  29.812  1.00  0.00    -0.354 N 
ATOM     58  N   UNL A   1      45.293  28.831  29.840  1.00  0.00    -0.248 NA
ATOM     59  C   UNL A   1      47.561  29.245  30.223  1.00  0.00     0.031 C 
ATOM     60  C   UNL A   1      42.055  31.783  30.552  1.00  0.00     0.029 A 
ATOM     61  C   UNL A   1      43.086  30.884  30.328  1.00  0.00     0.049 A 
ATOM     62  H   UNL A   1      42.998  28.925  29.553  1.00  0.00     0.167 HD
ATOM     63  C   UNL A   1      45.445  30.120  30.331  1.00  0.00     0.074 A 
ATOM     64  C   UNL A   1      46.859  30.313  30.578  1.00  0.00     0.031 C 
ATOM     65  C   UNL A   1      44.495  31.060  30.563  1.00  0.00     0.031 A 
BRANCH  52  66
ATOM     66  C   UNL A   1      38.777  29.287  29.043  1.00  0.00    -0.014 A 
ATOM     67  C   UNL A   1      38.258  29.737  27.818  1.00  0.00     0.009 A 
ATOM     68  C   UNL A   1      37.913  29.161  30.142  1.00  0.00     0.009 A 
ATOM     69  C   UNL A   1      36.911  30.093  27.709  1.00  0.00     0.001 A 
ATOM     70  C   UNL A   1      36.562  29.491  30.023  1.00  0.00     0.001 A 
ATOM     71  C   UNL A   1      36.065  29.967  28.811  1.00  0.00     0.000 A 
ENDBRANCH  52  66
BRANCH  53  72
ATOM     72  C   UNL A   1      48.363  26.552  29.433  1.00  0.00    -0.014 A 
ATOM     73  C   UNL A   1      48.872  25.925  30.582  1.00  0.00     0.009 A 
ATOM     74  C   UNL A   1      49.225  26.792  28.352  1.00  0.00     0.009 A 
ATOM     75  C   UNL A   1      50.220  25.566  30.653  1.00  0.00     0.001 A 
ATOM     76  C   UNL A   1      50.566  26.411  28.418  1.00  0.00     0.001 A 
ATOM     77  C   UNL A   1      51.064  25.806  29.571  1.00  0.00     0.000 A 
ENDBRANCH  53  72
BRANCH  65  78
ATOM     78  C   UNL A   1      44.956  32.368  31.139  1.00  0.00    -0.014 A 
ATOM     79  C   UNL A   1      45.306  33.445  30.311  1.00  0.00     0.009 A 
ATOM     80  C   UNL A   1      45.010  32.532  32.532  1.00  0.00     0.009 A 
ATOM     81  C   UNL A   1      45.731  34.652  30.868  1.00  0.00     0.001 A 
ATOM     82  C   UNL A   1      45.410  33.748  33.086  1.00  0.00     0.001 A 
ATOM     83  C   UNL A   1      45.779  34.804  32.254  1.00  0.00     0.000 A 
ENDBRANCH  65  78
ENDBRANCH  39  40
ENDBRANCH  31  34
ENDBRANCH  29  30
ENDBRANCH  28  29
ENDBRANCH   1  28
TORSDOF 13
ENDMDL
MODEL 2
REMARK VINA RESULT:     -11.9      4.310      9.579
REMARK SMILES Cc1nc(-c2ccc(S(=O)(=O)N3CC[NH2+][C@H](C(=O)NCCCNC(=O)c4ccc(-c5c6nc(c(-c7ccccc7)c7ccc([nH]7)c(-c7ccccc7)c7nc(c(-c8ccccc8)c8ccc5[nH]8)C=C7)C=C6)cc4)C3)s2)cs1
REMARK SMILES IDX 20 1 19 2 17 3 18 4 16 6 12 7 13 8 74 9 14 10 15 11 9 14
REMARK SMILES IDX 10 15 11 16 8 17 5 18 6 19 75 20 7 21 4 22 1 23 2 24 3 25
REMARK SMILES IDX 77 26 76 27 21 28 22 29 23 30 24 31 25 33 26 34 27 35 73 36
REMARK SMILES IDX 28 37 72 38 29 39 30 40 31 41 66 42 32 43 71 44 65 45 67 46
REMARK SMILES IDX 33 47 70 48 64 49 63 50 34 52 56 53 41 54 55 55 42 56 45 57
REMARK SMILES IDX 54 58 68 59 43 60 44 61 53 63 69 64 46 65 35 66 36 67 40 68
REMARK SMILES IDX 37 69 39 70 38 71 57 72 58 73 62 74 59 75 61 76 60 77 47 78
REMARK SMILES IDX 48 79 52 80 49 81 51 82 50 83
REMARK H PARENT 19 5 15 12 15 13 23 32 67 51 45 62
REMARK Flexibility Score: inf
ROOT
ATOM      1  C   UNL A   1      31.488  30.183  25.737  1.00  0.00     0.118 C 
ENDROOT
BRANCH   1   2
ATOM      2  N   UNL A   1      31.659  29.385  26.937  1.00  0.00    -0.351 N 
ATOM      3  C   UNL A   1      31.594  28.036  27.107  1.00  0.00     0.279 C 
ATOM      4  O   UNL A   1      31.234  27.647  28.224  1.00  0.00    -0.268 OA
ATOM      5  H   UNL A   1      31.852  29.899  27.754  1.00  0.00     0.163 HD
BRANCH   3   6
ATOM      6  C   UNL A   1      32.074  27.039  26.019  1.00  0.00     0.287 C 
ATOM      7  N   UNL A   1      32.073  24.830  24.951  1.00  0.00    -0.185 NA
ATOM      8  C   UNL A   1      33.533  24.652  25.018  1.00  0.00     0.164 C 
ATOM      9  C   UNL A   1      31.568  25.605  26.110  1.00  0.00     0.178 C 
ATOM     10  C   UNL A   1      34.269  25.977  25.300  1.00  0.00     0.278 C 
ATOM     11  N   UNL A   1      33.572  27.081  25.981  1.00  0.00    -0.334 N 
ATOM     12  H   UNL A   1      33.841  27.947  25.513  1.00  0.00     0.347 HD
ATOM     13  H   UNL A   1      33.857  27.004  26.958  1.00  0.00     0.347 HD
BRANCH   7  14
ATOM     14  S   UNL A   1      31.285  24.946  23.453  1.00  0.00     0.253 S 
ATOM     15  O   UNL A   1      30.477  23.746  23.320  1.00  0.00    -0.206 OA
ATOM     16  O   UNL A   1      32.287  25.297  22.472  1.00  0.00    -0.206 OA
BRANCH  14  17
ATOM     17  C   UNL A   1      30.103  26.292  23.360  1.00  0.00     0.135 A 
ATOM     18  C   UNL A   1      29.225  28.566  22.892  1.00  0.00     0.055 A 
ATOM     19  C   UNL A   1      28.330  27.800  23.597  1.00  0.00     0.023 A 
ATOM     20  S   UNL A   1      30.632  27.694  22.490  1.00  0.00    -0.121 S 
ATOM     21  C   UNL A   1      28.827  26.499  23.844  1.00  0.00     0.034 A 
BRANCH  18  22
ATOM     22  C   UNL A   1      28.917  29.999  22.600  1.00  0.00     0.091 A 
ATOM     23  C   UNL A   1      27.893  32.305  19.972  1.00  0.00     0.079 C 
ATOM     24  C   UNL A   1      28.332  31.636  21.226  1.00  0.00     0.090 A 
ATOM     25  N   UNL A   1      28.684  30.373  21.285  1.00  0.00    -0.241 NA
ATOM     26  S   UNL A   1      28.401  32.482  22.719  1.00  0.00    -0.127 S 
ATOM     27  C   UNL A   1      28.823  31.018  23.521  1.00  0.00     0.096 A 
ENDBRANCH  18  22
ENDBRANCH  14  17
ENDBRANCH   7  14
ENDBRANCH   3   6
ENDBRANCH   1   2
BRANCH   1  28
ATOM     28  C   UNL A   1      31.403  31.666  26.113  1.00  0.00     0.042 C 
BRANCH  28  29
ATOM     29  C   UNL A   1      32.530  32.105  27.050  1.00  0.00     0.118 C 
BRANCH  29  30
ATOM     30  N   UNL A   1      32.374  33.488  27.468  1.00  0.00    -0.352 N 
ATOM     31  C   UNL A   1      33.138  34.218  28.342  1.00  0.00     0.251 C 
ATOM     32  H   UNL A   1      31.614  33.968  27.067  1.00  0.00     0.163 HD
ATOM     33  O   UNL A   1      32.737  35.309  28.738  1.00  0.00    -0.269 OA
BRANCH  31  34
ATOM     34  C   UNL A   1      34.434  33.695  28.820  1.00  0.00     0.039 A 
ATOM     35  C   UNL A   1      34.455  32.911  29.977  1.00  0.00     0.014 A 
ATOM     36  C   UNL A   1      35.628  34.012  28.164  1.00  0.00     0.014 A 
ATOM     37  C   UNL A   1      35.668  32.414  30.457  1.00  0.00     0.010 A 
ATOM     38  C   UNL A   1      36.831  33.469  28.611  1.00  0.00     0.010 A 
ATOM     39  C   UNL A   1      36.863  32.676  29.769  1.00  0.00    -0.014 A 
BRANCH  39  40
ATOM     40  C   UNL A   1      38.157  32.136  30.254  1.00  0.00     0.031 A 
ATOM     41  C   UNL A   1      38.695  30.845  29.700  1.00  0.00     0.074 A 
ATOM     42  C   UNL A   1      38.822  32.781  31.231  1.00  0.00     0.049 A 
ATOM     43  N   UNL A   1      39.786  30.199  30.026  1.00  0.00    -0.248 NA
ATOM     44  C   UNL A   1      37.891  30.183  28.661  1.00  0.00     0.031 C 
ATOM     45  C   UNL A   1      38.391  34.025  31.871  1.00  0.00     0.029 A 
ATOM     46  N   UNL A   1      40.004  32.476  31.855  1.00  0.00    -0.354 N 
ATOM     47  C   UNL A   1      39.784  29.044  29.252  1.00  0.00     0.074 A 
ATOM     48  C   UNL A   1      38.568  29.060  28.470  1.00  0.00     0.031 C 
ATOM     49  C   UNL A   1      39.311  34.393  32.778  1.00  0.00     0.029 A 
ATOM     50  C   UNL A   1      40.376  33.396  32.806  1.00  0.00     0.049 A 
ATOM     51  H   UNL A   1      40.536  31.675  31.644  1.00  0.00     0.167 HD
ATOM     52  C   UNL A   1      40.719  28.065  29.189  1.00  0.00     0.031 A 
ATOM     53  C   UNL A   1      41.455  33.433  33.609  1.00  0.00     0.031 A 
ATOM     54  C   UNL A   1      41.938  28.059  29.951  1.00  0.00     0.049 A 
ATOM     55  C   UNL A   1      42.474  32.333  33.521  1.00  0.00     0.074 A 
ATOM     56  C   UNL A   1      42.983  27.151  29.903  1.00  0.00     0.029 A 
ATOM     57  N   UNL A   1      42.277  29.008  30.903  1.00  0.00    -0.354 N 
ATOM     58  N   UNL A   1      42.494  31.285  32.735  1.00  0.00    -0.248 NA
ATOM     59  C   UNL A   1      43.627  32.429  34.428  1.00  0.00     0.031 C 
ATOM     60  C   UNL A   1      43.931  27.526  30.860  1.00  0.00     0.029 A 
ATOM     61  C   UNL A   1      43.500  28.694  31.469  1.00  0.00     0.049 A 
ATOM     62  H   UNL A   1      41.728  29.789  31.142  1.00  0.00     0.167 HD
ATOM     63  C   UNL A   1      43.671  30.611  33.032  1.00  0.00     0.074 A 
ATOM     64  C   UNL A   1      44.344  31.375  34.061  1.00  0.00     0.031 C 
ATOM     65  C   UNL A   1      44.153  29.463  32.496  1.00  0.00     0.031 A 
BRANCH  52  66
ATOM     66  C   UNL A   1      40.444  26.907  28.270  1.00  0.00    -0.014 A 
ATOM     67  C   UNL A   1      39.674  25.809  28.688  1.00  0.00     0.009 A 
ATOM     68  C   UNL A   1      40.945  26.925  26.959  1.00  0.00     0.009 A 
ATOM     69  C   UNL A   1      39.447  24.735  27.825  1.00  0.00     0.001 A 
ATOM     70  C   UNL A   1      40.694  25.862  26.089  1.00  0.00     0.001 A 
ATOM     71  C   UNL A   1      39.955  24.764  26.526  1.00  0.00     0.000 A 
ENDBRANCH  52  66
BRANCH  53  72
ATOM     72  C   UNL A   1      41.644  34.568  34.547  1.00  0.00    -0.014 A 
ATOM     73  C   UNL A   1      42.296  35.735  34.119  1.00  0.00     0.009 A 
ATOM     74  C   UNL A   1      41.175  34.497  35.867  1.00  0.00     0.009 A 
ATOM     75  C   UNL A   1      42.493  36.799  35.002  1.00  0.00     0.001 A 
ATOM     76  C   UNL A   1      41.351  35.572  36.740  1.00  0.00     0.001 A 
ATOM     77  C   UNL A   1      42.018  36.718  36.309  1.00  0.00     0.000 A 
ENDBRANCH  53  72
BRANCH  65  78
ATOM     78  C   UNL A   1      45.487  28.985  32.994  1.00  0.00    -0.014 A 
ATOM     79  C   UNL A   1      46.682  29.409  32.394  1.00  0.00     0.009 A 
ATOM     80  C   UNL A   1      45.546  28.123  34.100  1.00  0.00     0.009 A 
ATOM     81  C   UNL A   1      47.911  28.953  32.873  1.00  0.00     0.001 A 
ATOM     82  C   UNL A   1      46.777  27.690  34.592  1.00  0.00     0.001 A 
ATOM     83  C   UNL A   1      47.958  28.097  33.973  1.00  0.00     0.000 A 
ENDBRANCH  65  78
ENDBRANCH  39  40
ENDBRANCH  31  34
ENDBRANCH  29  30
ENDBRANCH  28  29
ENDBRANCH   1  28
TORSDOF 13
ENDMDL
MODEL 3
REMARK VINA RESULT:     -11.8      0.442      5.863
REMARK SMILES Cc1nc(-c2ccc(S(=O)(=O)N3CC[NH2+][C@H](C(=O)NCCCNC(=O)c4ccc(-c5c6nc(c(-c7ccccc7)c7ccc([nH]7)c(-c7ccccc7)c7nc(c(-c8ccccc8)c8ccc5[nH]8)C=C7)C=C6)cc4)C3)s2)cs1
REMARK SMILES IDX 20 1 19 2 17 3 18 4 16 6 12 7 13 8 74 9 14 10 15 11 9 14
REMARK SMILES IDX 10 15 11 16 8 17 5 18 6 19 75 20 7 21 4 22 1 23 2 24 3 25
REMARK SMILES IDX 77 26 76 27 21 28 22 29 23 30 24 31 25 33 26 34 27 35 73 36
REMARK SMILES IDX 28 37 72 38 29 39 30 40 31 41 66 42 32 43 71 44 65 45 67 46
REMARK SMILES IDX 33 47 70 48 64 49 63 50 34 52 56 53 41 54 55 55 42 56 45 57
REMARK SMILES IDX 54 58 68 59 43 60 44 61 53 63 69 64 46 65 35 66 36 67 40 68
REMARK SMILES IDX 37 69 39 70 38 71 57 72 58 73 62 74 59 75 61 76 60 77 47 78
REMARK SMILES IDX 48 79 52 80 49 81 51 82 50 83
REMARK H PARENT 19 5 15 12 15 13 23 32 67 51 45 62
REMARK Flexibility Score: inf
ROOT
ATOM      1  C   UNL A   1      36.594  20.350  24.778  1.00  0.00     0.118 C 
ENDROOT
BRANCH   1   2
ATOM      2  N   UNL A   1      37.010  21.583  24.135  1.00  0.00    -0.351 N 
ATOM      3  C   UNL A   1      36.261  22.616  23.658  1.00  0.00     0.279 C 
ATOM      4  O   UNL A   1      36.750  23.249  22.715  1.00  0.00    -0.268 OA
ATOM      5  H   UNL A   1      37.982  21.689  24.028  1.00  0.00     0.163 HD
BRANCH   3   6
ATOM      6  C   UNL A   1      34.943  23.068  24.338  1.00  0.00     0.287 C 
ATOM      7  N   UNL A   1      32.998  24.554  24.526  1.00  0.00    -0.185 NA
ATOM      8  C   UNL A   1      33.235  24.900  25.937  1.00  0.00     0.164 C 
ATOM      9  C   UNL A   1      34.274  24.328  23.803  1.00  0.00     0.178 C 
ATOM     10  C   UNL A   1      34.219  23.928  26.619  1.00  0.00     0.278 C 
ATOM     11  N   UNL A   1      35.195  23.176  25.812  1.00  0.00    -0.334 N 
ATOM     12  H   UNL A   1      35.232  22.227  26.185  1.00  0.00     0.347 HD
ATOM     13  H   UNL A   1      36.060  23.711  25.888  1.00  0.00     0.347 HD
BRANCH   7  14
ATOM     14  S   UNL A   1      31.608  23.698  24.068  1.00  0.00     0.253 S 
ATOM     15  O   UNL A   1      31.165  24.277  22.812  1.00  0.00    -0.206 OA
ATOM     16  O   UNL A   1      30.743  23.644  25.224  1.00  0.00    -0.206 OA
BRANCH  14  17
ATOM     17  C   UNL A   1      31.915  21.974  23.680  1.00  0.00     0.135 A 
ATOM     18  C   UNL A   1      32.567  19.606  24.042  1.00  0.00     0.055 A 
ATOM     19  C   UNL A   1      32.369  19.893  22.714  1.00  0.00     0.023 A 
ATOM     20  S   UNL A   1      32.229  20.946  25.039  1.00  0.00    -0.121 S 
ATOM     21  C   UNL A   1      31.979  21.236  22.515  1.00  0.00     0.034 A 
BRANCH  18  22
ATOM     22  C   UNL A   1      33.060  18.256  24.452  1.00  0.00     0.091 A 
ATOM     23  C   UNL A   1      32.066  15.115  26.006  1.00  0.00     0.079 C 
ATOM     24  C   UNL A   1      32.770  16.260  25.367  1.00  0.00     0.090 A 
ATOM     25  N   UNL A   1      32.216  17.435  25.183  1.00  0.00    -0.241 NA
ATOM     26  S   UNL A   1      34.386  16.120  24.805  1.00  0.00    -0.127 S 
ATOM     27  C   UNL A   1      34.294  17.716  24.165  1.00  0.00     0.096 A 
ENDBRANCH  18  22
ENDBRANCH  14  17
ENDBRANCH   7  14
ENDBRANCH   3   6
ENDBRANCH   1   2
BRANCH   1  28
ATOM     28  C   UNL A   1      37.807  19.433  24.965  1.00  0.00     0.042 C 
BRANCH  28  29
ATOM     29  C   UNL A   1      38.953  20.114  25.714  1.00  0.00     0.118 C 
BRANCH  29  30
ATOM     30  N   UNL A   1      40.135  19.270  25.774  1.00  0.00    -0.352 N 
ATOM     31  C   UNL A   1      41.430  19.614  26.062  1.00  0.00     0.251 C 
ATOM     32  H   UNL A   1      39.983  18.316  25.579  1.00  0.00     0.163 HD
ATOM     33  O   UNL A   1      42.335  18.809  25.861  1.00  0.00    -0.269 OA
BRANCH  31  34
ATOM     34  C   UNL A   1      41.746  20.953  26.602  1.00  0.00     0.039 A 
ATOM     35  C   UNL A   1      42.172  21.949  25.720  1.00  0.00     0.014 A 
ATOM     36  C   UNL A   1      41.670  21.215  27.974  1.00  0.00     0.014 A 
ATOM     37  C   UNL A   1      42.489  23.218  26.206  1.00  0.00     0.010 A 
ATOM     38  C   UNL A   1      41.932  22.497  28.451  1.00  0.00     0.010 A 
ATOM     39  C   UNL A   1      42.355  23.508  27.573  1.00  0.00    -0.014 A 
BRANCH  39  40
ATOM     40  C   UNL A   1      42.666  24.859  28.101  1.00  0.00     0.031 A 
ATOM     41  C   UNL A   1      44.076  25.216  28.483  1.00  0.00     0.074 A 
ATOM     42  C   UNL A   1      41.670  25.745  28.287  1.00  0.00     0.049 A 
ATOM     43  N   UNL A   1      44.534  26.330  28.996  1.00  0.00    -0.248 NA
ATOM     44  C   UNL A   1      45.101  24.179  28.283  1.00  0.00     0.031 C 
ATOM     45  C   UNL A   1      40.257  25.508  27.985  1.00  0.00     0.029 A 
ATOM     46  N   UNL A   1      41.696  27.026  28.776  1.00  0.00    -0.354 N 
ATOM     47  C   UNL A   1      45.891  26.119  29.204  1.00  0.00     0.074 A 
ATOM     48  C   UNL A   1      46.175  24.760  28.797  1.00  0.00     0.031 C 
ATOM     49  C   UNL A   1      39.556  26.619  28.267  1.00  0.00     0.029 A 
ATOM     50  C   UNL A   1      40.462  27.629  28.801  1.00  0.00     0.049 A 
ATOM     51  H   UNL A   1      42.520  27.470  29.081  1.00  0.00     0.167 HD
ATOM     52  C   UNL A   1      46.821  26.983  29.678  1.00  0.00     0.031 A 
ATOM     53  C   UNL A   1      40.102  28.861  29.207  1.00  0.00     0.031 A 
ATOM     54  C   UNL A   1      46.543  28.340  30.062  1.00  0.00     0.049 A 
ATOM     55  C   UNL A   1      41.153  29.798  29.732  1.00  0.00     0.074 A 
ATOM     56  C   UNL A   1      47.429  29.317  30.484  1.00  0.00     0.029 A 
ATOM     57  N   UNL A   1      45.282  28.913  30.074  1.00  0.00    -0.354 N 
ATOM     58  N   UNL A   1      42.443  29.608  29.856  1.00  0.00    -0.248 NA
ATOM     59  C   UNL A   1      40.694  31.126  30.163  1.00  0.00     0.031 C 
ATOM     60  C   UNL A   1      46.696  30.467  30.795  1.00  0.00     0.029 A 
ATOM     61  C   UNL A   1      45.360  30.221  30.520  1.00  0.00     0.049 A 
ATOM     62  H   UNL A   1      44.452  28.457  29.804  1.00  0.00     0.167 HD
ATOM     63  C   UNL A   1      42.955  30.798  30.354  1.00  0.00     0.074 A 
ATOM     64  C   UNL A   1      41.838  31.708  30.497  1.00  0.00     0.031 C 
ATOM     65  C   UNL A   1      44.238  31.111  30.661  1.00  0.00     0.031 A 
BRANCH  52  66
ATOM     66  C   UNL A   1      48.228  26.472  29.821  1.00  0.00    -0.014 A 
ATOM     67  C   UNL A   1      48.650  25.811  30.986  1.00  0.00     0.009 A 
ATOM     68  C   UNL A   1      49.139  26.636  28.766  1.00  0.00     0.009 A 
ATOM     69  C   UNL A   1      49.968  25.362  31.107  1.00  0.00     0.001 A 
ATOM     70  C   UNL A   1      50.448  26.162  28.878  1.00  0.00     0.001 A 
ATOM     71  C   UNL A   1      50.864  25.536  30.052  1.00  0.00     0.000 A 
ENDBRANCH  52  66
BRANCH  53  72
ATOM     72  C   UNL A   1      38.686  29.291  29.105  1.00  0.00    -0.014 A 
ATOM     73  C   UNL A   1      37.823  29.143  30.202  1.00  0.00     0.009 A 
ATOM     74  C   UNL A   1      38.187  29.852  27.920  1.00  0.00     0.009 A 
ATOM     75  C   UNL A   1      36.484  29.530  30.106  1.00  0.00     0.001 A 
ATOM     76  C   UNL A   1      36.855  30.260  27.835  1.00  0.00     0.001 A 
ATOM     77  C   UNL A   1      36.003  30.090  28.925  1.00  0.00     0.000 A 
ENDBRANCH  53  72
BRANCH  65  78
ATOM     78  C   UNL A   1      44.501  32.505  31.152  1.00  0.00    -0.014 A 
ATOM     79  C   UNL A   1      44.490  32.808  32.522  1.00  0.00     0.009 A 
ATOM     80  C   UNL A   1      44.796  33.522  30.230  1.00  0.00     0.009 A 
ATOM     81  C   UNL A   1      44.738  34.112  32.957  1.00  0.00     0.001 A 
ATOM     82  C   UNL A   1      45.069  34.817  30.670  1.00  0.00     0.001 A 
ATOM     83  C   UNL A   1      45.030  35.113  32.031  1.00  0.00     0.000 A 
ENDBRANCH  65  78
ENDBRANCH  39  40
ENDBRANCH  31  34
ENDBRANCH  29  30
ENDBRANCH  28  29
ENDBRANCH   1  28
TORSDOF 13
ENDMDL
