MODEL 1
REMARK VINA RESULT:     -11.9      0.000      0.000
REMARK SMILES C[C@@H]1CCC/C(=C\Nc2ccc(C(=O)NCCCNC(=O)c3ccc(-c4c5nc(c(-c6ccccc6)c6ccc([nH]6)c(-c6ccccc6)c6nc(c(-c7ccccc7)c7ccc4[nH]7)C=C6)C=C5)cc3)c(O)c2)C1=O
REMARK SMILES IDX 17 1 16 2 15 3 13 4 14 5 12 7 9 8 10 9 72 10 11 11 70 12
REMARK SMILES IDX 8 13 7 15 1 16 2 17 3 18 73 19 4 20 6 21 74 22 5 23 71 24
REMARK SMILES IDX 18 26 19 27 20 28 21 30 22 31 23 32 69 33 24 34 68 35 25 36
REMARK SMILES IDX 26 37 27 38 62 39 28 40 67 41 61 42 63 43 29 44 66 45 60 46
REMARK SMILES IDX 59 47 30 49 52 50 37 51 51 52 38 53 41 54 50 55 64 56 39 57
REMARK SMILES IDX 40 58 49 60 65 61 42 62 31 63 32 64 36 65 33 66 35 67 34 68
REMARK SMILES IDX 53 69 54 70 58 71 55 72 57 73 56 74 43 75 44 76 48 77 45 78
REMARK SMILES IDX 47 79 46 80
REMARK H PARENT 15 6 8 14 71 25 19 29 63 48 41 59
REMARK Flexibility Score: inf
ROOT
ATOM      1  C   UNL A   1      35.905  22.233  24.964  1.00  0.00     0.042 C 
ENDROOT
BRANCH   1   2
ATOM      2  C   UNL A   1      35.299  21.526  26.164  1.00  0.00     0.118 C 
BRANCH   2   3
ATOM      3  N   UNL A   1      34.296  20.521  25.827  1.00  0.00    -0.352 N 
ATOM      4  C   UNL A   1      32.964  20.667  25.517  1.00  0.00     0.255 C 
ATOM      5  O   UNL A   1      32.284  19.667  25.307  1.00  0.00    -0.269 OA
ATOM      6  H   UNL A   1      34.626  19.593  25.820  1.00  0.00     0.163 HD
BRANCH   4   7
ATOM      7  C   UNL A   1      32.336  22.004  25.476  1.00  0.00     0.081 A 
ATOM      8  C   UNL A   1      30.870  24.397  25.219  1.00  0.00     0.042 A 
ATOM      9  C   UNL A   1      31.408  23.768  24.091  1.00  0.00     0.027 A 
ATOM     10  C   UNL A   1      31.154  23.856  26.479  1.00  0.00     0.073 A 
ATOM     11  C   UNL A   1      32.133  22.577  24.216  1.00  0.00     0.020 A 
ATOM     12  C   UNL A   1      31.922  22.703  26.610  1.00  0.00     0.130 A 
BRANCH   8  13
ATOM     13  N   UNL A   1      30.046  25.530  25.164  1.00  0.00    -0.361 N 
ATOM     14  H   UNL A   1      29.114  25.390  25.451  1.00  0.00     0.166 HD
BRANCH  13  15
ATOM     15  C   UNL A   1      30.353  26.802  24.766  1.00  0.00     0.090 C 
ATOM     16  C   UNL A   1      33.403  28.235  23.327  1.00  0.00     0.016 C 
ATOM     17  C   UNL A   1      32.959  29.133  24.481  1.00  0.00     0.058 C 
ATOM     18  C   UNL A   1      33.739  28.865  25.779  1.00  0.00     0.012 C 
ATOM     19  C   UNL A   1      31.470  28.933  24.706  1.00  0.00     0.163 C 
ATOM     20  C   UNL A   1      33.344  27.563  26.483  1.00  0.00     0.006 C 
ATOM     21  C   UNL A   1      31.111  27.684  25.431  1.00  0.00     0.011 C 
ATOM     22  O   UNL A   1      30.615  29.688  24.257  1.00  0.00    -0.294 OA
ATOM     23  C   UNL A   1      31.836  27.486  26.722  1.00  0.00     0.041 C 
ENDBRANCH  13  15
ENDBRANCH   8  13
BRANCH  12  24
ATOM     24  O   UNL A   1      32.228  22.335  27.891  1.00  0.00    -0.507 OA
ATOM     25  H   UNL A   1      32.709  22.920  28.444  1.00  0.00     0.293 HD
ENDBRANCH  12  24
ENDBRANCH   4   7
ENDBRANCH   2   3
ENDBRANCH   1   2
BRANCH   1  26
ATOM     26  C   UNL A   1      37.088  23.136  25.281  1.00  0.00     0.118 C 
BRANCH  26  27
ATOM     27  N   UNL A   1      38.328  22.416  25.547  1.00  0.00    -0.352 N 
ATOM     28  C   UNL A   1      39.496  22.803  26.161  1.00  0.00     0.251 C 
ATOM     29  H   UNL A   1      38.329  21.484  25.229  1.00  0.00     0.163 HD
ATOM     30  O   UNL A   1      40.458  22.037  26.160  1.00  0.00    -0.269 OA
BRANCH  28  31
ATOM     31  C   UNL A   1      39.630  24.140  26.780  1.00  0.00     0.039 A 
ATOM     32  C   UNL A   1      39.124  24.345  28.068  1.00  0.00     0.014 A 
ATOM     33  C   UNL A   1      40.241  25.198  26.108  1.00  0.00     0.014 A 
ATOM     34  C   UNL A   1      39.326  25.571  28.711  1.00  0.00     0.010 A 
ATOM     35  C   UNL A   1      40.552  26.368  26.791  1.00  0.00     0.010 A 
ATOM     36  C   UNL A   1      40.094  26.574  28.100  1.00  0.00    -0.014 A 
BRANCH  36  37
ATOM     37  C   UNL A   1      40.422  27.848  28.794  1.00  0.00     0.031 A 
ATOM     38  C   UNL A   1      41.749  28.010  29.490  1.00  0.00     0.074 A 
ATOM     39  C   UNL A   1      39.500  28.830  28.869  1.00  0.00     0.049 A 
ATOM     40  N   UNL A   1      42.175  28.995  30.238  1.00  0.00    -0.248 NA
ATOM     41  C   UNL A   1      42.710  26.902  29.354  1.00  0.00     0.031 C 
ATOM     42  C   UNL A   1      38.158  28.788  28.283  1.00  0.00     0.029 A 
ATOM     43  N   UNL A   1      39.551  30.057  29.484  1.00  0.00    -0.354 N 
ATOM     44  C   UNL A   1      43.438  28.616  30.677  1.00  0.00     0.074 A 
ATOM     45  C   UNL A   1      43.681  27.284  30.169  1.00  0.00     0.031 C 
ATOM     46  C   UNL A   1      37.529  29.946  28.538  1.00  0.00     0.029 A 
ATOM     47  C   UNL A   1      38.398  30.793  29.346  1.00  0.00     0.049 A 
ATOM     48  H   UNL A   1      40.339  30.379  29.977  1.00  0.00     0.167 HD
ATOM     49  C   UNL A   1      44.332  29.319  31.412  1.00  0.00     0.031 A 
ATOM     50  C   UNL A   1      38.074  32.009  29.824  1.00  0.00     0.031 A 
ATOM     51  C   UNL A   1      44.104  30.651  31.903  1.00  0.00     0.049 A 
ATOM     52  C   UNL A   1      39.078  32.765  30.650  1.00  0.00     0.074 A 
ATOM     53  C   UNL A   1      44.964  31.466  32.619  1.00  0.00     0.029 A 
ATOM     54  N   UNL A   1      42.930  31.365  31.721  1.00  0.00    -0.354 N 
ATOM     55  N   UNL A   1      40.290  32.413  31.005  1.00  0.00    -0.248 NA
ATOM     56  C   UNL A   1      38.672  34.093  31.132  1.00  0.00     0.031 C 
ATOM     57  C   UNL A   1      44.294  32.659  32.908  1.00  0.00     0.029 A 
ATOM     58  C   UNL A   1      43.038  32.607  32.324  1.00  0.00     0.049 A 
ATOM     59  H   UNL A   1      42.138  31.039  31.236  1.00  0.00     0.167 HD
ATOM     60  C   UNL A   1      40.801  33.486  31.722  1.00  0.00     0.074 A 
ATOM     61  C   UNL A   1      39.776  34.508  31.736  1.00  0.00     0.031 C 
ATOM     62  C   UNL A   1      42.011  33.615  32.319  1.00  0.00     0.031 A 
BRANCH  49  63
ATOM     63  C   UNL A   1      45.648  28.658  31.717  1.00  0.00    -0.014 A 
ATOM     64  C   UNL A   1      46.749  28.804  30.856  1.00  0.00     0.009 A 
ATOM     65  C   UNL A   1      45.802  27.904  32.891  1.00  0.00     0.009 A 
ATOM     66  C   UNL A   1      47.963  28.177  31.144  1.00  0.00     0.001 A 
ATOM     67  C   UNL A   1      47.027  27.305  33.193  1.00  0.00     0.001 A 
ATOM     68  C   UNL A   1      48.101  27.433  32.314  1.00  0.00     0.000 A 
ENDBRANCH  49  63
BRANCH  50  69
ATOM     69  C   UNL A   1      36.741  32.601  29.532  1.00  0.00    -0.014 A 
ATOM     70  C   UNL A   1      36.510  33.275  28.322  1.00  0.00     0.009 A 
ATOM     71  C   UNL A   1      35.700  32.522  30.470  1.00  0.00     0.009 A 
ATOM     72  C   UNL A   1      35.280  33.888  28.074  1.00  0.00     0.001 A 
ATOM     73  C   UNL A   1      34.460  33.108  30.206  1.00  0.00     0.001 A 
ATOM     74  C   UNL A   1      34.256  33.803  29.015  1.00  0.00     0.000 A 
ENDBRANCH  50  69
BRANCH  62  75
ATOM     75  C   UNL A   1      42.309  34.924  32.995  1.00  0.00    -0.014 A 
ATOM     76  C   UNL A   1      41.821  35.211  34.280  1.00  0.00     0.009 A 
ATOM     77  C   UNL A   1      43.124  35.866  32.349  1.00  0.00     0.009 A 
ATOM     78  C   UNL A   1      42.116  36.432  34.888  1.00  0.00     0.001 A 
ATOM     79  C   UNL A   1      43.443  37.073  32.974  1.00  0.00     0.001 A 
ATOM     80  C   UNL A   1      42.931  37.358  34.238  1.00  0.00     0.000 A 
ENDBRANCH  62  75
ENDBRANCH  36  37
ENDBRANCH  28  31
ENDBRANCH  26  27
ENDBRANCH   1  26
TORSDOF 13
ENDMDL
MODEL 2
REMARK VINA RESULT:     -11.9      2.457      8.079
REMARK SMILES C[C@@H]1CCC/C(=C\Nc2ccc(C(=O)NCCCNC(=O)c3ccc(-c4c5nc(c(-c6ccccc6)c6ccc([nH]6)c(-c6ccccc6)c6nc(c(-c7ccccc7)c7ccc4[nH]7)C=C6)C=C5)cc3)c(O)c2)C1=O
REMARK SMILES IDX 17 1 16 2 15 3 13 4 14 5 12 7 9 8 10 9 72 10 11 11 70 12
REMARK SMILES IDX 8 13 7 15 1 16 2 17 3 18 73 19 4 20 6 21 74 22 5 23 71 24
REMARK SMILES IDX 18 26 19 27 20 28 21 30 22 31 23 32 69 33 24 34 68 35 25 36
REMARK SMILES IDX 26 37 27 38 62 39 28 40 67 41 61 42 63 43 29 44 66 45 60 46
REMARK SMILES IDX 59 47 30 49 52 50 37 51 51 52 38 53 41 54 50 55 64 56 39 57
REMARK SMILES IDX 40 58 49 60 65 61 42 62 31 63 32 64 36 65 33 66 35 67 34 68
REMARK SMILES IDX 53 69 54 70 58 71 55 72 57 73 56 74 43 75 44 76 48 77 45 78
REMARK SMILES IDX 47 79 46 80
REMARK H PARENT 15 6 8 14 71 25 19 29 63 48 41 59
REMARK Flexibility Score: inf
ROOT
ATOM      1  C   UNL A   1      32.342  29.085  26.022  1.00  0.00     0.042 C 
ENDROOT
BRANCH   1   2
ATOM      2  C   UNL A   1      32.812  29.283  24.591  1.00  0.00     0.118 C 
BRANCH   2   3
ATOM      3  N   UNL A   1      31.734  29.407  23.615  1.00  0.00    -0.352 N 
ATOM      4  C   UNL A   1      31.165  28.459  22.797  1.00  0.00     0.255 C 
ATOM      5  O   UNL A   1      30.287  28.796  22.008  1.00  0.00    -0.269 OA
ATOM      6  H   UNL A   1      31.354  30.312  23.529  1.00  0.00     0.163 HD
BRANCH   4   7
ATOM      7  C   UNL A   1      31.626  27.055  22.828  1.00  0.00     0.081 A 
ATOM      8  C   UNL A   1      32.185  24.293  22.747  1.00  0.00     0.042 A 
ATOM      9  C   UNL A   1      31.197  24.795  23.602  1.00  0.00     0.027 A 
ATOM     10  C   UNL A   1      32.944  25.207  22.004  1.00  0.00     0.073 A 
ATOM     11  C   UNL A   1      30.914  26.166  23.640  1.00  0.00     0.020 A 
ATOM     12  C   UNL A   1      32.704  26.575  22.083  1.00  0.00     0.130 A 
BRANCH   8  13
ATOM     13  N   UNL A   1      32.451  22.928  22.576  1.00  0.00    -0.361 N 
ATOM     14  H   UNL A   1      32.187  22.551  21.704  1.00  0.00     0.166 HD
BRANCH  13  15
ATOM     15  C   UNL A   1      33.025  22.045  23.448  1.00  0.00     0.090 C 
ATOM     16  C   UNL A   1      33.974  22.368  26.972  1.00  0.00     0.016 C 
ATOM     17  C   UNL A   1      35.162  21.774  26.216  1.00  0.00     0.058 C 
ATOM     18  C   UNL A   1      36.231  22.823  25.869  1.00  0.00     0.012 C 
ATOM     19  C   UNL A   1      34.648  21.102  24.955  1.00  0.00     0.163 C 
ATOM     20  C   UNL A   1      35.828  23.768  24.731  1.00  0.00     0.006 C 
ATOM     21  C   UNL A   1      34.303  22.035  23.847  1.00  0.00     0.011 C 
ATOM     22  O   UNL A   1      34.446  19.896  24.870  1.00  0.00    -0.294 OA
ATOM     23  C   UNL A   1      35.388  22.997  23.487  1.00  0.00     0.041 C 
ENDBRANCH  13  15
ENDBRANCH   8  13
BRANCH  12  24
ATOM     24  O   UNL A   1      33.581  27.372  21.402  1.00  0.00    -0.507 OA
ATOM     25  H   UNL A   1      33.911  28.153  21.801  1.00  0.00     0.293 HD
ENDBRANCH  12  24
ENDBRANCH   4   7
ENDBRANCH   2   3
ENDBRANCH   1   2
BRANCH   1  26
ATOM     26  C   UNL A   1      33.439  29.149  27.073  1.00  0.00     0.118 C 
BRANCH  26  27
ATOM     27  N   UNL A   1      33.547  30.442  27.739  1.00  0.00    -0.352 N 
ATOM     28  C   UNL A   1      34.566  31.016  28.463  1.00  0.00     0.251 C 
ATOM     29  H   UNL A   1      32.744  31.006  27.656  1.00  0.00     0.163 HD
ATOM     30  O   UNL A   1      34.369  32.088  29.032  1.00  0.00    -0.269 OA
BRANCH  28  31
ATOM     31  C   UNL A   1      35.877  30.345  28.605  1.00  0.00     0.039 A 
ATOM     32  C   UNL A   1      36.775  30.376  27.533  1.00  0.00     0.014 A 
ATOM     33  C   UNL A   1      36.232  29.680  29.778  1.00  0.00     0.014 A 
ATOM     34  C   UNL A   1      38.056  29.835  27.680  1.00  0.00     0.010 A 
ATOM     35  C   UNL A   1      37.543  29.257  29.966  1.00  0.00     0.010 A 
ATOM     36  C   UNL A   1      38.472  29.322  28.918  1.00  0.00    -0.014 A 
BRANCH  36  37
ATOM     37  C   UNL A   1      39.860  28.836  29.144  1.00  0.00     0.031 A 
ATOM     38  C   UNL A   1      40.895  29.756  29.739  1.00  0.00     0.074 A 
ATOM     39  C   UNL A   1      40.213  27.597  28.743  1.00  0.00     0.049 A 
ATOM     40  N   UNL A   1      42.177  29.557  29.911  1.00  0.00    -0.248 NA
ATOM     41  C   UNL A   1      40.434  31.089  30.164  1.00  0.00     0.031 C 
ATOM     42  C   UNL A   1      39.325  26.620  28.110  1.00  0.00     0.029 A 
ATOM     43  N   UNL A   1      41.424  26.952  28.801  1.00  0.00    -0.354 N 
ATOM     44  C   UNL A   1      42.675  30.742  30.441  1.00  0.00     0.074 A 
ATOM     45  C   UNL A   1      41.572  31.676  30.499  1.00  0.00     0.031 C 
ATOM     46  C   UNL A   1      40.011  25.491  27.869  1.00  0.00     0.029 A 
ATOM     47  C   UNL A   1      41.397  25.679  28.282  1.00  0.00     0.049 A 
ATOM     48  H   UNL A   1      42.235  27.363  29.178  1.00  0.00     0.167 HD
ATOM     49  C   UNL A   1      43.927  31.023  30.870  1.00  0.00     0.031 A 
ATOM     50  C   UNL A   1      42.380  24.769  28.147  1.00  0.00     0.031 A 
ATOM     51  C   UNL A   1      45.022  30.091  30.834  1.00  0.00     0.049 A 
ATOM     52  C   UNL A   1      43.767  25.110  28.619  1.00  0.00     0.074 A 
ATOM     53  C   UNL A   1      46.319  30.265  31.286  1.00  0.00     0.029 A 
ATOM     54  N   UNL A   1      44.944  28.807  30.320  1.00  0.00    -0.354 N 
ATOM     55  N   UNL A   1      44.204  26.215  29.171  1.00  0.00    -0.248 NA
ATOM     56  C   UNL A   1      44.794  24.071  28.457  1.00  0.00     0.031 C 
ATOM     57  C   UNL A   1      47.038  29.099  31.006  1.00  0.00     0.029 A 
ATOM     58  C   UNL A   1      46.174  28.181  30.431  1.00  0.00     0.049 A 
ATOM     59  H   UNL A   1      44.135  28.399  29.934  1.00  0.00     0.167 HD
ATOM     60  C   UNL A   1      45.546  25.993  29.452  1.00  0.00     0.074 A 
ATOM     61  C   UNL A   1      45.846  24.642  29.026  1.00  0.00     0.031 C 
ATOM     62  C   UNL A   1      46.451  26.832  30.011  1.00  0.00     0.031 A 
BRANCH  49  63
ATOM     63  C   UNL A   1      44.174  32.397  31.429  1.00  0.00    -0.014 A 
ATOM     64  C   UNL A   1      44.012  32.660  32.801  1.00  0.00     0.009 A 
ATOM     65  C   UNL A   1      44.600  33.435  30.587  1.00  0.00     0.009 A 
ATOM     66  C   UNL A   1      44.233  33.943  33.307  1.00  0.00     0.001 A 
ATOM     67  C   UNL A   1      44.852  34.708  31.101  1.00  0.00     0.001 A 
ATOM     68  C   UNL A   1      44.657  34.963  32.458  1.00  0.00     0.000 A 
ENDBRANCH  49  63
BRANCH  50  69
ATOM     69  C   UNL A   1      42.095  23.439  27.546  1.00  0.00    -0.014 A 
ATOM     70  C   UNL A   1      41.554  22.405  28.326  1.00  0.00     0.009 A 
ATOM     71  C   UNL A   1      42.388  23.185  26.196  1.00  0.00     0.009 A 
ATOM     72  C   UNL A   1      41.347  21.136  27.779  1.00  0.00     0.001 A 
ATOM     73  C   UNL A   1      42.150  21.924  25.644  1.00  0.00     0.001 A 
ATOM     74  C   UNL A   1      41.643  20.897  26.439  1.00  0.00     0.000 A 
ENDBRANCH  50  69
BRANCH  62  75
ATOM     75  C   UNL A   1      47.837  26.298  30.237  1.00  0.00    -0.014 A 
ATOM     76  C   UNL A   1      48.226  25.775  31.480  1.00  0.00     0.009 A 
ATOM     77  C   UNL A   1      48.754  26.284  29.173  1.00  0.00     0.009 A 
ATOM     78  C   UNL A   1      49.519  25.281  31.662  1.00  0.00     0.001 A 
ATOM     79  C   UNL A   1      50.035  25.759  29.352  1.00  0.00     0.001 A 
ATOM     80  C   UNL A   1      50.419  25.268  30.597  1.00  0.00     0.000 A 
ENDBRANCH  62  75
ENDBRANCH  36  37
ENDBRANCH  28  31
ENDBRANCH  26  27
ENDBRANCH   1  26
TORSDOF 13
ENDMDL
MODEL 3
REMARK VINA RESULT:     -11.8      2.133      6.729
REMARK SMILES C[C@@H]1CCC/C(=C\Nc2ccc(C(=O)NCCCNC(=O)c3ccc(-c4c5nc(c(-c6ccccc6)c6ccc([nH]6)c(-c6ccccc6)c6nc(c(-c7ccccc7)c7ccc4[nH]7)C=C6)C=C5)cc3)c(O)c2)C1=O
REMARK SMILES IDX 17 1 16 2 15 3 13 4 14 5 12 7 9 8 10 9 72 10 11 11 70 12
REMARK SMILES IDX 8 13 7 15 1 16 2 17 3 18 73 19 4 20 6 21 74 22 5 23 71 24
REMARK SMILES IDX 18 26 19 27 20 28 21 30 22 31 23 32 69 33 24 34 68 35 25 36
REMARK SMILES IDX 26 37 27 38 62 39 28 40 67 41 61 42 63 43 29 44 66 45 60 46
REMARK SMILES IDX 59 47 30 49 52 50 37 51 51 52 38 53 41 54 50 55 64 56 39 57
REMARK SMILES IDX 40 58 49 60 65 61 42 62 31 63 32 64 36 65 33 66 35 67 34 68
REMARK SMILES IDX 53 69 54 70 58 71 55 72 57 73 56 74 43 75 44 76 48 77 45 78
REMARK SMILES IDX 47 79 46 80
REMARK H PARENT 15 6 8 14 71 25 19 29 63 48 41 59
REMARK Flexibility Score: inf
ROOT
ATOM      1  C   UNL A   1      36.991  20.508  24.722  1.00  0.00     0.042 C 
ENDROOT
BRANCH   1   2
ATOM      2  C   UNL A   1      35.688  21.038  25.295  1.00  0.00     0.118 C 
BRANCH   2   3
ATOM      3  N   UNL A   1      34.602  20.063  25.324  1.00  0.00    -0.352 N 
ATOM      4  C   UNL A   1      33.244  20.252  25.423  1.00  0.00     0.255 C 
ATOM      5  O   UNL A   1      32.504  19.274  25.475  1.00  0.00    -0.269 OA
ATOM      6  H   UNL A   1      34.888  19.123  25.263  1.00  0.00     0.163 HD
BRANCH   4   7
ATOM      7  C   UNL A   1      32.671  21.612  25.509  1.00  0.00     0.081 A 
ATOM      8  C   UNL A   1      31.277  24.061  25.540  1.00  0.00     0.042 A 
ATOM      9  C   UNL A   1      31.592  23.437  24.328  1.00  0.00     0.027 A 
ATOM     10  C   UNL A   1      31.749  23.483  26.725  1.00  0.00     0.073 A 
ATOM     11  C   UNL A   1      32.280  22.218  24.310  1.00  0.00     0.020 A 
ATOM     12  C   UNL A   1      32.482  22.301  26.707  1.00  0.00     0.130 A 
BRANCH   8  13
ATOM     13  N   UNL A   1      30.500  25.224  25.642  1.00  0.00    -0.361 N 
ATOM     14  H   UNL A   1      29.712  25.156  26.229  1.00  0.00     0.166 HD
BRANCH  13  15
ATOM     15  C   UNL A   1      30.683  26.439  25.042  1.00  0.00     0.090 C 
ATOM     16  C   UNL A   1      33.656  28.020  23.596  1.00  0.00     0.016 C 
ATOM     17  C   UNL A   1      32.990  29.031  24.528  1.00  0.00     0.058 C 
ATOM     18  C   UNL A   1      33.666  29.104  25.908  1.00  0.00     0.012 C 
ATOM     19  C   UNL A   1      31.524  28.665  24.674  1.00  0.00     0.163 C 
ATOM     20  C   UNL A   1      33.370  27.900  26.808  1.00  0.00     0.006 C 
ATOM     21  C   UNL A   1      31.254  27.520  25.588  1.00  0.00     0.011 C 
ATOM     22  O   UNL A   1      30.629  29.202  24.032  1.00  0.00    -0.294 OA
ATOM     23  C   UNL A   1      31.868  27.652  26.944  1.00  0.00     0.041 C 
ENDBRANCH  13  15
ENDBRANCH   8  13
BRANCH  12  24
ATOM     24  O   UNL A   1      32.986  21.895  27.911  1.00  0.00    -0.507 OA
ATOM     25  H   UNL A   1      33.507  22.483  28.424  1.00  0.00     0.293 HD
ENDBRANCH  12  24
ENDBRANCH   4   7
ENDBRANCH   2   3
ENDBRANCH   1   2
BRANCH   1  26
ATOM     26  C   UNL A   1      38.238  20.881  25.509  1.00  0.00     0.118 C 
BRANCH  26  27
ATOM     27  N   UNL A   1      39.255  19.837  25.535  1.00  0.00    -0.352 N 
ATOM     28  C   UNL A   1      40.568  19.849  25.946  1.00  0.00     0.251 C 
ATOM     29  H   UNL A   1      38.947  18.965  25.197  1.00  0.00     0.163 HD
ATOM     30  O   UNL A   1      41.266  18.854  25.757  1.00  0.00    -0.269 OA
BRANCH  28  31
ATOM     31  C   UNL A   1      41.165  21.051  26.568  1.00  0.00     0.039 A 
ATOM     32  C   UNL A   1      41.806  21.989  25.752  1.00  0.00     0.014 A 
ATOM     33  C   UNL A   1      41.110  21.265  27.944  1.00  0.00     0.014 A 
ATOM     34  C   UNL A   1      42.292  23.179  26.304  1.00  0.00     0.010 A 
ATOM     35  C   UNL A   1      41.477  22.498  28.471  1.00  0.00     0.010 A 
ATOM     36  C   UNL A   1      42.079  23.470  27.660  1.00  0.00    -0.014 A 
BRANCH  36  37
ATOM     37  C   UNL A   1      42.484  24.769  28.261  1.00  0.00     0.031 A 
ATOM     38  C   UNL A   1      41.467  25.866  28.448  1.00  0.00     0.074 A 
ATOM     39  C   UNL A   1      43.779  24.996  28.565  1.00  0.00     0.049 A 
ATOM     40  N   UNL A   1      41.644  27.099  28.848  1.00  0.00    -0.248 NA
ATOM     41  C   UNL A   1      40.071  25.542  28.106  1.00  0.00     0.031 C 
ATOM     42  C   UNL A   1      44.876  24.042  28.391  1.00  0.00     0.029 A 
ATOM     43  N   UNL A   1      44.393  26.113  29.077  1.00  0.00    -0.354 N 
ATOM     44  C   UNL A   1      40.392  27.699  28.784  1.00  0.00     0.074 A 
ATOM     45  C   UNL A   1      39.478  26.718  28.244  1.00  0.00     0.031 C 
ATOM     46  C   UNL A   1      46.019  24.600  28.819  1.00  0.00     0.029 A 
ATOM     47  C   UNL A   1      45.749  25.967  29.250  1.00  0.00     0.049 A 
ATOM     48  H   UNL A   1      43.908  26.940  29.298  1.00  0.00     0.167 HD
ATOM     49  C   UNL A   1      40.024  28.944  29.168  1.00  0.00     0.031 A 
ATOM     50  C   UNL A   1      46.673  26.838  29.698  1.00  0.00     0.031 A 
ATOM     51  C   UNL A   1      40.924  29.917  29.725  1.00  0.00     0.049 A 
ATOM     52  C   UNL A   1      46.241  28.220  30.104  1.00  0.00     0.074 A 
ATOM     53  C   UNL A   1      40.640  31.191  30.186  1.00  0.00     0.029 A 
ATOM     54  N   UNL A   1      42.284  29.719  29.902  1.00  0.00    -0.354 N 
ATOM     55  N   UNL A   1      45.042  28.750  30.092  1.00  0.00    -0.248 NA
ATOM     56  C   UNL A   1      47.292  29.122  30.598  1.00  0.00     0.031 C 
ATOM     57  C   UNL A   1      41.838  31.781  30.603  1.00  0.00     0.029 A 
ATOM     58  C   UNL A   1      42.857  30.853  30.453  1.00  0.00     0.049 A 
ATOM     59  H   UNL A   1      42.771  28.895  29.671  1.00  0.00     0.167 HD
ATOM     60  C   UNL A   1      45.189  30.032  30.605  1.00  0.00     0.074 A 
ATOM     61  C   UNL A   1      46.590  30.194  30.936  1.00  0.00     0.031 C 
ATOM     62  C   UNL A   1      44.250  30.992  30.785  1.00  0.00     0.031 A 
BRANCH  49  63
ATOM     63  C   UNL A   1      38.576  29.318  29.007  1.00  0.00    -0.014 A 
ATOM     64  C   UNL A   1      37.685  29.246  30.091  1.00  0.00     0.009 A 
ATOM     65  C   UNL A   1      38.099  29.773  27.768  1.00  0.00     0.009 A 
ATOM     66  C   UNL A   1      36.340  29.584  29.927  1.00  0.00     0.001 A 
ATOM     67  C   UNL A   1      36.761  30.142  27.615  1.00  0.00     0.001 A 
ATOM     68  C   UNL A   1      35.881  30.036  28.691  1.00  0.00     0.000 A 
ENDBRANCH  49  63
BRANCH  50  69
ATOM     69  C   UNL A   1      48.101  26.435  29.796  1.00  0.00    -0.014 A 
ATOM     70  C   UNL A   1      48.974  26.630  28.714  1.00  0.00     0.009 A 
ATOM     71  C   UNL A   1      48.595  25.828  30.962  1.00  0.00     0.009 A 
ATOM     72  C   UNL A   1      50.298  26.192  28.782  1.00  0.00     0.001 A 
ATOM     73  C   UNL A   1      49.929  25.420  31.038  1.00  0.00     0.001 A 
ATOM     74  C   UNL A   1      50.775  25.590  29.944  1.00  0.00     0.000 A 
ENDBRANCH  50  69
BRANCH  62  75
ATOM     75  C   UNL A   1      44.697  32.284  31.409  1.00  0.00    -0.014 A 
ATOM     76  C   UNL A   1      45.127  33.365  30.624  1.00  0.00     0.009 A 
ATOM     77  C   UNL A   1      44.649  32.431  32.804  1.00  0.00     0.009 A 
ATOM     78  C   UNL A   1      45.533  34.556  31.227  1.00  0.00     0.001 A 
ATOM     79  C   UNL A   1      45.026  33.634  33.402  1.00  0.00     0.001 A 
ATOM     80  C   UNL A   1      45.476  34.692  32.614  1.00  0.00     0.000 A 
ENDBRANCH  62  75
ENDBRANCH  36  37
ENDBRANCH  28  31
ENDBRANCH  26  27
ENDBRANCH   1  26
TORSDOF 13
ENDMDL
