MODEL 1
REMARK VINA RESULT:     -11.6      0.000      0.000
REMARK SMILES O=C(NCCCNC(=O)[C@@H]1[C@@H](C(=O)Nc2cccc(C(F)(F)F)c2)[C@@H]2C=C[C@H]1O2)c1ccc(-c2c3nc(c(-c4ccccc4)c4ccc([nH]4)c(-c4ccccc4)c4nc(c(-c5ccccc5)c5ccc2[nH]5)C=C4)C=C3)cc1
REMARK SMILES IDX 5 1 4 2 3 3 1 4 2 5 30 7 31 8 77 9 32 10 76 11 33 12 34 13
REMARK SMILES IDX 35 14 70 15 36 16 75 17 69 18 71 19 37 20 74 21 68 22 67 23
REMARK SMILES IDX 38 25 60 26 45 27 59 28 46 29 49 30 58 31 72 32 47 33 48 34
REMARK SMILES IDX 57 36 73 37 50 38 39 39 40 40 44 41 41 42 43 43 42 44 61 45
REMARK SMILES IDX 62 46 66 47 63 48 65 49 64 50 51 51 52 52 56 53 53 54 55 55
REMARK SMILES IDX 54 56 6 57 7 58 8 59 9 61 10 62 11 63 28 64 25 65 27 66
REMARK SMILES IDX 29 67 26 68 12 69 13 70 14 71 15 73 16 74 24 75 17 76 19 77
REMARK SMILES IDX 18 78 20 79 21 80 22 81 23 82
REMARK H PARENT 3 6 71 24 49 35 7 60 14 72
REMARK Flexibility Score: inf
ROOT
ATOM      1  C   UNL A   1      37.782  19.930  24.608  1.00  0.00     0.042 C 
ENDROOT
BRANCH   1   2
ATOM      2  C   UNL A   1      38.723  20.199  25.773  1.00  0.00     0.118 C 
BRANCH   2   3
ATOM      3  N   UNL A   1      39.874  19.306  25.787  1.00  0.00    -0.352 N 
ATOM      4  O   UNL A   1      42.051  18.726  25.835  1.00  0.00    -0.269 OA
ATOM      5  C   UNL A   1      41.192  19.574  26.061  1.00  0.00     0.251 C 
ATOM      6  H   UNL A   1      39.676  18.367  25.565  1.00  0.00     0.163 HD
BRANCH   5   7
ATOM      7  C   UNL A   1      41.580  20.890  26.607  1.00  0.00     0.039 A 
ATOM      8  C   UNL A   1      41.474  21.150  27.974  1.00  0.00     0.014 A 
ATOM      9  C   UNL A   1      42.068  21.873  25.741  1.00  0.00     0.014 A 
ATOM     10  C   UNL A   1      41.700  22.435  28.451  1.00  0.00     0.010 A 
ATOM     11  C   UNL A   1      42.394  23.136  26.241  1.00  0.00     0.010 A 
ATOM     12  C   UNL A   1      42.182  23.436  27.595  1.00  0.00    -0.014 A 
BRANCH  12  13
ATOM     13  C   UNL A   1      42.523  24.765  28.159  1.00  0.00     0.031 A 
ATOM     14  C   UNL A   1      43.938  25.120  28.520  1.00  0.00     0.074 A 
ATOM     15  C   UNL A   1      41.535  25.668  28.313  1.00  0.00     0.049 A 
ATOM     16  N   UNL A   1      44.402  26.246  29.001  1.00  0.00    -0.248 NA
ATOM     17  C   UNL A   1      44.962  24.083  28.325  1.00  0.00     0.031 C 
ATOM     18  C   UNL A   1      40.123  25.436  27.998  1.00  0.00     0.029 A 
ATOM     19  N   UNL A   1      41.569  26.967  28.747  1.00  0.00    -0.354 N 
ATOM     20  C   UNL A   1      45.764  26.047  29.187  1.00  0.00     0.074 A 
ATOM     21  C   UNL A   1      46.049  24.686  28.787  1.00  0.00     0.031 C 
ATOM     22  C   UNL A   1      39.436  26.569  28.197  1.00  0.00     0.029 A 
ATOM     23  C   UNL A   1      40.343  27.584  28.718  1.00  0.00     0.049 A 
ATOM     24  H   UNL A   1      42.391  27.414  29.051  1.00  0.00     0.167 HD
ATOM     25  C   UNL A   1      46.692  26.923  29.645  1.00  0.00     0.031 A 
ATOM     26  C   UNL A   1      39.979  28.825  29.085  1.00  0.00     0.031 A 
ATOM     27  C   UNL A   1      46.404  28.277  30.039  1.00  0.00     0.049 A 
ATOM     28  C   UNL A   1      41.021  29.761  29.618  1.00  0.00     0.074 A 
ATOM     29  C   UNL A   1      47.282  29.249  30.489  1.00  0.00     0.029 A 
ATOM     30  N   UNL A   1      45.142  28.851  30.035  1.00  0.00    -0.354 N 
ATOM     31  N   UNL A   1      42.309  29.564  29.761  1.00  0.00    -0.248 NA
ATOM     32  C   UNL A   1      40.559  31.086  30.046  1.00  0.00     0.031 C 
ATOM     33  C   UNL A   1      46.543  30.395  30.804  1.00  0.00     0.029 A 
ATOM     34  C   UNL A   1      45.213  30.154  30.500  1.00  0.00     0.049 A 
ATOM     35  H   UNL A   1      44.316  28.398  29.746  1.00  0.00     0.167 HD
ATOM     36  C   UNL A   1      42.815  30.746  30.282  1.00  0.00     0.074 A 
ATOM     37  C   UNL A   1      41.698  31.661  30.408  1.00  0.00     0.031 C 
ATOM     38  C   UNL A   1      44.091  31.045  30.628  1.00  0.00     0.031 A 
BRANCH  25  39
ATOM     39  C   UNL A   1      48.107  26.432  29.774  1.00  0.00    -0.014 A 
ATOM     40  C   UNL A   1      48.561  25.810  30.949  1.00  0.00     0.009 A 
ATOM     41  C   UNL A   1      48.987  26.550  28.686  1.00  0.00     0.009 A 
ATOM     42  C   UNL A   1      49.875  25.344  31.039  1.00  0.00     0.001 A 
ATOM     43  C   UNL A   1      50.291  26.061  28.771  1.00  0.00     0.001 A 
ATOM     44  C   UNL A   1      50.737  25.465  29.951  1.00  0.00     0.000 A 
ENDBRANCH  25  39
BRANCH  26  45
ATOM     45  C   UNL A   1      38.558  29.240  28.972  1.00  0.00    -0.014 A 
ATOM     46  C   UNL A   1      37.697  29.152  30.075  1.00  0.00     0.009 A 
ATOM     47  C   UNL A   1      38.061  29.746  27.759  1.00  0.00     0.009 A 
ATOM     48  C   UNL A   1      36.362  29.546  29.961  1.00  0.00     0.001 A 
ATOM     49  C   UNL A   1      36.735  30.166  27.656  1.00  0.00     0.001 A 
ATOM     50  C   UNL A   1      35.884  30.058  28.755  1.00  0.00     0.000 A 
ENDBRANCH  26  45
BRANCH  38  51
ATOM     51  C   UNL A   1      44.342  32.429  31.153  1.00  0.00    -0.014 A 
ATOM     52  C   UNL A   1      44.281  32.706  32.528  1.00  0.00     0.009 A 
ATOM     53  C   UNL A   1      44.665  33.463  30.262  1.00  0.00     0.009 A 
ATOM     54  C   UNL A   1      44.505  34.002  32.996  1.00  0.00     0.001 A 
ATOM     55  C   UNL A   1      44.916  34.753  30.736  1.00  0.00     0.001 A 
ATOM     56  C   UNL A   1      44.826  35.022  32.100  1.00  0.00     0.000 A 
ENDBRANCH  38  51
ENDBRANCH  12  13
ENDBRANCH   5   7
ENDBRANCH   2   3
ENDBRANCH   1   2
BRANCH   1  57
ATOM     57  C   UNL A   1      36.315  19.913  25.000  1.00  0.00     0.117 C 
BRANCH  57  58
ATOM     58  N   UNL A   1      35.957  21.087  25.773  1.00  0.00    -0.356 N 
ATOM     59  C   UNL A   1      35.101  22.097  25.465  1.00  0.00     0.227 C 
ATOM     60  H   UNL A   1      36.399  21.163  26.650  1.00  0.00     0.163 HD
ATOM     61  O   UNL A   1      35.109  23.090  26.194  1.00  0.00    -0.275 OA
BRANCH  59  62
ATOM     62  C   UNL A   1      34.197  21.962  24.259  1.00  0.00     0.127 C 
ATOM     63  C   UNL A   1      33.285  23.215  24.058  1.00  0.00     0.127 C 
ATOM     64  C   UNL A   1      33.140  20.861  24.455  1.00  0.00     0.155 C 
ATOM     65  C   UNL A   1      31.882  22.581  24.076  1.00  0.00     0.155 C 
ATOM     66  C   UNL A   1      32.335  21.068  25.706  1.00  0.00     0.004 C 
ATOM     67  O   UNL A   1      32.160  21.288  23.477  1.00  0.00    -0.365 OA
ATOM     68  C   UNL A   1      31.560  22.135  25.472  1.00  0.00     0.004 C 
BRANCH  63  69
ATOM     69  C   UNL A   1      33.517  23.956  22.751  1.00  0.00     0.231 C 
ATOM     70  O   UNL A   1      34.104  23.440  21.798  1.00  0.00    -0.274 OA
ATOM     71  N   UNL A   1      33.016  25.228  22.592  1.00  0.00    -0.326 N 
ATOM     72  H   UNL A   1      33.052  25.580  21.674  1.00  0.00     0.169 HD
BRANCH  71  73
ATOM     73  C   UNL A   1      32.461  26.097  23.544  1.00  0.00     0.041 A 
ATOM     74  C   UNL A   1      31.071  26.211  23.593  1.00  0.00     0.026 A 
ATOM     75  C   UNL A   1      33.237  26.833  24.442  1.00  0.00     0.039 A 
ATOM     76  C   UNL A   1      30.464  26.957  24.605  1.00  0.00     0.003 A 
ATOM     77  C   UNL A   1      32.643  27.581  25.470  1.00  0.00     0.058 A 
ATOM     78  C   UNL A   1      31.245  27.624  25.550  1.00  0.00     0.013 A 
BRANCH  77  79
ATOM     79  C   UNL A   1      33.490  28.315  26.480  1.00  0.00     0.416 C 
ATOM     80  F   UNL A   1      32.963  28.274  27.734  1.00  0.00    -0.166 F 
ATOM     81  F   UNL A   1      34.742  27.788  26.580  1.00  0.00    -0.166 F 
ATOM     82  F   UNL A   1      33.665  29.633  26.190  1.00  0.00    -0.166 F 
ENDBRANCH  77  79
ENDBRANCH  71  73
ENDBRANCH  63  69
ENDBRANCH  59  62
ENDBRANCH  57  58
ENDBRANCH   1  57
TORSDOF 13
ENDMDL
MODEL 2
REMARK VINA RESULT:     -11.6      0.224      5.872
REMARK SMILES O=C(NCCCNC(=O)[C@@H]1[C@@H](C(=O)Nc2cccc(C(F)(F)F)c2)[C@@H]2C=C[C@H]1O2)c1ccc(-c2c3nc(c(-c4ccccc4)c4ccc([nH]4)c(-c4ccccc4)c4nc(c(-c5ccccc5)c5ccc2[nH]5)C=C4)C=C3)cc1
REMARK SMILES IDX 5 1 4 2 3 3 1 4 2 5 30 7 31 8 77 9 32 10 76 11 33 12 34 13
REMARK SMILES IDX 35 14 70 15 36 16 75 17 69 18 71 19 37 20 74 21 68 22 67 23
REMARK SMILES IDX 38 25 60 26 45 27 59 28 46 29 49 30 58 31 72 32 47 33 48 34
REMARK SMILES IDX 57 36 73 37 50 38 39 39 40 40 44 41 41 42 43 43 42 44 61 45
REMARK SMILES IDX 62 46 66 47 63 48 65 49 64 50 51 51 52 52 56 53 53 54 55 55
REMARK SMILES IDX 54 56 6 57 7 58 8 59 9 61 10 62 11 63 28 64 25 65 27 66
REMARK SMILES IDX 29 67 26 68 12 69 13 70 14 71 15 73 16 74 24 75 17 76 19 77
REMARK SMILES IDX 18 78 20 79 21 80 22 81 23 82
REMARK H PARENT 3 6 71 24 49 35 7 60 14 72
REMARK Flexibility Score: inf
ROOT
ATOM      1  C   UNL A   1      37.772  19.950  24.607  1.00  0.00     0.042 C 
ENDROOT
BRANCH   1   2
ATOM      2  C   UNL A   1      38.710  20.228  25.772  1.00  0.00     0.118 C 
BRANCH   2   3
ATOM      3  N   UNL A   1      39.846  19.317  25.812  1.00  0.00    -0.352 N 
ATOM      4  O   UNL A   1      42.013  18.703  25.877  1.00  0.00    -0.269 OA
ATOM      5  C   UNL A   1      41.168  19.571  26.078  1.00  0.00     0.251 C 
ATOM      6  H   UNL A   1      39.632  18.375  25.618  1.00  0.00     0.163 HD
BRANCH   5   7
ATOM      7  C   UNL A   1      41.577  20.897  26.585  1.00  0.00     0.039 A 
ATOM      8  C   UNL A   1      41.536  21.177  27.952  1.00  0.00     0.014 A 
ATOM      9  C   UNL A   1      42.021  21.867  25.683  1.00  0.00     0.014 A 
ATOM     10  C   UNL A   1      41.781  22.469  28.398  1.00  0.00     0.010 A 
ATOM     11  C   UNL A   1      42.367  23.139  26.147  1.00  0.00     0.010 A 
ATOM     12  C   UNL A   1      42.219  23.459  27.505  1.00  0.00    -0.014 A 
BRANCH  12  13
ATOM     13  C   UNL A   1      42.582  24.796  28.032  1.00  0.00     0.031 A 
ATOM     14  C   UNL A   1      41.538  25.850  28.275  1.00  0.00     0.074 A 
ATOM     15  C   UNL A   1      43.874  25.042  28.324  1.00  0.00     0.049 A 
ATOM     16  N   UNL A   1      41.691  27.059  28.753  1.00  0.00    -0.248 NA
ATOM     17  C   UNL A   1      40.148  25.510  27.932  1.00  0.00     0.031 C 
ATOM     18  C   UNL A   1      44.977  24.096  28.129  1.00  0.00     0.029 A 
ATOM     19  N   UNL A   1      44.476  26.145  28.867  1.00  0.00    -0.354 N 
ATOM     20  C   UNL A   1      40.425  27.632  28.749  1.00  0.00     0.074 A 
ATOM     21  C   UNL A   1      39.518  26.646  28.201  1.00  0.00     0.031 C 
ATOM     22  C   UNL A   1      46.110  24.639  28.596  1.00  0.00     0.029 A 
ATOM     23  C   UNL A   1      45.827  25.992  29.057  1.00  0.00     0.049 A 
ATOM     24  H   UNL A   1      43.989  26.969  29.097  1.00  0.00     0.167 HD
ATOM     25  C   UNL A   1      40.054  28.866  29.168  1.00  0.00     0.031 A 
ATOM     26  C   UNL A   1      46.746  26.849  29.535  1.00  0.00     0.031 A 
ATOM     27  C   UNL A   1      40.959  29.843  29.715  1.00  0.00     0.049 A 
ATOM     28  C   UNL A   1      46.312  28.219  29.961  1.00  0.00     0.074 A 
ATOM     29  C   UNL A   1      40.672  31.110  30.194  1.00  0.00     0.029 A 
ATOM     30  N   UNL A   1      42.327  29.664  29.852  1.00  0.00    -0.354 N 
ATOM     31  N   UNL A   1      45.106  28.733  29.976  1.00  0.00    -0.248 NA
ATOM     32  C   UNL A   1      47.364  29.127  30.431  1.00  0.00     0.031 C 
ATOM     33  C   UNL A   1      41.875  31.716  30.575  1.00  0.00     0.029 A 
ATOM     34  C   UNL A   1      42.903  30.807  30.383  1.00  0.00     0.049 A 
ATOM     35  H   UNL A   1      42.817  28.846  29.607  1.00  0.00     0.167 HD
ATOM     36  C   UNL A   1      45.253  30.021  30.469  1.00  0.00     0.074 A 
ATOM     37  C   UNL A   1      46.660  30.201  30.764  1.00  0.00     0.031 C 
ATOM     38  C   UNL A   1      44.305  30.971  30.659  1.00  0.00     0.031 A 
BRANCH  25  39
ATOM     39  C   UNL A   1      38.606  29.243  29.024  1.00  0.00    -0.014 A 
ATOM     40  C   UNL A   1      37.715  29.151  30.105  1.00  0.00     0.009 A 
ATOM     41  C   UNL A   1      38.136  29.745  27.799  1.00  0.00     0.009 A 
ATOM     42  C   UNL A   1      36.377  29.525  29.953  1.00  0.00     0.001 A 
ATOM     43  C   UNL A   1      36.805  30.141  27.658  1.00  0.00     0.001 A 
ATOM     44  C   UNL A   1      35.924  30.024  28.733  1.00  0.00     0.000 A 
ENDBRANCH  25  39
BRANCH  26  45
ATOM     45  C   UNL A   1      48.170  26.433  29.617  1.00  0.00    -0.014 A 
ATOM     46  C   UNL A   1      49.049  26.679  28.553  1.00  0.00     0.009 A 
ATOM     47  C   UNL A   1      48.659  25.804  30.773  1.00  0.00     0.009 A 
ATOM     48  C   UNL A   1      50.386  26.286  28.638  1.00  0.00     0.001 A 
ATOM     49  C   UNL A   1      50.002  25.439  30.867  1.00  0.00     0.001 A 
ATOM     50  C   UNL A   1      50.863  25.673  29.797  1.00  0.00     0.000 A 
ENDBRANCH  26  45
BRANCH  38  51
ATOM     51  C   UNL A   1      44.766  32.280  31.234  1.00  0.00    -0.014 A 
ATOM     52  C   UNL A   1      45.184  33.331  30.402  1.00  0.00     0.009 A 
ATOM     53  C   UNL A   1      44.759  32.470  32.624  1.00  0.00     0.009 A 
ATOM     54  C   UNL A   1      45.621  34.536  30.956  1.00  0.00     0.001 A 
ATOM     55  C   UNL A   1      45.170  33.686  33.173  1.00  0.00     0.001 A 
ATOM     56  C   UNL A   1      45.609  34.713  32.339  1.00  0.00     0.000 A 
ENDBRANCH  38  51
ENDBRANCH  12  13
ENDBRANCH   5   7
ENDBRANCH   2   3
ENDBRANCH   1   2
BRANCH   1  57
ATOM     57  C   UNL A   1      36.305  19.911  24.999  1.00  0.00     0.117 C 
BRANCH  57  58
ATOM     58  N   UNL A   1      35.929  21.081  25.768  1.00  0.00    -0.356 N 
ATOM     59  C   UNL A   1      35.071  22.087  25.450  1.00  0.00     0.227 C 
ATOM     60  H   UNL A   1      36.357  21.159  26.652  1.00  0.00     0.163 HD
ATOM     61  O   UNL A   1      35.063  23.079  26.180  1.00  0.00    -0.275 OA
BRANCH  59  62
ATOM     62  C   UNL A   1      34.186  21.949  24.230  1.00  0.00     0.127 C 
ATOM     63  C   UNL A   1      33.259  23.190  24.026  1.00  0.00     0.127 C 
ATOM     64  C   UNL A   1      33.142  20.831  24.403  1.00  0.00     0.155 C 
ATOM     65  C   UNL A   1      31.866  22.536  24.020  1.00  0.00     0.155 C 
ATOM     66  C   UNL A   1      32.317  21.017  25.644  1.00  0.00     0.004 C 
ATOM     67  O   UNL A   1      32.170  21.252  23.415  1.00  0.00    -0.365 OA
ATOM     68  C   UNL A   1      31.531  22.075  25.408  1.00  0.00     0.004 C 
BRANCH  63  69
ATOM     69  C   UNL A   1      33.499  23.944  22.728  1.00  0.00     0.231 C 
ATOM     70  O   UNL A   1      34.081  23.434  21.769  1.00  0.00    -0.274 OA
ATOM     71  N   UNL A   1      33.009  25.222  22.583  1.00  0.00    -0.326 N 
ATOM     72  H   UNL A   1      33.049  25.585  21.670  1.00  0.00     0.169 HD
BRANCH  71  73
ATOM     73  C   UNL A   1      32.461  26.086  23.546  1.00  0.00     0.041 A 
ATOM     74  C   UNL A   1      31.071  26.190  23.614  1.00  0.00     0.026 A 
ATOM     75  C   UNL A   1      33.245  26.824  24.434  1.00  0.00     0.039 A 
ATOM     76  C   UNL A   1      30.474  26.929  24.637  1.00  0.00     0.003 A 
ATOM     77  C   UNL A   1      32.660  27.566  25.472  1.00  0.00     0.058 A 
ATOM     78  C   UNL A   1      31.263  27.599  25.573  1.00  0.00     0.013 A 
BRANCH  77  79
ATOM     79  C   UNL A   1      33.516  28.303  26.473  1.00  0.00     0.416 C 
ATOM     80  F   UNL A   1      33.683  29.614  26.153  1.00  0.00    -0.166 F 
ATOM     81  F   UNL A   1      32.977  28.285  27.723  1.00  0.00    -0.166 F 
ATOM     82  F   UNL A   1      34.769  27.786  26.603  1.00  0.00    -0.166 F 
ENDBRANCH  77  79
ENDBRANCH  71  73
ENDBRANCH  63  69
ENDBRANCH  59  62
ENDBRANCH  57  58
ENDBRANCH   1  57
TORSDOF 13
ENDMDL
MODEL 3
REMARK VINA RESULT:     -11.5      4.181      8.982
REMARK SMILES O=C(NCCCNC(=O)[C@@H]1[C@@H](C(=O)Nc2cccc(C(F)(F)F)c2)[C@@H]2C=C[C@H]1O2)c1ccc(-c2c3nc(c(-c4ccccc4)c4ccc([nH]4)c(-c4ccccc4)c4nc(c(-c5ccccc5)c5ccc2[nH]5)C=C4)C=C3)cc1
REMARK SMILES IDX 5 1 4 2 3 3 1 4 2 5 30 7 31 8 77 9 32 10 76 11 33 12 34 13
REMARK SMILES IDX 35 14 70 15 36 16 75 17 69 18 71 19 37 20 74 21 68 22 67 23
REMARK SMILES IDX 38 25 60 26 45 27 59 28 46 29 49 30 58 31 72 32 47 33 48 34
REMARK SMILES IDX 57 36 73 37 50 38 39 39 40 40 44 41 41 42 43 43 42 44 61 45
REMARK SMILES IDX 62 46 66 47 63 48 65 49 64 50 51 51 52 52 56 53 53 54 55 55
REMARK SMILES IDX 54 56 6 57 7 58 8 59 9 61 10 62 11 63 28 64 25 65 27 66
REMARK SMILES IDX 29 67 26 68 12 69 13 70 14 71 15 73 16 74 24 75 17 76 19 77
REMARK SMILES IDX 18 78 20 79 21 80 22 81 23 82
REMARK H PARENT 3 6 71 24 49 35 7 60 14 72
REMARK Flexibility Score: inf
ROOT
ATOM      1  C   UNL A   1      31.302  31.784  26.243  1.00  0.00     0.042 C 
ENDROOT
BRANCH   1   2
ATOM      2  C   UNL A   1      32.546  32.319  26.937  1.00  0.00     0.118 C 
BRANCH   2   3
ATOM      3  N   UNL A   1      32.375  33.679  27.431  1.00  0.00    -0.352 N 
ATOM      4  O   UNL A   1      32.692  35.448  28.790  1.00  0.00    -0.269 OA
ATOM      5  C   UNL A   1      33.105  34.373  28.364  1.00  0.00     0.251 C 
ATOM      6  H   UNL A   1      31.622  34.175  27.037  1.00  0.00     0.163 HD
BRANCH   5   7
ATOM      7  C   UNL A   1      34.376  33.816  28.871  1.00  0.00     0.039 A 
ATOM      8  C   UNL A   1      35.588  34.148  28.263  1.00  0.00     0.014 A 
ATOM      9  C   UNL A   1      34.356  32.962  29.977  1.00  0.00     0.014 A 
ATOM     10  C   UNL A   1      36.754  33.505  28.654  1.00  0.00     0.010 A 
ATOM     11  C   UNL A   1      35.547  32.395  30.435  1.00  0.00     0.010 A 
ATOM     12  C   UNL A   1      36.752  32.637  29.757  1.00  0.00    -0.014 A 
BRANCH  12  13
ATOM     13  C   UNL A   1      38.035  32.055  30.220  1.00  0.00     0.031 A 
ATOM     14  C   UNL A   1      38.842  32.710  31.305  1.00  0.00     0.074 A 
ATOM     15  C   UNL A   1      38.451  30.899  29.667  1.00  0.00     0.049 A 
ATOM     16  N   UNL A   1      39.972  32.315  31.837  1.00  0.00    -0.248 NA
ATOM     17  C   UNL A   1      38.325  33.970  31.861  1.00  0.00     0.031 C 
ATOM     18  C   UNL A   1      37.751  30.172  28.604  1.00  0.00     0.029 A 
ATOM     19  N   UNL A   1      39.546  30.121  29.936  1.00  0.00    -0.354 N 
ATOM     20  C   UNL A   1      40.311  33.285  32.772  1.00  0.00     0.074 A 
ATOM     21  C   UNL A   1      39.280  34.299  32.721  1.00  0.00     0.031 C 
ATOM     22  C   UNL A   1      38.403  29.029  28.350  1.00  0.00     0.029 A 
ATOM     23  C   UNL A   1      39.600  28.976  29.180  1.00  0.00     0.049 A 
ATOM     24  H   UNL A   1      40.228  30.359  30.605  1.00  0.00     0.167 HD
ATOM     25  C   UNL A   1      41.383  33.322  33.600  1.00  0.00     0.031 A 
ATOM     26  C   UNL A   1      40.519  27.996  29.142  1.00  0.00     0.031 A 
ATOM     27  C   UNL A   1      42.406  32.310  33.649  1.00  0.00     0.049 A 
ATOM     28  C   UNL A   1      41.711  28.081  30.047  1.00  0.00     0.074 A 
ATOM     29  C   UNL A   1      43.516  32.246  34.475  1.00  0.00     0.029 A 
ATOM     30  N   UNL A   1      42.447  31.187  32.838  1.00  0.00    -0.354 N 
ATOM     31  N   UNL A   1      42.001  28.991  30.944  1.00  0.00    -0.248 NA
ATOM     32  C   UNL A   1      42.704  27.006  29.930  1.00  0.00     0.031 C 
ATOM     33  C   UNL A   1      44.254  31.108  34.128  1.00  0.00     0.029 A 
ATOM     34  C   UNL A   1      43.577  30.437  33.123  1.00  0.00     0.049 A 
ATOM     35  H   UNL A   1      41.773  30.957  32.157  1.00  0.00     0.167 HD
ATOM     36  C   UNL A   1      43.204  28.593  31.509  1.00  0.00     0.074 A 
ATOM     37  C   UNL A   1      43.576  27.347  30.870  1.00  0.00     0.031 C 
ATOM     38  C   UNL A   1      43.936  29.206  32.470  1.00  0.00     0.031 A 
BRANCH  25  39
ATOM     39  C   UNL A   1      41.523  34.516  34.503  1.00  0.00    -0.014 A 
ATOM     40  C   UNL A   1      42.205  35.671  34.088  1.00  0.00     0.009 A 
ATOM     41  C   UNL A   1      40.921  34.503  35.772  1.00  0.00     0.009 A 
ATOM     42  C   UNL A   1      42.305  36.777  34.937  1.00  0.00     0.001 A 
ATOM     43  C   UNL A   1      41.002  35.618  36.607  1.00  0.00     0.001 A 
ATOM     44  C   UNL A   1      41.701  36.752  36.193  1.00  0.00     0.000 A 
ENDBRANCH  25  39
BRANCH  26  45
ATOM     45  C   UNL A   1      40.347  26.860  28.200  1.00  0.00    -0.014 A 
ATOM     46  C   UNL A   1      39.665  25.701  28.594  1.00  0.00     0.009 A 
ATOM     47  C   UNL A   1      40.851  26.942  26.892  1.00  0.00     0.009 A 
ATOM     48  C   UNL A   1      39.506  24.638  27.703  1.00  0.00     0.001 A 
ATOM     49  C   UNL A   1      40.666  25.891  25.994  1.00  0.00     0.001 A 
ATOM     50  C   UNL A   1      40.000  24.737  26.402  1.00  0.00     0.000 A 
ENDBRANCH  26  45
BRANCH  38  51
ATOM     51  C   UNL A   1      45.200  28.519  32.900  1.00  0.00    -0.014 A 
ATOM     52  C   UNL A   1      46.428  28.811  32.286  1.00  0.00     0.009 A 
ATOM     53  C   UNL A   1      45.163  27.586  33.946  1.00  0.00     0.009 A 
ATOM     54  C   UNL A   1      47.591  28.152  32.691  1.00  0.00     0.001 A 
ATOM     55  C   UNL A   1      46.332  26.949  34.367  1.00  0.00     0.001 A 
ATOM     56  C   UNL A   1      47.542  27.226  33.733  1.00  0.00     0.000 A 
ENDBRANCH  38  51
ENDBRANCH  12  13
ENDBRANCH   5   7
ENDBRANCH   2   3
ENDBRANCH   1   2
BRANCH   1  57
ATOM     57  C   UNL A   1      31.335  30.285  26.000  1.00  0.00     0.117 C 
BRANCH  57  58
ATOM     58  N   UNL A   1      31.609  29.977  24.610  1.00  0.00    -0.356 N 
ATOM     59  C   UNL A   1      30.757  29.586  23.626  1.00  0.00     0.227 C 
ATOM     60  H   UNL A   1      32.553  30.064  24.339  1.00  0.00     0.163 HD
ATOM     61  O   UNL A   1      31.252  29.189  22.570  1.00  0.00    -0.275 OA
BRANCH  59  62
ATOM     62  C   UNL A   1      29.265  29.649  23.869  1.00  0.00     0.127 C 
ATOM     63  C   UNL A   1      28.466  28.725  22.894  1.00  0.00     0.127 C 
ATOM     64  C   UNL A   1      28.682  31.027  23.509  1.00  0.00     0.155 C 
ATOM     65  C   UNL A   1      27.508  29.733  22.232  1.00  0.00     0.155 C 
ATOM     66  C   UNL A   1      29.012  31.427  22.099  1.00  0.00     0.004 C 
ATOM     67  O   UNL A   1      27.292  30.663  23.326  1.00  0.00    -0.365 OA
ATOM     68  C   UNL A   1      28.288  30.623  21.310  1.00  0.00     0.004 C 
BRANCH  63  69
ATOM     69  C   UNL A   1      27.682  27.618  23.580  1.00  0.00     0.231 C 
ATOM     70  O   UNL A   1      26.473  27.709  23.803  1.00  0.00    -0.274 OA
ATOM     71  N   UNL A   1      28.318  26.447  23.924  1.00  0.00    -0.326 N 
ATOM     72  H   UNL A   1      27.724  25.715  24.205  1.00  0.00     0.169 HD
BRANCH  71  73
ATOM     73  C   UNL A   1      29.688  26.141  23.933  1.00  0.00     0.041 A 
ATOM     74  C   UNL A   1      30.231  25.539  22.796  1.00  0.00     0.026 A 
ATOM     75  C   UNL A   1      30.521  26.426  25.017  1.00  0.00     0.039 A 
ATOM     76  C   UNL A   1      31.609  25.337  22.702  1.00  0.00     0.003 A 
ATOM     77  C   UNL A   1      31.909  26.236  24.934  1.00  0.00     0.058 A 
ATOM     78  C   UNL A   1      32.447  25.700  23.757  1.00  0.00     0.013 A 
BRANCH  77  79
ATOM     79  C   UNL A   1      32.810  26.614  26.084  1.00  0.00     0.416 C 
ATOM     80  F   UNL A   1      32.115  26.966  27.199  1.00  0.00    -0.166 F 
ATOM     81  F   UNL A   1      33.626  25.589  26.456  1.00  0.00    -0.166 F 
ATOM     82  F   UNL A   1      33.634  27.662  25.809  1.00  0.00    -0.166 F 
ENDBRANCH  77  79
ENDBRANCH  71  73
ENDBRANCH  63  69
ENDBRANCH  59  62
ENDBRANCH  57  58
ENDBRANCH   1  57
TORSDOF 13
ENDMDL
