MODEL 1
REMARK VINA RESULT:     -11.2      0.000      0.000
REMARK SMILES O=C(NCCCNC(=O)[C@H]1Cc2cc(O)ccc2C[NH2+]1)c1ccc(-c2c3nc(c(-c4ccccc4)c4ccc([nH]4)c(-c4ccccc4)c4nc(c(-c5ccccc5)c5ccc2[nH]5)C=C4)C=C3)cc1
REMARK SMILES IDX 4 1 3 2 1 3 2 4 21 6 22 7 68 8 23 9 67 10 24 11 25 12 26 13
REMARK SMILES IDX 61 14 27 15 66 16 60 17 62 18 28 19 65 20 59 21 58 22 29 24
REMARK SMILES IDX 51 25 36 26 50 27 37 28 40 29 49 30 63 31 38 32 39 33 48 35
REMARK SMILES IDX 64 36 41 37 30 38 31 39 35 40 32 41 34 42 33 43 52 44 53 45
REMARK SMILES IDX 57 46 54 47 56 48 55 49 42 50 43 51 47 52 44 53 46 54 45 55
REMARK SMILES IDX 5 56 6 57 7 58 8 59 9 61 10 62 11 63 20 64 12 65 19 66 13 69
REMARK SMILES IDX 18 70 14 71 17 72 16 73 15 74
REMARK H PARENT 3 5 62 23 40 34 7 60 20 67 20 68 15 75
REMARK Flexibility Score: inf
ROOT
ATOM      1  C   UNL A   1      33.348  28.877  27.252  1.00  0.00     0.118 C 
ENDROOT
BRANCH   1   2
ATOM      2  N   UNL A   1      33.505  30.250  27.711  1.00  0.00    -0.352 N 
ATOM      3  O   UNL A   1      34.361  31.997  28.822  1.00  0.00    -0.269 OA
ATOM      4  C   UNL A   1      34.546  30.881  28.344  1.00  0.00     0.251 C 
ATOM      5  H   UNL A   1      32.727  30.827  27.537  1.00  0.00     0.163 HD
BRANCH   4   6
ATOM      6  C   UNL A   1      35.883  30.252  28.463  1.00  0.00     0.039 A 
ATOM      7  C   UNL A   1      36.230  29.644  29.675  1.00  0.00     0.014 A 
ATOM      8  C   UNL A   1      36.833  30.337  27.443  1.00  0.00     0.014 A 
ATOM      9  C   UNL A   1      37.510  29.109  29.853  1.00  0.00     0.010 A 
ATOM     10  C   UNL A   1      38.072  29.718  27.582  1.00  0.00     0.010 A 
ATOM     11  C   UNL A   1      38.440  29.135  28.803  1.00  0.00    -0.014 A 
BRANCH  11  12
ATOM     12  C   UNL A   1      39.833  28.657  28.988  1.00  0.00     0.031 A 
ATOM     13  C   UNL A   1      40.853  29.570  29.619  1.00  0.00     0.074 A 
ATOM     14  C   UNL A   1      40.195  27.428  28.574  1.00  0.00     0.049 A 
ATOM     15  N   UNL A   1      42.134  29.376  29.805  1.00  0.00    -0.248 NA
ATOM     16  C   UNL A   1      40.376  30.887  30.079  1.00  0.00     0.031 C 
ATOM     17  C   UNL A   1      39.308  26.453  27.938  1.00  0.00     0.029 A 
ATOM     18  N   UNL A   1      41.407  26.788  28.632  1.00  0.00    -0.354 N 
ATOM     19  C   UNL A   1      42.614  30.550  30.372  1.00  0.00     0.074 A 
ATOM     20  C   UNL A   1      41.503  31.470  30.454  1.00  0.00     0.031 C 
ATOM     21  C   UNL A   1      39.996  25.322  27.705  1.00  0.00     0.029 A 
ATOM     22  C   UNL A   1      41.379  25.507  28.137  1.00  0.00     0.049 A 
ATOM     23  H   UNL A   1      42.221  27.207  28.996  1.00  0.00     0.167 HD
ATOM     24  C   UNL A   1      43.862  30.831  30.813  1.00  0.00     0.031 A 
ATOM     25  C   UNL A   1      42.354  24.583  28.048  1.00  0.00     0.031 A 
ATOM     26  C   UNL A   1      44.958  29.903  30.773  1.00  0.00     0.049 A 
ATOM     27  C   UNL A   1      43.733  24.914  28.551  1.00  0.00     0.074 A 
ATOM     28  C   UNL A   1      46.252  30.081  31.229  1.00  0.00     0.029 A 
ATOM     29  N   UNL A   1      44.883  28.616  30.264  1.00  0.00    -0.354 N 
ATOM     30  N   UNL A   1      44.166  26.022  29.099  1.00  0.00    -0.248 NA
ATOM     31  C   UNL A   1      44.753  23.862  28.433  1.00  0.00     0.031 C 
ATOM     32  C   UNL A   1      46.971  28.913  30.963  1.00  0.00     0.029 A 
ATOM     33  C   UNL A   1      46.109  27.990  30.390  1.00  0.00     0.049 A 
ATOM     34  H   UNL A   1      44.077  28.209  29.872  1.00  0.00     0.167 HD
ATOM     35  C   UNL A   1      45.499  25.796  29.415  1.00  0.00     0.074 A 
ATOM     36  C   UNL A   1      45.801  24.439  29.007  1.00  0.00     0.031 C 
ATOM     37  C   UNL A   1      46.391  26.637  29.989  1.00  0.00     0.031 A 
BRANCH  24  38
ATOM     38  C   UNL A   1      44.110  32.194  31.394  1.00  0.00    -0.014 A 
ATOM     39  C   UNL A   1      44.558  33.237  30.568  1.00  0.00     0.009 A 
ATOM     40  C   UNL A   1      43.960  32.433  32.769  1.00  0.00     0.009 A 
ATOM     41  C   UNL A   1      44.855  34.489  31.108  1.00  0.00     0.001 A 
ATOM     42  C   UNL A   1      44.230  33.695  33.301  1.00  0.00     0.001 A 
ATOM     43  C   UNL A   1      44.685  34.720  32.472  1.00  0.00     0.000 A 
ENDBRANCH  24  38
BRANCH  25  44
ATOM     44  C   UNL A   1      42.041  23.237  27.503  1.00  0.00    -0.014 A 
ATOM     45  C   UNL A   1      41.447  22.253  28.309  1.00  0.00     0.009 A 
ATOM     46  C   UNL A   1      42.375  22.917  26.178  1.00  0.00     0.009 A 
ATOM     47  C   UNL A   1      41.209  20.973  27.804  1.00  0.00     0.001 A 
ATOM     48  C   UNL A   1      42.112  21.644  25.668  1.00  0.00     0.001 A 
ATOM     49  C   UNL A   1      41.537  20.670  26.483  1.00  0.00     0.000 A 
ENDBRANCH  25  44
BRANCH  37  50
ATOM     50  C   UNL A   1      47.777  26.122  30.249  1.00  0.00    -0.014 A 
ATOM     51  C   UNL A   1      48.135  25.717  31.544  1.00  0.00     0.009 A 
ATOM     52  C   UNL A   1      48.756  26.140  29.245  1.00  0.00     0.009 A 
ATOM     53  C   UNL A   1      49.450  25.351  31.834  1.00  0.00     0.001 A 
ATOM     54  C   UNL A   1      50.065  25.749  29.531  1.00  0.00     0.001 A 
ATOM     55  C   UNL A   1      50.413  25.366  30.826  1.00  0.00     0.000 A 
ENDBRANCH  37  50
ENDBRANCH  11  12
ENDBRANCH   4   6
ENDBRANCH   1   2
BRANCH   1  56
ATOM     56  C   UNL A   1      31.972  28.307  27.559  1.00  0.00     0.042 C 
BRANCH  56  57
ATOM     57  C   UNL A   1      31.363  27.482  26.435  1.00  0.00     0.118 C 
BRANCH  57  58
ATOM     58  N   UNL A   1      31.005  26.133  26.849  1.00  0.00    -0.351 N 
ATOM     59  C   UNL A   1      31.567  24.919  26.588  1.00  0.00     0.278 C 
ATOM     60  H   UNL A   1      30.208  26.090  27.426  1.00  0.00     0.163 HD
ATOM     61  O   UNL A   1      31.047  23.945  27.147  1.00  0.00    -0.268 OA
BRANCH  59  62
ATOM     62  C   UNL A   1      32.725  24.702  25.595  1.00  0.00     0.277 C 
ATOM     63  C   UNL A   1      33.880  24.032  26.351  1.00  0.00     0.111 C 
ATOM     64  N   UNL A   1      32.310  23.955  24.396  1.00  0.00    -0.332 N 
ATOM     65  C   UNL A   1      34.992  23.601  25.431  1.00  0.00    -0.029 A 
ATOM     66  C   UNL A   1      33.404  23.757  23.451  1.00  0.00     0.298 C 
ATOM     67  H   UNL A   1      31.566  24.473  23.930  1.00  0.00     0.347 HD
ATOM     68  H   UNL A   1      31.995  23.034  24.699  1.00  0.00     0.347 HD
ATOM     69  C   UNL A   1      36.278  23.363  25.939  1.00  0.00     0.050 A 
ATOM     70  C   UNL A   1      34.731  23.384  24.067  1.00  0.00     0.010 A 
ATOM     71  C   UNL A   1      37.287  22.915  25.095  1.00  0.00     0.115 A 
ATOM     72  C   UNL A   1      35.757  22.901  23.240  1.00  0.00     0.013 A 
ATOM     73  C   UNL A   1      37.034  22.664  23.752  1.00  0.00     0.046 A 
BRANCH  71  74
ATOM     74  O   UNL A   1      38.528  22.734  25.628  1.00  0.00    -0.508 OA
ATOM     75  H   UNL A   1      38.627  22.586  26.548  1.00  0.00     0.293 HD
ENDBRANCH  71  74
ENDBRANCH  59  62
ENDBRANCH  57  58
ENDBRANCH  56  57
ENDBRANCH   1  56
TORSDOF 11
ENDMDL
MODEL 2
REMARK VINA RESULT:     -10.9      3.952      9.148
REMARK SMILES O=C(NCCCNC(=O)[C@H]1Cc2cc(O)ccc2C[NH2+]1)c1ccc(-c2c3nc(c(-c4ccccc4)c4ccc([nH]4)c(-c4ccccc4)c4nc(c(-c5ccccc5)c5ccc2[nH]5)C=C4)C=C3)cc1
REMARK SMILES IDX 4 1 3 2 1 3 2 4 21 6 22 7 68 8 23 9 67 10 24 11 25 12 26 13
REMARK SMILES IDX 61 14 27 15 66 16 60 17 62 18 28 19 65 20 59 21 58 22 29 24
REMARK SMILES IDX 51 25 36 26 50 27 37 28 40 29 49 30 63 31 38 32 39 33 48 35
REMARK SMILES IDX 64 36 41 37 30 38 31 39 35 40 32 41 34 42 33 43 52 44 53 45
REMARK SMILES IDX 57 46 54 47 56 48 55 49 42 50 43 51 47 52 44 53 46 54 45 55
REMARK SMILES IDX 5 56 6 57 7 58 8 59 9 61 10 62 11 63 20 64 12 65 19 66 13 69
REMARK SMILES IDX 18 70 14 71 17 72 16 73 15 74
REMARK H PARENT 3 5 62 23 40 34 7 60 20 67 20 68 15 75
REMARK Flexibility Score: inf
ROOT
ATOM      1  C   UNL A   1      42.641  18.514  27.227  1.00  0.00     0.118 C 
ENDROOT
BRANCH   1   2
ATOM      2  N   UNL A   1      41.459  18.788  26.422  1.00  0.00    -0.352 N 
ATOM      3  O   UNL A   1      39.587  19.811  25.740  1.00  0.00    -0.269 OA
ATOM      4  C   UNL A   1      40.654  19.896  26.342  1.00  0.00     0.251 C 
ATOM      5  H   UNL A   1      41.191  18.048  25.831  1.00  0.00     0.163 HD
BRANCH   4   6
ATOM      6  C   UNL A   1      41.039  21.187  26.959  1.00  0.00     0.039 A 
ATOM      7  C   UNL A   1      40.397  22.354  26.525  1.00  0.00     0.014 A 
ATOM      8  C   UNL A   1      42.083  21.283  27.881  1.00  0.00     0.014 A 
ATOM      9  C   UNL A   1      40.788  23.599  27.026  1.00  0.00     0.010 A 
ATOM     10  C   UNL A   1      42.405  22.510  28.455  1.00  0.00     0.010 A 
ATOM     11  C   UNL A   1      41.790  23.686  28.003  1.00  0.00    -0.014 A 
BRANCH  11  12
ATOM     12  C   UNL A   1      42.287  24.998  28.489  1.00  0.00     0.031 A 
ATOM     13  C   UNL A   1      41.312  26.127  28.706  1.00  0.00     0.074 A 
ATOM     14  C   UNL A   1      43.601  25.192  28.710  1.00  0.00     0.049 A 
ATOM     15  N   UNL A   1      41.547  27.367  29.054  1.00  0.00    -0.248 NA
ATOM     16  C   UNL A   1      39.887  25.831  28.476  1.00  0.00     0.031 C 
ATOM     17  C   UNL A   1      44.649  24.186  28.527  1.00  0.00     0.029 A 
ATOM     18  N   UNL A   1      44.278  26.304  29.144  1.00  0.00    -0.354 N 
ATOM     19  C   UNL A   1      40.308  27.998  29.056  1.00  0.00     0.074 A 
ATOM     20  C   UNL A   1      39.332  27.024  28.625  1.00  0.00     0.031 C 
ATOM     21  C   UNL A   1      45.830  24.714  28.889  1.00  0.00     0.029 A 
ATOM     22  C   UNL A   1      45.629  26.104  29.289  1.00  0.00     0.049 A 
ATOM     23  H   UNL A   1      43.837  27.163  29.335  1.00  0.00     0.167 HD
ATOM     24  C   UNL A   1      40.004  29.268  29.410  1.00  0.00     0.031 A 
ATOM     25  C   UNL A   1      46.597  26.944  29.704  1.00  0.00     0.031 A 
ATOM     26  C   UNL A   1      40.966  30.226  29.880  1.00  0.00     0.049 A 
ATOM     27  C   UNL A   1      46.235  28.349  30.101  1.00  0.00     0.074 A 
ATOM     28  C   UNL A   1      40.750  31.526  30.297  1.00  0.00     0.029 A 
ATOM     29  N   UNL A   1      42.323  29.980  30.011  1.00  0.00    -0.354 N 
ATOM     30  N   UNL A   1      45.058  28.925  30.112  1.00  0.00    -0.248 NA
ATOM     31  C   UNL A   1      47.333  29.216  30.553  1.00  0.00     0.031 C 
ATOM     32  C   UNL A   1      41.984  32.081  30.649  1.00  0.00     0.029 A 
ATOM     33  C   UNL A   1      42.958  31.106  30.500  1.00  0.00     0.049 A 
ATOM     34  H   UNL A   1      42.769  29.129  29.791  1.00  0.00     0.167 HD
ATOM     35  C   UNL A   1      45.267  30.210  30.593  1.00  0.00     0.074 A 
ATOM     36  C   UNL A   1      46.683  30.327  30.875  1.00  0.00     0.031 C 
ATOM     37  C   UNL A   1      44.366  31.203  30.784  1.00  0.00     0.031 A 
BRANCH  24  38
ATOM     38  C   UNL A   1      38.566  29.694  29.319  1.00  0.00    -0.014 A 
ATOM     39  C   UNL A   1      37.704  29.491  30.409  1.00  0.00     0.009 A 
ATOM     40  C   UNL A   1      38.047  30.241  28.135  1.00  0.00     0.009 A 
ATOM     41  C   UNL A   1      36.352  29.821  30.312  1.00  0.00     0.001 A 
ATOM     42  C   UNL A   1      36.700  30.598  28.052  1.00  0.00     0.001 A 
ATOM     43  C   UNL A   1      35.851  30.381  29.138  1.00  0.00     0.000 A 
ENDBRANCH  24  38
BRANCH  25  44
ATOM     44  C   UNL A   1      47.995  26.455  29.814  1.00  0.00    -0.014 A 
ATOM     45  C   UNL A   1      48.463  25.867  31.000  1.00  0.00     0.009 A 
ATOM     46  C   UNL A   1      48.884  26.612  28.739  1.00  0.00     0.009 A 
ATOM     47  C   UNL A   1      49.795  25.461  31.112  1.00  0.00     0.001 A 
ATOM     48  C   UNL A   1      50.209  26.182  28.845  1.00  0.00     0.001 A 
ATOM     49  C   UNL A   1      50.665  25.615  30.034  1.00  0.00     0.000 A 
ENDBRANCH  25  44
BRANCH  37  50
ATOM     50  C   UNL A   1      44.861  32.502  31.352  1.00  0.00    -0.014 A 
ATOM     51  C   UNL A   1      44.821  32.712  32.739  1.00  0.00     0.009 A 
ATOM     52  C   UNL A   1      45.261  33.553  30.513  1.00  0.00     0.009 A 
ATOM     53  C   UNL A   1      45.160  33.955  33.277  1.00  0.00     0.001 A 
ATOM     54  C   UNL A   1      45.624  34.787  31.056  1.00  0.00     0.001 A 
ATOM     55  C   UNL A   1      45.564  34.989  32.435  1.00  0.00     0.000 A 
ENDBRANCH  37  50
ENDBRANCH  11  12
ENDBRANCH   4   6
ENDBRANCH   1   2
BRANCH   1  56
ATOM     56  C   UNL A   1      43.803  17.978  26.406  1.00  0.00     0.042 C 
BRANCH  56  57
ATOM     57  C   UNL A   1      43.922  18.574  25.011  1.00  0.00     0.118 C 
BRANCH  57  58
ATOM     58  N   UNL A   1      45.286  18.942  24.664  1.00  0.00    -0.351 N 
ATOM     59  C   UNL A   1      45.960  20.124  24.745  1.00  0.00     0.278 C 
ATOM     60  H   UNL A   1      45.822  18.198  24.303  1.00  0.00     0.163 HD
ATOM     61  O   UNL A   1      47.154  20.095  24.416  1.00  0.00    -0.268 OA
BRANCH  59  62
ATOM     62  C   UNL A   1      45.307  21.464  25.130  1.00  0.00     0.277 C 
ATOM     63  C   UNL A   1      46.359  22.570  24.974  1.00  0.00     0.111 C 
ATOM     64  N   UNL A   1      44.073  21.731  24.372  1.00  0.00    -0.332 N 
ATOM     65  C   UNL A   1      45.771  23.947  25.143  1.00  0.00    -0.029 A 
ATOM     66  C   UNL A   1      43.447  22.996  24.743  1.00  0.00     0.298 C 
ATOM     67  H   UNL A   1      43.411  20.975  24.548  1.00  0.00     0.347 HD
ATOM     68  H   UNL A   1      44.323  21.789  23.385  1.00  0.00     0.347 HD
ATOM     69  C   UNL A   1      46.600  25.036  25.450  1.00  0.00     0.050 A 
ATOM     70  C   UNL A   1      44.396  24.153  24.938  1.00  0.00     0.010 A 
ATOM     71  C   UNL A   1      46.061  26.313  25.551  1.00  0.00     0.115 A 
ATOM     72  C   UNL A   1      43.879  25.456  25.016  1.00  0.00     0.013 A 
ATOM     73  C   UNL A   1      44.709  26.537  25.320  1.00  0.00     0.046 A 
BRANCH  71  74
ATOM     74  O   UNL A   1      46.900  27.333  25.889  1.00  0.00    -0.508 OA
ATOM     75  H   UNL A   1      47.061  27.528  26.791  1.00  0.00     0.293 HD
ENDBRANCH  71  74
ENDBRANCH  59  62
ENDBRANCH  57  58
ENDBRANCH  56  57
ENDBRANCH   1  56
TORSDOF 11
ENDMDL
MODEL 3
REMARK VINA RESULT:     -10.8      3.980      9.342
REMARK SMILES O=C(NCCCNC(=O)[C@H]1Cc2cc(O)ccc2C[NH2+]1)c1ccc(-c2c3nc(c(-c4ccccc4)c4ccc([nH]4)c(-c4ccccc4)c4nc(c(-c5ccccc5)c5ccc2[nH]5)C=C4)C=C3)cc1
REMARK SMILES IDX 4 1 3 2 1 3 2 4 21 6 22 7 68 8 23 9 67 10 24 11 25 12 26 13
REMARK SMILES IDX 61 14 27 15 66 16 60 17 62 18 28 19 65 20 59 21 58 22 29 24
REMARK SMILES IDX 51 25 36 26 50 27 37 28 40 29 49 30 63 31 38 32 39 33 48 35
REMARK SMILES IDX 64 36 41 37 30 38 31 39 35 40 32 41 34 42 33 43 52 44 53 45
REMARK SMILES IDX 57 46 54 47 56 48 55 49 42 50 43 51 47 52 44 53 46 54 45 55
REMARK SMILES IDX 5 56 6 57 7 58 8 59 9 61 10 62 11 63 20 64 12 65 19 66 13 69
REMARK SMILES IDX 18 70 14 71 17 72 16 73 15 74
REMARK H PARENT 3 5 62 23 40 34 7 60 20 67 20 68 15 75
REMARK Flexibility Score: inf
ROOT
ATOM      1  C   UNL A   1      42.651  18.657  27.282  1.00  0.00     0.118 C 
ENDROOT
BRANCH   1   2
ATOM      2  N   UNL A   1      41.465  18.856  26.461  1.00  0.00    -0.352 N 
ATOM      3  O   UNL A   1      39.550  19.770  25.744  1.00  0.00    -0.269 OA
ATOM      4  C   UNL A   1      40.606  19.920  26.353  1.00  0.00     0.251 C 
ATOM      5  H   UNL A   1      41.239  18.092  25.883  1.00  0.00     0.163 HD
BRANCH   4   6
ATOM      6  C   UNL A   1      40.920  21.240  26.947  1.00  0.00     0.039 A 
ATOM      7  C   UNL A   1      40.311  22.380  26.406  1.00  0.00     0.014 A 
ATOM      8  C   UNL A   1      41.873  21.388  27.957  1.00  0.00     0.014 A 
ATOM      9  C   UNL A   1      40.642  23.650  26.888  1.00  0.00     0.010 A 
ATOM     10  C   UNL A   1      42.129  22.642  28.506  1.00  0.00     0.010 A 
ATOM     11  C   UNL A   1      41.549  23.790  27.949  1.00  0.00    -0.014 A 
BRANCH  11  12
ATOM     12  C   UNL A   1      41.987  25.127  28.423  1.00  0.00     0.031 A 
ATOM     13  C   UNL A   1      43.453  25.387  28.660  1.00  0.00     0.074 A 
ATOM     14  C   UNL A   1      41.084  26.096  28.666  1.00  0.00     0.049 A 
ATOM     15  N   UNL A   1      44.037  26.455  29.141  1.00  0.00    -0.248 NA
ATOM     16  C   UNL A   1      44.385  24.291  28.340  1.00  0.00     0.031 C 
ATOM     17  C   UNL A   1      39.637  25.970  28.489  1.00  0.00     0.029 A 
ATOM     18  N   UNL A   1      41.255  27.383  29.111  1.00  0.00    -0.354 N 
ATOM     19  C   UNL A   1      45.391  26.148  29.205  1.00  0.00     0.074 A 
ATOM     20  C   UNL A   1      45.539  24.780  28.765  1.00  0.00     0.031 C 
ATOM     21  C   UNL A   1      39.056  27.146  28.779  1.00  0.00     0.029 A 
ATOM     22  C   UNL A   1      40.084  28.095  29.201  1.00  0.00     0.049 A 
ATOM     23  H   UNL A   1      42.134  27.761  29.342  1.00  0.00     0.167 HD
ATOM     24  C   UNL A   1      46.424  26.941  29.571  1.00  0.00     0.031 A 
ATOM     25  C   UNL A   1      39.862  29.369  29.574  1.00  0.00     0.031 A 
ATOM     26  C   UNL A   1      46.284  28.315  29.967  1.00  0.00     0.049 A 
ATOM     27  C   UNL A   1      41.026  30.236  29.970  1.00  0.00     0.074 A 
ATOM     28  C   UNL A   1      47.276  29.212  30.321  1.00  0.00     0.029 A 
ATOM     29  N   UNL A   1      45.079  28.994  30.043  1.00  0.00    -0.354 N 
ATOM     30  N   UNL A   1      42.301  29.935  30.010  1.00  0.00    -0.248 NA
ATOM     31  C   UNL A   1      40.722  31.620  30.360  1.00  0.00     0.031 C 
ATOM     32  C   UNL A   1      46.666  30.427  30.646  1.00  0.00     0.029 A 
ATOM     33  C   UNL A   1      45.301  30.299  30.442  1.00  0.00     0.049 A 
ATOM     34  H   UNL A   1      44.196  28.606  29.841  1.00  0.00     0.167 HD
ATOM     35  C   UNL A   1      42.954  31.095  30.404  1.00  0.00     0.074 A 
ATOM     36  C   UNL A   1      41.935  32.110  30.581  1.00  0.00     0.031 C 
ATOM     37  C   UNL A   1      44.278  31.299  30.603  1.00  0.00     0.031 A 
BRANCH  24  38
ATOM     38  C   UNL A   1      47.804  26.349  29.546  1.00  0.00    -0.014 A 
ATOM     39  C   UNL A   1      48.492  26.225  28.328  1.00  0.00     0.009 A 
ATOM     40  C   UNL A   1      48.401  25.855  30.716  1.00  0.00     0.009 A 
ATOM     41  C   UNL A   1      49.747  25.615  28.283  1.00  0.00     0.001 A 
ATOM     42  C   UNL A   1      49.669  25.272  30.673  1.00  0.00     0.001 A 
ATOM     43  C   UNL A   1      50.338  25.145  29.455  1.00  0.00     0.000 A 
ENDBRANCH  24  38
BRANCH  25  44
ATOM     44  C   UNL A   1      38.481  29.914  29.540  1.00  0.00    -0.014 A 
ATOM     45  C   UNL A   1      37.968  30.509  28.376  1.00  0.00     0.009 A 
ATOM     46  C   UNL A   1      37.679  29.877  30.691  1.00  0.00     0.009 A 
ATOM     47  C   UNL A   1      36.689  31.068  28.370  1.00  0.00     0.001 A 
ATOM     48  C   UNL A   1      36.390  30.415  30.675  1.00  0.00     0.001 A 
ATOM     49  C   UNL A   1      35.899  31.017  29.518  1.00  0.00     0.000 A 
ENDBRANCH  25  44
BRANCH  37  50
ATOM     50  C   UNL A   1      44.725  32.675  31.004  1.00  0.00    -0.014 A 
ATOM     51  C   UNL A   1      44.756  33.025  32.363  1.00  0.00     0.009 A 
ATOM     52  C   UNL A   1      45.009  33.653  30.041  1.00  0.00     0.009 A 
ATOM     53  C   UNL A   1      45.050  34.333  32.751  1.00  0.00     0.001 A 
ATOM     54  C   UNL A   1      45.328  34.955  30.433  1.00  0.00     0.001 A 
ATOM     55  C   UNL A   1      45.338  35.296  31.785  1.00  0.00     0.000 A 
ENDBRANCH  37  50
ENDBRANCH  11  12
ENDBRANCH   4   6
ENDBRANCH   1   2
BRANCH   1  56
ATOM     56  C   UNL A   1      43.819  18.080  26.498  1.00  0.00     0.042 C 
BRANCH  56  57
ATOM     57  C   UNL A   1      43.922  18.568  25.061  1.00  0.00     0.118 C 
BRANCH  57  58
ATOM     58  N   UNL A   1      45.278  18.936  24.681  1.00  0.00    -0.351 N 
ATOM     59  C   UNL A   1      45.952  20.119  24.739  1.00  0.00     0.278 C 
ATOM     60  H   UNL A   1      45.806  18.191  24.312  1.00  0.00     0.163 HD
ATOM     61  O   UNL A   1      47.138  20.090  24.383  1.00  0.00    -0.268 OA
BRANCH  59  62
ATOM     62  C   UNL A   1      45.305  21.461  25.133  1.00  0.00     0.277 C 
ATOM     63  C   UNL A   1      46.317  22.579  24.847  1.00  0.00     0.111 C 
ATOM     64  N   UNL A   1      44.006  21.677  24.475  1.00  0.00    -0.332 N 
ATOM     65  C   UNL A   1      45.717  23.950  25.017  1.00  0.00    -0.029 A 
ATOM     66  C   UNL A   1      43.388  22.943  24.854  1.00  0.00     0.298 C 
ATOM     67  H   UNL A   1      43.378  20.916  24.734  1.00  0.00     0.347 HD
ATOM     68  H   UNL A   1      44.169  21.703  23.468  1.00  0.00     0.347 HD
ATOM     69  C   UNL A   1      46.545  25.064  25.213  1.00  0.00     0.050 A 
ATOM     70  C   UNL A   1      44.325  24.124  24.926  1.00  0.00     0.010 A 
ATOM     71  C   UNL A   1      45.990  26.334  25.316  1.00  0.00     0.115 A 
ATOM     72  C   UNL A   1      43.789  25.419  25.001  1.00  0.00     0.013 A 
ATOM     73  C   UNL A   1      44.619  26.525  25.194  1.00  0.00     0.046 A 
BRANCH  71  74
ATOM     74  O   UNL A   1      46.833  27.381  25.544  1.00  0.00    -0.508 OA
ATOM     75  H   UNL A   1      47.542  27.289  26.149  1.00  0.00     0.293 HD
ENDBRANCH  71  74
ENDBRANCH  59  62
ENDBRANCH  57  58
ENDBRANCH  56  57
ENDBRANCH   1  56
TORSDOF 11
ENDMDL
