MODEL 1
REMARK VINA RESULT:     -10.9      0.000      0.000
REMARK SMILES C[N@H+](Cc1cc(Cl)ccc1[N+](=O)[O-])[C@H]1COC[C@@H]1C(=O)NCCCNC(=O)c1ccc(-c2c3nc(c(-c4ccccc4)c4ccc([nH]4)c(-c4ccccc4)c4nc(c(-c5ccccc5)c5ccc2[nH]5)C=C4)C=C3)cc1
REMARK SMILES IDX 22 1 21 2 19 3 20 4 18 6 14 7 15 8 16 9 17 10 2 11 1 12 3 14
REMARK SMILES IDX 4 15 5 16 10 17 6 18 9 19 7 20 8 21 11 22 12 23 13 24 23 25
REMARK SMILES IDX 24 26 25 27 26 28 27 30 28 31 29 32 75 33 30 34 74 35 31 36
REMARK SMILES IDX 32 37 33 38 68 39 34 40 73 41 67 42 69 43 35 44 72 45 66 46
REMARK SMILES IDX 65 47 36 49 58 50 43 51 57 52 44 53 47 54 56 55 70 56 45 57
REMARK SMILES IDX 46 58 55 60 71 61 48 62 37 63 38 64 42 65 39 66 41 67 40 68
REMARK SMILES IDX 59 69 60 70 64 71 61 72 63 73 62 74 49 75 50 76 54 77 51 78
REMARK SMILES IDX 53 79 52 80
REMARK H PARENT 21 5 2 13 25 29 69 48 47 59
REMARK Flexibility Score: inf
ROOT
ATOM      1  C   UNL A   1      35.402  22.105  26.133  1.00  0.00     0.117 C 
ENDROOT
BRANCH   1   2
ATOM      2  N   UNL A   1      34.464  22.095  27.248  1.00  0.00    -0.356 N 
ATOM      3  C   UNL A   1      33.169  22.553  27.282  1.00  0.00     0.231 C 
ATOM      4  O   UNL A   1      32.567  22.563  28.351  1.00  0.00    -0.274 OA
ATOM      5  H   UNL A   1      34.802  21.709  28.089  1.00  0.00     0.163 HD
BRANCH   3   6
ATOM      6  C   UNL A   1      32.572  23.033  25.971  1.00  0.00     0.164 C 
ATOM      7  C   UNL A   1      32.709  24.538  25.699  1.00  0.00     0.225 C 
ATOM      8  C   UNL A   1      31.509  25.033  26.535  1.00  0.00     0.226 C 
ATOM      9  O   UNL A   1      30.456  24.072  26.343  1.00  0.00    -0.374 OA
ATOM     10  C   UNL A   1      31.066  22.821  25.986  1.00  0.00     0.180 C 
BRANCH   7  11
ATOM     11  N   UNL A   1      32.747  24.943  24.236  1.00  0.00    -0.328 N 
ATOM     12  C   UNL A   1      33.087  23.867  23.308  1.00  0.00     0.333 C 
ATOM     13  H   UNL A   1      31.773  25.156  24.019  1.00  0.00     0.348 HD
BRANCH  11  14
ATOM     14  C   UNL A   1      33.492  26.187  23.987  1.00  0.00     0.306 C 
BRANCH  14  15
ATOM     15  C   UNL A   1      32.910  27.469  24.539  1.00  0.00     0.085 A 
ATOM     16  C   UNL A   1      33.683  28.177  25.483  1.00  0.00     0.037 A 
ATOM     17  C   UNL A   1      31.662  28.020  24.165  1.00  0.00     0.278 A 
ATOM     18  C   UNL A   1      33.240  29.391  26.013  1.00  0.00     0.042 A 
ATOM     19  C   UNL A   1      31.216  29.236  24.713  1.00  0.00     0.088 A 
ATOM     20  Cl  UNL A   1      34.227  30.243  27.133  1.00  0.00    -0.084 Cl
ATOM     21  C   UNL A   1      32.011  29.922  25.631  1.00  0.00     0.027 A 
BRANCH  17  22
ATOM     22  N   UNL A   1      30.759  27.377  23.199  1.00  0.00     0.063 N 
ATOM     23  O   UNL A   1      30.100  26.410  23.603  1.00  0.00    -0.258 OA
ATOM     24  O   UNL A   1      30.666  27.866  22.066  1.00  0.00    -0.258 OA
ENDBRANCH  17  22
ENDBRANCH  14  15
ENDBRANCH  11  14
ENDBRANCH   7  11
ENDBRANCH   3   6
ENDBRANCH   1   2
BRANCH   1  25
ATOM     25  C   UNL A   1      36.182  23.415  26.058  1.00  0.00     0.042 C 
BRANCH  25  26
ATOM     26  C   UNL A   1      37.308  23.396  25.027  1.00  0.00     0.118 C 
BRANCH  26  27
ATOM     27  N   UNL A   1      38.427  22.560  25.444  1.00  0.00    -0.352 N 
ATOM     28  C   UNL A   1      39.572  22.874  26.125  1.00  0.00     0.251 C 
ATOM     29  H   UNL A   1      38.345  21.612  25.194  1.00  0.00     0.163 HD
ATOM     30  O   UNL A   1      40.482  22.046  26.186  1.00  0.00    -0.269 OA
BRANCH  28  31
ATOM     31  C   UNL A   1      39.737  24.191  26.769  1.00  0.00     0.039 A 
ATOM     32  C   UNL A   1      39.201  24.383  28.046  1.00  0.00     0.014 A 
ATOM     33  C   UNL A   1      40.385  25.242  26.116  1.00  0.00     0.014 A 
ATOM     34  C   UNL A   1      39.381  25.605  28.696  1.00  0.00     0.010 A 
ATOM     35  C   UNL A   1      40.628  26.435  26.794  1.00  0.00     0.010 A 
ATOM     36  C   UNL A   1      40.137  26.624  28.093  1.00  0.00    -0.014 A 
BRANCH  36  37
ATOM     37  C   UNL A   1      40.463  27.869  28.832  1.00  0.00     0.031 A 
ATOM     38  C   UNL A   1      41.767  28.011  29.563  1.00  0.00     0.074 A 
ATOM     39  C   UNL A   1      39.542  28.851  28.896  1.00  0.00     0.049 A 
ATOM     40  N   UNL A   1      42.195  29.007  30.298  1.00  0.00    -0.248 NA
ATOM     41  C   UNL A   1      42.708  26.884  29.472  1.00  0.00     0.031 C 
ATOM     42  C   UNL A   1      38.222  28.819  28.260  1.00  0.00     0.029 A 
ATOM     43  N   UNL A   1      39.573  30.067  29.531  1.00  0.00    -0.354 N 
ATOM     44  C   UNL A   1      43.446  28.625  30.764  1.00  0.00     0.074 A 
ATOM     45  C   UNL A   1      43.689  27.287  30.267  1.00  0.00     0.031 C 
ATOM     46  C   UNL A   1      37.583  29.971  28.514  1.00  0.00     0.029 A 
ATOM     47  C   UNL A   1      38.425  30.802  29.367  1.00  0.00     0.049 A 
ATOM     48  H   UNL A   1      40.345  30.382  30.054  1.00  0.00     0.167 HD
ATOM     49  C   UNL A   1      44.318  29.329  31.524  1.00  0.00     0.031 A 
ATOM     50  C   UNL A   1      38.078  32.006  29.860  1.00  0.00     0.031 A 
ATOM     51  C   UNL A   1      44.072  30.657  32.021  1.00  0.00     0.049 A 
ATOM     52  C   UNL A   1      39.051  32.749  30.732  1.00  0.00     0.074 A 
ATOM     53  C   UNL A   1      44.917  31.472  32.756  1.00  0.00     0.029 A 
ATOM     54  N   UNL A   1      42.892  31.363  31.843  1.00  0.00    -0.354 N 
ATOM     55  N   UNL A   1      40.259  32.402  31.103  1.00  0.00    -0.248 NA
ATOM     56  C   UNL A   1      38.612  34.054  31.245  1.00  0.00     0.031 C 
ATOM     57  C   UNL A   1      44.224  32.644  33.076  1.00  0.00     0.029 A 
ATOM     58  C   UNL A   1      42.973  32.588  32.484  1.00  0.00     0.049 A 
ATOM     59  H   UNL A   1      42.111  31.040  31.338  1.00  0.00     0.167 HD
ATOM     60  C   UNL A   1      40.734  33.455  31.873  1.00  0.00     0.074 A 
ATOM     61  C   UNL A   1      39.692  34.462  31.896  1.00  0.00     0.031 C 
ATOM     62  C   UNL A   1      41.926  33.577  32.506  1.00  0.00     0.031 A 
BRANCH  49  63
ATOM     63  C   UNL A   1      45.623  28.670  31.876  1.00  0.00    -0.014 A 
ATOM     64  C   UNL A   1      46.758  28.817  31.062  1.00  0.00     0.009 A 
ATOM     65  C   UNL A   1      45.735  27.931  33.064  1.00  0.00     0.009 A 
ATOM     66  C   UNL A   1      47.967  28.213  31.414  1.00  0.00     0.001 A 
ATOM     67  C   UNL A   1      46.952  27.352  33.430  1.00  0.00     0.001 A 
ATOM     68  C   UNL A   1      48.064  27.486  32.600  1.00  0.00     0.000 A 
ENDBRANCH  49  63
BRANCH  50  69
ATOM     69  C   UNL A   1      36.748  32.588  29.540  1.00  0.00    -0.014 A 
ATOM     70  C   UNL A   1      36.553  33.316  28.357  1.00  0.00     0.009 A 
ATOM     71  C   UNL A   1      35.668  32.429  30.424  1.00  0.00     0.009 A 
ATOM     72  C   UNL A   1      35.313  33.898  28.080  1.00  0.00     0.001 A 
ATOM     73  C   UNL A   1      34.422  32.984  30.129  1.00  0.00     0.001 A 
ATOM     74  C   UNL A   1      34.248  33.727  28.963  1.00  0.00     0.000 A 
ENDBRANCH  50  69
BRANCH  62  75
ATOM     75  C   UNL A   1      42.177  34.857  33.254  1.00  0.00    -0.014 A 
ATOM     76  C   UNL A   1      42.969  35.878  32.708  1.00  0.00     0.009 A 
ATOM     77  C   UNL A   1      41.584  35.055  34.512  1.00  0.00     0.009 A 
ATOM     78  C   UNL A   1      43.193  37.057  33.423  1.00  0.00     0.001 A 
ATOM     79  C   UNL A   1      41.783  36.247  35.209  1.00  0.00     0.001 A 
ATOM     80  C   UNL A   1      42.595  37.242  34.670  1.00  0.00     0.000 A 
ENDBRANCH  62  75
ENDBRANCH  36  37
ENDBRANCH  28  31
ENDBRANCH  26  27
ENDBRANCH  25  26
ENDBRANCH   1  25
TORSDOF 14
ENDMDL
MODEL 2
REMARK VINA RESULT:     -10.8      2.848      4.212
REMARK SMILES C[N@H+](Cc1cc(Cl)ccc1[N+](=O)[O-])[C@H]1COC[C@@H]1C(=O)NCCCNC(=O)c1ccc(-c2c3nc(c(-c4ccccc4)c4ccc([nH]4)c(-c4ccccc4)c4nc(c(-c5ccccc5)c5ccc2[nH]5)C=C4)C=C3)cc1
REMARK SMILES IDX 22 1 21 2 19 3 20 4 18 6 14 7 15 8 16 9 17 10 2 11 1 12 3 14
REMARK SMILES IDX 4 15 5 16 10 17 6 18 9 19 7 20 8 21 11 22 12 23 13 24 23 25
REMARK SMILES IDX 24 26 25 27 26 28 27 30 28 31 29 32 75 33 30 34 74 35 31 36
REMARK SMILES IDX 32 37 33 38 68 39 34 40 73 41 67 42 69 43 35 44 72 45 66 46
REMARK SMILES IDX 65 47 36 49 58 50 43 51 57 52 44 53 47 54 56 55 70 56 45 57
REMARK SMILES IDX 46 58 55 60 71 61 48 62 37 63 38 64 42 65 39 66 41 67 40 68
REMARK SMILES IDX 59 69 60 70 64 71 61 72 63 73 62 74 49 75 50 76 54 77 51 78
REMARK SMILES IDX 53 79 52 80
REMARK H PARENT 21 5 2 13 25 29 69 48 47 59
REMARK Flexibility Score: inf
ROOT
ATOM      1  C   UNL A   1      36.665  20.416  25.002  1.00  0.00     0.117 C 
ENDROOT
BRANCH   1   2
ATOM      2  N   UNL A   1      35.460  19.597  25.005  1.00  0.00    -0.356 N 
ATOM      3  C   UNL A   1      34.159  19.989  24.812  1.00  0.00     0.231 C 
ATOM      4  O   UNL A   1      33.259  19.168  24.963  1.00  0.00    -0.274 OA
ATOM      5  H   UNL A   1      35.597  18.635  25.166  1.00  0.00     0.163 HD
BRANCH   3   6
ATOM      6  C   UNL A   1      33.924  21.440  24.431  1.00  0.00     0.164 C 
ATOM      7  C   UNL A   1      33.861  22.426  25.606  1.00  0.00     0.225 C 
ATOM      8  C   UNL A   1      32.390  22.199  26.019  1.00  0.00     0.226 C 
ATOM      9  O   UNL A   1      31.644  22.046  24.798  1.00  0.00    -0.374 OA
ATOM     10  C   UNL A   1      32.554  21.585  23.786  1.00  0.00     0.180 C 
BRANCH   7  11
ATOM     11  N   UNL A   1      34.278  23.852  25.294  1.00  0.00    -0.328 N 
ATOM     12  C   UNL A   1      35.708  24.118  25.427  1.00  0.00     0.333 C 
ATOM     13  H   UNL A   1      34.103  23.942  24.293  1.00  0.00     0.348 HD
BRANCH  11  14
ATOM     14  C   UNL A   1      33.433  24.869  25.939  1.00  0.00     0.306 C 
BRANCH  14  15
ATOM     15  C   UNL A   1      33.373  26.236  25.294  1.00  0.00     0.085 A 
ATOM     16  C   UNL A   1      33.550  27.356  26.133  1.00  0.00     0.037 A 
ATOM     17  C   UNL A   1      33.176  26.472  23.913  1.00  0.00     0.278 A 
ATOM     18  C   UNL A   1      33.551  28.652  25.614  1.00  0.00     0.042 A 
ATOM     19  C   UNL A   1      33.164  27.782  23.400  1.00  0.00     0.088 A 
ATOM     20  Cl  UNL A   1      33.806  29.990  26.663  1.00  0.00    -0.084 Cl
ATOM     21  C   UNL A   1      33.359  28.868  24.252  1.00  0.00     0.027 A 
BRANCH  17  22
ATOM     22  N   UNL A   1      32.971  25.394  22.936  1.00  0.00     0.063 N 
ATOM     23  O   UNL A   1      33.982  24.927  22.394  1.00  0.00    -0.258 OA
ATOM     24  O   UNL A   1      31.820  24.978  22.752  1.00  0.00    -0.258 OA
ENDBRANCH  17  22
ENDBRANCH  14  15
ENDBRANCH  11  14
ENDBRANCH   7  11
ENDBRANCH   3   6
ENDBRANCH   1   2
BRANCH   1  25
ATOM     25  C   UNL A   1      37.931  19.566  24.924  1.00  0.00     0.042 C 
BRANCH  25  26
ATOM     26  C   UNL A   1      39.090  20.119  25.750  1.00  0.00     0.118 C 
BRANCH  26  27
ATOM     27  N   UNL A   1      40.197  19.176  25.853  1.00  0.00    -0.352 N 
ATOM     28  C   UNL A   1      41.528  19.383  26.096  1.00  0.00     0.251 C 
ATOM     29  H   UNL A   1      39.945  18.233  25.727  1.00  0.00     0.163 HD
ATOM     30  O   UNL A   1      42.322  18.456  25.931  1.00  0.00    -0.269 OA
BRANCH  28  31
ATOM     31  C   UNL A   1      42.024  20.701  26.535  1.00  0.00     0.039 A 
ATOM     32  C   UNL A   1      42.498  21.594  25.569  1.00  0.00     0.014 A 
ATOM     33  C   UNL A   1      42.055  21.052  27.887  1.00  0.00     0.014 A 
ATOM     34  C   UNL A   1      42.931  22.865  25.952  1.00  0.00     0.010 A 
ATOM     35  C   UNL A   1      42.418  22.344  28.260  1.00  0.00     0.010 A 
ATOM     36  C   UNL A   1      42.850  23.265  27.295  1.00  0.00    -0.014 A 
BRANCH  36  37
ATOM     37  C   UNL A   1      43.165  24.659  27.695  1.00  0.00     0.031 A 
ATOM     38  C   UNL A   1      44.587  25.101  27.892  1.00  0.00     0.074 A 
ATOM     39  C   UNL A   1      42.151  25.512  27.945  1.00  0.00     0.049 A 
ATOM     40  N   UNL A   1      45.040  26.264  28.288  1.00  0.00    -0.248 NA
ATOM     41  C   UNL A   1      45.637  24.105  27.629  1.00  0.00     0.031 C 
ATOM     42  C   UNL A   1      40.727  25.193  27.827  1.00  0.00     0.029 A 
ATOM     43  N   UNL A   1      42.164  26.821  28.357  1.00  0.00    -0.354 N 
ATOM     44  C   UNL A   1      46.423  26.138  28.330  1.00  0.00     0.074 A 
ATOM     45  C   UNL A   1      46.732  24.772  27.966  1.00  0.00     0.031 C 
ATOM     46  C   UNL A   1      40.005  26.283  28.130  1.00  0.00     0.029 A 
ATOM     47  C   UNL A   1      40.911  27.361  28.511  1.00  0.00     0.049 A 
ATOM     48  H   UNL A   1      42.993  27.324  28.527  1.00  0.00     0.167 HD
ATOM     49  C   UNL A   1      47.350  27.079  28.630  1.00  0.00     0.031 A 
ATOM     50  C   UNL A   1      40.529  28.583  28.926  1.00  0.00     0.031 A 
ATOM     51  C   UNL A   1      47.040  28.435  28.998  1.00  0.00     0.049 A 
ATOM     52  C   UNL A   1      41.579  29.595  29.290  1.00  0.00     0.074 A 
ATOM     53  C   UNL A   1      47.914  29.475  29.270  1.00  0.00     0.029 A 
ATOM     54  N   UNL A   1      45.758  28.940  29.153  1.00  0.00    -0.354 N 
ATOM     55  N   UNL A   1      42.884  29.479  29.255  1.00  0.00    -0.248 NA
ATOM     56  C   UNL A   1      41.100  30.908  29.743  1.00  0.00     0.031 C 
ATOM     57  C   UNL A   1      47.160  30.590  29.651  1.00  0.00     0.029 A 
ATOM     58  C   UNL A   1      45.817  30.266  29.552  1.00  0.00     0.049 A 
ATOM     59  H   UNL A   1      44.928  28.431  29.004  1.00  0.00     0.167 HD
ATOM     60  C   UNL A   1      43.383  30.712  29.658  1.00  0.00     0.074 A 
ATOM     61  C   UNL A   1      42.240  31.565  29.909  1.00  0.00     0.031 C 
ATOM     62  C   UNL A   1      44.672  31.100  29.807  1.00  0.00     0.031 A 
BRANCH  49  63
ATOM     63  C   UNL A   1      48.796  26.668  28.586  1.00  0.00    -0.014 A 
ATOM     64  C   UNL A   1      49.534  26.722  27.392  1.00  0.00     0.009 A 
ATOM     65  C   UNL A   1      49.446  26.268  29.765  1.00  0.00     0.009 A 
ATOM     66  C   UNL A   1      50.880  26.354  27.373  1.00  0.00     0.001 A 
ATOM     67  C   UNL A   1      50.801  25.930  29.750  1.00  0.00     0.001 A 
ATOM     68  C   UNL A   1      51.514  25.964  28.552  1.00  0.00     0.000 A 
ENDBRANCH  49  63
BRANCH  50  69
ATOM     69  C   UNL A   1      39.084  28.922  29.020  1.00  0.00    -0.014 A 
ATOM     70  C   UNL A   1      38.406  29.467  27.920  1.00  0.00     0.009 A 
ATOM     71  C   UNL A   1      38.379  28.713  30.216  1.00  0.00     0.009 A 
ATOM     72  C   UNL A   1      37.059  29.823  28.024  1.00  0.00     0.001 A 
ATOM     73  C   UNL A   1      37.025  29.040  30.307  1.00  0.00     0.001 A 
ATOM     74  C   UNL A   1      36.369  29.605  29.216  1.00  0.00     0.000 A 
ENDBRANCH  50  69
BRANCH  62  75
ATOM     75  C   UNL A   1      44.914  32.521  30.238  1.00  0.00    -0.014 A 
ATOM     76  C   UNL A   1      45.045  32.860  31.593  1.00  0.00     0.009 A 
ATOM     77  C   UNL A   1      45.043  33.529  29.268  1.00  0.00     0.009 A 
ATOM     78  C   UNL A   1      45.265  34.187  31.971  1.00  0.00     0.001 A 
ATOM     79  C   UNL A   1      45.294  34.848  29.648  1.00  0.00     0.001 A 
ATOM     80  C   UNL A   1      45.394  35.178  30.997  1.00  0.00     0.000 A 
ENDBRANCH  62  75
ENDBRANCH  36  37
ENDBRANCH  28  31
ENDBRANCH  26  27
ENDBRANCH  25  26
ENDBRANCH   1  25
TORSDOF 14
ENDMDL
MODEL 3
REMARK VINA RESULT:     -10.8      2.961      7.163
REMARK SMILES C[N@H+](Cc1cc(Cl)ccc1[N+](=O)[O-])[C@H]1COC[C@@H]1C(=O)NCCCNC(=O)c1ccc(-c2c3nc(c(-c4ccccc4)c4ccc([nH]4)c(-c4ccccc4)c4nc(c(-c5ccccc5)c5ccc2[nH]5)C=C4)C=C3)cc1
REMARK SMILES IDX 22 1 21 2 19 3 20 4 18 6 14 7 15 8 16 9 17 10 2 11 1 12 3 14
REMARK SMILES IDX 4 15 5 16 10 17 6 18 9 19 7 20 8 21 11 22 12 23 13 24 23 25
REMARK SMILES IDX 24 26 25 27 26 28 27 30 28 31 29 32 75 33 30 34 74 35 31 36
REMARK SMILES IDX 32 37 33 38 68 39 34 40 73 41 67 42 69 43 35 44 72 45 66 46
REMARK SMILES IDX 65 47 36 49 58 50 43 51 57 52 44 53 47 54 56 55 70 56 45 57
REMARK SMILES IDX 46 58 55 60 71 61 48 62 37 63 38 64 42 65 39 66 41 67 40 68
REMARK SMILES IDX 59 69 60 70 64 71 61 72 63 73 62 74 49 75 50 76 54 77 51 78
REMARK SMILES IDX 53 79 52 80
REMARK H PARENT 21 5 2 13 25 29 69 48 47 59
REMARK Flexibility Score: inf
ROOT
ATOM      1  C   UNL A   1      36.613  20.611  25.145  1.00  0.00     0.117 C 
ENDROOT
BRANCH   1   2
ATOM      2  N   UNL A   1      35.414  19.789  25.050  1.00  0.00    -0.356 N 
ATOM      3  C   UNL A   1      34.134  20.175  24.737  1.00  0.00     0.231 C 
ATOM      4  O   UNL A   1      33.225  19.353  24.816  1.00  0.00    -0.274 OA
ATOM      5  H   UNL A   1      35.537  18.829  25.233  1.00  0.00     0.163 HD
BRANCH   3   6
ATOM      6  C   UNL A   1      33.931  21.621  24.320  1.00  0.00     0.164 C 
ATOM      7  C   UNL A   1      33.754  22.618  25.474  1.00  0.00     0.225 C 
ATOM      8  C   UNL A   1      32.251  22.389  25.747  1.00  0.00     0.226 C 
ATOM      9  O   UNL A   1      31.625  22.221  24.463  1.00  0.00    -0.374 OA
ATOM     10  C   UNL A   1      32.628  21.753  23.546  1.00  0.00     0.180 C 
BRANCH   7  11
ATOM     11  N   UNL A   1      34.194  24.043  25.188  1.00  0.00    -0.328 N 
ATOM     12  C   UNL A   1      35.638  24.261  25.231  1.00  0.00     0.333 C 
ATOM     13  H   UNL A   1      33.954  24.178  24.206  1.00  0.00     0.348 HD
BRANCH  11  14
ATOM     14  C   UNL A   1      33.428  25.057  25.929  1.00  0.00     0.306 C 
BRANCH  14  15
ATOM     15  C   UNL A   1      33.350  26.445  25.331  1.00  0.00     0.085 A 
ATOM     16  C   UNL A   1      33.535  27.537  26.204  1.00  0.00     0.037 A 
ATOM     17  C   UNL A   1      33.127  26.726  23.963  1.00  0.00     0.278 A 
ATOM     18  C   UNL A   1      33.520  28.850  25.729  1.00  0.00     0.042 A 
ATOM     19  C   UNL A   1      33.099  28.052  23.494  1.00  0.00     0.088 A 
ATOM     20  Cl  UNL A   1      33.786  30.153  26.817  1.00  0.00    -0.084 Cl
ATOM     21  C   UNL A   1      33.303  29.110  24.379  1.00  0.00     0.027 A 
BRANCH  17  22
ATOM     22  N   UNL A   1      32.911  25.679  22.954  1.00  0.00     0.063 N 
ATOM     23  O   UNL A   1      33.908  25.279  22.336  1.00  0.00    -0.258 OA
ATOM     24  O   UNL A   1      31.770  25.221  22.817  1.00  0.00    -0.258 OA
ENDBRANCH  17  22
ENDBRANCH  14  15
ENDBRANCH  11  14
ENDBRANCH   7  11
ENDBRANCH   3   6
ENDBRANCH   1   2
BRANCH   1  25
ATOM     25  C   UNL A   1      37.883  19.790  24.939  1.00  0.00     0.042 C 
BRANCH  25  26
ATOM     26  C   UNL A   1      39.063  20.268  25.782  1.00  0.00     0.118 C 
BRANCH  26  27
ATOM     27  N   UNL A   1      40.130  19.278  25.854  1.00  0.00    -0.352 N 
ATOM     28  C   UNL A   1      41.470  19.424  26.095  1.00  0.00     0.251 C 
ATOM     29  H   UNL A   1      39.839  18.350  25.704  1.00  0.00     0.163 HD
ATOM     30  O   UNL A   1      42.224  18.469  25.901  1.00  0.00    -0.269 OA
BRANCH  28  31
ATOM     31  C   UNL A   1      42.022  20.709  26.565  1.00  0.00     0.039 A 
ATOM     32  C   UNL A   1      42.532  21.605  25.621  1.00  0.00     0.014 A 
ATOM     33  C   UNL A   1      42.070  21.024  27.926  1.00  0.00     0.014 A 
ATOM     34  C   UNL A   1      43.020  22.845  26.035  1.00  0.00     0.010 A 
ATOM     35  C   UNL A   1      42.488  22.290  28.330  1.00  0.00     0.010 A 
ATOM     36  C   UNL A   1      42.957  23.215  27.388  1.00  0.00    -0.014 A 
BRANCH  36  37
ATOM     37  C   UNL A   1      43.331  24.584  27.821  1.00  0.00     0.031 A 
ATOM     38  C   UNL A   1      42.278  25.614  28.113  1.00  0.00     0.074 A 
ATOM     39  C   UNL A   1      44.637  24.916  27.886  1.00  0.00     0.049 A 
ATOM     40  N   UNL A   1      42.426  26.870  28.454  1.00  0.00    -0.248 NA
ATOM     41  C   UNL A   1      40.876  25.187  27.992  1.00  0.00     0.031 C 
ATOM     42  C   UNL A   1      45.755  24.017  27.590  1.00  0.00     0.029 A 
ATOM     43  N   UNL A   1      45.244  26.101  28.216  1.00  0.00    -0.354 N 
ATOM     44  C   UNL A   1      41.142  27.384  28.577  1.00  0.00     0.074 A 
ATOM     45  C   UNL A   1      40.227  26.318  28.230  1.00  0.00     0.031 C 
ATOM     46  C   UNL A   1      46.910  24.673  27.779  1.00  0.00     0.029 A 
ATOM     47  C   UNL A   1      46.615  26.050  28.162  1.00  0.00     0.049 A 
ATOM     48  H   UNL A   1      44.744  26.911  28.468  1.00  0.00     0.167 HD
ATOM     49  C   UNL A   1      40.760  28.625  28.960  1.00  0.00     0.031 A 
ATOM     50  C   UNL A   1      47.536  27.007  28.381  1.00  0.00     0.031 A 
ATOM     51  C   UNL A   1      41.671  29.686  29.300  1.00  0.00     0.049 A 
ATOM     52  C   UNL A   1      47.082  28.386  28.767  1.00  0.00     0.074 A 
ATOM     53  C   UNL A   1      41.378  30.963  29.749  1.00  0.00     0.029 A 
ATOM     54  N   UNL A   1      43.053  29.597  29.222  1.00  0.00    -0.354 N 
ATOM     55  N   UNL A   1      45.864  28.835  28.948  1.00  0.00    -0.248 NA
ATOM     56  C   UNL A   1      48.134  29.389  28.985  1.00  0.00     0.031 C 
ATOM     57  C   UNL A   1      42.580  31.666  29.881  1.00  0.00     0.029 A 
ATOM     58  C   UNL A   1      43.625  30.808  29.580  1.00  0.00     0.049 A 
ATOM     59  H   UNL A   1      43.553  28.794  28.951  1.00  0.00     0.167 HD
ATOM     60  C   UNL A   1      46.003  30.164  29.326  1.00  0.00     0.074 A 
ATOM     61  C   UNL A   1      47.424  30.441  29.368  1.00  0.00     0.031 C 
ATOM     62  C   UNL A   1      45.040  31.073  29.610  1.00  0.00     0.031 A 
BRANCH  49  63
ATOM     63  C   UNL A   1      39.284  28.911  29.021  1.00  0.00    -0.014 A 
ATOM     64  C   UNL A   1      38.557  28.746  30.210  1.00  0.00     0.009 A 
ATOM     65  C   UNL A   1      38.620  29.400  27.884  1.00  0.00     0.009 A 
ATOM     66  C   UNL A   1      37.192  29.034  30.253  1.00  0.00     0.001 A 
ATOM     67  C   UNL A   1      37.261  29.716  27.936  1.00  0.00     0.001 A 
ATOM     68  C   UNL A   1      36.546  29.523  29.118  1.00  0.00     0.000 A 
ENDBRANCH  49  63
BRANCH  50  69
ATOM     69  C   UNL A   1      48.984  26.695  28.242  1.00  0.00    -0.014 A 
ATOM     70  C   UNL A   1      49.623  26.815  27.000  1.00  0.00     0.009 A 
ATOM     71  C   UNL A   1      49.730  26.264  29.351  1.00  0.00     0.009 A 
ATOM     72  C   UNL A   1      50.973  26.481  26.863  1.00  0.00     0.001 A 
ATOM     73  C   UNL A   1      51.086  25.962  29.218  1.00  0.00     0.001 A 
ATOM     74  C   UNL A   1      51.704  26.059  27.973  1.00  0.00     0.000 A 
ENDBRANCH  50  69
BRANCH  62  75
ATOM     75  C   UNL A   1      45.494  32.447  30.019  1.00  0.00    -0.014 A 
ATOM     76  C   UNL A   1      45.664  33.471  29.075  1.00  0.00     0.009 A 
ATOM     77  C   UNL A   1      45.725  32.728  31.376  1.00  0.00     0.009 A 
ATOM     78  C   UNL A   1      46.091  34.739  29.476  1.00  0.00     0.001 A 
ATOM     79  C   UNL A   1      46.120  34.004  31.777  1.00  0.00     0.001 A 
ATOM     80  C   UNL A   1      46.313  35.005  30.828  1.00  0.00     0.000 A 
ENDBRANCH  62  75
ENDBRANCH  36  37
ENDBRANCH  28  31
ENDBRANCH  26  27
ENDBRANCH  25  26
ENDBRANCH   1  25
TORSDOF 14
ENDMDL
