MODEL 1
REMARK VINA RESULT:     -11.8      0.000      0.000
REMARK SMILES C[C@@H]1CN(C(=O)N2CCC(CC(=O)NCCCNC(=O)c3ccc(-c4c5nc(c(-c6ccccc6)c6ccc([nH]6)c(-c6ccccc6)c6nc(c(-c7ccccc7)c7ccc4[nH]7)C=C6)C=C5)cc3)CC2)C[C@@H](C)S1
REMARK SMILES IDX 16 1 15 2 14 3 12 4 13 5 11 7 10 8 1 9 2 10 3 11 74 12 4 13
REMARK SMILES IDX 72 14 5 15 71 16 73 17 6 18 7 19 8 20 70 21 9 22 69 23 17 24
REMARK SMILES IDX 18 25 19 26 20 28 21 29 22 30 68 31 23 32 67 33 24 34 25 35
REMARK SMILES IDX 26 36 61 37 27 38 66 39 60 40 62 41 28 42 65 43 59 44 58 45
REMARK SMILES IDX 29 47 51 48 36 49 50 50 37 51 40 52 49 53 63 54 38 55 39 56
REMARK SMILES IDX 48 58 64 59 41 60 30 61 31 62 35 63 32 64 34 65 33 66 52 67
REMARK SMILES IDX 53 68 57 69 54 70 56 71 55 72 42 73 43 74 47 75 44 76 46 77
REMARK SMILES IDX 45 78
REMARK H PARENT 14 6 18 27 62 46 40 57
REMARK Flexibility Score: inf
ROOT
ATOM      1  C   UNL A   1      37.734  19.287  24.948  1.00  0.00     0.042 C 
ENDROOT
BRANCH   1   2
ATOM      2  C   UNL A   1      36.403  20.049  24.955  1.00  0.00     0.117 C 
BRANCH   2   3
ATOM      3  N   UNL A   1      35.247  19.161  24.919  1.00  0.00    -0.356 N 
ATOM      4  C   UNL A   1      33.921  19.397  24.695  1.00  0.00     0.220 C 
ATOM      5  O   UNL A   1      33.149  18.437  24.750  1.00  0.00    -0.275 OA
ATOM      6  H   UNL A   1      35.462  18.216  25.087  1.00  0.00     0.163 HD
BRANCH   4   7
ATOM      7  C   UNL A   1      33.398  20.794  24.405  1.00  0.00     0.103 C 
BRANCH   7   8
ATOM      8  C   UNL A   1      32.627  21.430  25.585  1.00  0.00     0.002 C 
ATOM      9  C   UNL A   1      32.388  26.376  22.915  1.00  0.00     0.021 C 
ATOM     10  C   UNL A   1      33.618  26.623  23.787  1.00  0.00     0.063 C 
ATOM     11  C   UNL A   1      33.620  25.780  25.079  1.00  0.00     0.135 C 
ATOM     12  S   UNL A   1      33.802  28.412  24.124  1.00  0.00    -0.152 SA
ATOM     13  N   UNL A   1      32.631  26.187  26.082  1.00  0.00    -0.322 N 
ATOM     14  C   UNL A   1      32.486  28.593  25.394  1.00  0.00     0.063 C 
ATOM     15  C   UNL A   1      31.531  25.409  26.413  1.00  0.00     0.320 C 
ATOM     16  C   UNL A   1      32.689  27.579  26.527  1.00  0.00     0.135 C 
ATOM     17  C   UNL A   1      32.530  30.022  25.922  1.00  0.00     0.021 C 
ATOM     18  O   UNL A   1      30.431  25.898  26.656  1.00  0.00    -0.248 OA
ATOM     19  N   UNL A   1      31.751  24.046  26.437  1.00  0.00    -0.325 N 
ATOM     20  C   UNL A   1      30.721  23.105  26.045  1.00  0.00     0.121 C 
ATOM     21  C   UNL A   1      32.847  23.454  27.179  1.00  0.00     0.121 C 
ATOM     22  C   UNL A   1      31.333  22.103  25.062  1.00  0.00     0.026 C 
ATOM     23  C   UNL A   1      33.542  22.411  26.328  1.00  0.00     0.026 C 
ENDBRANCH   7   8
ENDBRANCH   4   7
ENDBRANCH   2   3
ENDBRANCH   1   2
BRANCH   1  24
ATOM     24  C   UNL A   1      38.908  20.055  25.544  1.00  0.00     0.118 C 
BRANCH  24  25
ATOM     25  N   UNL A   1      40.067  19.203  25.728  1.00  0.00    -0.352 N 
ATOM     26  C   UNL A   1      41.367  19.526  26.042  1.00  0.00     0.251 C 
ATOM     27  H   UNL A   1      39.898  18.241  25.608  1.00  0.00     0.163 HD
ATOM     28  O   UNL A   1      42.239  18.676  25.894  1.00  0.00    -0.269 OA
BRANCH  26  29
ATOM     29  C   UNL A   1      41.740  20.873  26.548  1.00  0.00     0.039 A 
ATOM     30  C   UNL A   1      41.583  21.139  27.913  1.00  0.00     0.014 A 
ATOM     31  C   UNL A   1      42.147  21.903  25.695  1.00  0.00     0.014 A 
ATOM     32  C   UNL A   1      41.860  22.413  28.424  1.00  0.00     0.010 A 
ATOM     33  C   UNL A   1      42.497  23.153  26.215  1.00  0.00     0.010 A 
ATOM     34  C   UNL A   1      42.335  23.430  27.580  1.00  0.00    -0.014 A 
BRANCH  34  35
ATOM     35  C   UNL A   1      42.624  24.793  28.102  1.00  0.00     0.031 A 
ATOM     36  C   UNL A   1      44.023  25.165  28.525  1.00  0.00     0.074 A 
ATOM     37  C   UNL A   1      41.629  25.689  28.244  1.00  0.00     0.049 A 
ATOM     38  N   UNL A   1      44.458  26.282  29.053  1.00  0.00    -0.248 NA
ATOM     39  C   UNL A   1      45.064  24.138  28.355  1.00  0.00     0.031 C 
ATOM     40  C   UNL A   1      40.224  25.457  27.909  1.00  0.00     0.029 A 
ATOM     41  N   UNL A   1      41.648  26.979  28.718  1.00  0.00    -0.354 N 
ATOM     42  C   UNL A   1      45.811  26.082  29.303  1.00  0.00     0.074 A 
ATOM     43  C   UNL A   1      46.116  24.725  28.905  1.00  0.00     0.031 C 
ATOM     44  C   UNL A   1      39.520  26.571  28.169  1.00  0.00     0.029 A 
ATOM     45  C   UNL A   1      40.415  27.583  28.719  1.00  0.00     0.049 A 
ATOM     46  H   UNL A   1      42.469  27.426  29.028  1.00  0.00     0.167 HD
ATOM     47  C   UNL A   1      46.723  26.950  29.804  1.00  0.00     0.031 A 
ATOM     48  C   UNL A   1      40.042  28.814  29.122  1.00  0.00     0.031 A 
ATOM     49  C   UNL A   1      46.437  28.310  30.174  1.00  0.00     0.049 A 
ATOM     50  C   UNL A   1      41.074  29.764  29.662  1.00  0.00     0.074 A 
ATOM     51  C   UNL A   1      47.312  29.284  30.621  1.00  0.00     0.029 A 
ATOM     52  N   UNL A   1      45.177  28.887  30.140  1.00  0.00    -0.354 N 
ATOM     53  N   UNL A   1      42.360  29.578  29.829  1.00  0.00    -0.248 NA
ATOM     54  C   UNL A   1      40.601  31.099  30.058  1.00  0.00     0.031 C 
ATOM     55  C   UNL A   1      46.574  30.441  30.899  1.00  0.00     0.029 A 
ATOM     56  C   UNL A   1      45.248  30.198  30.580  1.00  0.00     0.049 A 
ATOM     57  H   UNL A   1      44.354  28.433  29.847  1.00  0.00     0.167 HD
ATOM     58  C   UNL A   1      42.854  30.777  30.326  1.00  0.00     0.074 A 
ATOM     59  C   UNL A   1      41.733  31.687  30.420  1.00  0.00     0.031 C 
ATOM     60  C   UNL A   1      44.126  31.093  30.672  1.00  0.00     0.031 A 
BRANCH  47  61
ATOM     61  C   UNL A   1      48.128  26.446  29.986  1.00  0.00    -0.014 A 
ATOM     62  C   UNL A   1      49.089  26.580  28.972  1.00  0.00     0.009 A 
ATOM     63  C   UNL A   1      48.505  25.860  31.205  1.00  0.00     0.009 A 
ATOM     64  C   UNL A   1      50.387  26.100  29.158  1.00  0.00     0.001 A 
ATOM     65  C   UNL A   1      49.810  25.405  31.399  1.00  0.00     0.001 A 
ATOM     66  C   UNL A   1      50.747  25.516  30.373  1.00  0.00     0.000 A 
ENDBRANCH  47  61
BRANCH  48  67
ATOM     67  C   UNL A   1      38.620  29.225  29.017  1.00  0.00    -0.014 A 
ATOM     68  C   UNL A   1      38.106  29.709  27.804  1.00  0.00     0.009 A 
ATOM     69  C   UNL A   1      37.767  29.135  30.128  1.00  0.00     0.009 A 
ATOM     70  C   UNL A   1      36.772  30.113  27.711  1.00  0.00     0.001 A 
ATOM     71  C   UNL A   1      36.427  29.515  30.025  1.00  0.00     0.001 A 
ATOM     72  C   UNL A   1      35.933  30.011  28.819  1.00  0.00     0.000 A 
ENDBRANCH  48  67
BRANCH  60  73
ATOM     73  C   UNL A   1      44.376  32.491  31.162  1.00  0.00    -0.014 A 
ATOM     74  C   UNL A   1      44.719  33.522  30.274  1.00  0.00     0.009 A 
ATOM     75  C   UNL A   1      44.228  32.788  32.526  1.00  0.00     0.009 A 
ATOM     76  C   UNL A   1      44.936  34.818  30.748  1.00  0.00     0.001 A 
ATOM     77  C   UNL A   1      44.421  34.089  32.993  1.00  0.00     0.001 A 
ATOM     78  C   UNL A   1      44.783  35.101  32.105  1.00  0.00     0.000 A 
ENDBRANCH  60  73
ENDBRANCH  34  35
ENDBRANCH  26  29
ENDBRANCH  24  25
ENDBRANCH   1  24
TORSDOF 11
ENDMDL
MODEL 2
REMARK VINA RESULT:     -11.8      0.687      5.981
REMARK SMILES C[C@@H]1CN(C(=O)N2CCC(CC(=O)NCCCNC(=O)c3ccc(-c4c5nc(c(-c6ccccc6)c6ccc([nH]6)c(-c6ccccc6)c6nc(c(-c7ccccc7)c7ccc4[nH]7)C=C6)C=C5)cc3)CC2)C[C@@H](C)S1
REMARK SMILES IDX 16 1 15 2 14 3 12 4 13 5 11 7 10 8 1 9 2 10 3 11 74 12 4 13
REMARK SMILES IDX 72 14 5 15 71 16 73 17 6 18 7 19 8 20 70 21 9 22 69 23 17 24
REMARK SMILES IDX 18 25 19 26 20 28 21 29 22 30 68 31 23 32 67 33 24 34 25 35
REMARK SMILES IDX 26 36 61 37 27 38 66 39 60 40 62 41 28 42 65 43 59 44 58 45
REMARK SMILES IDX 29 47 51 48 36 49 50 50 37 51 40 52 49 53 63 54 38 55 39 56
REMARK SMILES IDX 48 58 64 59 41 60 30 61 31 62 35 63 32 64 34 65 33 66 52 67
REMARK SMILES IDX 53 68 57 69 54 70 56 71 55 72 42 73 43 74 47 75 44 76 46 77
REMARK SMILES IDX 45 78
REMARK H PARENT 14 6 18 27 62 46 40 57
REMARK Flexibility Score: inf
ROOT
ATOM      1  C   UNL A   1      37.828  19.667  24.830  1.00  0.00     0.042 C 
ENDROOT
BRANCH   1   2
ATOM      2  C   UNL A   1      36.448  20.311  25.001  1.00  0.00     0.117 C 
BRANCH   2   3
ATOM      3  N   UNL A   1      35.364  19.335  24.967  1.00  0.00    -0.356 N 
ATOM      4  C   UNL A   1      34.025  19.464  24.735  1.00  0.00     0.220 C 
ATOM      5  O   UNL A   1      33.330  18.447  24.795  1.00  0.00    -0.275 OA
ATOM      6  H   UNL A   1      35.652  18.411  25.145  1.00  0.00     0.163 HD
BRANCH   4   7
ATOM      7  C   UNL A   1      33.397  20.813  24.429  1.00  0.00     0.103 C 
BRANCH   7   8
ATOM      8  C   UNL A   1      32.703  21.470  25.646  1.00  0.00     0.002 C 
ATOM      9  C   UNL A   1      31.411  26.020  22.603  1.00  0.00     0.021 C 
ATOM     10  C   UNL A   1      32.697  26.519  23.261  1.00  0.00     0.063 C 
ATOM     11  C   UNL A   1      32.989  25.829  24.609  1.00  0.00     0.135 C 
ATOM     12  S   UNL A   1      32.665  28.342  23.404  1.00  0.00    -0.152 SA
ATOM     13  N   UNL A   1      32.093  26.213  25.705  1.00  0.00    -0.322 N 
ATOM     14  C   UNL A   1      31.515  28.490  24.830  1.00  0.00     0.063 C 
ATOM     15  C   UNL A   1      31.168  25.340  26.261  1.00  0.00     0.320 C 
ATOM     16  C   UNL A   1      32.008  27.641  26.009  1.00  0.00     0.135 C 
ATOM     17  C   UNL A   1      31.423  29.962  25.214  1.00  0.00     0.021 C 
ATOM     18  O   UNL A   1      30.051  25.707  26.615  1.00  0.00    -0.248 OA
ATOM     19  N   UNL A   1      31.582  24.028  26.376  1.00  0.00    -0.325 N 
ATOM     20  C   UNL A   1      30.655  22.925  26.224  1.00  0.00     0.121 C 
ATOM     21  C   UNL A   1      32.840  23.667  27.002  1.00  0.00     0.121 C 
ATOM     22  C   UNL A   1      31.270  21.909  25.258  1.00  0.00     0.026 C 
ATOM     23  C   UNL A   1      33.558  22.636  26.157  1.00  0.00     0.026 C 
ENDBRANCH   7   8
ENDBRANCH   4   7
ENDBRANCH   2   3
ENDBRANCH   1   2
BRANCH   1  24
ATOM     24  C   UNL A   1      38.906  20.222  25.754  1.00  0.00     0.118 C 
BRANCH  24  25
ATOM     25  N   UNL A   1      40.022  19.305  25.888  1.00  0.00    -0.352 N 
ATOM     26  C   UNL A   1      41.353  19.554  26.129  1.00  0.00     0.251 C 
ATOM     27  H   UNL A   1      39.790  18.353  25.791  1.00  0.00     0.163 HD
ATOM     28  O   UNL A   1      42.165  18.652  25.947  1.00  0.00    -0.269 OA
BRANCH  26  29
ATOM     29  C   UNL A   1      41.831  20.881  26.595  1.00  0.00     0.039 A 
ATOM     30  C   UNL A   1      41.810  21.153  27.968  1.00  0.00     0.014 A 
ATOM     31  C   UNL A   1      42.207  21.893  25.706  1.00  0.00     0.014 A 
ATOM     32  C   UNL A   1      42.189  22.412  28.448  1.00  0.00     0.010 A 
ATOM     33  C   UNL A   1      42.659  23.125  26.189  1.00  0.00     0.010 A 
ATOM     34  C   UNL A   1      42.633  23.407  27.562  1.00  0.00    -0.014 A 
BRANCH  34  35
ATOM     35  C   UNL A   1      43.030  24.755  28.052  1.00  0.00     0.031 A 
ATOM     36  C   UNL A   1      41.982  25.804  28.325  1.00  0.00     0.074 A 
ATOM     37  C   UNL A   1      44.332  25.061  28.211  1.00  0.00     0.049 A 
ATOM     38  N   UNL A   1      42.137  27.049  28.704  1.00  0.00    -0.248 NA
ATOM     39  C   UNL A   1      40.579  25.411  28.123  1.00  0.00     0.031 C 
ATOM     40  C   UNL A   1      45.454  24.158  27.952  1.00  0.00     0.029 A 
ATOM     41  N   UNL A   1      44.931  26.227  28.622  1.00  0.00    -0.354 N 
ATOM     42  C   UNL A   1      40.858  27.591  28.757  1.00  0.00     0.074 A 
ATOM     43  C   UNL A   1      39.943  26.553  28.334  1.00  0.00     0.031 C 
ATOM     44  C   UNL A   1      46.603  24.796  28.228  1.00  0.00     0.029 A 
ATOM     45  C   UNL A   1      46.303  26.160  28.651  1.00  0.00     0.049 A 
ATOM     46  H   UNL A   1      44.425  27.034  28.871  1.00  0.00     0.167 HD
ATOM     47  C   UNL A   1      40.474  28.834  29.135  1.00  0.00     0.031 A 
ATOM     48  C   UNL A   1      47.220  27.092  28.976  1.00  0.00     0.031 A 
ATOM     49  C   UNL A   1      41.372  29.864  29.584  1.00  0.00     0.049 A 
ATOM     50  C   UNL A   1      46.770  28.459  29.405  1.00  0.00     0.074 A 
ATOM     51  C   UNL A   1      41.067  31.128  30.057  1.00  0.00     0.029 A 
ATOM     52  N   UNL A   1      42.753  29.745  29.617  1.00  0.00    -0.354 N 
ATOM     53  N   UNL A   1      45.552  28.932  29.512  1.00  0.00    -0.248 NA
ATOM     54  C   UNL A   1      47.823  29.418  29.771  1.00  0.00     0.031 C 
ATOM     55  C   UNL A   1      42.267  31.792  30.336  1.00  0.00     0.029 A 
ATOM     56  C   UNL A   1      43.315  30.923  30.080  1.00  0.00     0.049 A 
ATOM     57  H   UNL A   1      43.259  28.944  29.350  1.00  0.00     0.167 HD
ATOM     58  C   UNL A   1      45.691  30.234  29.978  1.00  0.00     0.074 A 
ATOM     59  C   UNL A   1      47.109  30.471  30.147  1.00  0.00     0.031 C 
ATOM     60  C   UNL A   1      44.727  31.149  30.242  1.00  0.00     0.031 A 
BRANCH  47  61
ATOM     61  C   UNL A   1      39.005  29.153  29.072  1.00  0.00    -0.014 A 
ATOM     62  C   UNL A   1      38.180  29.012  30.199  1.00  0.00     0.009 A 
ATOM     63  C   UNL A   1      38.448  29.633  27.877  1.00  0.00     0.009 A 
ATOM     64  C   UNL A   1      36.817  29.306  30.118  1.00  0.00     0.001 A 
ATOM     65  C   UNL A   1      37.090  29.952  27.806  1.00  0.00     0.001 A 
ATOM     66  C   UNL A   1      36.275  29.780  28.924  1.00  0.00     0.000 A 
ENDBRANCH  47  61
BRANCH  48  67
ATOM     67  C   UNL A   1      48.665  26.756  28.920  1.00  0.00    -0.014 A 
ATOM     68  C   UNL A   1      49.320  26.239  30.048  1.00  0.00     0.009 A 
ATOM     69  C   UNL A   1      49.398  26.950  27.738  1.00  0.00     0.009 A 
ATOM     70  C   UNL A   1      50.684  25.941  30.000  1.00  0.00     0.001 A 
ATOM     71  C   UNL A   1      50.755  26.627  27.685  1.00  0.00     0.001 A 
ATOM     72  C   UNL A   1      51.398  26.130  28.819  1.00  0.00     0.000 A 
ENDBRANCH  48  67
BRANCH  60  73
ATOM     73  C   UNL A   1      45.173  32.484  30.767  1.00  0.00    -0.014 A 
ATOM     74  C   UNL A   1      45.478  33.542  29.898  1.00  0.00     0.009 A 
ATOM     75  C   UNL A   1      45.248  32.696  32.152  1.00  0.00     0.009 A 
ATOM     76  C   UNL A   1      45.879  34.779  30.407  1.00  0.00     0.001 A 
ATOM     77  C   UNL A   1      45.625  33.941  32.659  1.00  0.00     0.001 A 
ATOM     78  C   UNL A   1      45.948  34.978  31.786  1.00  0.00     0.000 A 
ENDBRANCH  60  73
ENDBRANCH  34  35
ENDBRANCH  26  29
ENDBRANCH  24  25
ENDBRANCH   1  24
TORSDOF 11
ENDMDL
MODEL 3
REMARK VINA RESULT:     -11.7      1.180      6.145
REMARK SMILES C[C@@H]1CN(C(=O)N2CCC(CC(=O)NCCCNC(=O)c3ccc(-c4c5nc(c(-c6ccccc6)c6ccc([nH]6)c(-c6ccccc6)c6nc(c(-c7ccccc7)c7ccc4[nH]7)C=C6)C=C5)cc3)CC2)C[C@@H](C)S1
REMARK SMILES IDX 16 1 15 2 14 3 12 4 13 5 11 7 10 8 1 9 2 10 3 11 74 12 4 13
REMARK SMILES IDX 72 14 5 15 71 16 73 17 6 18 7 19 8 20 70 21 9 22 69 23 17 24
REMARK SMILES IDX 18 25 19 26 20 28 21 29 22 30 68 31 23 32 67 33 24 34 25 35
REMARK SMILES IDX 26 36 61 37 27 38 66 39 60 40 62 41 28 42 65 43 59 44 58 45
REMARK SMILES IDX 29 47 51 48 36 49 50 50 37 51 40 52 49 53 63 54 38 55 39 56
REMARK SMILES IDX 48 58 64 59 41 60 30 61 31 62 35 63 32 64 34 65 33 66 52 67
REMARK SMILES IDX 53 68 57 69 54 70 56 71 55 72 42 73 43 74 47 75 44 76 46 77
REMARK SMILES IDX 45 78
REMARK H PARENT 14 6 18 27 62 46 40 57
REMARK Flexibility Score: inf
ROOT
ATOM      1  C   UNL A   1      37.643  19.577  24.958  1.00  0.00     0.042 C 
ENDROOT
BRANCH   1   2
ATOM      2  C   UNL A   1      36.356  20.410  24.967  1.00  0.00     0.117 C 
BRANCH   2   3
ATOM      3  N   UNL A   1      35.153  19.586  24.944  1.00  0.00    -0.356 N 
ATOM      4  C   UNL A   1      33.830  19.897  25.076  1.00  0.00     0.220 C 
ATOM      5  O   UNL A   1      33.015  18.973  25.039  1.00  0.00    -0.275 OA
ATOM      6  H   UNL A   1      35.326  18.627  24.808  1.00  0.00     0.163 HD
BRANCH   4   7
ATOM      7  C   UNL A   1      33.365  21.329  25.281  1.00  0.00     0.103 C 
BRANCH   7   8
ATOM      8  C   UNL A   1      32.719  21.963  24.027  1.00  0.00     0.002 C 
ATOM      9  C   UNL A   1      33.940  27.137  25.865  1.00  0.00     0.021 C 
ATOM     10  C   UNL A   1      32.499  27.029  26.365  1.00  0.00     0.063 C 
ATOM     11  C   UNL A   1      31.644  26.056  25.528  1.00  0.00     0.135 C 
ATOM     12  S   UNL A   1      31.748  28.692  26.481  1.00  0.00    -0.152 SA
ATOM     13  N   UNL A   1      31.309  26.530  24.182  1.00  0.00    -0.322 N 
ATOM     14  C   UNL A   1      31.430  28.981  24.693  1.00  0.00     0.063 C 
ATOM     15  C   UNL A   1      31.827  25.953  23.030  1.00  0.00     0.320 C 
ATOM     16  C   UNL A   1      30.625  27.820  24.096  1.00  0.00     0.135 C 
ATOM     17  C   UNL A   1      30.680  30.300  24.552  1.00  0.00     0.021 C 
ATOM     18  O   UNL A   1      32.145  26.620  22.049  1.00  0.00    -0.248 OA
ATOM     19  N   UNL A   1      31.973  24.581  23.066  1.00  0.00    -0.325 N 
ATOM     20  C   UNL A   1      33.065  23.917  22.381  1.00  0.00     0.121 C 
ATOM     21  C   UNL A   1      30.890  23.698  23.455  1.00  0.00     0.121 C 
ATOM     22  C   UNL A   1      33.720  22.937  23.358  1.00  0.00     0.026 C 
ATOM     23  C   UNL A   1      31.403  22.646  24.416  1.00  0.00     0.026 C 
ENDBRANCH   7   8
ENDBRANCH   4   7
ENDBRANCH   2   3
ENDBRANCH   1   2
BRANCH   1  24
ATOM     24  C   UNL A   1      38.841  20.253  25.614  1.00  0.00     0.118 C 
BRANCH  24  25
ATOM     25  N   UNL A   1      39.950  19.333  25.782  1.00  0.00    -0.352 N 
ATOM     26  C   UNL A   1      41.270  19.578  26.081  1.00  0.00     0.251 C 
ATOM     27  H   UNL A   1      39.722  18.383  25.662  1.00  0.00     0.163 HD
ATOM     28  O   UNL A   1      42.089  18.677  25.921  1.00  0.00    -0.269 OA
BRANCH  26  29
ATOM     29  C   UNL A   1      41.729  20.898  26.584  1.00  0.00     0.039 A 
ATOM     30  C   UNL A   1      41.669  21.144  27.962  1.00  0.00     0.014 A 
ATOM     31  C   UNL A   1      42.124  21.928  25.725  1.00  0.00     0.014 A 
ATOM     32  C   UNL A   1      42.029  22.396  28.474  1.00  0.00     0.010 A 
ATOM     33  C   UNL A   1      42.556  23.152  26.243  1.00  0.00     0.010 A 
ATOM     34  C   UNL A   1      42.492  23.409  27.620  1.00  0.00    -0.014 A 
BRANCH  34  35
ATOM     35  C   UNL A   1      42.869  24.749  28.145  1.00  0.00     0.031 A 
ATOM     36  C   UNL A   1      41.813  25.800  28.376  1.00  0.00     0.074 A 
ATOM     37  C   UNL A   1      44.162  25.048  28.374  1.00  0.00     0.049 A 
ATOM     38  N   UNL A   1      41.953  27.040  28.777  1.00  0.00    -0.248 NA
ATOM     39  C   UNL A   1      40.420  25.416  28.098  1.00  0.00     0.031 C 
ATOM     40  C   UNL A   1      45.292  24.142  28.163  1.00  0.00     0.029 A 
ATOM     41  N   UNL A   1      44.745  26.206  28.829  1.00  0.00    -0.354 N 
ATOM     42  C   UNL A   1      40.676  27.588  28.770  1.00  0.00     0.074 A 
ATOM     43  C   UNL A   1      39.779  26.559  28.289  1.00  0.00     0.031 C 
ATOM     44  C   UNL A   1      46.428  24.771  28.505  1.00  0.00     0.029 A 
ATOM     45  C   UNL A   1      46.113  26.132  28.928  1.00  0.00     0.049 A 
ATOM     46  H   UNL A   1      44.230  27.012  29.062  1.00  0.00     0.167 HD
ATOM     47  C   UNL A   1      40.278  28.828  29.143  1.00  0.00     0.031 A 
ATOM     48  C   UNL A   1      47.016  27.055  29.310  1.00  0.00     0.031 A 
ATOM     49  C   UNL A   1      41.156  29.848  29.650  1.00  0.00     0.049 A 
ATOM     50  C   UNL A   1      46.550  28.420  29.732  1.00  0.00     0.074 A 
ATOM     51  C   UNL A   1      40.833  31.109  30.122  1.00  0.00     0.029 A 
ATOM     52  N   UNL A   1      42.533  29.723  29.752  1.00  0.00    -0.354 N 
ATOM     53  N   UNL A   1      45.330  28.898  29.781  1.00  0.00    -0.248 NA
ATOM     54  C   UNL A   1      47.587  29.370  30.162  1.00  0.00     0.031 C 
ATOM     55  C   UNL A   1      42.020  31.763  30.469  1.00  0.00     0.029 A 
ATOM     56  C   UNL A   1      43.076  30.892  30.257  1.00  0.00     0.049 A 
ATOM     57  H   UNL A   1      43.048  28.922  29.502  1.00  0.00     0.167 HD
ATOM     58  C   UNL A   1      45.451  30.193  30.269  1.00  0.00     0.074 A 
ATOM     59  C   UNL A   1      46.859  30.421  30.514  1.00  0.00     0.031 C 
ATOM     60  C   UNL A   1      44.478  31.109  30.494  1.00  0.00     0.031 A 
BRANCH  47  61
ATOM     61  C   UNL A   1      38.816  29.154  29.009  1.00  0.00    -0.014 A 
ATOM     62  C   UNL A   1      37.933  29.008  30.091  1.00  0.00     0.009 A 
ATOM     63  C   UNL A   1      38.322  29.648  27.791  1.00  0.00     0.009 A 
ATOM     64  C   UNL A   1      36.578  29.310  29.944  1.00  0.00     0.001 A 
ATOM     65  C   UNL A   1      36.971  29.974  27.655  1.00  0.00     0.001 A 
ATOM     66  C   UNL A   1      36.099  29.796  28.728  1.00  0.00     0.000 A 
ENDBRANCH  47  61
BRANCH  48  67
ATOM     67  C   UNL A   1      48.460  26.714  29.324  1.00  0.00    -0.014 A 
ATOM     68  C   UNL A   1      49.262  26.963  28.200  1.00  0.00     0.009 A 
ATOM     69  C   UNL A   1      49.046  26.138  30.463  1.00  0.00     0.009 A 
ATOM     70  C   UNL A   1      50.617  26.624  28.208  1.00  0.00     0.001 A 
ATOM     71  C   UNL A   1      50.407  25.823  30.477  1.00  0.00     0.001 A 
ATOM     72  C   UNL A   1      51.189  26.060  29.347  1.00  0.00     0.000 A 
ENDBRANCH  48  67
BRANCH  60  73
ATOM     73  C   UNL A   1      44.902  32.436  31.057  1.00  0.00    -0.014 A 
ATOM     74  C   UNL A   1      45.012  32.637  32.441  1.00  0.00     0.009 A 
ATOM     75  C   UNL A   1      45.234  33.486  30.187  1.00  0.00     0.009 A 
ATOM     76  C   UNL A   1      45.419  33.874  32.944  1.00  0.00     0.001 A 
ATOM     77  C   UNL A   1      45.664  34.715  30.692  1.00  0.00     0.001 A 
ATOM     78  C   UNL A   1      45.749  34.910  32.069  1.00  0.00     0.000 A 
ENDBRANCH  60  73
ENDBRANCH  34  35
ENDBRANCH  26  29
ENDBRANCH  24  25
ENDBRANCH   1  24
TORSDOF 11
ENDMDL
