MODEL 1
REMARK VINA RESULT:     -12.0      0.000      0.000
REMARK SMILES CC(C)(C)c1cc2c(cc1Cl)C=C(C(=O)NCCCNC(=O)c1ccc(-c3c4nc(c(-c5ccccc5)c5ccc([nH]5)c(-c5ccccc5)c5nc(c(-c6ccccc6)c6ccc3[nH]6)C=C5)C=C4)cc1)[C@@H](C(F)(F)F)O2
REMARK SMILES IDX 18 1 17 2 16 3 14 4 15 5 13 7 5 8 6 9 10 10 7 11 9 12 11 13
REMARK SMILES IDX 8 14 76 15 12 16 71 17 2 18 1 19 3 20 4 21 72 22 73 23 74 24
REMARK SMILES IDX 75 25 19 26 20 27 21 28 22 30 23 31 24 32 70 33 25 34 69 35
REMARK SMILES IDX 26 36 27 37 28 38 63 39 29 40 68 41 62 42 64 43 30 44 67 45
REMARK SMILES IDX 61 46 60 47 31 49 53 50 38 51 52 52 39 53 42 54 51 55 65 56
REMARK SMILES IDX 40 57 41 58 50 60 66 61 43 62 32 63 33 64 37 65 34 66 36 67
REMARK SMILES IDX 35 68 54 69 55 70 59 71 56 72 58 73 57 74 44 75 45 76 49 77
REMARK SMILES IDX 46 78 48 79 47 80
REMARK H PARENT 16 6 20 29 64 48 42 59
REMARK Flexibility Score: inf
ROOT
ATOM      1  C   UNL A   1      37.770  19.674  24.994  1.00  0.00     0.042 C 
ENDROOT
BRANCH   1   2
ATOM      2  C   UNL A   1      36.711  20.716  24.668  1.00  0.00     0.118 C 
BRANCH   2   3
ATOM      3  N   UNL A   1      35.433  20.401  25.287  1.00  0.00    -0.352 N 
ATOM      4  C   UNL A   1      34.249  21.021  25.494  1.00  0.00     0.251 C 
ATOM      5  O   UNL A   1      33.409  20.354  26.108  1.00  0.00    -0.270 OA
ATOM      6  H   UNL A   1      35.430  19.488  25.657  1.00  0.00     0.163 HD
BRANCH   4   7
ATOM      7  C   UNL A   1      33.914  22.403  25.048  1.00  0.00     0.067 C 
ATOM      8  C   UNL A   1      32.653  27.331  24.887  1.00  0.00    -0.020 A 
ATOM      9  C   UNL A   1      33.257  26.404  24.010  1.00  0.00     0.053 A 
ATOM     10  C   UNL A   1      32.318  26.836  26.172  1.00  0.00     0.045 A 
ATOM     11  C   UNL A   1      33.506  25.081  24.380  1.00  0.00     0.128 A 
ATOM     12  C   UNL A   1      32.576  25.500  26.538  1.00  0.00     0.032 A 
ATOM     13  Cl  UNL A   1      31.610  27.793  27.428  1.00  0.00    -0.084 Cl
ATOM     14  C   UNL A   1      33.174  24.619  25.643  1.00  0.00     0.019 A 
ATOM     15  O   UNL A   1      34.137  24.302  23.452  1.00  0.00    -0.475 OA
ATOM     16  C   UNL A   1      33.511  23.250  26.013  1.00  0.00     0.025 C 
ATOM     17  C   UNL A   1      33.984  22.868  23.621  1.00  0.00     0.314 C 
BRANCH   8  18
ATOM     18  C   UNL A   1      32.444  28.791  24.415  1.00  0.00    -0.012 C 
ATOM     19  C   UNL A   1      33.070  29.812  25.390  1.00  0.00     0.016 C 
ATOM     20  C   UNL A   1      30.946  29.201  24.310  1.00  0.00     0.016 C 
ATOM     21  C   UNL A   1      33.027  28.967  22.996  1.00  0.00     0.016 C 
ENDBRANCH   8  18
BRANCH  17  22
ATOM     22  C   UNL A   1      32.789  22.383  22.778  1.00  0.00     0.429 C 
ATOM     23  F   UNL A   1      32.942  22.763  21.484  1.00  0.00    -0.167 F 
ATOM     24  F   UNL A   1      32.670  21.034  22.770  1.00  0.00    -0.167 F 
ATOM     25  F   UNL A   1      31.608  22.877  23.209  1.00  0.00    -0.167 F 
ENDBRANCH  17  22
ENDBRANCH   4   7
ENDBRANCH   2   3
ENDBRANCH   1   2
BRANCH   1  26
ATOM     26  C   UNL A   1      38.932  20.261  25.783  1.00  0.00     0.118 C 
BRANCH  26  27
ATOM     27  N   UNL A   1      40.050  19.327  25.895  1.00  0.00    -0.352 N 
ATOM     28  C   UNL A   1      41.384  19.551  26.134  1.00  0.00     0.251 C 
ATOM     29  H   UNL A   1      39.807  18.379  25.778  1.00  0.00     0.163 HD
ATOM     30  O   UNL A   1      42.197  18.651  25.949  1.00  0.00    -0.269 OA
BRANCH  28  31
ATOM     31  C   UNL A   1      41.842  20.876  26.600  1.00  0.00     0.039 A 
ATOM     32  C   UNL A   1      41.838  21.181  27.959  1.00  0.00     0.014 A 
ATOM     33  C   UNL A   1      42.294  21.820  25.672  1.00  0.00     0.014 A 
ATOM     34  C   UNL A   1      42.085  22.481  28.371  1.00  0.00     0.010 A 
ATOM     35  C   UNL A   1      42.662  23.097  26.105  1.00  0.00     0.010 A 
ATOM     36  C   UNL A   1      42.513  23.453  27.453  1.00  0.00    -0.014 A 
BRANCH  36  37
ATOM     37  C   UNL A   1      42.820  24.818  27.954  1.00  0.00     0.031 A 
ATOM     38  C   UNL A   1      41.726  25.821  28.194  1.00  0.00     0.074 A 
ATOM     39  C   UNL A   1      44.095  25.112  28.281  1.00  0.00     0.049 A 
ATOM     40  N   UNL A   1      41.817  27.022  28.709  1.00  0.00    -0.248 NA
ATOM     41  C   UNL A   1      40.359  25.440  27.805  1.00  0.00     0.031 C 
ATOM     42  C   UNL A   1      45.237  24.210  28.106  1.00  0.00     0.029 A 
ATOM     43  N   UNL A   1      44.639  26.221  28.876  1.00  0.00    -0.354 N 
ATOM     44  C   UNL A   1      40.530  27.544  28.684  1.00  0.00     0.074 A 
ATOM     45  C   UNL A   1      39.677  26.544  28.083  1.00  0.00     0.031 C 
ATOM     46  C   UNL A   1      46.321  24.759  28.671  1.00  0.00     0.029 A 
ATOM     47  C   UNL A   1      45.975  26.085  29.169  1.00  0.00     0.049 A 
ATOM     48  H   UNL A   1      44.122  27.036  29.075  1.00  0.00     0.167 HD
ATOM     49  C   UNL A   1      40.100  28.748  29.130  1.00  0.00     0.031 A 
ATOM     50  C   UNL A   1      46.834  26.930  29.768  1.00  0.00     0.031 A 
ATOM     51  C   UNL A   1      40.951  29.732  29.747  1.00  0.00     0.049 A 
ATOM     52  C   UNL A   1      46.336  28.270  30.221  1.00  0.00     0.074 A 
ATOM     53  C   UNL A   1      40.599  30.971  30.255  1.00  0.00     0.029 A 
ATOM     54  N   UNL A   1      42.315  29.590  29.944  1.00  0.00    -0.354 N 
ATOM     55  N   UNL A   1      45.115  28.745  30.193  1.00  0.00    -0.248 NA
ATOM     56  C   UNL A   1      47.333  29.195  30.777  1.00  0.00     0.031 C 
ATOM     57  C   UNL A   1      41.760  31.602  30.705  1.00  0.00     0.029 A 
ATOM     58  C   UNL A   1      42.825  30.731  30.539  1.00  0.00     0.049 A 
ATOM     59  H   UNL A   1      42.843  28.795  29.699  1.00  0.00     0.167 HD
ATOM     60  C   UNL A   1      45.194  30.021  30.731  1.00  0.00     0.074 A 
ATOM     61  C   UNL A   1      46.578  30.236  31.101  1.00  0.00     0.031 C 
ATOM     62  C   UNL A   1      44.206  30.934  30.892  1.00  0.00     0.031 A 
BRANCH  49  63
ATOM     63  C   UNL A   1      38.647  29.094  28.958  1.00  0.00    -0.014 A 
ATOM     64  C   UNL A   1      38.209  29.669  27.754  1.00  0.00     0.009 A 
ATOM     65  C   UNL A   1      37.733  28.951  30.012  1.00  0.00     0.009 A 
ATOM     66  C   UNL A   1      36.891  30.108  27.613  1.00  0.00     0.001 A 
ATOM     67  C   UNL A   1      36.407  29.366  29.860  1.00  0.00     0.001 A 
ATOM     68  C   UNL A   1      35.991  29.953  28.665  1.00  0.00     0.000 A 
ENDBRANCH  49  63
BRANCH  50  69
ATOM     69  C   UNL A   1      48.248  26.516  29.968  1.00  0.00    -0.014 A 
ATOM     70  C   UNL A   1      49.213  26.765  28.978  1.00  0.00     0.009 A 
ATOM     71  C   UNL A   1      48.629  25.816  31.123  1.00  0.00     0.009 A 
ATOM     72  C   UNL A   1      50.519  26.293  29.122  1.00  0.00     0.001 A 
ATOM     73  C   UNL A   1      49.945  25.373  31.280  1.00  0.00     0.001 A 
ATOM     74  C   UNL A   1      50.884  25.601  30.275  1.00  0.00     0.000 A 
ENDBRANCH  50  69
BRANCH  62  75
ATOM     75  C   UNL A   1      44.577  32.258  31.499  1.00  0.00    -0.014 A 
ATOM     76  C   UNL A   1      45.015  33.306  30.672  1.00  0.00     0.009 A 
ATOM     77  C   UNL A   1      44.585  32.438  32.890  1.00  0.00     0.009 A 
ATOM     78  C   UNL A   1      45.466  34.503  31.228  1.00  0.00     0.001 A 
ATOM     79  C   UNL A   1      45.009  33.647  33.441  1.00  0.00     0.001 A 
ATOM     80  C   UNL A   1      45.458  34.674  32.612  1.00  0.00     0.000 A 
ENDBRANCH  62  75
ENDBRANCH  36  37
ENDBRANCH  28  31
ENDBRANCH  26  27
ENDBRANCH   1  26
TORSDOF 12
ENDMDL
MODEL 2
REMARK VINA RESULT:     -12.0      0.999      5.987
REMARK SMILES CC(C)(C)c1cc2c(cc1Cl)C=C(C(=O)NCCCNC(=O)c1ccc(-c3c4nc(c(-c5ccccc5)c5ccc([nH]5)c(-c5ccccc5)c5nc(c(-c6ccccc6)c6ccc3[nH]6)C=C5)C=C4)cc1)[C@@H](C(F)(F)F)O2
REMARK SMILES IDX 18 1 17 2 16 3 14 4 15 5 13 7 5 8 6 9 10 10 7 11 9 12 11 13
REMARK SMILES IDX 8 14 76 15 12 16 71 17 2 18 1 19 3 20 4 21 72 22 73 23 74 24
REMARK SMILES IDX 75 25 19 26 20 27 21 28 22 30 23 31 24 32 70 33 25 34 69 35
REMARK SMILES IDX 26 36 27 37 28 38 63 39 29 40 68 41 62 42 64 43 30 44 67 45
REMARK SMILES IDX 61 46 60 47 31 49 53 50 38 51 52 52 39 53 42 54 51 55 65 56
REMARK SMILES IDX 40 57 41 58 50 60 66 61 43 62 32 63 33 64 37 65 34 66 36 67
REMARK SMILES IDX 35 68 54 69 55 70 59 71 56 72 58 73 57 74 44 75 45 76 49 77
REMARK SMILES IDX 46 78 48 79 47 80
REMARK H PARENT 16 6 20 29 64 48 42 59
REMARK Flexibility Score: inf
ROOT
ATOM      1  C   UNL A   1      37.787  19.664  25.033  1.00  0.00     0.042 C 
ENDROOT
BRANCH   1   2
ATOM      2  C   UNL A   1      36.753  20.747  24.765  1.00  0.00     0.118 C 
BRANCH   2   3
ATOM      3  N   UNL A   1      35.435  20.369  25.250  1.00  0.00    -0.352 N 
ATOM      4  C   UNL A   1      34.214  20.941  25.359  1.00  0.00     0.251 C 
ATOM      5  O   UNL A   1      33.345  20.228  25.871  1.00  0.00    -0.270 OA
ATOM      6  H   UNL A   1      35.430  19.446  25.594  1.00  0.00     0.163 HD
BRANCH   4   7
ATOM      7  C   UNL A   1      33.872  22.325  24.920  1.00  0.00     0.067 C 
ATOM      8  C   UNL A   1      32.635  27.259  24.787  1.00  0.00    -0.020 A 
ATOM      9  C   UNL A   1      33.203  26.326  23.893  1.00  0.00     0.053 A 
ATOM     10  C   UNL A   1      32.343  26.771  26.084  1.00  0.00     0.045 A 
ATOM     11  C   UNL A   1      33.457  25.002  24.258  1.00  0.00     0.128 A 
ATOM     12  C   UNL A   1      32.604  25.433  26.445  1.00  0.00     0.032 A 
ATOM     13  Cl  UNL A   1      31.683  27.735  27.361  1.00  0.00    -0.084 Cl
ATOM     14  C   UNL A   1      33.167  24.546  25.533  1.00  0.00     0.019 A 
ATOM     15  O   UNL A   1      34.050  24.217  23.311  1.00  0.00    -0.475 OA
ATOM     16  C   UNL A   1      33.508  23.177  25.896  1.00  0.00     0.025 C 
ATOM     17  C   UNL A   1      33.895  22.785  23.490  1.00  0.00     0.314 C 
BRANCH   8  18
ATOM     18  C   UNL A   1      32.419  28.719  24.317  1.00  0.00    -0.012 C 
ATOM     19  C   UNL A   1      33.116  29.004  22.969  1.00  0.00     0.016 C 
ATOM     20  C   UNL A   1      32.996  29.779  25.300  1.00  0.00     0.016 C 
ATOM     21  C   UNL A   1      30.907  29.016  24.221  1.00  0.00     0.016 C 
ENDBRANCH   8  18
BRANCH  17  22
ATOM     22  C   UNL A   1      32.668  22.304  22.691  1.00  0.00     0.429 C 
ATOM     23  F   UNL A   1      31.544  22.914  23.145  1.00  0.00    -0.167 F 
ATOM     24  F   UNL A   1      32.757  22.600  21.372  1.00  0.00    -0.167 F 
ATOM     25  F   UNL A   1      32.472  20.971  22.781  1.00  0.00    -0.167 F 
ENDBRANCH  17  22
ENDBRANCH   4   7
ENDBRANCH   2   3
ENDBRANCH   1   2
BRANCH   1  26
ATOM     26  C   UNL A   1      39.012  20.202  25.758  1.00  0.00     0.118 C 
BRANCH  26  27
ATOM     27  N   UNL A   1      40.064  19.197  25.884  1.00  0.00    -0.352 N 
ATOM     28  C   UNL A   1      41.413  19.335  26.103  1.00  0.00     0.251 C 
ATOM     29  H   UNL A   1      39.756  18.265  25.795  1.00  0.00     0.163 HD
ATOM     30  O   UNL A   1      42.161  18.376  25.934  1.00  0.00    -0.269 OA
BRANCH  28  31
ATOM     31  C   UNL A   1      41.967  20.637  26.528  1.00  0.00     0.039 A 
ATOM     32  C   UNL A   1      42.120  20.925  27.882  1.00  0.00     0.014 A 
ATOM     33  C   UNL A   1      42.349  21.576  25.565  1.00  0.00     0.014 A 
ATOM     34  C   UNL A   1      42.458  22.210  28.277  1.00  0.00     0.010 A 
ATOM     35  C   UNL A   1      42.808  22.834  25.967  1.00  0.00     0.010 A 
ATOM     36  C   UNL A   1      42.819  23.178  27.327  1.00  0.00    -0.014 A 
BRANCH  36  37
ATOM     37  C   UNL A   1      43.227  24.525  27.803  1.00  0.00     0.031 A 
ATOM     38  C   UNL A   1      44.671  24.945  27.802  1.00  0.00     0.074 A 
ATOM     39  C   UNL A   1      42.265  25.403  28.153  1.00  0.00     0.049 A 
ATOM     40  N   UNL A   1      45.183  26.112  28.103  1.00  0.00    -0.248 NA
ATOM     41  C   UNL A   1      45.671  23.935  27.420  1.00  0.00     0.031 C 
ATOM     42  C   UNL A   1      40.829  25.110  28.178  1.00  0.00     0.029 A 
ATOM     43  N   UNL A   1      42.337  26.728  28.498  1.00  0.00    -0.354 N 
ATOM     44  C   UNL A   1      46.559  25.968  27.971  1.00  0.00     0.074 A 
ATOM     45  C   UNL A   1      46.808  24.599  27.585  1.00  0.00     0.031 C 
ATOM     46  C   UNL A   1      40.154  26.241  28.421  1.00  0.00     0.029 A 
ATOM     47  C   UNL A   1      41.106  27.319  28.656  1.00  0.00     0.049 A 
ATOM     48  H   UNL A   1      43.188  27.209  28.620  1.00  0.00     0.167 HD
ATOM     49  C   UNL A   1      47.524  26.901  28.150  1.00  0.00     0.031 A 
ATOM     50  C   UNL A   1      40.774  28.588  28.960  1.00  0.00     0.031 A 
ATOM     51  C   UNL A   1      47.268  28.270  28.514  1.00  0.00     0.049 A 
ATOM     52  C   UNL A   1      41.866  29.590  29.185  1.00  0.00     0.074 A 
ATOM     53  C   UNL A   1      48.181  29.294  28.691  1.00  0.00     0.029 A 
ATOM     54  N   UNL A   1      46.012  28.807  28.751  1.00  0.00    -0.354 N 
ATOM     55  N   UNL A   1      43.161  29.438  29.051  1.00  0.00    -0.248 NA
ATOM     56  C   UNL A   1      41.456  30.933  29.613  1.00  0.00     0.031 C 
ATOM     57  C   UNL A   1      47.484  30.435  29.094  1.00  0.00     0.029 A 
ATOM     58  C   UNL A   1      46.129  30.140  29.102  1.00  0.00     0.049 A 
ATOM     59  H   UNL A   1      45.162  28.312  28.679  1.00  0.00     0.167 HD
ATOM     60  C   UNL A   1      43.721  30.665  29.374  1.00  0.00     0.074 A 
ATOM     61  C   UNL A   1      42.624  31.559  29.683  1.00  0.00     0.031 C 
ATOM     62  C   UNL A   1      45.029  31.014  29.417  1.00  0.00     0.031 A 
BRANCH  49  63
ATOM     63  C   UNL A   1      48.958  26.484  27.975  1.00  0.00    -0.014 A 
ATOM     64  C   UNL A   1      49.719  26.132  29.101  1.00  0.00     0.009 A 
ATOM     65  C   UNL A   1      49.586  26.537  26.722  1.00  0.00     0.009 A 
ATOM     66  C   UNL A   1      51.083  25.856  28.981  1.00  0.00     0.001 A 
ATOM     67  C   UNL A   1      50.945  26.235  26.599  1.00  0.00     0.001 A 
ATOM     68  C   UNL A   1      51.693  25.905  27.729  1.00  0.00     0.000 A 
ENDBRANCH  49  63
BRANCH  50  69
ATOM     69  C   UNL A   1      39.339  28.962  29.062  1.00  0.00    -0.014 A 
ATOM     70  C   UNL A   1      38.638  28.787  30.267  1.00  0.00     0.009 A 
ATOM     71  C   UNL A   1      38.647  29.442  27.940  1.00  0.00     0.009 A 
ATOM     72  C   UNL A   1      37.269  29.049  30.337  1.00  0.00     0.001 A 
ATOM     73  C   UNL A   1      37.283  29.735  28.023  1.00  0.00     0.001 A 
ATOM     74  C   UNL A   1      36.593  29.527  29.217  1.00  0.00     0.000 A 
ENDBRANCH  50  69
BRANCH  62  75
ATOM     75  C   UNL A   1      45.358  32.425  29.813  1.00  0.00    -0.014 A 
ATOM     76  C   UNL A   1      45.487  33.415  28.825  1.00  0.00     0.009 A 
ATOM     77  C   UNL A   1      45.634  32.755  31.149  1.00  0.00     0.009 A 
ATOM     78  C   UNL A   1      45.898  34.704  29.166  1.00  0.00     0.001 A 
ATOM     79  C   UNL A   1      46.016  34.053  31.489  1.00  0.00     0.001 A 
ATOM     80  C   UNL A   1      46.157  35.023  30.498  1.00  0.00     0.000 A 
ENDBRANCH  62  75
ENDBRANCH  36  37
ENDBRANCH  28  31
ENDBRANCH  26  27
ENDBRANCH   1  26
TORSDOF 12
ENDMDL
MODEL 3
REMARK VINA RESULT:     -12.0      4.064      8.939
REMARK SMILES CC(C)(C)c1cc2c(cc1Cl)C=C(C(=O)NCCCNC(=O)c1ccc(-c3c4nc(c(-c5ccccc5)c5ccc([nH]5)c(-c5ccccc5)c5nc(c(-c6ccccc6)c6ccc3[nH]6)C=C5)C=C4)cc1)[C@@H](C(F)(F)F)O2
REMARK SMILES IDX 18 1 17 2 16 3 14 4 15 5 13 7 5 8 6 9 10 10 7 11 9 12 11 13
REMARK SMILES IDX 8 14 76 15 12 16 71 17 2 18 1 19 3 20 4 21 72 22 73 23 74 24
REMARK SMILES IDX 75 25 19 26 20 27 21 28 22 30 23 31 24 32 70 33 25 34 69 35
REMARK SMILES IDX 26 36 27 37 28 38 63 39 29 40 68 41 62 42 64 43 30 44 67 45
REMARK SMILES IDX 61 46 60 47 31 49 53 50 38 51 52 52 39 53 42 54 51 55 65 56
REMARK SMILES IDX 40 57 41 58 50 60 66 61 43 62 32 63 33 64 37 65 34 66 36 67
REMARK SMILES IDX 35 68 54 69 55 70 59 71 56 72 58 73 57 74 44 75 45 76 49 77
REMARK SMILES IDX 46 78 48 79 47 80
REMARK H PARENT 16 6 20 29 64 48 42 59
REMARK Flexibility Score: inf
ROOT
ATOM      1  C   UNL A   1      31.456  31.741  26.510  1.00  0.00     0.042 C 
ENDROOT
BRANCH   1   2
ATOM      2  C   UNL A   1      31.628  30.255  26.237  1.00  0.00     0.118 C 
BRANCH   2   3
ATOM      3  N   UNL A   1      31.466  29.942  24.825  1.00  0.00    -0.352 N 
ATOM      4  C   UNL A   1      31.583  28.856  24.028  1.00  0.00     0.251 C 
ATOM      5  O   UNL A   1      31.360  29.059  22.830  1.00  0.00    -0.270 OA
ATOM      6  H   UNL A   1      31.201  30.738  24.310  1.00  0.00     0.163 HD
BRANCH   4   7
ATOM      7  C   UNL A   1      31.956  27.488  24.490  1.00  0.00     0.067 C 
ATOM      8  C   UNL A   1      34.324  23.049  25.257  1.00  0.00    -0.020 A 
ATOM      9  C   UNL A   1      33.321  23.797  25.912  1.00  0.00     0.053 A 
ATOM     10  C   UNL A   1      34.882  23.648  24.101  1.00  0.00     0.045 A 
ATOM     11  C   UNL A   1      32.899  25.045  25.450  1.00  0.00     0.128 A 
ATOM     12  C   UNL A   1      34.452  24.910  23.642  1.00  0.00     0.032 A 
ATOM     13  Cl  UNL A   1      36.151  22.944  23.157  1.00  0.00    -0.084 Cl
ATOM     14  C   UNL A   1      33.462  25.614  24.319  1.00  0.00     0.019 A 
ATOM     15  O   UNL A   1      31.954  25.681  26.203  1.00  0.00    -0.475 OA
ATOM     16  C   UNL A   1      33.042  26.947  23.907  1.00  0.00     0.025 C 
ATOM     17  C   UNL A   1      31.190  26.710  25.521  1.00  0.00     0.314 C 
BRANCH   8  18
ATOM     18  C   UNL A   1      34.762  21.690  25.854  1.00  0.00    -0.012 C 
ATOM     19  C   UNL A   1      36.300  21.542  25.896  1.00  0.00     0.016 C 
ATOM     20  C   UNL A   1      34.264  20.463  25.035  1.00  0.00     0.016 C 
ATOM     21  C   UNL A   1      34.161  21.523  27.265  1.00  0.00     0.016 C 
ENDBRANCH   8  18
BRANCH  17  22
ATOM     22  C   UNL A   1      29.896  26.090  24.960  1.00  0.00     0.429 C 
ATOM     23  F   UNL A   1      29.169  25.532  25.961  1.00  0.00    -0.167 F 
ATOM     24  F   UNL A   1      29.092  27.008  24.369  1.00  0.00    -0.167 F 
ATOM     25  F   UNL A   1      30.130  25.127  24.042  1.00  0.00    -0.167 F 
ENDBRANCH  17  22
ENDBRANCH   4   7
ENDBRANCH   2   3
ENDBRANCH   1   2
BRANCH   1  26
ATOM     26  C   UNL A   1      32.706  32.365  27.113  1.00  0.00     0.118 C 
BRANCH  26  27
ATOM     27  N   UNL A   1      32.488  33.750  27.523  1.00  0.00    -0.352 N 
ATOM     28  C   UNL A   1      33.104  34.504  28.493  1.00  0.00     0.251 C 
ATOM     29  H   UNL A   1      31.782  34.221  27.024  1.00  0.00     0.163 HD
ATOM     30  O   UNL A   1      32.608  35.572  28.843  1.00  0.00    -0.269 OA
BRANCH  28  31
ATOM     31  C   UNL A   1      34.352  34.028  29.123  1.00  0.00     0.039 A 
ATOM     32  C   UNL A   1      35.588  34.392  28.594  1.00  0.00     0.014 A 
ATOM     33  C   UNL A   1      34.289  33.221  30.263  1.00  0.00     0.014 A 
ATOM     34  C   UNL A   1      36.742  33.791  29.070  1.00  0.00     0.010 A 
ATOM     35  C   UNL A   1      35.467  32.713  30.819  1.00  0.00     0.010 A 
ATOM     36  C   UNL A   1      36.701  32.954  30.197  1.00  0.00    -0.014 A 
BRANCH  36  37
ATOM     37  C   UNL A   1      37.973  32.379  30.703  1.00  0.00     0.031 A 
ATOM     38  C   UNL A   1      38.606  32.888  31.968  1.00  0.00     0.074 A 
ATOM     39  C   UNL A   1      38.505  31.324  30.055  1.00  0.00     0.049 A 
ATOM     40  N   UNL A   1      39.667  32.437  32.590  1.00  0.00    -0.248 NA
ATOM     41  C   UNL A   1      37.981  34.050  32.621  1.00  0.00     0.031 C 
ATOM     42  C   UNL A   1      37.967  30.735  28.825  1.00  0.00     0.029 A 
ATOM     43  N   UNL A   1      39.576  30.524  30.362  1.00  0.00    -0.354 N 
ATOM     44  C   UNL A   1      39.848  33.271  33.687  1.00  0.00     0.074 A 
ATOM     45  C   UNL A   1      38.805  34.269  33.638  1.00  0.00     0.031 C 
ATOM     46  C   UNL A   1      38.647  29.616  28.539  1.00  0.00     0.029 A 
ATOM     47  C   UNL A   1      39.722  29.454  29.511  1.00  0.00     0.049 A 
ATOM     48  H   UNL A   1      40.182  30.700  31.119  1.00  0.00     0.167 HD
ATOM     49  C   UNL A   1      40.796  33.201  34.651  1.00  0.00     0.031 A 
ATOM     50  C   UNL A   1      40.620  28.452  29.506  1.00  0.00     0.031 A 
ATOM     51  C   UNL A   1      41.820  32.191  34.706  1.00  0.00     0.049 A 
ATOM     52  C   UNL A   1      41.679  28.421  30.567  1.00  0.00     0.074 A 
ATOM     53  C   UNL A   1      42.808  32.025  35.661  1.00  0.00     0.029 A 
ATOM     54  N   UNL A   1      41.986  31.177  33.776  1.00  0.00    -0.354 N 
ATOM     55  N   UNL A   1      41.831  29.214  31.599  1.00  0.00    -0.248 NA
ATOM     56  C   UNL A   1      42.695  27.366  30.460  1.00  0.00     0.031 C 
ATOM     57  C   UNL A   1      43.608  30.947  35.276  1.00  0.00     0.029 A 
ATOM     58  C   UNL A   1      43.078  30.400  34.118  1.00  0.00     0.049 A 
ATOM     59  H   UNL A   1      41.410  31.031  32.989  1.00  0.00     0.167 HD
ATOM     60  C   UNL A   1      42.956  28.754  32.267  1.00  0.00     0.074 A 
ATOM     61  C   UNL A   1      43.432  27.595  31.539  1.00  0.00     0.031 C 
ATOM     62  C   UNL A   1      43.546  29.256  33.379  1.00  0.00     0.031 A 
BRANCH  49  63
ATOM     63  C   UNL A   1      40.796  34.253  35.726  1.00  0.00    -0.014 A 
ATOM     64  C   UNL A   1      40.012  34.068  36.876  1.00  0.00     0.009 A 
ATOM     65  C   UNL A   1      41.482  35.466  35.560  1.00  0.00     0.009 A 
ATOM     66  C   UNL A   1      39.902  35.080  37.832  1.00  0.00     0.001 A 
ATOM     67  C   UNL A   1      41.392  36.467  36.531  1.00  0.00     0.001 A 
ATOM     68  C   UNL A   1      40.594  36.277  37.659  1.00  0.00     0.000 A 
ENDBRANCH  49  63
BRANCH  50  69
ATOM     69  C   UNL A   1      40.539  27.404  28.455  1.00  0.00    -0.014 A 
ATOM     70  C   UNL A   1      41.168  27.587  27.212  1.00  0.00     0.009 A 
ATOM     71  C   UNL A   1      39.784  26.240  28.666  1.00  0.00     0.009 A 
ATOM     72  C   UNL A   1      41.014  26.647  26.192  1.00  0.00     0.001 A 
ATOM     73  C   UNL A   1      39.658  25.285  27.653  1.00  0.00     0.001 A 
ATOM     74  C   UNL A   1      40.263  25.495  26.415  1.00  0.00     0.000 A 
ENDBRANCH  50  69
BRANCH  62  75
ATOM     75  C   UNL A   1      44.775  28.558  33.888  1.00  0.00    -0.014 A 
ATOM     76  C   UNL A   1      46.040  28.935  33.409  1.00  0.00     0.009 A 
ATOM     77  C   UNL A   1      44.675  27.468  34.766  1.00  0.00     0.009 A 
ATOM     78  C   UNL A   1      47.180  28.226  33.788  1.00  0.00     0.001 A 
ATOM     79  C   UNL A   1      45.820  26.780  35.166  1.00  0.00     0.001 A 
ATOM     80  C   UNL A   1      47.069  27.152  34.670  1.00  0.00     0.000 A 
ENDBRANCH  62  75
ENDBRANCH  36  37
ENDBRANCH  28  31
ENDBRANCH  26  27
ENDBRANCH   1  26
TORSDOF 12
ENDMDL
