MODEL 1
REMARK VINA RESULT:     -11.0      0.000      0.000
REMARK SMILES CC[NH2+][C@@]1(C(=O)NCCCNC(=O)c2ccc(-c3c4nc(c(-c5ccccc5)c5ccc([nH]5)c(-c5ccccc5)c5nc(c(-c6ccccc6)c6ccc3[nH]6)C=C5)C=C4)cc2)CCC[C@@H]([N@@H+](C)C2CCCC2)C1
REMARK SMILES IDX 9 1 8 2 7 3 5 4 6 5 4 7 62 8 73 9 63 10 65 11 64 12 3 13
REMARK SMILES IDX 2 16 1 17 66 18 67 19 68 21 69 22 72 23 70 24 71 25 10 26
REMARK SMILES IDX 11 27 12 28 13 30 14 31 15 32 61 33 16 34 60 35 17 36 18 37
REMARK SMILES IDX 19 38 54 39 20 40 59 41 53 42 55 43 21 44 58 45 52 46 51 47
REMARK SMILES IDX 22 49 44 50 29 51 43 52 30 53 33 54 42 55 56 56 31 57 32 58
REMARK SMILES IDX 41 60 57 61 34 62 23 63 24 64 28 65 25 66 27 67 26 68 45 69
REMARK SMILES IDX 46 70 50 71 47 72 49 73 48 74 35 75 36 76 40 77 37 78 39 79
REMARK SMILES IDX 38 80
REMARK H PARENT 7 6 3 14 3 15 66 20 11 29 55 48 33 59
REMARK Flexibility Score: inf
ROOT
ATOM      1  C   UNL A   1      37.751  19.950  24.576  1.00  0.00     0.042 C 
ENDROOT
BRANCH   1   2
ATOM      2  C   UNL A   1      36.292  19.740  24.957  1.00  0.00     0.118 C 
BRANCH   2   3
ATOM      3  N   UNL A   1      35.755  20.853  25.695  1.00  0.00    -0.351 N 
ATOM      4  C   UNL A   1      34.516  21.358  25.908  1.00  0.00     0.281 C 
ATOM      5  O   UNL A   1      34.556  22.382  26.612  1.00  0.00    -0.268 OA
ATOM      6  H   UNL A   1      36.455  21.370  26.155  1.00  0.00     0.163 HD
BRANCH   4   7
ATOM      7  C   UNL A   1      33.128  20.787  25.345  1.00  0.00     0.181 C 
ATOM      8  C   UNL A   1      33.003  20.594  23.824  1.00  0.00     0.079 C 
ATOM      9  C   UNL A   1      31.907  21.568  25.870  1.00  0.00     0.144 C 
ATOM     10  C   UNL A   1      32.458  21.732  22.964  1.00  0.00     0.013 C 
ATOM     11  C   UNL A   1      31.627  22.900  25.178  1.00  0.00     0.190 C 
ATOM     12  C   UNL A   1      31.683  22.866  23.637  1.00  0.00     0.065 C 
BRANCH   7  13
ATOM     13  N   UNL A   1      32.960  19.430  25.996  1.00  0.00    -0.334 N 
ATOM     14  H   UNL A   1      33.857  19.172  26.409  1.00  0.00     0.347 HD
ATOM     15  H   UNL A   1      32.200  19.547  26.667  1.00  0.00     0.347 HD
BRANCH  13  16
ATOM     16  C   UNL A   1      32.540  18.333  25.128  1.00  0.00     0.257 C 
ATOM     17  C   UNL A   1      33.473  17.149  25.347  1.00  0.00     0.071 C 
ENDBRANCH  13  16
ENDBRANCH   7  13
BRANCH  11  18
ATOM     18  N   UNL A   1      30.479  23.637  25.764  1.00  0.00    -0.332 N 
ATOM     19  C   UNL A   1      29.917  22.936  26.923  1.00  0.00     0.333 C 
ATOM     20  H   UNL A   1      29.831  23.623  24.975  1.00  0.00     0.348 HD
BRANCH  18  21
ATOM     21  C   UNL A   1      30.583  25.083  26.008  1.00  0.00     0.184 C 
ATOM     22  C   UNL A   1      31.960  25.719  26.235  1.00  0.00     0.065 C 
ATOM     23  C   UNL A   1      29.909  25.986  24.950  1.00  0.00     0.065 C 
ATOM     24  C   UNL A   1      31.694  27.201  26.052  1.00  0.00     0.006 C 
ATOM     25  C   UNL A   1      30.813  27.215  24.812  1.00  0.00     0.006 C 
ENDBRANCH  18  21
ENDBRANCH  11  18
ENDBRANCH   4   7
ENDBRANCH   2   3
ENDBRANCH   1   2
BRANCH   1  26
ATOM     26  C   UNL A   1      38.638  20.236  25.766  1.00  0.00     0.118 C 
BRANCH  26  27
ATOM     27  N   UNL A   1      39.803  19.358  25.802  1.00  0.00    -0.352 N 
ATOM     28  C   UNL A   1      41.121  19.640  26.049  1.00  0.00     0.251 C 
ATOM     29  H   UNL A   1      39.610  18.410  25.617  1.00  0.00     0.163 HD
ATOM     30  O   UNL A   1      41.978  18.788  25.813  1.00  0.00    -0.269 OA
BRANCH  28  31
ATOM     31  C   UNL A   1      41.521  20.962  26.576  1.00  0.00     0.039 A 
ATOM     32  C   UNL A   1      41.984  21.940  25.691  1.00  0.00     0.014 A 
ATOM     33  C   UNL A   1      41.450  21.240  27.941  1.00  0.00     0.014 A 
ATOM     34  C   UNL A   1      42.316  23.207  26.174  1.00  0.00     0.010 A 
ATOM     35  C   UNL A   1      41.638  22.536  28.396  1.00  0.00     0.010 A 
ATOM     36  C   UNL A   1      42.109  23.526  27.526  1.00  0.00    -0.014 A 
BRANCH  36  37
ATOM     37  C   UNL A   1      42.428  24.867  28.070  1.00  0.00     0.031 A 
ATOM     38  C   UNL A   1      43.844  25.192  28.473  1.00  0.00     0.074 A 
ATOM     39  C   UNL A   1      41.442  25.765  28.263  1.00  0.00     0.049 A 
ATOM     40  N   UNL A   1      44.318  26.278  29.026  1.00  0.00    -0.248 NA
ATOM     41  C   UNL A   1      44.857  24.141  28.261  1.00  0.00     0.031 C 
ATOM     42  C   UNL A   1      40.024  25.549  27.962  1.00  0.00     0.029 A 
ATOM     43  N   UNL A   1      41.485  27.042  28.758  1.00  0.00    -0.354 N 
ATOM     44  C   UNL A   1      45.666  26.029  29.250  1.00  0.00     0.074 A 
ATOM     45  C   UNL A   1      45.922  24.667  28.842  1.00  0.00     0.031 C 
ATOM     46  C   UNL A   1      39.342  26.671  28.236  1.00  0.00     0.029 A 
ATOM     47  C   UNL A   1      40.261  27.666  28.777  1.00  0.00     0.049 A 
ATOM     48  H   UNL A   1      42.314  27.472  29.071  1.00  0.00     0.167 HD
ATOM     49  C   UNL A   1      46.618  26.868  29.723  1.00  0.00     0.031 A 
ATOM     50  C   UNL A   1      39.920  28.902  29.185  1.00  0.00     0.031 A 
ATOM     51  C   UNL A   1      46.363  28.229  30.105  1.00  0.00     0.049 A 
ATOM     52  C   UNL A   1      40.993  29.815  29.710  1.00  0.00     0.074 A 
ATOM     53  C   UNL A   1      47.262  29.185  30.539  1.00  0.00     0.029 A 
ATOM     54  N   UNL A   1      45.112  28.826  30.096  1.00  0.00    -0.354 N 
ATOM     55  N   UNL A   1      42.278  29.589  29.845  1.00  0.00    -0.248 NA
ATOM     56  C   UNL A   1      40.571  31.161  30.122  1.00  0.00     0.031 C 
ATOM     57  C   UNL A   1      46.545  30.345  30.847  1.00  0.00     0.029 A 
ATOM     58  C   UNL A   1      45.211  30.132  30.539  1.00  0.00     0.049 A 
ATOM     59  H   UNL A   1      44.277  28.385  29.815  1.00  0.00     0.167 HD
ATOM     60  C   UNL A   1      42.822  30.773  30.327  1.00  0.00     0.074 A 
ATOM     61  C   UNL A   1      41.730  31.717  30.443  1.00  0.00     0.031 C 
ATOM     62  C   UNL A   1      44.110  31.055  30.643  1.00  0.00     0.031 A 
BRANCH  49  63
ATOM     63  C   UNL A   1      48.017  26.329  29.852  1.00  0.00    -0.014 A 
ATOM     64  C   UNL A   1      48.933  26.409  28.790  1.00  0.00     0.009 A 
ATOM     65  C   UNL A   1      48.434  25.751  31.061  1.00  0.00     0.009 A 
ATOM     66  C   UNL A   1      50.220  25.885  28.921  1.00  0.00     0.001 A 
ATOM     67  C   UNL A   1      49.734  25.259  31.202  1.00  0.00     0.001 A 
ATOM     68  C   UNL A   1      50.621  25.316  30.128  1.00  0.00     0.000 A 
ENDBRANCH  49  63
BRANCH  50  69
ATOM     69  C   UNL A   1      38.508  29.357  29.091  1.00  0.00    -0.014 A 
ATOM     70  C   UNL A   1      38.014  29.910  27.899  1.00  0.00     0.009 A 
ATOM     71  C   UNL A   1      37.645  29.247  30.193  1.00  0.00     0.009 A 
ATOM     72  C   UNL A   1      36.697  30.370  27.822  1.00  0.00     0.001 A 
ATOM     73  C   UNL A   1      36.319  29.676  30.103  1.00  0.00     0.001 A 
ATOM     74  C   UNL A   1      35.850  30.249  28.922  1.00  0.00     0.000 A 
ENDBRANCH  50  69
BRANCH  62  75
ATOM     75  C   UNL A   1      44.415  32.455  31.097  1.00  0.00    -0.014 A 
ATOM     76  C   UNL A   1      44.407  32.803  32.456  1.00  0.00     0.009 A 
ATOM     77  C   UNL A   1      44.762  33.427  30.145  1.00  0.00     0.009 A 
ATOM     78  C   UNL A   1      44.703  34.110  32.849  1.00  0.00     0.001 A 
ATOM     79  C   UNL A   1      45.093  34.723  30.543  1.00  0.00     0.001 A 
ATOM     80  C   UNL A   1      45.052  35.066  31.893  1.00  0.00     0.000 A 
ENDBRANCH  62  75
ENDBRANCH  36  37
ENDBRANCH  28  31
ENDBRANCH  26  27
ENDBRANCH   1  26
TORSDOF 14
ENDMDL
MODEL 2
REMARK VINA RESULT:     -11.0      0.468      6.008
REMARK SMILES CC[NH2+][C@@]1(C(=O)NCCCNC(=O)c2ccc(-c3c4nc(c(-c5ccccc5)c5ccc([nH]5)c(-c5ccccc5)c5nc(c(-c6ccccc6)c6ccc3[nH]6)C=C5)C=C4)cc2)CCC[C@@H]([N@@H+](C)C2CCCC2)C1
REMARK SMILES IDX 9 1 8 2 7 3 5 4 6 5 4 7 62 8 73 9 63 10 65 11 64 12 3 13
REMARK SMILES IDX 2 16 1 17 66 18 67 19 68 21 69 22 72 23 70 24 71 25 10 26
REMARK SMILES IDX 11 27 12 28 13 30 14 31 15 32 61 33 16 34 60 35 17 36 18 37
REMARK SMILES IDX 19 38 54 39 20 40 59 41 53 42 55 43 21 44 58 45 52 46 51 47
REMARK SMILES IDX 22 49 44 50 29 51 43 52 30 53 33 54 42 55 56 56 31 57 32 58
REMARK SMILES IDX 41 60 57 61 34 62 23 63 24 64 28 65 25 66 27 67 26 68 45 69
REMARK SMILES IDX 46 70 50 71 47 72 49 73 48 74 35 75 36 76 40 77 37 78 39 79
REMARK SMILES IDX 38 80
REMARK H PARENT 7 6 3 14 3 15 66 20 11 29 55 48 33 59
REMARK Flexibility Score: inf
ROOT
ATOM      1  C   UNL A   1      37.492  19.815  25.007  1.00  0.00     0.042 C 
ENDROOT
BRANCH   1   2
ATOM      2  C   UNL A   1      36.410  20.845  24.714  1.00  0.00     0.118 C 
BRANCH   2   3
ATOM      3  N   UNL A   1      35.733  21.281  25.907  1.00  0.00    -0.351 N 
ATOM      4  C   UNL A   1      34.445  21.316  26.324  1.00  0.00     0.281 C 
ATOM      5  O   UNL A   1      34.345  21.826  27.454  1.00  0.00    -0.268 OA
ATOM      6  H   UNL A   1      36.355  21.639  26.581  1.00  0.00     0.163 HD
BRANCH   4   7
ATOM      7  C   UNL A   1      33.153  20.810  25.520  1.00  0.00     0.181 C 
ATOM      8  C   UNL A   1      33.243  20.766  23.985  1.00  0.00     0.079 C 
ATOM      9  C   UNL A   1      31.865  21.544  25.943  1.00  0.00     0.144 C 
ATOM     10  C   UNL A   1      32.814  21.985  23.172  1.00  0.00     0.013 C 
ATOM     11  C   UNL A   1      31.674  22.939  25.350  1.00  0.00     0.190 C 
ATOM     12  C   UNL A   1      31.944  23.053  23.836  1.00  0.00     0.065 C 
BRANCH   7  13
ATOM     13  N   UNL A   1      32.906  19.397  26.008  1.00  0.00    -0.334 N 
ATOM     14  H   UNL A   1      33.690  19.135  26.606  1.00  0.00     0.347 HD
ATOM     15  H   UNL A   1      32.003  19.431  26.481  1.00  0.00     0.347 HD
BRANCH  13  16
ATOM     16  C   UNL A   1      32.765  18.365  24.984  1.00  0.00     0.257 C 
ATOM     17  C   UNL A   1      32.724  17.003  25.664  1.00  0.00     0.071 C 
ENDBRANCH  13  16
ENDBRANCH   7  13
BRANCH  11  18
ATOM     18  N   UNL A   1      30.450  23.623  25.838  1.00  0.00    -0.332 N 
ATOM     19  C   UNL A   1      29.835  22.904  26.960  1.00  0.00     0.333 C 
ATOM     20  H   UNL A   1      29.866  23.572  25.003  1.00  0.00     0.348 HD
BRANCH  18  21
ATOM     21  C   UNL A   1      30.466  25.074  26.074  1.00  0.00     0.184 C 
ATOM     22  C   UNL A   1      31.777  25.768  26.463  1.00  0.00     0.065 C 
ATOM     23  C   UNL A   1      29.894  25.939  24.928  1.00  0.00     0.065 C 
ATOM     24  C   UNL A   1      31.477  27.236  26.228  1.00  0.00     0.006 C 
ATOM     25  C   UNL A   1      30.758  27.203  24.889  1.00  0.00     0.006 C 
ENDBRANCH  18  21
ENDBRANCH  11  18
ENDBRANCH   4   7
ENDBRANCH   2   3
ENDBRANCH   1   2
BRANCH   1  26
ATOM     26  C   UNL A   1      38.717  20.415  25.661  1.00  0.00     0.118 C 
BRANCH  26  27
ATOM     27  N   UNL A   1      39.794  19.440  25.797  1.00  0.00    -0.352 N 
ATOM     28  C   UNL A   1      41.115  19.616  26.120  1.00  0.00     0.251 C 
ATOM     29  H   UNL A   1      39.529  18.507  25.631  1.00  0.00     0.163 HD
ATOM     30  O   UNL A   1      41.905  18.684  25.964  1.00  0.00    -0.269 OA
BRANCH  28  31
ATOM     31  C   UNL A   1      41.599  20.917  26.629  1.00  0.00     0.039 A 
ATOM     32  C   UNL A   1      42.033  21.888  25.723  1.00  0.00     0.014 A 
ATOM     33  C   UNL A   1      41.634  21.181  27.999  1.00  0.00     0.014 A 
ATOM     34  C   UNL A   1      42.444  23.136  26.193  1.00  0.00     0.010 A 
ATOM     35  C   UNL A   1      41.900  22.464  28.451  1.00  0.00     0.010 A 
ATOM     36  C   UNL A   1      42.344  23.446  27.559  1.00  0.00    -0.014 A 
BRANCH  36  37
ATOM     37  C   UNL A   1      42.750  24.768  28.093  1.00  0.00     0.031 A 
ATOM     38  C   UNL A   1      41.707  25.830  28.329  1.00  0.00     0.074 A 
ATOM     39  C   UNL A   1      44.053  25.036  28.302  1.00  0.00     0.049 A 
ATOM     40  N   UNL A   1      41.861  27.067  28.728  1.00  0.00    -0.248 NA
ATOM     41  C   UNL A   1      40.306  25.468  28.043  1.00  0.00     0.031 C 
ATOM     42  C   UNL A   1      45.162  24.108  28.060  1.00  0.00     0.029 A 
ATOM     43  N   UNL A   1      44.667  26.170  28.767  1.00  0.00    -0.354 N 
ATOM     44  C   UNL A   1      40.590  27.628  28.712  1.00  0.00     0.074 A 
ATOM     45  C   UNL A   1      39.687  26.626  28.196  1.00  0.00     0.031 C 
ATOM     46  C   UNL A   1      46.313  24.694  28.422  1.00  0.00     0.029 A 
ATOM     47  C   UNL A   1      46.032  26.052  28.873  1.00  0.00     0.049 A 
ATOM     48  H   UNL A   1      44.176  26.990  29.002  1.00  0.00     0.167 HD
ATOM     49  C   UNL A   1      40.201  28.859  29.120  1.00  0.00     0.031 A 
ATOM     50  C   UNL A   1      46.952  26.942  29.289  1.00  0.00     0.031 A 
ATOM     51  C   UNL A   1      41.099  29.844  29.653  1.00  0.00     0.049 A 
ATOM     52  C   UNL A   1      46.496  28.304  29.734  1.00  0.00     0.074 A 
ATOM     53  C   UNL A   1      40.804  31.099  30.153  1.00  0.00     0.029 A 
ATOM     54  N   UNL A   1      42.472  29.680  29.757  1.00  0.00    -0.354 N 
ATOM     55  N   UNL A   1      45.281  28.794  29.783  1.00  0.00    -0.248 NA
ATOM     56  C   UNL A   1      47.539  29.230  30.198  1.00  0.00     0.031 C 
ATOM     57  C   UNL A   1      42.008  31.717  30.507  1.00  0.00     0.029 A 
ATOM     58  C   UNL A   1      43.042  30.821  30.292  1.00  0.00     0.049 A 
ATOM     59  H   UNL A   1      42.967  28.872  29.490  1.00  0.00     0.167 HD
ATOM     60  C   UNL A   1      45.409  30.072  30.313  1.00  0.00     0.074 A 
ATOM     61  C   UNL A   1      46.817  30.272  30.584  1.00  0.00     0.031 C 
ATOM     62  C   UNL A   1      44.447  30.996  30.556  1.00  0.00     0.031 A 
BRANCH  49  63
ATOM     63  C   UNL A   1      38.740  29.201  28.999  1.00  0.00    -0.014 A 
ATOM     64  C   UNL A   1      37.859  29.039  30.082  1.00  0.00     0.009 A 
ATOM     65  C   UNL A   1      38.239  29.711  27.792  1.00  0.00     0.009 A 
ATOM     66  C   UNL A   1      36.503  29.341  29.945  1.00  0.00     0.001 A 
ATOM     67  C   UNL A   1      36.889  30.046  27.668  1.00  0.00     0.001 A 
ATOM     68  C   UNL A   1      36.020  29.850  28.740  1.00  0.00     0.000 A 
ENDBRANCH  49  63
BRANCH  50  69
ATOM     69  C   UNL A   1      48.390  26.567  29.326  1.00  0.00    -0.014 A 
ATOM     70  C   UNL A   1      49.224  26.829  28.228  1.00  0.00     0.009 A 
ATOM     71  C   UNL A   1      48.938  25.939  30.456  1.00  0.00     0.009 A 
ATOM     72  C   UNL A   1      50.567  26.444  28.249  1.00  0.00     0.001 A 
ATOM     73  C   UNL A   1      50.288  25.585  30.488  1.00  0.00     0.001 A 
ATOM     74  C   UNL A   1      51.099  25.826  29.379  1.00  0.00     0.000 A 
ENDBRANCH  50  69
BRANCH  62  75
ATOM     75  C   UNL A   1      44.881  32.288  31.190  1.00  0.00    -0.014 A 
ATOM     76  C   UNL A   1      44.956  32.434  32.583  1.00  0.00     0.009 A 
ATOM     77  C   UNL A   1      45.266  33.361  30.370  1.00  0.00     0.009 A 
ATOM     78  C   UNL A   1      45.371  33.643  33.143  1.00  0.00     0.001 A 
ATOM     79  C   UNL A   1      45.715  34.557  30.932  1.00  0.00     0.001 A 
ATOM     80  C   UNL A   1      45.756  34.701  32.317  1.00  0.00     0.000 A 
ENDBRANCH  62  75
ENDBRANCH  36  37
ENDBRANCH  28  31
ENDBRANCH  26  27
ENDBRANCH   1  26
TORSDOF 14
ENDMDL
MODEL 3
REMARK VINA RESULT:     -11.0      1.485      1.939
REMARK SMILES CC[NH2+][C@@]1(C(=O)NCCCNC(=O)c2ccc(-c3c4nc(c(-c5ccccc5)c5ccc([nH]5)c(-c5ccccc5)c5nc(c(-c6ccccc6)c6ccc3[nH]6)C=C5)C=C4)cc2)CCC[C@@H]([N@@H+](C)C2CCCC2)C1
REMARK SMILES IDX 9 1 8 2 7 3 5 4 6 5 4 7 62 8 73 9 63 10 65 11 64 12 3 13
REMARK SMILES IDX 2 16 1 17 66 18 67 19 68 21 69 22 72 23 70 24 71 25 10 26
REMARK SMILES IDX 11 27 12 28 13 30 14 31 15 32 61 33 16 34 60 35 17 36 18 37
REMARK SMILES IDX 19 38 54 39 20 40 59 41 53 42 55 43 21 44 58 45 52 46 51 47
REMARK SMILES IDX 22 49 44 50 29 51 43 52 30 53 33 54 42 55 56 56 31 57 32 58
REMARK SMILES IDX 41 60 57 61 34 62 23 63 24 64 28 65 25 66 27 67 26 68 45 69
REMARK SMILES IDX 46 70 50 71 47 72 49 73 48 74 35 75 36 76 40 77 37 78 39 79
REMARK SMILES IDX 38 80
REMARK H PARENT 7 6 3 14 3 15 66 20 11 29 55 48 33 59
REMARK Flexibility Score: inf
ROOT
ATOM      1  C   UNL A   1      38.247  19.346  25.027  1.00  0.00     0.042 C 
ENDROOT
BRANCH   1   2
ATOM      2  C   UNL A   1      37.100  20.278  24.663  1.00  0.00     0.118 C 
BRANCH   2   3
ATOM      3  N   UNL A   1      37.431  21.662  24.877  1.00  0.00    -0.351 N 
ATOM      4  C   UNL A   1      36.744  22.769  25.249  1.00  0.00     0.281 C 
ATOM      5  O   UNL A   1      37.475  23.775  25.266  1.00  0.00    -0.268 OA
ATOM      6  H   UNL A   1      38.383  21.849  24.715  1.00  0.00     0.163 HD
BRANCH   4   7
ATOM      7  C   UNL A   1      35.185  22.864  25.612  1.00  0.00     0.181 C 
ATOM      8  C   UNL A   1      34.208  22.014  24.782  1.00  0.00     0.079 C 
ATOM      9  C   UNL A   1      34.678  24.319  25.679  1.00  0.00     0.144 C 
ATOM     10  C   UNL A   1      33.573  22.610  23.528  1.00  0.00     0.013 C 
ATOM     11  C   UNL A   1      34.394  24.983  24.334  1.00  0.00     0.190 C 
ATOM     12  C   UNL A   1      33.589  24.127  23.335  1.00  0.00     0.065 C 
BRANCH   7  13
ATOM     13  N   UNL A   1      35.082  22.409  27.053  1.00  0.00    -0.334 N 
ATOM     14  H   UNL A   1      35.957  21.942  27.293  1.00  0.00     0.347 HD
ATOM     15  H   UNL A   1      34.891  23.256  27.589  1.00  0.00     0.347 HD
BRANCH  13  16
ATOM     16  C   UNL A   1      33.989  21.496  27.376  1.00  0.00     0.257 C 
ATOM     17  C   UNL A   1      32.905  22.270  28.115  1.00  0.00     0.071 C 
ENDBRANCH  13  16
ENDBRANCH   7  13
BRANCH  11  18
ATOM     18  N   UNL A   1      33.968  26.400  24.456  1.00  0.00    -0.332 N 
ATOM     19  C   UNL A   1      33.042  26.784  23.384  1.00  0.00     0.333 C 
ATOM     20  H   UNL A   1      34.867  26.871  24.352  1.00  0.00     0.348 HD
BRANCH  18  21
ATOM     21  C   UNL A   1      33.532  26.926  25.757  1.00  0.00     0.184 C 
ATOM     22  C   UNL A   1      33.919  28.350  26.171  1.00  0.00     0.065 C 
ATOM     23  C   UNL A   1      32.013  26.841  26.032  1.00  0.00     0.065 C 
ATOM     24  C   UNL A   1      32.986  28.641  27.331  1.00  0.00     0.006 C 
ATOM     25  C   UNL A   1      31.659  28.110  26.813  1.00  0.00     0.006 C 
ENDBRANCH  18  21
ENDBRANCH  11  18
ENDBRANCH   4   7
ENDBRANCH   2   3
ENDBRANCH   1   2
BRANCH   1  26
ATOM     26  C   UNL A   1      39.351  20.039  25.794  1.00  0.00     0.118 C 
BRANCH  26  27
ATOM     27  N   UNL A   1      40.545  19.207  25.902  1.00  0.00    -0.352 N 
ATOM     28  C   UNL A   1      41.843  19.548  26.181  1.00  0.00     0.251 C 
ATOM     29  H   UNL A   1      40.393  18.246  25.751  1.00  0.00     0.163 HD
ATOM     30  O   UNL A   1      42.737  18.720  26.006  1.00  0.00    -0.269 OA
BRANCH  28  31
ATOM     31  C   UNL A   1      42.177  20.904  26.665  1.00  0.00     0.039 A 
ATOM     32  C   UNL A   1      42.524  21.895  25.743  1.00  0.00     0.014 A 
ATOM     33  C   UNL A   1      42.158  21.202  28.028  1.00  0.00     0.014 A 
ATOM     34  C   UNL A   1      42.792  23.190  26.188  1.00  0.00     0.010 A 
ATOM     35  C   UNL A   1      42.279  22.516  28.453  1.00  0.00     0.010 A 
ATOM     36  C   UNL A   1      42.634  23.519  27.544  1.00  0.00    -0.014 A 
BRANCH  36  37
ATOM     37  C   UNL A   1      42.888  24.889  28.051  1.00  0.00     0.031 A 
ATOM     38  C   UNL A   1      44.290  25.301  28.418  1.00  0.00     0.074 A 
ATOM     39  C   UNL A   1      41.857  25.735  28.241  1.00  0.00     0.049 A 
ATOM     40  N   UNL A   1      44.712  26.426  28.937  1.00  0.00    -0.248 NA
ATOM     41  C   UNL A   1      45.356  24.304  28.211  1.00  0.00     0.031 C 
ATOM     42  C   UNL A   1      40.448  25.433  27.974  1.00  0.00     0.029 A 
ATOM     43  N   UNL A   1      41.837  27.024  28.706  1.00  0.00    -0.354 N 
ATOM     44  C   UNL A   1      46.076  26.258  29.140  1.00  0.00     0.074 A 
ATOM     45  C   UNL A   1      46.401  24.902  28.760  1.00  0.00     0.031 C 
ATOM     46  C   UNL A   1      39.709  26.522  28.234  1.00  0.00     0.029 A 
ATOM     47  C   UNL A   1      40.580  27.579  28.733  1.00  0.00     0.049 A 
ATOM     48  H   UNL A   1      42.645  27.507  28.992  1.00  0.00     0.167 HD
ATOM     49  C   UNL A   1      46.987  27.159  29.575  1.00  0.00     0.031 A 
ATOM     50  C   UNL A   1      40.178  28.805  29.119  1.00  0.00     0.031 A 
ATOM     51  C   UNL A   1      46.664  28.513  29.930  1.00  0.00     0.049 A 
ATOM     52  C   UNL A   1      41.208  29.789  29.601  1.00  0.00     0.074 A 
ATOM     53  C   UNL A   1      47.516  29.528  30.324  1.00  0.00     0.029 A 
ATOM     54  N   UNL A   1      45.381  29.039  29.931  1.00  0.00    -0.354 N 
ATOM     55  N   UNL A   1      42.505  29.637  29.717  1.00  0.00    -0.248 NA
ATOM     56  C   UNL A   1      40.718  31.118  29.990  1.00  0.00     0.031 C 
ATOM     57  C   UNL A   1      46.740  30.654  30.619  1.00  0.00     0.029 A 
ATOM     58  C   UNL A   1      45.415  30.359  30.341  1.00  0.00     0.049 A 
ATOM     59  H   UNL A   1      44.567  28.546  29.677  1.00  0.00     0.167 HD
ATOM     60  C   UNL A   1      42.991  30.862  30.160  1.00  0.00     0.074 A 
ATOM     61  C   UNL A   1      41.850  31.746  30.275  1.00  0.00     0.031 C 
ATOM     62  C   UNL A   1      44.266  31.222  30.444  1.00  0.00     0.031 A 
BRANCH  49  63
ATOM     63  C   UNL A   1      48.417  26.702  29.690  1.00  0.00    -0.014 A 
ATOM     64  C   UNL A   1      49.330  26.885  28.638  1.00  0.00     0.009 A 
ATOM     65  C   UNL A   1      48.864  26.098  30.875  1.00  0.00     0.009 A 
ATOM     66  C   UNL A   1      50.647  26.436  28.755  1.00  0.00     0.001 A 
ATOM     67  C   UNL A   1      50.191  25.681  31.002  1.00  0.00     0.001 A 
ATOM     68  C   UNL A   1      51.077  25.840  29.938  1.00  0.00     0.000 A 
ENDBRANCH  49  63
BRANCH  50  69
ATOM     69  C   UNL A   1      38.741  29.178  29.042  1.00  0.00    -0.014 A 
ATOM     70  C   UNL A   1      38.199  29.685  27.850  1.00  0.00     0.009 A 
ATOM     71  C   UNL A   1      37.902  29.034  30.158  1.00  0.00     0.009 A 
ATOM     72  C   UNL A   1      36.857  30.069  27.789  1.00  0.00     0.001 A 
ATOM     73  C   UNL A   1      36.553  29.388  30.084  1.00  0.00     0.001 A 
ATOM     74  C   UNL A   1      36.035  29.917  28.903  1.00  0.00     0.000 A 
ENDBRANCH  50  69
BRANCH  62  75
ATOM     75  C   UNL A   1      44.501  32.647  30.860  1.00  0.00    -0.014 A 
ATOM     76  C   UNL A   1      44.728  33.659  29.915  1.00  0.00     0.009 A 
ATOM     77  C   UNL A   1      44.444  32.985  32.222  1.00  0.00     0.009 A 
ATOM     78  C   UNL A   1      44.934  34.976  30.330  1.00  0.00     0.001 A 
ATOM     79  C   UNL A   1      44.615  34.308  32.631  1.00  0.00     0.001 A 
ATOM     80  C   UNL A   1      44.871  35.300  31.687  1.00  0.00     0.000 A 
ENDBRANCH  62  75
ENDBRANCH  36  37
ENDBRANCH  28  31
ENDBRANCH  26  27
ENDBRANCH   1  26
TORSDOF 14
ENDMDL
