MODEL 1
REMARK VINA RESULT:     -11.7      0.000      0.000
REMARK SMILES O=C(NCCCNC(=O)[C@H]1C[C@H]2CCCC[C@@H]2[N@@H+]1CCn1ccnc1)c1ccc(-c2c3nc(c(-c4ccccc4)c4ccc([nH]4)c(-c4ccccc4)c4nc(c(-c5ccccc5)c5ccc2[nH]5)C=C4)C=C3)cc1
REMARK SMILES IDX 5 1 4 2 3 3 1 4 2 5 26 7 27 8 73 9 28 10 72 11 29 12 30 13
REMARK SMILES IDX 31 14 66 15 32 16 71 17 65 18 67 19 33 20 70 21 64 22 63 23
REMARK SMILES IDX 34 25 56 26 41 27 55 28 42 29 45 30 54 31 68 32 43 33 44 34
REMARK SMILES IDX 53 36 69 37 46 38 35 39 36 40 40 41 37 42 39 43 38 44 57 45
REMARK SMILES IDX 58 46 62 47 59 48 61 49 60 50 47 51 48 52 52 53 49 54 51 55
REMARK SMILES IDX 50 56 6 57 7 58 8 59 9 61 10 62 11 63 18 64 12 65 17 66
REMARK SMILES IDX 13 68 16 69 14 70 15 71 19 72 20 73 21 74 22 75 25 76 23 77
REMARK SMILES IDX 24 78
REMARK H PARENT 3 6 67 24 45 35 7 60 18 67
REMARK Flexibility Score: inf
ROOT
ATOM      1  C   UNL A   1      34.868  30.509  27.698  1.00  0.00     0.042 C 
ENDROOT
BRANCH   1   2
ATOM      2  C   UNL A   1      34.799  31.950  28.213  1.00  0.00     0.118 C 
BRANCH   2   3
ATOM      3  N   UNL A   1      34.751  32.076  29.658  1.00  0.00    -0.352 N 
ATOM      4  O   UNL A   1      35.206  32.027  31.823  1.00  0.00    -0.269 OA
ATOM      5  C   UNL A   1      35.567  31.698  30.689  1.00  0.00     0.251 C 
ATOM      6  H   UNL A   1      33.944  32.542  29.970  1.00  0.00     0.163 HD
BRANCH   5   7
ATOM      7  C   UNL A   1      36.814  30.897  30.546  1.00  0.00     0.039 A 
ATOM      8  C   UNL A   1      38.083  31.415  30.289  1.00  0.00     0.014 A 
ATOM      9  C   UNL A   1      36.681  29.506  30.722  1.00  0.00     0.014 A 
ATOM     10  C   UNL A   1      39.181  30.568  30.153  1.00  0.00     0.010 A 
ATOM     11  C   UNL A   1      37.780  28.657  30.612  1.00  0.00     0.010 A 
ATOM     12  C   UNL A   1      39.032  29.189  30.310  1.00  0.00    -0.014 A 
BRANCH  12  13
ATOM     13  C   UNL A   1      40.238  28.360  30.295  1.00  0.00     0.031 A 
ATOM     14  C   UNL A   1      40.979  28.244  31.585  1.00  0.00     0.074 A 
ATOM     15  C   UNL A   1      40.596  27.569  29.264  1.00  0.00     0.049 A 
ATOM     16  N   UNL A   1      42.232  28.474  31.818  1.00  0.00    -0.248 NA
ATOM     17  C   UNL A   1      40.212  27.833  32.771  1.00  0.00     0.031 C 
ATOM     18  C   UNL A   1      39.821  27.284  28.057  1.00  0.00     0.029 A 
ATOM     19  N   UNL A   1      41.683  26.745  29.149  1.00  0.00    -0.354 N 
ATOM     20  C   UNL A   1      42.456  28.074  33.135  1.00  0.00     0.074 A 
ATOM     21  C   UNL A   1      41.163  27.787  33.703  1.00  0.00     0.031 C 
ATOM     22  C   UNL A   1      40.341  26.196  27.448  1.00  0.00     0.029 A 
ATOM     23  C   UNL A   1      41.544  25.786  28.157  1.00  0.00     0.049 A 
ATOM     24  H   UNL A   1      42.484  26.825  29.715  1.00  0.00     0.167 HD
ATOM     25  C   UNL A   1      43.701  27.792  33.611  1.00  0.00     0.031 A 
ATOM     26  C   UNL A   1      42.312  24.688  27.963  1.00  0.00     0.031 A 
ATOM     27  C   UNL A   1      44.748  28.366  32.809  1.00  0.00     0.049 A 
ATOM     28  C   UNL A   1      43.590  24.865  28.683  1.00  0.00     0.074 A 
ATOM     29  C   UNL A   1      45.089  29.635  32.384  1.00  0.00     0.029 A 
ATOM     30  N   UNL A   1      45.528  27.510  32.072  1.00  0.00    -0.354 N 
ATOM     31  N   UNL A   1      44.535  25.678  28.310  1.00  0.00    -0.248 NA
ATOM     32  C   UNL A   1      43.719  24.335  30.031  1.00  0.00     0.031 C 
ATOM     33  C   UNL A   1      45.701  29.452  31.108  1.00  0.00     0.029 A 
ATOM     34  C   UNL A   1      45.703  28.082  30.842  1.00  0.00     0.049 A 
ATOM     35  H   UNL A   1      45.892  26.646  32.371  1.00  0.00     0.167 HD
ATOM     36  C   UNL A   1      45.130  26.091  29.492  1.00  0.00     0.074 A 
ATOM     37  C   UNL A   1      44.695  25.122  30.490  1.00  0.00     0.031 C 
ATOM     38  C   UNL A   1      45.677  27.338  29.604  1.00  0.00     0.031 A 
BRANCH  25  39
ATOM     39  C   UNL A   1      43.976  26.649  34.566  1.00  0.00    -0.014 A 
ATOM     40  C   UNL A   1      43.783  25.328  34.118  1.00  0.00     0.009 A 
ATOM     41  C   UNL A   1      44.100  26.831  35.957  1.00  0.00     0.009 A 
ATOM     42  C   UNL A   1      43.620  24.267  35.019  1.00  0.00     0.001 A 
ATOM     43  C   UNL A   1      43.990  25.766  36.856  1.00  0.00     0.001 A 
ATOM     44  C   UNL A   1      43.713  24.489  36.389  1.00  0.00     0.000 A 
ENDBRANCH  25  39
BRANCH  26  45
ATOM     45  C   UNL A   1      41.944  23.402  27.335  1.00  0.00    -0.014 A 
ATOM     46  C   UNL A   1      42.628  22.933  26.203  1.00  0.00     0.009 A 
ATOM     47  C   UNL A   1      41.066  22.515  27.983  1.00  0.00     0.009 A 
ATOM     48  C   UNL A   1      42.456  21.618  25.752  1.00  0.00     0.001 A 
ATOM     49  C   UNL A   1      40.882  21.207  27.526  1.00  0.00     0.001 A 
ATOM     50  C   UNL A   1      41.589  20.755  26.418  1.00  0.00     0.000 A 
ENDBRANCH  26  45
BRANCH  38  51
ATOM     51  C   UNL A   1      45.955  28.110  28.343  1.00  0.00    -0.014 A 
ATOM     52  C   UNL A   1      44.959  28.813  27.645  1.00  0.00     0.009 A 
ATOM     53  C   UNL A   1      47.285  28.235  27.913  1.00  0.00     0.009 A 
ATOM     54  C   UNL A   1      45.278  29.577  26.519  1.00  0.00     0.001 A 
ATOM     55  C   UNL A   1      47.607  29.019  26.804  1.00  0.00     0.001 A 
ATOM     56  C   UNL A   1      46.602  29.682  26.101  1.00  0.00     0.000 A 
ENDBRANCH  38  51
ENDBRANCH  12  13
ENDBRANCH   5   7
ENDBRANCH   2   3
ENDBRANCH   1   2
BRANCH   1  57
ATOM     57  C   UNL A   1      33.678  30.109  26.826  1.00  0.00     0.118 C 
BRANCH  57  58
ATOM     58  N   UNL A   1      32.689  29.363  27.573  1.00  0.00    -0.351 N 
ATOM     59  C   UNL A   1      31.923  28.296  27.206  1.00  0.00     0.278 C 
ATOM     60  H   UNL A   1      32.547  29.676  28.496  1.00  0.00     0.163 HD
ATOM     61  O   UNL A   1      31.069  27.930  28.018  1.00  0.00    -0.268 OA
BRANCH  59  62
ATOM     62  C   UNL A   1      32.177  27.571  25.857  1.00  0.00     0.274 C 
ATOM     63  C   UNL A   1      33.438  26.673  25.956  1.00  0.00     0.085 C 
ATOM     64  N   UNL A   1      31.036  26.656  25.544  1.00  0.00    -0.321 N 
ATOM     65  C   UNL A   1      32.937  25.283  25.617  1.00  0.00     0.054 C 
ATOM     66  C   UNL A   1      31.475  25.332  26.020  1.00  0.00     0.188 C 
ATOM     67  H   UNL A   1      30.183  26.932  26.030  1.00  0.00     0.349 HD
ATOM     68  C   UNL A   1      33.649  24.088  26.230  1.00  0.00     0.010 C 
ATOM     69  C   UNL A   1      30.724  24.068  25.607  1.00  0.00     0.065 C 
ATOM     70  C   UNL A   1      32.945  22.807  25.766  1.00  0.00     0.001 C 
ATOM     71  C   UNL A   1      31.449  22.809  26.103  1.00  0.00     0.006 C 
BRANCH  64  72
ATOM     72  C   UNL A   1      30.508  26.743  24.169  1.00  0.00     0.285 C 
BRANCH  72  73
ATOM     73  C   UNL A   1      29.056  27.179  23.836  1.00  0.00     0.184 C 
BRANCH  73  74
ATOM     74  N   UNL A   1      28.881  28.354  23.008  1.00  0.00    -0.332 N 
ATOM     75  C   UNL A   1      27.693  28.985  22.752  1.00  0.00     0.107 A 
ATOM     76  C   UNL A   1      29.842  28.991  22.275  1.00  0.00     0.199 A 
ATOM     77  C   UNL A   1      28.024  30.068  21.972  1.00  0.00     0.130 A 
ATOM     78  N   UNL A   1      29.361  30.056  21.675  1.00  0.00    -0.245 NA
ENDBRANCH  73  74
ENDBRANCH  72  73
ENDBRANCH  64  72
ENDBRANCH  59  62
ENDBRANCH  57  58
ENDBRANCH   1  57
TORSDOF 13
ENDMDL
MODEL 2
REMARK VINA RESULT:     -11.4      1.557      2.301
REMARK SMILES O=C(NCCCNC(=O)[C@H]1C[C@H]2CCCC[C@@H]2[N@@H+]1CCn1ccnc1)c1ccc(-c2c3nc(c(-c4ccccc4)c4ccc([nH]4)c(-c4ccccc4)c4nc(c(-c5ccccc5)c5ccc2[nH]5)C=C4)C=C3)cc1
REMARK SMILES IDX 5 1 4 2 3 3 1 4 2 5 26 7 27 8 73 9 28 10 72 11 29 12 30 13
REMARK SMILES IDX 31 14 66 15 32 16 71 17 65 18 67 19 33 20 70 21 64 22 63 23
REMARK SMILES IDX 34 25 56 26 41 27 55 28 42 29 45 30 54 31 68 32 43 33 44 34
REMARK SMILES IDX 53 36 69 37 46 38 35 39 36 40 40 41 37 42 39 43 38 44 57 45
REMARK SMILES IDX 58 46 62 47 59 48 61 49 60 50 47 51 48 52 52 53 49 54 51 55
REMARK SMILES IDX 50 56 6 57 7 58 8 59 9 61 10 62 11 63 18 64 12 65 17 66
REMARK SMILES IDX 13 68 16 69 14 70 15 71 19 72 20 73 21 74 22 75 25 76 23 77
REMARK SMILES IDX 24 78
REMARK H PARENT 3 6 67 24 45 35 7 60 18 67
REMARK Flexibility Score: inf
ROOT
ATOM      1  C   UNL A   1      32.460  28.405  27.350  1.00  0.00     0.042 C 
ENDROOT
BRANCH   1   2
ATOM      2  C   UNL A   1      33.871  28.935  27.083  1.00  0.00     0.118 C 
BRANCH   2   3
ATOM      3  N   UNL A   1      34.143  30.247  27.643  1.00  0.00    -0.352 N 
ATOM      4  O   UNL A   1      35.079  32.013  28.591  1.00  0.00    -0.269 OA
ATOM      5  C   UNL A   1      35.200  30.821  28.293  1.00  0.00     0.251 C 
ATOM      6  H   UNL A   1      33.390  30.870  27.528  1.00  0.00     0.163 HD
BRANCH   5   7
ATOM      7  C   UNL A   1      36.446  30.112  28.696  1.00  0.00     0.039 A 
ATOM      8  C   UNL A   1      36.597  29.334  29.844  1.00  0.00     0.014 A 
ATOM      9  C   UNL A   1      37.538  30.225  27.814  1.00  0.00     0.014 A 
ATOM     10  C   UNL A   1      37.819  28.731  30.136  1.00  0.00     0.010 A 
ATOM     11  C   UNL A   1      38.754  29.604  28.089  1.00  0.00     0.010 A 
ATOM     12  C   UNL A   1      38.900  28.867  29.262  1.00  0.00    -0.014 A 
BRANCH  12  13
ATOM     13  C   UNL A   1      40.114  28.103  29.546  1.00  0.00     0.031 A 
ATOM     14  C   UNL A   1      40.664  28.221  30.929  1.00  0.00     0.074 A 
ATOM     15  C   UNL A   1      40.637  27.180  28.715  1.00  0.00     0.049 A 
ATOM     16  N   UNL A   1      41.864  28.541  31.295  1.00  0.00    -0.248 NA
ATOM     17  C   UNL A   1      39.743  27.963  32.047  1.00  0.00     0.031 C 
ATOM     18  C   UNL A   1      40.051  26.676  27.473  1.00  0.00     0.029 A 
ATOM     19  N   UNL A   1      41.747  26.398  28.885  1.00  0.00    -0.354 N 
ATOM     20  C   UNL A   1      41.906  28.360  32.676  1.00  0.00     0.074 A 
ATOM     21  C   UNL A   1      40.551  28.105  33.098  1.00  0.00     0.031 C 
ATOM     22  C   UNL A   1      40.679  25.532  27.123  1.00  0.00     0.029 A 
ATOM     23  C   UNL A   1      41.776  25.292  28.048  1.00  0.00     0.049 A 
ATOM     24  H   UNL A   1      42.456  26.601  29.537  1.00  0.00     0.167 HD
ATOM     25  C   UNL A   1      43.075  28.212  33.360  1.00  0.00     0.031 A 
ATOM     26  C   UNL A   1      42.589  24.214  28.141  1.00  0.00     0.031 A 
ATOM     27  C   UNL A   1      44.213  28.703  32.630  1.00  0.00     0.049 A 
ATOM     28  C   UNL A   1      43.745  24.558  28.994  1.00  0.00     0.074 A 
ATOM     29  C   UNL A   1      44.581  29.905  32.060  1.00  0.00     0.029 A 
ATOM     30  N   UNL A   1      45.110  27.780  32.155  1.00  0.00    -0.354 N 
ATOM     31  N   UNL A   1      44.715  25.347  28.631  1.00  0.00    -0.248 NA
ATOM     32  C   UNL A   1      43.691  24.248  30.414  1.00  0.00     0.031 C 
ATOM     33  C   UNL A   1      45.376  29.556  30.927  1.00  0.00     0.029 A 
ATOM     34  C   UNL A   1      45.448  28.163  30.886  1.00  0.00     0.049 A 
ATOM     35  H   UNL A   1      45.448  26.990  32.635  1.00  0.00     0.167 HD
ATOM     36  C   UNL A   1      45.124  25.963  29.803  1.00  0.00     0.074 A 
ATOM     37  C   UNL A   1      44.571  25.141  30.873  1.00  0.00     0.031 C 
ATOM     38  C   UNL A   1      45.619  27.236  29.791  1.00  0.00     0.031 A 
BRANCH  25  39
ATOM     39  C   UNL A   1      43.235  27.244  34.514  1.00  0.00    -0.014 A 
ATOM     40  C   UNL A   1      43.194  25.861  34.251  1.00  0.00     0.009 A 
ATOM     41  C   UNL A   1      43.101  27.634  35.860  1.00  0.00     0.009 A 
ATOM     42  C   UNL A   1      42.930  24.932  35.265  1.00  0.00     0.001 A 
ATOM     43  C   UNL A   1      42.889  26.704  36.883  1.00  0.00     0.001 A 
ATOM     44  C   UNL A   1      42.767  25.356  36.580  1.00  0.00     0.000 A 
ENDBRANCH  25  39
BRANCH  26  45
ATOM     45  C   UNL A   1      42.346  22.830  27.681  1.00  0.00    -0.014 A 
ATOM     46  C   UNL A   1      41.170  22.151  28.034  1.00  0.00     0.009 A 
ATOM     47  C   UNL A   1      43.168  22.249  26.698  1.00  0.00     0.009 A 
ATOM     48  C   UNL A   1      40.820  20.948  27.410  1.00  0.00     0.001 A 
ATOM     49  C   UNL A   1      42.827  21.041  26.084  1.00  0.00     0.001 A 
ATOM     50  C   UNL A   1      41.645  20.397  26.431  1.00  0.00     0.000 A 
ENDBRANCH  26  45
BRANCH  38  51
ATOM     51  C   UNL A   1      46.058  27.817  28.474  1.00  0.00    -0.014 A 
ATOM     52  C   UNL A   1      45.174  28.464  27.593  1.00  0.00     0.009 A 
ATOM     53  C   UNL A   1      47.428  27.821  28.167  1.00  0.00     0.009 A 
ATOM     54  C   UNL A   1      45.641  29.052  26.415  1.00  0.00     0.001 A 
ATOM     55  C   UNL A   1      47.897  28.431  27.002  1.00  0.00     0.001 A 
ATOM     56  C   UNL A   1      47.003  29.038  26.122  1.00  0.00     0.000 A 
ENDBRANCH  38  51
ENDBRANCH  12  13
ENDBRANCH   5   7
ENDBRANCH   2   3
ENDBRANCH   1   2
BRANCH   1  57
ATOM     57  C   UNL A   1      31.944  27.457  26.268  1.00  0.00     0.118 C 
BRANCH  57  58
ATOM     58  N   UNL A   1      31.400  26.240  26.831  1.00  0.00    -0.351 N 
ATOM     59  C   UNL A   1      31.703  24.935  26.576  1.00  0.00     0.278 C 
ATOM     60  H   UNL A   1      30.698  26.376  27.508  1.00  0.00     0.163 HD
ATOM     61  O   UNL A   1      30.991  24.090  27.125  1.00  0.00    -0.268 OA
BRANCH  59  62
ATOM     62  C   UNL A   1      32.921  24.568  25.685  1.00  0.00     0.274 C 
ATOM     63  C   UNL A   1      33.804  23.505  26.387  1.00  0.00     0.085 C 
ATOM     64  N   UNL A   1      32.452  23.946  24.408  1.00  0.00    -0.321 N 
ATOM     65  C   UNL A   1      33.840  22.344  25.412  1.00  0.00     0.054 C 
ATOM     66  C   UNL A   1      32.540  22.495  24.643  1.00  0.00     0.188 C 
ATOM     67  H   UNL A   1      31.489  24.202  24.191  1.00  0.00     0.349 HD
ATOM     68  C   UNL A   1      34.004  20.938  25.967  1.00  0.00     0.010 C 
ATOM     69  C   UNL A   1      32.446  21.509  23.480  1.00  0.00     0.065 C 
ATOM     70  C   UNL A   1      33.982  19.944  24.800  1.00  0.00     0.001 C 
ATOM     71  C   UNL A   1      32.711  20.073  23.951  1.00  0.00     0.006 C 
BRANCH  64  72
ATOM     72  C   UNL A   1      33.071  24.474  23.177  1.00  0.00     0.285 C 
BRANCH  72  73
ATOM     73  C   UNL A   1      32.312  25.352  22.146  1.00  0.00     0.184 C 
BRANCH  73  74
ATOM     74  N   UNL A   1      32.235  26.774  22.403  1.00  0.00    -0.332 N 
ATOM     75  C   UNL A   1      33.292  27.595  22.697  1.00  0.00     0.107 A 
ATOM     76  C   UNL A   1      31.102  27.533  22.480  1.00  0.00     0.199 A 
ATOM     77  C   UNL A   1      32.748  28.853  22.806  1.00  0.00     0.130 A 
ATOM     78  N   UNL A   1      31.385  28.801  22.678  1.00  0.00    -0.245 NA
ENDBRANCH  73  74
ENDBRANCH  72  73
ENDBRANCH  64  72
ENDBRANCH  59  62
ENDBRANCH  57  58
ENDBRANCH   1  57
TORSDOF 13
ENDMDL
MODEL 3
REMARK VINA RESULT:     -11.4      4.150      8.959
REMARK SMILES O=C(NCCCNC(=O)[C@H]1C[C@H]2CCCC[C@@H]2[N@@H+]1CCn1ccnc1)c1ccc(-c2c3nc(c(-c4ccccc4)c4ccc([nH]4)c(-c4ccccc4)c4nc(c(-c5ccccc5)c5ccc2[nH]5)C=C4)C=C3)cc1
REMARK SMILES IDX 5 1 4 2 3 3 1 4 2 5 26 7 27 8 73 9 28 10 72 11 29 12 30 13
REMARK SMILES IDX 31 14 66 15 32 16 71 17 65 18 67 19 33 20 70 21 64 22 63 23
REMARK SMILES IDX 34 25 56 26 41 27 55 28 42 29 45 30 54 31 68 32 43 33 44 34
REMARK SMILES IDX 53 36 69 37 46 38 35 39 36 40 40 41 37 42 39 43 38 44 57 45
REMARK SMILES IDX 58 46 62 47 59 48 61 49 60 50 47 51 48 52 52 53 49 54 51 55
REMARK SMILES IDX 50 56 6 57 7 58 8 59 9 61 10 62 11 63 18 64 12 65 17 66
REMARK SMILES IDX 13 68 16 69 14 70 15 71 19 72 20 73 21 74 22 75 25 76 23 77
REMARK SMILES IDX 24 78
REMARK H PARENT 3 6 67 24 45 35 7 60 18 67
REMARK Flexibility Score: inf
ROOT
ATOM      1  C   UNL A   1      38.906  23.009  26.329  1.00  0.00     0.042 C 
ENDROOT
BRANCH   1   2
ATOM      2  C   UNL A   1      40.119  22.227  26.840  1.00  0.00     0.118 C 
BRANCH   2   3
ATOM      3  N   UNL A   1      41.371  22.549  26.180  1.00  0.00    -0.352 N 
ATOM      4  O   UNL A   1      43.225  23.530  25.477  1.00  0.00    -0.269 OA
ATOM      5  C   UNL A   1      42.185  23.646  26.134  1.00  0.00     0.251 C 
ATOM      6  H   UNL A   1      41.715  21.802  25.640  1.00  0.00     0.163 HD
BRANCH   5   7
ATOM      7  C   UNL A   1      41.892  24.960  26.770  1.00  0.00     0.039 A 
ATOM      8  C   UNL A   1      42.236  25.322  28.072  1.00  0.00     0.014 A 
ATOM      9  C   UNL A   1      41.240  25.910  25.960  1.00  0.00     0.014 A 
ATOM     10  C   UNL A   1      41.891  26.576  28.574  1.00  0.00     0.010 A 
ATOM     11  C   UNL A   1      40.915  27.173  26.448  1.00  0.00     0.010 A 
ATOM     12  C   UNL A   1      41.228  27.501  27.766  1.00  0.00    -0.014 A 
BRANCH  12  13
ATOM     13  C   UNL A   1      41.013  28.848  28.297  1.00  0.00     0.031 A 
ATOM     14  C   UNL A   1      42.166  29.791  28.197  1.00  0.00     0.074 A 
ATOM     15  C   UNL A   1      39.813  29.324  28.682  1.00  0.00     0.049 A 
ATOM     16  N   UNL A   1      42.721  30.487  29.137  1.00  0.00    -0.248 NA
ATOM     17  C   UNL A   1      42.786  29.964  26.874  1.00  0.00     0.031 C 
ATOM     18  C   UNL A   1      38.513  28.672  28.532  1.00  0.00     0.029 A 
ATOM     19  N   UNL A   1      39.495  30.562  29.172  1.00  0.00    -0.354 N 
ATOM     20  C   UNL A   1      43.647  31.316  28.504  1.00  0.00     0.074 A 
ATOM     21  C   UNL A   1      43.718  30.880  27.133  1.00  0.00     0.031 C 
ATOM     22  C   UNL A   1      37.538  29.591  28.704  1.00  0.00     0.029 A 
ATOM     23  C   UNL A   1      38.142  30.857  29.087  1.00  0.00     0.049 A 
ATOM     24  H   UNL A   1      40.161  31.183  29.547  1.00  0.00     0.167 HD
ATOM     25  C   UNL A   1      44.134  32.447  29.088  1.00  0.00     0.031 A 
ATOM     26  C   UNL A   1      37.555  32.066  29.247  1.00  0.00     0.031 A 
ATOM     27  C   UNL A   1      43.972  32.451  30.517  1.00  0.00     0.049 A 
ATOM     28  C   UNL A   1      38.491  32.965  29.953  1.00  0.00     0.074 A 
ATOM     29  C   UNL A   1      44.350  31.630  31.560  1.00  0.00     0.029 A 
ATOM     30  N   UNL A   1      43.062  33.329  31.051  1.00  0.00    -0.354 N 
ATOM     31  N   UNL A   1      38.790  32.864  31.216  1.00  0.00    -0.248 NA
ATOM     32  C   UNL A   1      39.356  33.836  29.174  1.00  0.00     0.031 C 
ATOM     33  C   UNL A   1      43.314  31.757  32.533  1.00  0.00     0.029 A 
ATOM     34  C   UNL A   1      42.376  32.655  32.024  1.00  0.00     0.049 A 
ATOM     35  H   UNL A   1      42.928  34.267  30.785  1.00  0.00     0.167 HD
ATOM     36  C   UNL A   1      40.101  33.305  31.302  1.00  0.00     0.074 A 
ATOM     37  C   UNL A   1      40.338  34.027  30.058  1.00  0.00     0.031 C 
ATOM     38  C   UNL A   1      40.954  32.794  32.239  1.00  0.00     0.031 A 
BRANCH  25  39
ATOM     39  C   UNL A   1      44.380  33.728  28.317  1.00  0.00    -0.014 A 
ATOM     40  C   UNL A   1      45.617  34.384  28.467  1.00  0.00     0.009 A 
ATOM     41  C   UNL A   1      43.343  34.468  27.717  1.00  0.00     0.009 A 
ATOM     42  C   UNL A   1      45.773  35.735  28.131  1.00  0.00     0.001 A 
ATOM     43  C   UNL A   1      43.511  35.801  27.332  1.00  0.00     0.001 A 
ATOM     44  C   UNL A   1      44.716  36.445  27.572  1.00  0.00     0.000 A 
ENDBRANCH  25  39
BRANCH  26  45
ATOM     45  C   UNL A   1      36.288  32.562  28.668  1.00  0.00    -0.014 A 
ATOM     46  C   UNL A   1      35.320  31.668  28.185  1.00  0.00     0.009 A 
ATOM     47  C   UNL A   1      35.924  33.914  28.796  1.00  0.00     0.009 A 
ATOM     48  C   UNL A   1      34.030  32.109  27.865  1.00  0.00     0.001 A 
ATOM     49  C   UNL A   1      34.642  34.359  28.464  1.00  0.00     0.001 A 
ATOM     50  C   UNL A   1      33.690  33.452  28.011  1.00  0.00     0.000 A 
ENDBRANCH  26  45
BRANCH  38  51
ATOM     51  C   UNL A   1      40.366  32.032  33.396  1.00  0.00    -0.014 A 
ATOM     52  C   UNL A   1      40.226  30.634  33.396  1.00  0.00     0.009 A 
ATOM     53  C   UNL A   1      40.058  32.733  34.572  1.00  0.00     0.009 A 
ATOM     54  C   UNL A   1      39.744  29.963  34.523  1.00  0.00     0.001 A 
ATOM     55  C   UNL A   1      39.600  32.060  35.706  1.00  0.00     0.001 A 
ATOM     56  C   UNL A   1      39.433  30.677  35.678  1.00  0.00     0.000 A 
ENDBRANCH  38  51
ENDBRANCH  12  13
ENDBRANCH   5   7
ENDBRANCH   2   3
ENDBRANCH   1   2
BRANCH   1  57
ATOM     57  C   UNL A   1      37.800  22.124  25.756  1.00  0.00     0.118 C 
BRANCH  57  58
ATOM     58  N   UNL A   1      37.409  22.540  24.427  1.00  0.00    -0.351 N 
ATOM     59  C   UNL A   1      36.170  22.706  23.880  1.00  0.00     0.278 C 
ATOM     60  H   UNL A   1      38.158  22.736  23.819  1.00  0.00     0.163 HD
ATOM     61  O   UNL A   1      36.134  22.960  22.673  1.00  0.00    -0.268 OA
BRANCH  59  62
ATOM     62  C   UNL A   1      34.900  22.628  24.770  1.00  0.00     0.274 C 
ATOM     63  C   UNL A   1      34.652  23.985  25.478  1.00  0.00     0.085 C 
ATOM     64  N   UNL A   1      33.695  22.374  23.921  1.00  0.00    -0.321 N 
ATOM     65  C   UNL A   1      33.262  24.394  25.032  1.00  0.00     0.054 C 
ATOM     66  C   UNL A   1      33.112  23.706  23.687  1.00  0.00     0.188 C 
ATOM     67  H   UNL A   1      33.942  21.944  23.029  1.00  0.00     0.349 HD
ATOM     68  C   UNL A   1      32.936  25.875  24.944  1.00  0.00     0.010 C 
ATOM     69  C   UNL A   1      31.699  23.851  23.125  1.00  0.00     0.065 C 
ATOM     70  C   UNL A   1      31.494  26.033  24.446  1.00  0.00     0.001 C 
ATOM     71  C   UNL A   1      31.260  25.321  23.108  1.00  0.00     0.006 C 
BRANCH  64  72
ATOM     72  C   UNL A   1      32.791  21.310  24.400  1.00  0.00     0.285 C 
BRANCH  72  73
ATOM     73  C   UNL A   1      33.288  19.994  25.054  1.00  0.00     0.184 C 
BRANCH  73  74
ATOM     74  N   UNL A   1      33.386  18.821  24.211  1.00  0.00    -0.332 N 
ATOM     75  C   UNL A   1      34.385  17.884  24.252  1.00  0.00     0.107 A 
ATOM     76  C   UNL A   1      32.557  18.480  23.181  1.00  0.00     0.199 A 
ATOM     77  C   UNL A   1      34.029  16.940  23.318  1.00  0.00     0.130 A 
ATOM     78  N   UNL A   1      32.896  17.325  22.652  1.00  0.00    -0.245 NA
ENDBRANCH  73  74
ENDBRANCH  72  73
ENDBRANCH  64  72
ENDBRANCH  59  62
ENDBRANCH  57  58
ENDBRANCH   1  57
TORSDOF 13
ENDMDL
