MODEL 1
REMARK VINA RESULT:     -11.1      0.000      0.000
REMARK SMILES O=C(NCCCNC(=O)C1CCN(S(=O)(=O)C2CC2)CC1)c1ccc(-c2c3nc(c(-c4ccccc4)c4ccc([nH]4)c(-c4ccccc4)c4nc(c(-c5ccccc5)c5ccc2[nH]5)C=C4)C=C3)cc1
REMARK SMILES IDX 5 1 4 2 3 3 1 4 2 5 22 7 23 8 69 9 24 10 68 11 25 12 26 13
REMARK SMILES IDX 27 14 62 15 28 16 67 17 61 18 63 19 29 20 66 21 60 22 59 23
REMARK SMILES IDX 30 25 52 26 37 27 51 28 38 29 41 30 50 31 64 32 39 33 40 34
REMARK SMILES IDX 49 36 65 37 42 38 31 39 32 40 36 41 33 42 35 43 34 44 53 45
REMARK SMILES IDX 54 46 58 47 55 48 57 49 56 50 43 51 44 52 48 53 45 54 47 55
REMARK SMILES IDX 46 56 6 57 7 58 8 59 9 61 10 62 11 63 21 64 12 65 20 66
REMARK SMILES IDX 13 67 14 68 15 69 16 70 17 71 18 72 19 73
REMARK H PARENT 3 6 63 24 41 35 7 60
REMARK Flexibility Score: inf
ROOT
ATOM      1  C   UNL A   1      37.776  19.880  24.757  1.00  0.00     0.042 C 
ENDROOT
BRANCH   1   2
ATOM      2  C   UNL A   1      38.861  20.272  25.749  1.00  0.00     0.118 C 
BRANCH   2   3
ATOM      3  N   UNL A   1      39.895  19.253  25.851  1.00  0.00    -0.352 N 
ATOM      4  O   UNL A   1      41.968  18.402  25.745  1.00  0.00    -0.269 OA
ATOM      5  C   UNL A   1      41.256  19.379  25.960  1.00  0.00     0.251 C 
ATOM      6  H   UNL A   1      39.564  18.326  25.841  1.00  0.00     0.163 HD
BRANCH   5   7
ATOM      7  C   UNL A   1      41.877  20.668  26.338  1.00  0.00     0.039 A 
ATOM      8  C   UNL A   1      42.188  21.636  25.379  1.00  0.00     0.014 A 
ATOM      9  C   UNL A   1      42.063  20.954  27.695  1.00  0.00     0.014 A 
ATOM     10  C   UNL A   1      42.783  22.834  25.758  1.00  0.00     0.010 A 
ATOM     11  C   UNL A   1      42.574  22.195  28.082  1.00  0.00     0.010 A 
ATOM     12  C   UNL A   1      42.947  23.141  27.116  1.00  0.00    -0.014 A 
BRANCH  12  13
ATOM     13  C   UNL A   1      43.414  24.488  27.522  1.00  0.00     0.031 A 
ATOM     14  C   UNL A   1      42.441  25.542  27.960  1.00  0.00     0.074 A 
ATOM     15  C   UNL A   1      44.729  24.771  27.440  1.00  0.00     0.049 A 
ATOM     16  N   UNL A   1      42.662  26.800  28.244  1.00  0.00    -0.248 NA
ATOM     17  C   UNL A   1      41.034  25.133  28.077  1.00  0.00     0.031 C 
ATOM     18  C   UNL A   1      45.771  23.828  27.027  1.00  0.00     0.029 A 
ATOM     19  N   UNL A   1      45.413  25.935  27.686  1.00  0.00    -0.354 N 
ATOM     20  C   UNL A   1      41.419  27.342  28.546  1.00  0.00     0.074 A 
ATOM     21  C   UNL A   1      40.447  26.281  28.385  1.00  0.00     0.031 C 
ATOM     22  C   UNL A   1      46.960  24.445  27.056  1.00  0.00     0.029 A 
ATOM     23  C   UNL A   1      46.757  25.843  27.418  1.00  0.00     0.049 A 
ATOM     24  H   UNL A   1      44.982  26.755  28.021  1.00  0.00     0.167 HD
ATOM     25  C   UNL A   1      41.120  28.610  28.919  1.00  0.00     0.031 A 
ATOM     26  C   UNL A   1      47.718  26.783  27.416  1.00  0.00     0.031 A 
ATOM     27  C   UNL A   1      42.096  29.660  29.057  1.00  0.00     0.049 A 
ATOM     28  C   UNL A   1      47.358  28.194  27.780  1.00  0.00     0.074 A 
ATOM     29  C   UNL A   1      41.904  30.968  29.468  1.00  0.00     0.029 A 
ATOM     30  N   UNL A   1      43.448  29.526  28.770  1.00  0.00    -0.354 N 
ATOM     31  N   UNL A   1      46.187  28.684  28.105  1.00  0.00    -0.248 NA
ATOM     32  C   UNL A   1      48.448  29.178  27.780  1.00  0.00     0.031 C 
ATOM     33  C   UNL A   1      43.124  31.642  29.361  1.00  0.00     0.029 A 
ATOM     34  C   UNL A   1      44.093  30.737  28.959  1.00  0.00     0.049 A 
ATOM     35  H   UNL A   1      43.883  28.694  28.476  1.00  0.00     0.167 HD
ATOM     36  C   UNL A   1      46.400  30.028  28.376  1.00  0.00     0.074 A 
ATOM     37  C   UNL A   1      47.816  30.274  28.181  1.00  0.00     0.031 C 
ATOM     38  C   UNL A   1      45.503  30.968  28.761  1.00  0.00     0.031 A 
BRANCH  25  39
ATOM     39  C   UNL A   1      39.668  28.939  29.144  1.00  0.00    -0.014 A 
ATOM     40  C   UNL A   1      39.068  28.811  30.408  1.00  0.00     0.009 A 
ATOM     41  C   UNL A   1      38.885  29.389  28.069  1.00  0.00     0.009 A 
ATOM     42  C   UNL A   1      37.705  29.071  30.575  1.00  0.00     0.001 A 
ATOM     43  C   UNL A   1      37.532  29.683  28.247  1.00  0.00     0.001 A 
ATOM     44  C   UNL A   1      36.939  29.507  29.495  1.00  0.00     0.000 A 
ENDBRANCH  25  39
BRANCH  26  45
ATOM     45  C   UNL A   1      49.100  26.407  27.024  1.00  0.00    -0.014 A 
ATOM     46  C   UNL A   1      49.533  26.544  25.698  1.00  0.00     0.009 A 
ATOM     47  C   UNL A   1      50.016  25.969  27.996  1.00  0.00     0.009 A 
ATOM     48  C   UNL A   1      50.853  26.244  25.352  1.00  0.00     0.001 A 
ATOM     49  C   UNL A   1      51.342  25.699  27.653  1.00  0.00     0.001 A 
ATOM     50  C   UNL A   1      51.757  25.831  26.330  1.00  0.00     0.000 A 
ENDBRANCH  26  45
BRANCH  38  51
ATOM     51  C   UNL A   1      46.024  32.349  29.045  1.00  0.00    -0.014 A 
ATOM     52  C   UNL A   1      46.237  33.280  28.019  1.00  0.00     0.009 A 
ATOM     53  C   UNL A   1      46.225  32.746  30.378  1.00  0.00     0.009 A 
ATOM     54  C   UNL A   1      46.654  34.578  28.321  1.00  0.00     0.001 A 
ATOM     55  C   UNL A   1      46.614  34.051  30.678  1.00  0.00     0.001 A 
ATOM     56  C   UNL A   1      46.832  34.965  29.649  1.00  0.00     0.000 A 
ENDBRANCH  38  51
ENDBRANCH  12  13
ENDBRANCH   5   7
ENDBRANCH   2   3
ENDBRANCH   1   2
BRANCH   1  57
ATOM     57  C   UNL A   1      36.432  20.562  25.005  1.00  0.00     0.117 C 
BRANCH  57  58
ATOM     58  N   UNL A   1      36.268  21.726  24.160  1.00  0.00    -0.356 N 
ATOM     59  C   UNL A   1      35.264  22.583  23.891  1.00  0.00     0.223 C 
ATOM     60  H   UNL A   1      37.088  21.945  23.661  1.00  0.00     0.163 HD
ATOM     61  O   UNL A   1      35.520  23.398  22.992  1.00  0.00    -0.275 OA
BRANCH  59  62
ATOM     62  C   UNL A   1      33.896  22.671  24.583  1.00  0.00     0.081 C 
ATOM     63  C   UNL A   1      33.523  21.913  25.845  1.00  0.00     0.030 C 
ATOM     64  C   UNL A   1      32.806  22.373  23.546  1.00  0.00     0.030 C 
ATOM     65  C   UNL A   1      33.251  20.426  25.654  1.00  0.00     0.103 C 
ATOM     66  C   UNL A   1      32.796  20.887  23.225  1.00  0.00     0.103 C 
ATOM     67  N   UNL A   1      32.457  20.081  24.433  1.00  0.00    -0.202 NA
BRANCH  67  68
ATOM     68  S   UNL A   1      32.483  18.365  24.160  1.00  0.00     0.216 S 
ATOM     69  O   UNL A   1      31.808  17.738  25.280  1.00  0.00    -0.212 OA
ATOM     70  O   UNL A   1      31.999  18.148  22.811  1.00  0.00    -0.212 OA
BRANCH  68  71
ATOM     71  C   UNL A   1      34.167  17.701  24.131  1.00  0.00     0.124 C 
ATOM     72  C   UNL A   1      34.355  16.307  24.653  1.00  0.00     0.022 C 
ATOM     73  C   UNL A   1      34.419  16.574  23.171  1.00  0.00     0.022 C 
ENDBRANCH  68  71
ENDBRANCH  67  68
ENDBRANCH  59  62
ENDBRANCH  57  58
ENDBRANCH   1  57
TORSDOF 12
ENDMDL
MODEL 2
REMARK VINA RESULT:     -11.1      4.426      8.532
REMARK SMILES O=C(NCCCNC(=O)C1CCN(S(=O)(=O)C2CC2)CC1)c1ccc(-c2c3nc(c(-c4ccccc4)c4ccc([nH]4)c(-c4ccccc4)c4nc(c(-c5ccccc5)c5ccc2[nH]5)C=C4)C=C3)cc1
REMARK SMILES IDX 5 1 4 2 3 3 1 4 2 5 22 7 23 8 69 9 24 10 68 11 25 12 26 13
REMARK SMILES IDX 27 14 62 15 28 16 67 17 61 18 63 19 29 20 66 21 60 22 59 23
REMARK SMILES IDX 30 25 52 26 37 27 51 28 38 29 41 30 50 31 64 32 39 33 40 34
REMARK SMILES IDX 49 36 65 37 42 38 31 39 32 40 36 41 33 42 35 43 34 44 53 45
REMARK SMILES IDX 54 46 58 47 55 48 57 49 56 50 43 51 44 52 48 53 45 54 47 55
REMARK SMILES IDX 46 56 6 57 7 58 8 59 9 61 10 62 11 63 21 64 12 65 20 66
REMARK SMILES IDX 13 67 14 68 15 69 16 70 17 71 18 72 19 73
REMARK H PARENT 3 6 63 24 41 35 7 60
REMARK Flexibility Score: inf
ROOT
ATOM      1  C   UNL A   1      34.094  28.479  25.904  1.00  0.00     0.042 C 
ENDROOT
BRANCH   1   2
ATOM      2  C   UNL A   1      33.535  28.730  27.296  1.00  0.00     0.118 C 
BRANCH   2   3
ATOM      3  N   UNL A   1      33.634  30.132  27.675  1.00  0.00    -0.352 N 
ATOM      4  O   UNL A   1      34.383  31.909  28.822  1.00  0.00    -0.269 OA
ATOM      5  C   UNL A   1      34.620  30.798  28.356  1.00  0.00     0.251 C 
ATOM      6  H   UNL A   1      32.872  30.690  27.398  1.00  0.00     0.163 HD
BRANCH   5   7
ATOM      7  C   UNL A   1      35.965  30.204  28.531  1.00  0.00     0.039 A 
ATOM      8  C   UNL A   1      36.928  30.273  27.520  1.00  0.00     0.014 A 
ATOM      9  C   UNL A   1      36.302  29.652  29.771  1.00  0.00     0.014 A 
ATOM     10  C   UNL A   1      38.180  29.696  27.703  1.00  0.00     0.010 A 
ATOM     11  C   UNL A   1      37.590  29.157  29.987  1.00  0.00     0.010 A 
ATOM     12  C   UNL A   1      38.536  29.167  28.951  1.00  0.00    -0.014 A 
BRANCH  12  13
ATOM     13  C   UNL A   1      39.927  28.717  29.198  1.00  0.00     0.031 A 
ATOM     14  C   UNL A   1      40.957  29.661  29.742  1.00  0.00     0.074 A 
ATOM     15  C   UNL A   1      40.269  27.455  28.874  1.00  0.00     0.049 A 
ATOM     16  N   UNL A   1      42.241  29.469  29.917  1.00  0.00    -0.248 NA
ATOM     17  C   UNL A   1      40.489  31.001  30.125  1.00  0.00     0.031 C 
ATOM     18  C   UNL A   1      39.354  26.445  28.335  1.00  0.00     0.029 A 
ATOM     19  N   UNL A   1      41.477  26.809  28.934  1.00  0.00    -0.354 N 
ATOM     20  C   UNL A   1      42.739  30.671  30.401  1.00  0.00     0.074 A 
ATOM     21  C   UNL A   1      41.624  31.593  30.469  1.00  0.00     0.031 C 
ATOM     22  C   UNL A   1      40.028  25.307  28.124  1.00  0.00     0.029 A 
ATOM     23  C   UNL A   1      41.434  25.527  28.442  1.00  0.00     0.049 A 
ATOM     24  H   UNL A   1      42.295  27.223  29.296  1.00  0.00     0.167 HD
ATOM     25  C   UNL A   1      44.012  30.977  30.753  1.00  0.00     0.031 A 
ATOM     26  C   UNL A   1      42.418  24.638  28.222  1.00  0.00     0.031 A 
ATOM     27  C   UNL A   1      45.114  30.055  30.664  1.00  0.00     0.049 A 
ATOM     28  C   UNL A   1      43.830  25.012  28.568  1.00  0.00     0.074 A 
ATOM     29  C   UNL A   1      46.435  30.250  31.032  1.00  0.00     0.029 A 
ATOM     30  N   UNL A   1      45.029  28.766  30.153  1.00  0.00    -0.354 N 
ATOM     31  N   UNL A   1      44.282  26.137  29.066  1.00  0.00    -0.248 NA
ATOM     32  C   UNL A   1      44.864  23.998  28.325  1.00  0.00     0.031 C 
ATOM     33  C   UNL A   1      47.159  29.108  30.678  1.00  0.00     0.029 A 
ATOM     34  C   UNL A   1      46.279  28.171  30.162  1.00  0.00     0.049 A 
ATOM     35  H   UNL A   1      44.202  28.340  29.832  1.00  0.00     0.167 HD
ATOM     36  C   UNL A   1      45.649  25.960  29.224  1.00  0.00     0.074 A 
ATOM     37  C   UNL A   1      45.950  24.616  28.773  1.00  0.00     0.031 C 
ATOM     38  C   UNL A   1      46.566  26.831  29.709  1.00  0.00     0.031 A 
BRANCH  25  39
ATOM     39  C   UNL A   1      44.283  32.386  31.211  1.00  0.00    -0.014 A 
ATOM     40  C   UNL A   1      44.150  32.765  32.556  1.00  0.00     0.009 A 
ATOM     41  C   UNL A   1      44.682  33.352  30.275  1.00  0.00     0.009 A 
ATOM     42  C   UNL A   1      44.355  34.092  32.943  1.00  0.00     0.001 A 
ATOM     43  C   UNL A   1      44.922  34.670  30.669  1.00  0.00     0.001 A 
ATOM     44  C   UNL A   1      44.741  35.042  31.999  1.00  0.00     0.000 A 
ENDBRANCH  25  39
BRANCH  26  45
ATOM     45  C   UNL A   1      42.086  23.323  27.616  1.00  0.00    -0.014 A 
ATOM     46  C   UNL A   1      41.548  22.289  28.394  1.00  0.00     0.009 A 
ATOM     47  C   UNL A   1      42.244  23.121  26.234  1.00  0.00     0.009 A 
ATOM     48  C   UNL A   1      41.182  21.077  27.802  1.00  0.00     0.001 A 
ATOM     49  C   UNL A   1      41.849  21.922  25.641  1.00  0.00     0.001 A 
ATOM     50  C   UNL A   1      41.325  20.898  26.427  1.00  0.00     0.000 A 
ENDBRANCH  26  45
BRANCH  38  51
ATOM     51  C   UNL A   1      47.986  26.351  29.824  1.00  0.00    -0.014 A 
ATOM     52  C   UNL A   1      48.885  26.451  28.753  1.00  0.00     0.009 A 
ATOM     53  C   UNL A   1      48.448  25.868  31.060  1.00  0.00     0.009 A 
ATOM     54  C   UNL A   1      50.216  26.061  28.913  1.00  0.00     0.001 A 
ATOM     55  C   UNL A   1      49.785  25.507  31.225  1.00  0.00     0.001 A 
ATOM     56  C   UNL A   1      50.667  25.600  30.150  1.00  0.00     0.000 A 
ENDBRANCH  38  51
ENDBRANCH  12  13
ENDBRANCH   5   7
ENDBRANCH   2   3
ENDBRANCH   1   2
BRANCH   1  57
ATOM     57  C   UNL A   1      33.280  27.487  25.077  1.00  0.00     0.117 C 
BRANCH  57  58
ATOM     58  N   UNL A   1      32.160  26.964  25.832  1.00  0.00    -0.356 N 
ATOM     59  C   UNL A   1      31.007  26.338  25.529  1.00  0.00     0.223 C 
ATOM     60  H   UNL A   1      32.267  27.099  26.802  1.00  0.00     0.163 HD
ATOM     61  O   UNL A   1      30.256  26.160  26.500  1.00  0.00    -0.275 OA
BRANCH  59  62
ATOM     62  C   UNL A   1      30.559  25.810  24.158  1.00  0.00     0.081 C 
ATOM     63  C   UNL A   1      31.252  26.135  22.846  1.00  0.00     0.030 C 
ATOM     64  C   UNL A   1      29.074  26.140  23.971  1.00  0.00     0.030 C 
ATOM     65  C   UNL A   1      31.001  27.538  22.309  1.00  0.00     0.103 C 
ATOM     66  C   UNL A   1      28.910  27.628  23.700  1.00  0.00     0.103 C 
ATOM     67  N   UNL A   1      29.589  28.018  22.432  1.00  0.00    -0.202 NA
BRANCH  67  68
ATOM     68  S   UNL A   1      29.495  29.718  22.081  1.00  0.00     0.216 S 
ATOM     69  O   UNL A   1      30.817  30.148  21.669  1.00  0.00    -0.212 OA
ATOM     70  O   UNL A   1      28.366  29.901  21.193  1.00  0.00    -0.212 OA
BRANCH  68  71
ATOM     71  C   UNL A   1      29.064  30.695  23.543  1.00  0.00     0.124 C 
ATOM     72  C   UNL A   1      28.718  32.137  23.316  1.00  0.00     0.022 C 
ATOM     73  C   UNL A   1      27.633  31.143  23.641  1.00  0.00     0.022 C 
ENDBRANCH  68  71
ENDBRANCH  67  68
ENDBRANCH  59  62
ENDBRANCH  57  58
ENDBRANCH   1  57
TORSDOF 12
ENDMDL
MODEL 3
REMARK VINA RESULT:     -11.0      6.550     11.083
REMARK SMILES O=C(NCCCNC(=O)C1CCN(S(=O)(=O)C2CC2)CC1)c1ccc(-c2c3nc(c(-c4ccccc4)c4ccc([nH]4)c(-c4ccccc4)c4nc(c(-c5ccccc5)c5ccc2[nH]5)C=C4)C=C3)cc1
REMARK SMILES IDX 5 1 4 2 3 3 1 4 2 5 22 7 23 8 69 9 24 10 68 11 25 12 26 13
REMARK SMILES IDX 27 14 62 15 28 16 67 17 61 18 63 19 29 20 66 21 60 22 59 23
REMARK SMILES IDX 30 25 52 26 37 27 51 28 38 29 41 30 50 31 64 32 39 33 40 34
REMARK SMILES IDX 49 36 65 37 42 38 31 39 32 40 36 41 33 42 35 43 34 44 53 45
REMARK SMILES IDX 54 46 58 47 55 48 57 49 56 50 43 51 44 52 48 53 45 54 47 55
REMARK SMILES IDX 46 56 6 57 7 58 8 59 9 61 10 62 11 63 21 64 12 65 20 66
REMARK SMILES IDX 13 67 14 68 15 69 16 70 17 71 18 72 19 73
REMARK H PARENT 3 6 63 24 41 35 7 60
REMARK Flexibility Score: inf
ROOT
ATOM      1  C   UNL A   1      31.418  31.667  26.502  1.00  0.00     0.042 C 
ENDROOT
BRANCH   1   2
ATOM      2  C   UNL A   1      32.616  32.235  27.246  1.00  0.00     0.118 C 
BRANCH   2   3
ATOM      3  N   UNL A   1      32.452  33.652  27.536  1.00  0.00    -0.352 N 
ATOM      4  O   UNL A   1      32.571  35.534  28.751  1.00  0.00    -0.269 OA
ATOM      5  C   UNL A   1      33.056  34.438  28.483  1.00  0.00     0.251 C 
ATOM      6  H   UNL A   1      31.804  34.119  26.961  1.00  0.00     0.163 HD
BRANCH   5   7
ATOM      7  C   UNL A   1      34.284  33.992  29.179  1.00  0.00     0.039 A 
ATOM      8  C   UNL A   1      34.221  33.188  30.320  1.00  0.00     0.014 A 
ATOM      9  C   UNL A   1      35.527  34.304  28.620  1.00  0.00     0.014 A 
ATOM     10  C   UNL A   1      35.388  32.791  30.965  1.00  0.00     0.010 A 
ATOM     11  C   UNL A   1      36.698  33.828  29.214  1.00  0.00     0.010 A 
ATOM     12  C   UNL A   1      36.638  33.075  30.397  1.00  0.00    -0.014 A 
BRANCH  12  13
ATOM     13  C   UNL A   1      37.870  32.500  30.986  1.00  0.00     0.031 A 
ATOM     14  C   UNL A   1      38.522  31.292  30.383  1.00  0.00     0.074 A 
ATOM     15  C   UNL A   1      38.369  33.049  32.111  1.00  0.00     0.049 A 
ATOM     16  N   UNL A   1      39.537  30.595  30.828  1.00  0.00    -0.248 NA
ATOM     17  C   UNL A   1      37.949  30.791  29.125  1.00  0.00     0.031 C 
ATOM     18  C   UNL A   1      37.821  34.226  32.791  1.00  0.00     0.029 A 
ATOM     19  N   UNL A   1      39.439  32.685  32.889  1.00  0.00    -0.354 N 
ATOM     20  C   UNL A   1      39.706  29.557  29.922  1.00  0.00     0.074 A 
ATOM     21  C   UNL A   1      38.674  29.702  28.917  1.00  0.00     0.031 C 
ATOM     22  C   UNL A   1      38.560  34.492  33.876  1.00  0.00     0.029 A 
ATOM     23  C   UNL A   1      39.587  33.466  34.010  1.00  0.00     0.049 A 
ATOM     24  H   UNL A   1      40.040  31.938  32.666  1.00  0.00     0.167 HD
ATOM     25  C   UNL A   1      40.637  28.571  29.932  1.00  0.00     0.031 A 
ATOM     26  C   UNL A   1      40.423  33.348  35.057  1.00  0.00     0.031 A 
ATOM     27  C   UNL A   1      41.647  28.429  30.948  1.00  0.00     0.049 A 
ATOM     28  C   UNL A   1      41.412  32.220  35.077  1.00  0.00     0.074 A 
ATOM     29  C   UNL A   1      42.662  27.491  31.031  1.00  0.00     0.029 A 
ATOM     30  N   UNL A   1      41.759  29.239  32.071  1.00  0.00    -0.354 N 
ATOM     31  N   UNL A   1      41.591  31.269  34.192  1.00  0.00    -0.248 NA
ATOM     32  C   UNL A   1      42.313  32.148  36.234  1.00  0.00     0.031 C 
ATOM     33  C   UNL A   1      43.341  27.689  32.237  1.00  0.00     0.029 A 
ATOM     34  C   UNL A   1      42.802  28.798  32.869  1.00  0.00     0.049 A 
ATOM     35  H   UNL A   1      41.183  30.011  32.270  1.00  0.00     0.167 HD
ATOM     36  C   UNL A   1      42.643  30.501  34.669  1.00  0.00     0.074 A 
ATOM     37  C   UNL A   1      43.065  31.100  35.920  1.00  0.00     0.031 C 
ATOM     38  C   UNL A   1      43.211  29.404  34.113  1.00  0.00     0.031 A 
BRANCH  25  39
ATOM     39  C   UNL A   1      40.562  27.539  28.838  1.00  0.00    -0.014 A 
ATOM     40  C   UNL A   1      41.290  27.672  27.645  1.00  0.00     0.009 A 
ATOM     41  C   UNL A   1      39.747  26.409  29.008  1.00  0.00     0.009 A 
ATOM     42  C   UNL A   1      41.158  26.726  26.625  1.00  0.00     0.001 A 
ATOM     43  C   UNL A   1      39.645  25.446  28.002  1.00  0.00     0.001 A 
ATOM     44  C   UNL A   1      40.337  25.614  26.805  1.00  0.00     0.000 A 
ENDBRANCH  25  39
BRANCH  26  45
ATOM     45  C   UNL A   1      40.323  34.320  36.176  1.00  0.00    -0.014 A 
ATOM     46  C   UNL A   1      41.048  35.519  36.152  1.00  0.00     0.009 A 
ATOM     47  C   UNL A   1      39.445  34.077  37.246  1.00  0.00     0.009 A 
ATOM     48  C   UNL A   1      40.901  36.453  37.182  1.00  0.00     0.001 A 
ATOM     49  C   UNL A   1      39.277  35.025  38.257  1.00  0.00     0.001 A 
ATOM     50  C   UNL A   1      40.010  36.209  38.226  1.00  0.00     0.000 A 
ENDBRANCH  26  45
BRANCH  38  51
ATOM     51  C   UNL A   1      44.388  28.796  34.824  1.00  0.00    -0.014 A 
ATOM     52  C   UNL A   1      44.229  27.752  35.746  1.00  0.00     0.009 A 
ATOM     53  C   UNL A   1      45.684  29.226  34.497  1.00  0.00     0.009 A 
ATOM     54  C   UNL A   1      45.347  27.160  36.338  1.00  0.00     0.001 A 
ATOM     55  C   UNL A   1      46.800  28.613  35.068  1.00  0.00     0.001 A 
ATOM     56  C   UNL A   1      46.630  27.583  35.991  1.00  0.00     0.000 A 
ENDBRANCH  38  51
ENDBRANCH  12  13
ENDBRANCH   5   7
ENDBRANCH   2   3
ENDBRANCH   1   2
BRANCH   1  57
ATOM     57  C   UNL A   1      31.733  30.423  25.673  1.00  0.00     0.117 C 
BRANCH  57  58
ATOM     58  N   UNL A   1      31.725  29.228  26.492  1.00  0.00    -0.356 N 
ATOM     59  C   UNL A   1      31.732  27.903  26.254  1.00  0.00     0.223 C 
ATOM     60  H   UNL A   1      31.712  29.435  27.455  1.00  0.00     0.163 HD
ATOM     61  O   UNL A   1      31.600  27.205  27.272  1.00  0.00    -0.275 OA
BRANCH  59  62
ATOM     62  C   UNL A   1      31.912  27.192  24.905  1.00  0.00     0.081 C 
ATOM     63  C   UNL A   1      32.443  27.861  23.649  1.00  0.00     0.030 C 
ATOM     64  C   UNL A   1      30.587  26.521  24.527  1.00  0.00     0.030 C 
ATOM     65  C   UNL A   1      31.464  28.794  22.946  1.00  0.00     0.103 C 
ATOM     66  C   UNL A   1      29.585  27.577  24.088  1.00  0.00     0.103 C 
ATOM     67  N   UNL A   1      30.058  28.289  22.867  1.00  0.00    -0.202 NA
BRANCH  67  68
ATOM     68  S   UNL A   1      28.990  29.554  22.336  1.00  0.00     0.216 S 
ATOM     69  O   UNL A   1      29.524  30.078  21.094  1.00  0.00    -0.212 OA
ATOM     70  O   UNL A   1      27.648  29.013  22.375  1.00  0.00    -0.212 OA
BRANCH  68  71
ATOM     71  C   UNL A   1      28.937  30.939  23.502  1.00  0.00     0.124 C 
ATOM     72  C   UNL A   1      28.663  32.297  22.927  1.00  0.00     0.022 C 
ATOM     73  C   UNL A   1      27.594  31.578  23.708  1.00  0.00     0.022 C 
ENDBRANCH  68  71
ENDBRANCH  67  68
ENDBRANCH  59  62
ENDBRANCH  57  58
ENDBRANCH   1  57
TORSDOF 12
ENDMDL
