MODEL 1
REMARK VINA RESULT:     -10.8      0.000      0.000
REMARK SMILES COc1ccccc1N1C(=O)CC[C@H]1CC(=O)NCCCNC(=O)c1ccc(-c2c3nc(c(-c4ccccc4)c4ccc([nH]4)c(-c4ccccc4)c4nc(c(-c5ccccc5)c5ccc2[nH]5)C=C4)C=C3)cc1
REMARK SMILES IDX 19 1 18 2 16 3 17 4 15 6 14 7 9 8 10 9 11 10 12 11 13 12
REMARK SMILES IDX 8 13 3 14 4 15 5 16 7 17 6 18 2 19 1 20 20 21 21 22 22 23
REMARK SMILES IDX 23 24 24 26 25 27 26 28 72 29 27 30 71 31 28 32 29 33 30 34
REMARK SMILES IDX 65 35 31 36 70 37 64 38 66 39 32 40 69 41 63 42 62 43 33 45
REMARK SMILES IDX 55 46 40 47 54 48 41 49 44 50 53 51 67 52 42 53 43 54 52 56
REMARK SMILES IDX 68 57 45 58 34 59 35 60 39 61 36 62 38 63 37 64 56 65 57 66
REMARK SMILES IDX 61 67 58 68 60 69 59 70 46 71 47 72 51 73 48 74 50 75 49 76
REMARK H PARENT 18 5 22 25 66 44 44 55
REMARK Flexibility Score: inf
ROOT
ATOM      1  C   UNL A   1      31.405  30.900  26.272  1.00  0.00     0.117 C 
ENDROOT
BRANCH   1   2
ATOM      2  N   UNL A   1      32.623  30.260  26.712  1.00  0.00    -0.356 N 
ATOM      3  C   UNL A   1      32.848  28.931  26.929  1.00  0.00     0.222 C 
ATOM      4  O   UNL A   1      33.960  28.585  27.329  1.00  0.00    -0.275 OA
ATOM      5  H   UNL A   1      33.387  30.857  26.876  1.00  0.00     0.163 HD
BRANCH   3   6
ATOM      6  C   UNL A   1      31.759  27.908  26.640  1.00  0.00     0.125 C 
BRANCH   6   7
ATOM      7  C   UNL A   1      31.861  27.282  25.239  1.00  0.00     0.100 C 
ATOM      8  N   UNL A   1      31.724  25.822  25.101  1.00  0.00    -0.305 N 
ATOM      9  C   UNL A   1      31.053  25.475  23.917  1.00  0.00     0.227 C 
ATOM     10  O   UNL A   1      30.858  24.365  23.456  1.00  0.00    -0.275 OA
ATOM     11  C   UNL A   1      30.630  26.754  23.237  1.00  0.00     0.103 C 
ATOM     12  C   UNL A   1      30.721  27.787  24.346  1.00  0.00     0.036 C 
BRANCH   8  13
ATOM     13  C   UNL A   1      32.633  24.924  25.722  1.00  0.00     0.086 A 
ATOM     14  C   UNL A   1      32.238  23.919  26.627  1.00  0.00     0.142 A 
ATOM     15  C   UNL A   1      33.160  22.943  27.033  1.00  0.00     0.048 A 
ATOM     16  C   UNL A   1      34.474  22.962  26.558  1.00  0.00     0.004 A 
ATOM     17  C   UNL A   1      33.985  24.994  25.352  1.00  0.00     0.030 A 
ATOM     18  C   UNL A   1      34.896  24.010  25.747  1.00  0.00     0.002 A 
BRANCH  14  19
ATOM     19  O   UNL A   1      31.019  23.882  27.251  1.00  0.00    -0.495 OA
ATOM     20  C   UNL A   1      30.122  22.896  26.761  1.00  0.00     0.278 C 
ENDBRANCH  14  19
ENDBRANCH   8  13
ENDBRANCH   6   7
ENDBRANCH   3   6
ENDBRANCH   1   2
BRANCH   1  21
ATOM     21  C   UNL A   1      31.404  32.390  26.562  1.00  0.00     0.042 C 
BRANCH  21  22
ATOM     22  C   UNL A   1      32.675  32.863  27.239  1.00  0.00     0.118 C 
BRANCH  22  23
ATOM     23  N   UNL A   1      32.540  34.203  27.806  1.00  0.00    -0.352 N 
ATOM     24  C   UNL A   1      33.233  34.845  28.804  1.00  0.00     0.251 C 
ATOM     25  H   UNL A   1      31.825  34.743  27.399  1.00  0.00     0.163 HD
ATOM     26  O   UNL A   1      32.813  35.922  29.222  1.00  0.00    -0.269 OA
BRANCH  24  27
ATOM     27  C   UNL A   1      34.449  34.248  29.403  1.00  0.00     0.039 A 
ATOM     28  C   UNL A   1      34.321  33.440  30.538  1.00  0.00     0.014 A 
ATOM     29  C   UNL A   1      35.713  34.478  28.864  1.00  0.00     0.014 A 
ATOM     30  C   UNL A   1      35.446  32.802  31.069  1.00  0.00     0.010 A 
ATOM     31  C   UNL A   1      36.801  33.735  29.303  1.00  0.00     0.010 A 
ATOM     32  C   UNL A   1      36.687  32.903  30.423  1.00  0.00    -0.014 A 
BRANCH  32  33
ATOM     33  C   UNL A   1      37.890  32.175  30.902  1.00  0.00     0.031 A 
ATOM     34  C   UNL A   1      38.689  32.720  32.057  1.00  0.00     0.074 A 
ATOM     35  C   UNL A   1      38.318  31.080  30.244  1.00  0.00     0.049 A 
ATOM     36  N   UNL A   1      39.822  32.294  32.554  1.00  0.00    -0.248 NA
ATOM     37  C   UNL A   1      38.166  33.930  32.713  1.00  0.00     0.031 C 
ATOM     38  C   UNL A   1      37.662  30.474  29.082  1.00  0.00     0.029 A 
ATOM     39  N   UNL A   1      39.413  30.282  30.459  1.00  0.00    -0.354 N 
ATOM     40  C   UNL A   1      40.158  33.199  33.553  1.00  0.00     0.074 A 
ATOM     41  C   UNL A   1      39.151  34.235  33.544  1.00  0.00     0.031 C 
ATOM     42  C   UNL A   1      38.342  29.376  28.716  1.00  0.00     0.029 A 
ATOM     43  C   UNL A   1      39.510  29.231  29.579  1.00  0.00     0.049 A 
ATOM     44  H   UNL A   1      40.068  30.448  31.175  1.00  0.00     0.167 HD
ATOM     45  C   UNL A   1      41.196  33.161  34.423  1.00  0.00     0.031 A 
ATOM     46  C   UNL A   1      40.436  28.261  29.475  1.00  0.00     0.031 A 
ATOM     47  C   UNL A   1      42.188  32.121  34.442  1.00  0.00     0.049 A 
ATOM     48  C   UNL A   1      41.590  28.246  30.438  1.00  0.00     0.074 A 
ATOM     49  C   UNL A   1      43.244  31.953  35.319  1.00  0.00     0.029 A 
ATOM     50  N   UNL A   1      42.247  31.074  33.535  1.00  0.00    -0.354 N 
ATOM     51  N   UNL A   1      41.857  29.071  31.422  1.00  0.00    -0.248 NA
ATOM     52  C   UNL A   1      42.565  27.159  30.281  1.00  0.00     0.031 C 
ATOM     53  C   UNL A   1      43.980  30.836  34.905  1.00  0.00     0.029 A 
ATOM     54  C   UNL A   1      43.340  30.270  33.813  1.00  0.00     0.049 A 
ATOM     55  H   UNL A   1      41.607  30.924  32.803  1.00  0.00     0.167 HD
ATOM     56  C   UNL A   1      43.013  28.586  32.021  1.00  0.00     0.074 A 
ATOM     57  C   UNL A   1      43.386  27.387  31.297  1.00  0.00     0.031 C 
ATOM     58  C   UNL A   1      43.700  29.084  33.077  1.00  0.00     0.031 A 
BRANCH  45  59
ATOM     59  C   UNL A   1      41.307  34.292  35.412  1.00  0.00    -0.014 A 
ATOM     60  C   UNL A   1      40.669  34.238  36.664  1.00  0.00     0.009 A 
ATOM     61  C   UNL A   1      42.058  35.432  35.088  1.00  0.00     0.009 A 
ATOM     62  C   UNL A   1      40.731  35.322  37.541  1.00  0.00     0.001 A 
ATOM     63  C   UNL A   1      42.152  36.500  35.984  1.00  0.00     0.001 A 
ATOM     64  C   UNL A   1      41.475  36.451  37.202  1.00  0.00     0.000 A 
ENDBRANCH  45  59
BRANCH  46  65
ATOM     65  C   UNL A   1      40.290  27.204  28.440  1.00  0.00    -0.014 A 
ATOM     66  C   UNL A   1      40.912  27.349  27.188  1.00  0.00     0.009 A 
ATOM     67  C   UNL A   1      39.549  26.041  28.697  1.00  0.00     0.009 A 
ATOM     68  C   UNL A   1      40.777  26.361  26.212  1.00  0.00     0.001 A 
ATOM     69  C   UNL A   1      39.441  25.040  27.728  1.00  0.00     0.001 A 
ATOM     70  C   UNL A   1      40.047  25.204  26.484  1.00  0.00     0.000 A 
ENDBRANCH  46  65
BRANCH  58  71
ATOM     71  C   UNL A   1      44.907  28.314  33.538  1.00  0.00    -0.014 A 
ATOM     72  C   UNL A   1      44.799  27.273  34.472  1.00  0.00     0.009 A 
ATOM     73  C   UNL A   1      46.165  28.609  32.990  1.00  0.00     0.009 A 
ATOM     74  C   UNL A   1      45.934  26.568  34.877  1.00  0.00     0.001 A 
ATOM     75  C   UNL A   1      47.292  27.880  33.371  1.00  0.00     0.001 A 
ATOM     76  C   UNL A   1      47.178  26.867  34.321  1.00  0.00     0.000 A 
ENDBRANCH  58  71
ENDBRANCH  32  33
ENDBRANCH  24  27
ENDBRANCH  22  23
ENDBRANCH  21  22
ENDBRANCH   1  21
TORSDOF 13
ENDMDL
MODEL 2
REMARK VINA RESULT:     -10.8      4.826      9.850
REMARK SMILES COc1ccccc1N1C(=O)CC[C@H]1CC(=O)NCCCNC(=O)c1ccc(-c2c3nc(c(-c4ccccc4)c4ccc([nH]4)c(-c4ccccc4)c4nc(c(-c5ccccc5)c5ccc2[nH]5)C=C4)C=C3)cc1
REMARK SMILES IDX 19 1 18 2 16 3 17 4 15 6 14 7 9 8 10 9 11 10 12 11 13 12
REMARK SMILES IDX 8 13 3 14 4 15 5 16 7 17 6 18 2 19 1 20 20 21 21 22 22 23
REMARK SMILES IDX 23 24 24 26 25 27 26 28 72 29 27 30 71 31 28 32 29 33 30 34
REMARK SMILES IDX 65 35 31 36 70 37 64 38 66 39 32 40 69 41 63 42 62 43 33 45
REMARK SMILES IDX 55 46 40 47 54 48 41 49 44 50 53 51 67 52 42 53 43 54 52 56
REMARK SMILES IDX 68 57 45 58 34 59 35 60 39 61 36 62 38 63 37 64 56 65 57 66
REMARK SMILES IDX 61 67 58 68 60 69 59 70 46 71 47 72 51 73 48 74 50 75 49 76
REMARK H PARENT 18 5 22 25 66 44 44 55
REMARK Flexibility Score: inf
ROOT
ATOM      1  C   UNL A   1      36.890  20.149  24.980  1.00  0.00     0.117 C 
ENDROOT
BRANCH   1   2
ATOM      2  N   UNL A   1      37.229  21.495  25.378  1.00  0.00    -0.356 N 
ATOM      3  C   UNL A   1      36.739  22.670  24.885  1.00  0.00     0.222 C 
ATOM      4  O   UNL A   1      37.178  23.724  25.346  1.00  0.00    -0.275 OA
ATOM      5  H   UNL A   1      37.898  21.575  26.095  1.00  0.00     0.163 HD
BRANCH   3   6
ATOM      6  C   UNL A   1      35.649  22.666  23.823  1.00  0.00     0.125 C 
BRANCH   6   7
ATOM      7  C   UNL A   1      34.225  22.701  24.406  1.00  0.00     0.100 C 
ATOM      8  N   UNL A   1      33.272  23.699  23.890  1.00  0.00    -0.305 N 
ATOM      9  C   UNL A   1      31.966  23.185  23.834  1.00  0.00     0.227 C 
ATOM     10  O   UNL A   1      30.936  23.768  23.549  1.00  0.00    -0.275 OA
ATOM     11  C   UNL A   1      32.024  21.736  24.252  1.00  0.00     0.103 C 
ATOM     12  C   UNL A   1      33.494  21.388  24.104  1.00  0.00     0.036 C 
BRANCH   8  13
ATOM     13  C   UNL A   1      33.509  25.094  24.015  1.00  0.00     0.086 A 
ATOM     14  C   UNL A   1      33.544  25.979  22.919  1.00  0.00     0.142 A 
ATOM     15  C   UNL A   1      33.574  27.364  23.141  1.00  0.00     0.048 A 
ATOM     16  C   UNL A   1      33.581  27.878  24.440  1.00  0.00     0.004 A 
ATOM     17  C   UNL A   1      33.639  25.627  25.307  1.00  0.00     0.030 A 
ATOM     18  C   UNL A   1      33.652  27.008  25.523  1.00  0.00     0.002 A 
BRANCH  14  19
ATOM     19  O   UNL A   1      33.669  25.582  21.614  1.00  0.00    -0.495 OA
ATOM     20  C   UNL A   1      32.461  25.585  20.867  1.00  0.00     0.278 C 
ENDBRANCH  14  19
ENDBRANCH   8  13
ENDBRANCH   6   7
ENDBRANCH   3   6
ENDBRANCH   1   2
BRANCH   1  21
ATOM     21  C   UNL A   1      38.093  19.223  25.004  1.00  0.00     0.042 C 
BRANCH  21  22
ATOM     22  C   UNL A   1      39.240  19.765  25.835  1.00  0.00     0.118 C 
BRANCH  22  23
ATOM     23  N   UNL A   1      40.391  18.865  25.851  1.00  0.00    -0.352 N 
ATOM     24  C   UNL A   1      41.737  19.108  25.981  1.00  0.00     0.251 C 
ATOM     25  H   UNL A   1      40.161  17.913  25.752  1.00  0.00     0.163 HD
ATOM     26  O   UNL A   1      42.530  18.189  25.788  1.00  0.00    -0.269 OA
BRANCH  24  27
ATOM     27  C   UNL A   1      42.246  20.459  26.312  1.00  0.00     0.039 A 
ATOM     28  C   UNL A   1      42.673  21.298  25.277  1.00  0.00     0.014 A 
ATOM     29  C   UNL A   1      42.312  20.908  27.629  1.00  0.00     0.014 A 
ATOM     30  C   UNL A   1      43.080  22.604  25.562  1.00  0.00     0.010 A 
ATOM     31  C   UNL A   1      42.579  22.244  27.896  1.00  0.00     0.010 A 
ATOM     32  C   UNL A   1      42.985  23.105  26.870  1.00  0.00    -0.014 A 
BRANCH  32  33
ATOM     33  C   UNL A   1      43.325  24.512  27.204  1.00  0.00     0.031 A 
ATOM     34  C   UNL A   1      44.761  24.967  27.172  1.00  0.00     0.074 A 
ATOM     35  C   UNL A   1      42.361  25.353  27.627  1.00  0.00     0.049 A 
ATOM     36  N   UNL A   1      45.273  26.117  27.530  1.00  0.00    -0.248 NA
ATOM     37  C   UNL A   1      45.758  23.985  26.716  1.00  0.00     0.031 C 
ATOM     38  C   UNL A   1      40.938  25.025  27.748  1.00  0.00     0.029 A 
ATOM     39  N   UNL A   1      42.435  26.659  28.037  1.00  0.00    -0.354 N 
ATOM     40  C   UNL A   1      46.647  25.982  27.372  1.00  0.00     0.074 A 
ATOM     41  C   UNL A   1      46.895  24.620  26.958  1.00  0.00     0.031 C 
ATOM     42  C   UNL A   1      40.269  26.114  28.158  1.00  0.00     0.029 A 
ATOM     43  C   UNL A   1      41.219  27.198  28.382  1.00  0.00     0.049 A 
ATOM     44  H   UNL A   1      43.280  27.163  28.082  1.00  0.00     0.167 HD
ATOM     45  C   UNL A   1      47.618  26.913  27.531  1.00  0.00     0.031 A 
ATOM     46  C   UNL A   1      40.904  28.427  28.833  1.00  0.00     0.031 A 
ATOM     47  C   UNL A   1      47.369  28.272  27.928  1.00  0.00     0.049 A 
ATOM     48  C   UNL A   1      41.997  29.440  29.019  1.00  0.00     0.074 A 
ATOM     49  C   UNL A   1      48.271  29.312  28.058  1.00  0.00     0.029 A 
ATOM     50  N   UNL A   1      46.122  28.776  28.265  1.00  0.00    -0.354 N 
ATOM     51  N   UNL A   1      43.285  29.318  28.799  1.00  0.00    -0.248 NA
ATOM     52  C   UNL A   1      41.592  30.765  29.505  1.00  0.00     0.031 C 
ATOM     53  C   UNL A   1      47.579  30.431  28.533  1.00  0.00     0.029 A 
ATOM     54  C   UNL A   1      46.234  30.107  28.631  1.00  0.00     0.049 A 
ATOM     55  H   UNL A   1      45.281  28.265  28.245  1.00  0.00     0.167 HD
ATOM     56  C   UNL A   1      43.839  30.558  29.091  1.00  0.00     0.074 A 
ATOM     57  C   UNL A   1      42.744  31.420  29.490  1.00  0.00     0.031 C 
ATOM     58  C   UNL A   1      45.135  30.949  29.032  1.00  0.00     0.031 A 
BRANCH  45  59
ATOM     59  C   UNL A   1      49.039  26.475  27.284  1.00  0.00    -0.014 A 
ATOM     60  C   UNL A   1      49.576  26.426  25.985  1.00  0.00     0.009 A 
ATOM     61  C   UNL A   1      49.852  26.103  28.364  1.00  0.00     0.009 A 
ATOM     62  C   UNL A   1      50.874  25.957  25.771  1.00  0.00     0.001 A 
ATOM     63  C   UNL A   1      51.164  25.671  28.152  1.00  0.00     0.001 A 
ATOM     64  C   UNL A   1      51.668  25.583  26.855  1.00  0.00     0.000 A 
ENDBRANCH  45  59
BRANCH  46  65
ATOM     65  C   UNL A   1      39.484  28.774  29.105  1.00  0.00    -0.014 A 
ATOM     66  C   UNL A   1      38.941  28.578  30.386  1.00  0.00     0.009 A 
ATOM     67  C   UNL A   1      38.670  29.318  28.101  1.00  0.00     0.009 A 
ATOM     68  C   UNL A   1      37.609  28.901  30.648  1.00  0.00     0.001 A 
ATOM     69  C   UNL A   1      37.345  29.668  28.374  1.00  0.00     0.001 A 
ATOM     70  C   UNL A   1      36.813  29.452  29.644  1.00  0.00     0.000 A 
ENDBRANCH  46  65
BRANCH  58  71
ATOM     71  C   UNL A   1      45.438  32.382  29.369  1.00  0.00    -0.014 A 
ATOM     72  C   UNL A   1      45.388  33.391  28.395  1.00  0.00     0.009 A 
ATOM     73  C   UNL A   1      45.733  32.732  30.696  1.00  0.00     0.009 A 
ATOM     74  C   UNL A   1      45.665  34.716  28.736  1.00  0.00     0.001 A 
ATOM     75  C   UNL A   1      45.976  34.062  31.041  1.00  0.00     0.001 A 
ATOM     76  C   UNL A   1      45.952  35.051  30.060  1.00  0.00     0.000 A 
ENDBRANCH  58  71
ENDBRANCH  32  33
ENDBRANCH  24  27
ENDBRANCH  22  23
ENDBRANCH  21  22
ENDBRANCH   1  21
TORSDOF 13
ENDMDL
MODEL 3
REMARK VINA RESULT:     -10.8      3.840      9.084
REMARK SMILES COc1ccccc1N1C(=O)CC[C@H]1CC(=O)NCCCNC(=O)c1ccc(-c2c3nc(c(-c4ccccc4)c4ccc([nH]4)c(-c4ccccc4)c4nc(c(-c5ccccc5)c5ccc2[nH]5)C=C4)C=C3)cc1
REMARK SMILES IDX 19 1 18 2 16 3 17 4 15 6 14 7 9 8 10 9 11 10 12 11 13 12
REMARK SMILES IDX 8 13 3 14 4 15 5 16 7 17 6 18 2 19 1 20 20 21 21 22 22 23
REMARK SMILES IDX 23 24 24 26 25 27 26 28 72 29 27 30 71 31 28 32 29 33 30 34
REMARK SMILES IDX 65 35 31 36 70 37 64 38 66 39 32 40 69 41 63 42 62 43 33 45
REMARK SMILES IDX 55 46 40 47 54 48 41 49 44 50 53 51 67 52 42 53 43 54 52 56
REMARK SMILES IDX 68 57 45 58 34 59 35 60 39 61 36 62 38 63 37 64 56 65 57 66
REMARK SMILES IDX 61 67 58 68 60 69 59 70 46 71 47 72 51 73 48 74 50 75 49 76
REMARK H PARENT 18 5 22 25 66 44 44 55
REMARK Flexibility Score: inf
ROOT
ATOM      1  C   UNL A   1      37.078  20.941  24.779  1.00  0.00     0.117 C 
ENDROOT
BRANCH   1   2
ATOM      2  N   UNL A   1      37.537  22.169  25.387  1.00  0.00    -0.356 N 
ATOM      3  C   UNL A   1      36.837  23.323  25.590  1.00  0.00     0.222 C 
ATOM      4  O   UNL A   1      37.420  24.275  26.108  1.00  0.00    -0.275 OA
ATOM      5  H   UNL A   1      38.471  22.174  25.694  1.00  0.00     0.163 HD
BRANCH   3   6
ATOM      6  C   UNL A   1      35.363  23.407  25.218  1.00  0.00     0.125 C 
BRANCH   6   7
ATOM      7  C   UNL A   1      34.433  23.571  26.433  1.00  0.00     0.100 C 
ATOM      8  N   UNL A   1      33.011  23.877  26.202  1.00  0.00    -0.305 N 
ATOM      9  C   UNL A   1      32.186  23.243  27.145  1.00  0.00     0.227 C 
ATOM     10  O   UNL A   1      30.984  23.358  27.296  1.00  0.00    -0.275 OA
ATOM     11  C   UNL A   1      33.065  22.387  28.024  1.00  0.00     0.103 C 
ATOM     12  C   UNL A   1      34.344  22.256  27.217  1.00  0.00     0.036 C 
BRANCH   8  13
ATOM     13  C   UNL A   1      32.600  25.070  25.549  1.00  0.00     0.086 A 
ATOM     14  C   UNL A   1      32.049  25.097  24.252  1.00  0.00     0.142 A 
ATOM     15  C   UNL A   1      31.477  26.280  23.762  1.00  0.00     0.048 A 
ATOM     16  C   UNL A   1      31.456  27.439  24.541  1.00  0.00     0.004 A 
ATOM     17  C   UNL A   1      32.677  26.274  26.266  1.00  0.00     0.030 A 
ATOM     18  C   UNL A   1      32.090  27.446  25.779  1.00  0.00     0.002 A 
BRANCH  14  19
ATOM     19  O   UNL A   1      32.130  24.060  23.361  1.00  0.00    -0.495 OA
ATOM     20  C   UNL A   1      33.037  24.261  22.287  1.00  0.00     0.278 C 
ENDBRANCH  14  19
ENDBRANCH   8  13
ENDBRANCH   6   7
ENDBRANCH   3   6
ENDBRANCH   1   2
BRANCH   1  21
ATOM     21  C   UNL A   1      38.088  19.816  24.928  1.00  0.00     0.042 C 
BRANCH  21  22
ATOM     22  C   UNL A   1      39.101  20.071  26.028  1.00  0.00     0.118 C 
BRANCH  22  23
ATOM     23  N   UNL A   1      40.311  19.270  25.867  1.00  0.00    -0.352 N 
ATOM     24  C   UNL A   1      41.641  19.593  25.985  1.00  0.00     0.251 C 
ATOM     25  H   UNL A   1      40.144  18.328  25.634  1.00  0.00     0.163 HD
ATOM     26  O   UNL A   1      42.487  18.775  25.628  1.00  0.00    -0.269 OA
BRANCH  24  27
ATOM     27  C   UNL A   1      42.069  20.915  26.499  1.00  0.00     0.039 A 
ATOM     28  C   UNL A   1      42.450  21.908  25.589  1.00  0.00     0.014 A 
ATOM     29  C   UNL A   1      42.103  21.187  27.865  1.00  0.00     0.014 A 
ATOM     30  C   UNL A   1      42.778  23.185  26.050  1.00  0.00     0.010 A 
ATOM     31  C   UNL A   1      42.290  22.489  28.309  1.00  0.00     0.010 A 
ATOM     32  C   UNL A   1      42.649  23.501  27.411  1.00  0.00    -0.014 A 
BRANCH  32  33
ATOM     33  C   UNL A   1      42.905  24.868  27.933  1.00  0.00     0.031 A 
ATOM     34  C   UNL A   1      44.298  25.269  28.342  1.00  0.00     0.074 A 
ATOM     35  C   UNL A   1      41.875  25.715  28.129  1.00  0.00     0.049 A 
ATOM     36  N   UNL A   1      44.707  26.372  28.916  1.00  0.00    -0.248 NA
ATOM     37  C   UNL A   1      45.367  24.282  28.113  1.00  0.00     0.031 C 
ATOM     38  C   UNL A   1      40.471  25.434  27.819  1.00  0.00     0.029 A 
ATOM     39  N   UNL A   1      41.852  26.987  28.642  1.00  0.00    -0.354 N 
ATOM     40  C   UNL A   1      46.067  26.195  29.143  1.00  0.00     0.074 A 
ATOM     41  C   UNL A   1      46.398  24.856  28.713  1.00  0.00     0.031 C 
ATOM     42  C   UNL A   1      39.732  26.518  28.105  1.00  0.00     0.029 A 
ATOM     43  C   UNL A   1      40.598  27.547  28.669  1.00  0.00     0.049 A 
ATOM     44  H   UNL A   1      42.658  27.454  28.961  1.00  0.00     0.167 HD
ATOM     45  C   UNL A   1      46.969  27.075  29.639  1.00  0.00     0.031 A 
ATOM     46  C   UNL A   1      40.189  28.754  29.104  1.00  0.00     0.031 A 
ATOM     47  C   UNL A   1      46.641  28.413  30.051  1.00  0.00     0.049 A 
ATOM     48  C   UNL A   1      41.202  29.710  29.667  1.00  0.00     0.074 A 
ATOM     49  C   UNL A   1      47.487  29.407  30.508  1.00  0.00     0.029 A 
ATOM     50  N   UNL A   1      45.359  28.941  30.060  1.00  0.00    -0.354 N 
ATOM     51  N   UNL A   1      42.496  29.553  29.811  1.00  0.00    -0.248 NA
ATOM     52  C   UNL A   1      40.698  31.013  30.118  1.00  0.00     0.031 C 
ATOM     53  C   UNL A   1      46.708  30.517  30.852  1.00  0.00     0.029 A 
ATOM     54  C   UNL A   1      45.386  30.238  30.542  1.00  0.00     0.049 A 
ATOM     55  H   UNL A   1      44.550  28.464  29.765  1.00  0.00     0.167 HD
ATOM     56  C   UNL A   1      42.966  30.749  30.341  1.00  0.00     0.074 A 
ATOM     57  C   UNL A   1      41.819  31.623  30.478  1.00  0.00     0.031 C 
ATOM     58  C   UNL A   1      44.233  31.093  30.679  1.00  0.00     0.031 A 
BRANCH  45  59
ATOM     59  C   UNL A   1      48.393  26.601  29.770  1.00  0.00    -0.014 A 
ATOM     60  C   UNL A   1      48.843  25.943  30.929  1.00  0.00     0.009 A 
ATOM     61  C   UNL A   1      49.300  26.816  28.722  1.00  0.00     0.009 A 
ATOM     62  C   UNL A   1      50.182  25.567  31.057  1.00  0.00     0.001 A 
ATOM     63  C   UNL A   1      50.630  26.403  28.836  1.00  0.00     0.001 A 
ATOM     64  C   UNL A   1      51.073  25.795  30.009  1.00  0.00     0.000 A 
ENDBRANCH  45  59
BRANCH  46  65
ATOM     65  C   UNL A   1      38.757  29.136  28.991  1.00  0.00    -0.014 A 
ATOM     66  C   UNL A   1      38.258  29.662  27.788  1.00  0.00     0.009 A 
ATOM     67  C   UNL A   1      37.877  28.961  30.070  1.00  0.00     0.009 A 
ATOM     68  C   UNL A   1      36.915  30.025  27.676  1.00  0.00     0.001 A 
ATOM     69  C   UNL A   1      36.527  29.297  29.945  1.00  0.00     0.001 A 
ATOM     70  C   UNL A   1      36.048  29.835  28.752  1.00  0.00     0.000 A 
ENDBRANCH  46  65
BRANCH  58  71
ATOM     71  C   UNL A   1      44.452  32.488  31.195  1.00  0.00    -0.014 A 
ATOM     72  C   UNL A   1      44.392  32.780  32.566  1.00  0.00     0.009 A 
ATOM     73  C   UNL A   1      44.770  33.516  30.293  1.00  0.00     0.009 A 
ATOM     74  C   UNL A   1      44.608  34.083  33.019  1.00  0.00     0.001 A 
ATOM     75  C   UNL A   1      45.019  34.810  30.752  1.00  0.00     0.001 A 
ATOM     76  C   UNL A   1      44.928  35.094  32.113  1.00  0.00     0.000 A 
ENDBRANCH  58  71
ENDBRANCH  32  33
ENDBRANCH  24  27
ENDBRANCH  22  23
ENDBRANCH  21  22
ENDBRANCH   1  21
TORSDOF 13
ENDMDL
