MODEL 1
REMARK VINA RESULT:     -10.4      0.000      0.000
REMARK SMILES CC(C)C[C@H](NC(=O)CNC(=O)[C@@H]([NH3+])C(C)C)C(=O)NCCCNC(=O)c1ccc(-c2c3nc(c(-c4ccccc4)c4ccc([nH]4)c(-c4ccccc4)c4nc(c(-c5ccccc5)c5ccc2[nH]5)C=C4)C=C3)cc1
REMARK SMILES IDX 18 1 19 2 20 3 5 5 4 6 2 7 1 8 3 9 6 10 7 11 8 13 9 14 10 15
REMARK SMILES IDX 11 16 12 18 13 19 14 20 15 24 16 25 17 26 21 27 22 28 23 29
REMARK SMILES IDX 24 30 25 31 26 33 27 34 28 35 74 36 29 37 73 38 30 39 31 40
REMARK SMILES IDX 32 41 67 42 33 43 72 44 66 45 68 46 34 47 71 48 65 49 64 50
REMARK SMILES IDX 35 52 57 53 42 54 56 55 43 56 46 57 55 58 69 59 44 60 45 61
REMARK SMILES IDX 54 63 70 64 47 65 36 66 37 67 41 68 38 69 40 70 39 71 58 72
REMARK SMILES IDX 59 73 63 74 60 75 62 76 61 77 48 78 49 79 53 80 50 81 52 82
REMARK SMILES IDX 51 83
REMARK H PARENT 20 4 6 12 10 17 14 21 14 22 14 23 24 32 68 51 46 62
REMARK Flexibility Score: inf
ROOT
ATOM      1  C   UNL A   1      34.036  21.389  24.475  1.00  0.00     0.242 C 
ATOM      2  O   UNL A   1      33.260  21.691  23.565  1.00  0.00    -0.273 OA
ATOM      3  N   UNL A   1      35.272  21.957  24.483  1.00  0.00    -0.354 N 
ATOM      4  H   UNL A   1      35.469  22.578  23.745  1.00  0.00     0.163 HD
ENDROOT
BRANCH   1   5
ATOM      5  C   UNL A   1      33.649  20.346  25.534  1.00  0.00     0.171 C 
BRANCH   5   6
ATOM      6  C   UNL A   1      32.901  19.094  25.056  1.00  0.00     0.038 C 
BRANCH   6   7
ATOM      7  C   UNL A   1      33.629  17.854  24.477  1.00  0.00    -0.015 C 
ATOM      8  C   UNL A   1      33.247  17.459  23.056  1.00  0.00     0.007 C 
ATOM      9  C   UNL A   1      35.151  18.053  24.531  1.00  0.00     0.007 C 
ENDBRANCH   6   7
ENDBRANCH   5   6
BRANCH   5  10
ATOM     10  N   UNL A   1      33.207  21.120  26.734  1.00  0.00    -0.343 N 
ATOM     11  C   UNL A   1      32.630  22.266  27.150  1.00  0.00     0.240 C 
ATOM     12  H   UNL A   1      33.420  20.584  27.531  1.00  0.00     0.164 HD
ATOM     13  O   UNL A   1      32.859  22.525  28.345  1.00  0.00    -0.273 OA
BRANCH  11  14
ATOM     14  C   UNL A   1      31.590  23.140  26.434  1.00  0.00     0.216 C 
BRANCH  14  15
ATOM     15  N   UNL A   1      31.364  24.503  26.853  1.00  0.00    -0.342 N 
ATOM     16  C   UNL A   1      30.964  25.623  26.199  1.00  0.00     0.278 C 
ATOM     17  H   UNL A   1      31.536  24.651  27.812  1.00  0.00     0.164 HD
ATOM     18  O   UNL A   1      30.747  26.589  26.943  1.00  0.00    -0.268 OA
BRANCH  16  19
ATOM     19  C   UNL A   1      30.914  25.790  24.644  1.00  0.00     0.273 C 
BRANCH  19  20
ATOM     20  N   UNL A   1      29.669  25.277  24.033  1.00  0.00    -0.347 N 
ATOM     21  H   UNL A   1      29.198  24.658  24.692  1.00  0.00     0.345 HD
ATOM     22  H   UNL A   1      29.896  24.761  23.183  1.00  0.00     0.345 HD
ATOM     23  H   UNL A   1      29.056  26.059  23.803  1.00  0.00     0.345 HD
ENDBRANCH  19  20
BRANCH  19  24
ATOM     24  C   UNL A   1      31.226  27.240  24.186  1.00  0.00     0.051 C 
ATOM     25  C   UNL A   1      32.687  27.405  23.738  1.00  0.00     0.014 C 
ATOM     26  C   UNL A   1      30.333  27.669  23.010  1.00  0.00     0.014 C 
ENDBRANCH  19  24
ENDBRANCH  16  19
ENDBRANCH  14  15
ENDBRANCH  11  14
ENDBRANCH   5  10
ENDBRANCH   1   5
BRANCH   3  27
ATOM     27  C   UNL A   1      36.328  21.756  25.445  1.00  0.00     0.117 C 
BRANCH  27  28
ATOM     28  C   UNL A   1      37.502  20.996  24.877  1.00  0.00     0.042 C 
BRANCH  28  29
ATOM     29  C   UNL A   1      38.737  21.135  25.750  1.00  0.00     0.118 C 
BRANCH  29  30
ATOM     30  N   UNL A   1      39.605  19.960  25.717  1.00  0.00    -0.352 N 
ATOM     31  C   UNL A   1      40.938  19.866  26.043  1.00  0.00     0.251 C 
ATOM     32  H   UNL A   1      39.179  19.122  25.423  1.00  0.00     0.163 HD
ATOM     33  O   UNL A   1      41.565  18.832  25.853  1.00  0.00    -0.269 OA
BRANCH  31  34
ATOM     34  C   UNL A   1      41.597  21.058  26.596  1.00  0.00     0.039 A 
ATOM     35  C   UNL A   1      42.113  22.016  25.725  1.00  0.00     0.014 A 
ATOM     36  C   UNL A   1      41.589  21.263  27.977  1.00  0.00     0.014 A 
ATOM     37  C   UNL A   1      42.553  23.232  26.243  1.00  0.00     0.010 A 
ATOM     38  C   UNL A   1      41.912  22.513  28.473  1.00  0.00     0.010 A 
ATOM     39  C   UNL A   1      42.410  23.504  27.615  1.00  0.00    -0.014 A 
BRANCH  39  40
ATOM     40  C   UNL A   1      42.800  24.808  28.192  1.00  0.00     0.031 A 
ATOM     41  C   UNL A   1      41.745  25.854  28.418  1.00  0.00     0.074 A 
ATOM     42  C   UNL A   1      44.099  25.078  28.423  1.00  0.00     0.049 A 
ATOM     43  N   UNL A   1      41.882  27.094  28.807  1.00  0.00    -0.248 NA
ATOM     44  C   UNL A   1      40.354  25.467  28.120  1.00  0.00     0.031 C 
ATOM     45  C   UNL A   1      45.217  24.163  28.183  1.00  0.00     0.029 A 
ATOM     46  N   UNL A   1      44.696  26.212  28.909  1.00  0.00    -0.354 N 
ATOM     47  C   UNL A   1      40.606  27.641  28.762  1.00  0.00     0.074 A 
ATOM     48  C   UNL A   1      39.720  26.621  28.251  1.00  0.00     0.031 C 
ATOM     49  C   UNL A   1      46.361  24.758  28.559  1.00  0.00     0.029 A 
ATOM     50  C   UNL A   1      46.060  26.107  29.028  1.00  0.00     0.049 A 
ATOM     51  H   UNL A   1      44.195  27.024  29.149  1.00  0.00     0.167 HD
ATOM     52  C   UNL A   1      40.203  28.876  29.140  1.00  0.00     0.031 A 
ATOM     53  C   UNL A   1      46.964  27.000  29.470  1.00  0.00     0.031 A 
ATOM     54  C   UNL A   1      41.082  29.868  29.690  1.00  0.00     0.049 A 
ATOM     55  C   UNL A   1      46.486  28.351  29.925  1.00  0.00     0.074 A 
ATOM     56  C   UNL A   1      40.768  31.123  30.180  1.00  0.00     0.029 A 
ATOM     57  N   UNL A   1      42.451  29.707  29.836  1.00  0.00    -0.354 N 
ATOM     58  N   UNL A   1      45.266  28.832  29.941  1.00  0.00    -0.248 NA
ATOM     59  C   UNL A   1      47.508  29.275  30.434  1.00  0.00     0.031 C 
ATOM     60  C   UNL A   1      41.956  31.736  30.591  1.00  0.00     0.029 A 
ATOM     61  C   UNL A   1      43.000  30.844  30.398  1.00  0.00     0.049 A 
ATOM     62  H   UNL A   1      42.956  28.903  29.578  1.00  0.00     0.167 HD
ATOM     63  C   UNL A   1      45.370  30.105  30.484  1.00  0.00     0.074 A 
ATOM     64  C   UNL A   1      46.769  30.314  30.798  1.00  0.00     0.031 C 
ATOM     65  C   UNL A   1      44.396  31.021  30.703  1.00  0.00     0.031 A 
BRANCH  52  66
ATOM     66  C   UNL A   1      38.746  29.203  28.973  1.00  0.00    -0.014 A 
ATOM     67  C   UNL A   1      38.247  29.702  27.758  1.00  0.00     0.009 A 
ATOM     68  C   UNL A   1      37.859  29.006  30.041  1.00  0.00     0.009 A 
ATOM     69  C   UNL A   1      36.898  30.039  27.632  1.00  0.00     0.001 A 
ATOM     70  C   UNL A   1      36.505  29.316  29.902  1.00  0.00     0.001 A 
ATOM     71  C   UNL A   1      36.028  29.843  28.703  1.00  0.00     0.000 A 
ENDBRANCH  52  66
BRANCH  53  72
ATOM     72  C   UNL A   1      48.402  26.636  29.540  1.00  0.00    -0.014 A 
ATOM     73  C   UNL A   1      48.921  26.019  30.689  1.00  0.00     0.009 A 
ATOM     74  C   UNL A   1      49.263  26.897  28.463  1.00  0.00     0.009 A 
ATOM     75  C   UNL A   1      50.277  25.696  30.769  1.00  0.00     0.001 A 
ATOM     76  C   UNL A   1      50.614  26.549  28.536  1.00  0.00     0.001 A 
ATOM     77  C   UNL A   1      51.121  25.957  29.692  1.00  0.00     0.000 A 
ENDBRANCH  53  72
BRANCH  65  78
ATOM     78  C   UNL A   1      44.808  32.315  31.342  1.00  0.00    -0.014 A 
ATOM     79  C   UNL A   1      45.175  33.422  30.564  1.00  0.00     0.009 A 
ATOM     80  C   UNL A   1      44.778  32.438  32.739  1.00  0.00     0.009 A 
ATOM     81  C   UNL A   1      45.535  34.623  31.178  1.00  0.00     0.001 A 
ATOM     82  C   UNL A   1      45.114  33.647  33.348  1.00  0.00     0.001 A 
ATOM     83  C   UNL A   1      45.498  34.736  32.568  1.00  0.00     0.000 A 
ENDBRANCH  65  78
ENDBRANCH  39  40
ENDBRANCH  31  34
ENDBRANCH  29  30
ENDBRANCH  28  29
ENDBRANCH  27  28
ENDBRANCH   3  27
TORSDOF 18
ENDMDL
MODEL 2
REMARK VINA RESULT:     -10.3      3.513      8.939
REMARK SMILES CC(C)C[C@H](NC(=O)CNC(=O)[C@@H]([NH3+])C(C)C)C(=O)NCCCNC(=O)c1ccc(-c2c3nc(c(-c4ccccc4)c4ccc([nH]4)c(-c4ccccc4)c4nc(c(-c5ccccc5)c5ccc2[nH]5)C=C4)C=C3)cc1
REMARK SMILES IDX 18 1 19 2 20 3 5 5 4 6 2 7 1 8 3 9 6 10 7 11 8 13 9 14 10 15
REMARK SMILES IDX 11 16 12 18 13 19 14 20 15 24 16 25 17 26 21 27 22 28 23 29
REMARK SMILES IDX 24 30 25 31 26 33 27 34 28 35 74 36 29 37 73 38 30 39 31 40
REMARK SMILES IDX 32 41 67 42 33 43 72 44 66 45 68 46 34 47 71 48 65 49 64 50
REMARK SMILES IDX 35 52 57 53 42 54 56 55 43 56 46 57 55 58 69 59 44 60 45 61
REMARK SMILES IDX 54 63 70 64 47 65 36 66 37 67 41 68 38 69 40 70 39 71 58 72
REMARK SMILES IDX 59 73 63 74 60 75 62 76 61 77 48 78 49 79 53 80 50 81 52 82
REMARK SMILES IDX 51 83
REMARK H PARENT 20 4 6 12 10 17 14 21 14 22 14 23 24 32 68 51 46 62
REMARK Flexibility Score: inf
ROOT
ATOM      1  C   UNL A   1      31.064  27.820  24.697  1.00  0.00     0.242 C 
ATOM      2  O   UNL A   1      30.511  26.739  24.911  1.00  0.00    -0.273 OA
ATOM      3  N   UNL A   1      31.731  28.417  25.721  1.00  0.00    -0.354 N 
ATOM      4  H   UNL A   1      31.723  27.939  26.581  1.00  0.00     0.163 HD
ENDROOT
BRANCH   1   5
ATOM      5  C   UNL A   1      30.945  28.515  23.332  1.00  0.00     0.171 C 
BRANCH   5   6
ATOM      6  C   UNL A   1      29.552  28.588  22.693  1.00  0.00     0.038 C 
BRANCH   6   7
ATOM      7  C   UNL A   1      28.627  29.823  22.841  1.00  0.00    -0.015 C 
ATOM      8  C   UNL A   1      29.188  30.984  23.654  1.00  0.00     0.007 C 
ATOM      9  C   UNL A   1      28.216  30.354  21.460  1.00  0.00     0.007 C 
ENDBRANCH   6   7
ENDBRANCH   5   6
BRANCH   5  10
ATOM     10  N   UNL A   1      32.151  28.102  22.552  1.00  0.00    -0.343 N 
ATOM     11  C   UNL A   1      32.807  27.051  22.018  1.00  0.00     0.240 C 
ATOM     12  H   UNL A   1      32.668  28.913  22.349  1.00  0.00     0.164 HD
ATOM     13  O   UNL A   1      34.003  27.290  21.776  1.00  0.00    -0.273 OA
BRANCH  11  14
ATOM     14  C   UNL A   1      32.239  25.726  21.487  1.00  0.00     0.216 C 
BRANCH  14  15
ATOM     15  N   UNL A   1      31.440  24.877  22.339  1.00  0.00    -0.342 N 
ATOM     16  C   UNL A   1      31.738  24.066  23.386  1.00  0.00     0.278 C 
ATOM     17  H   UNL A   1      30.481  24.888  22.114  1.00  0.00     0.164 HD
ATOM     18  O   UNL A   1      30.743  23.602  23.960  1.00  0.00    -0.268 OA
BRANCH  16  19
ATOM     19  C   UNL A   1      33.177  23.597  23.784  1.00  0.00     0.273 C 
BRANCH  19  20
ATOM     20  N   UNL A   1      33.978  23.111  22.641  1.00  0.00    -0.347 N 
ATOM     21  H   UNL A   1      33.364  22.936  21.845  1.00  0.00     0.345 HD
ATOM     22  H   UNL A   1      34.453  22.247  22.901  1.00  0.00     0.345 HD
ATOM     23  H   UNL A   1      34.669  23.817  22.386  1.00  0.00     0.345 HD
ENDBRANCH  19  20
BRANCH  19  24
ATOM     24  C   UNL A   1      33.944  24.657  24.618  1.00  0.00     0.051 C 
ATOM     25  C   UNL A   1      33.311  24.876  26.001  1.00  0.00     0.014 C 
ATOM     26  C   UNL A   1      35.410  24.250  24.843  1.00  0.00     0.014 C 
ENDBRANCH  19  24
ENDBRANCH  16  19
ENDBRANCH  14  15
ENDBRANCH  11  14
ENDBRANCH   5  10
ENDBRANCH   1   5
BRANCH   3  27
ATOM     27  C   UNL A   1      32.448  29.669  25.695  1.00  0.00     0.117 C 
BRANCH  27  28
ATOM     28  C   UNL A   1      31.950  30.652  26.725  1.00  0.00     0.042 C 
BRANCH  28  29
ATOM     29  C   UNL A   1      33.052  31.589  27.188  1.00  0.00     0.118 C 
BRANCH  29  30
ATOM     30  N   UNL A   1      32.582  32.944  27.469  1.00  0.00    -0.352 N 
ATOM     31  C   UNL A   1      33.152  33.902  28.273  1.00  0.00     0.251 C 
ATOM     32  H   UNL A   1      31.745  33.206  27.021  1.00  0.00     0.163 HD
ATOM     33  O   UNL A   1      32.577  34.959  28.504  1.00  0.00    -0.269 OA
BRANCH  31  34
ATOM     34  C   UNL A   1      34.460  33.607  28.875  1.00  0.00     0.039 A 
ATOM     35  C   UNL A   1      34.514  32.857  30.049  1.00  0.00     0.014 A 
ATOM     36  C   UNL A   1      35.623  33.980  28.199  1.00  0.00     0.014 A 
ATOM     37  C   UNL A   1      35.751  32.408  30.506  1.00  0.00     0.010 A 
ATOM     38  C   UNL A   1      36.832  33.433  28.587  1.00  0.00     0.010 A 
ATOM     39  C   UNL A   1      36.911  32.654  29.751  1.00  0.00    -0.014 A 
BRANCH  39  40
ATOM     40  C   UNL A   1      38.232  32.135  30.165  1.00  0.00     0.031 A 
ATOM     41  C   UNL A   1      38.713  30.826  29.604  1.00  0.00     0.074 A 
ATOM     42  C   UNL A   1      38.945  32.787  31.103  1.00  0.00     0.049 A 
ATOM     43  N   UNL A   1      39.781  30.139  29.913  1.00  0.00    -0.248 NA
ATOM     44  C   UNL A   1      37.854  30.181  28.595  1.00  0.00     0.031 C 
ATOM     45  C   UNL A   1      38.549  34.032  31.765  1.00  0.00     0.029 A 
ATOM     46  N   UNL A   1      40.157  32.483  31.666  1.00  0.00    -0.354 N 
ATOM     47  C   UNL A   1      39.699  28.969  29.168  1.00  0.00     0.074 A 
ATOM     48  C   UNL A   1      38.451  29.010  28.441  1.00  0.00     0.031 C 
ATOM     49  C   UNL A   1      39.519  34.406  32.615  1.00  0.00     0.029 A 
ATOM     50  C   UNL A   1      40.583  33.408  32.587  1.00  0.00     0.049 A 
ATOM     51  H   UNL A   1      40.673  31.677  31.433  1.00  0.00     0.167 HD
ATOM     52  C   UNL A   1      40.597  27.962  29.075  1.00  0.00     0.031 A 
ATOM     53  C   UNL A   1      41.709  33.445  33.323  1.00  0.00     0.031 A 
ATOM     54  C   UNL A   1      41.855  27.950  29.765  1.00  0.00     0.049 A 
ATOM     55  C   UNL A   1      42.711  32.336  33.170  1.00  0.00     0.074 A 
ATOM     56  C   UNL A   1      42.875  27.020  29.684  1.00  0.00     0.029 A 
ATOM     57  N   UNL A   1      42.270  28.929  30.656  1.00  0.00    -0.354 N 
ATOM     58  N   UNL A   1      42.653  31.269  32.410  1.00  0.00    -0.248 NA
ATOM     59  C   UNL A   1      43.940  32.444  33.968  1.00  0.00     0.031 C 
ATOM     60  C   UNL A   1      43.895  27.418  30.554  1.00  0.00     0.029 A 
ATOM     61  C   UNL A   1      43.526  28.619  31.141  1.00  0.00     0.049 A 
ATOM     62  H   UNL A   1      41.747  29.724  30.905  1.00  0.00     0.167 HD
ATOM     63  C   UNL A   1      43.845  30.591  32.619  1.00  0.00     0.074 A 
ATOM     64  C   UNL A   1      44.614  31.375  33.563  1.00  0.00     0.031 C 
ATOM     65  C   UNL A   1      44.268  29.422  32.077  1.00  0.00     0.031 A 
BRANCH  52  66
ATOM     66  C   UNL A   1      40.240  26.804  28.188  1.00  0.00    -0.014 A 
ATOM     67  C   UNL A   1      39.435  25.751  28.655  1.00  0.00     0.009 A 
ATOM     68  C   UNL A   1      40.710  26.765  26.867  1.00  0.00     0.009 A 
ATOM     69  C   UNL A   1      39.146  24.662  27.830  1.00  0.00     0.001 A 
ATOM     70  C   UNL A   1      40.394  25.690  26.036  1.00  0.00     0.001 A 
ATOM     71  C   UNL A   1      39.623  24.634  26.520  1.00  0.00     0.000 A 
ENDBRANCH  52  66
BRANCH  53  72
ATOM     72  C   UNL A   1      41.965  34.585  34.239  1.00  0.00    -0.014 A 
ATOM     73  C   UNL A   1      41.656  34.479  35.604  1.00  0.00     0.009 A 
ATOM     74  C   UNL A   1      42.522  35.781  33.760  1.00  0.00     0.009 A 
ATOM     75  C   UNL A   1      41.874  35.557  36.466  1.00  0.00     0.001 A 
ATOM     76  C   UNL A   1      42.763  36.848  34.630  1.00  0.00     0.001 A 
ATOM     77  C   UNL A   1      42.430  36.738  35.979  1.00  0.00     0.000 A 
ENDBRANCH  53  72
BRANCH  65  78
ATOM     78  C   UNL A   1      45.636  28.945  32.470  1.00  0.00    -0.014 A 
ATOM     79  C   UNL A   1      45.817  28.084  33.562  1.00  0.00     0.009 A 
ATOM     80  C   UNL A   1      46.749  29.324  31.704  1.00  0.00     0.009 A 
ATOM     81  C   UNL A   1      47.095  27.634  33.898  1.00  0.00     0.001 A 
ATOM     82  C   UNL A   1      48.021  28.853  32.027  1.00  0.00     0.001 A 
ATOM     83  C   UNL A   1      48.194  28.015  33.128  1.00  0.00     0.000 A 
ENDBRANCH  65  78
ENDBRANCH  39  40
ENDBRANCH  31  34
ENDBRANCH  29  30
ENDBRANCH  28  29
ENDBRANCH  27  28
ENDBRANCH   3  27
TORSDOF 18
ENDMDL
MODEL 3
REMARK VINA RESULT:     -10.2      2.118      7.994
REMARK SMILES CC(C)C[C@H](NC(=O)CNC(=O)[C@@H]([NH3+])C(C)C)C(=O)NCCCNC(=O)c1ccc(-c2c3nc(c(-c4ccccc4)c4ccc([nH]4)c(-c4ccccc4)c4nc(c(-c5ccccc5)c5ccc2[nH]5)C=C4)C=C3)cc1
REMARK SMILES IDX 18 1 19 2 20 3 5 5 4 6 2 7 1 8 3 9 6 10 7 11 8 13 9 14 10 15
REMARK SMILES IDX 11 16 12 18 13 19 14 20 15 24 16 25 17 26 21 27 22 28 23 29
REMARK SMILES IDX 24 30 25 31 26 33 27 34 28 35 74 36 29 37 73 38 30 39 31 40
REMARK SMILES IDX 32 41 67 42 33 43 72 44 66 45 68 46 34 47 71 48 65 49 64 50
REMARK SMILES IDX 35 52 57 53 42 54 56 55 43 56 46 57 55 58 69 59 44 60 45 61
REMARK SMILES IDX 54 63 70 64 47 65 36 66 37 67 41 68 38 69 40 70 39 71 58 72
REMARK SMILES IDX 59 73 63 74 60 75 62 76 61 77 48 78 49 79 53 80 50 81 52 82
REMARK SMILES IDX 51 83
REMARK H PARENT 20 4 6 12 10 17 14 21 14 22 14 23 24 32 68 51 46 62
REMARK Flexibility Score: inf
ROOT
ATOM      1  C   UNL A   1      30.769  27.900  24.086  1.00  0.00     0.242 C 
ATOM      2  O   UNL A   1      29.953  26.982  24.192  1.00  0.00    -0.273 OA
ATOM      3  N   UNL A   1      31.316  28.412  25.221  1.00  0.00    -0.354 N 
ATOM      4  H   UNL A   1      31.013  28.012  26.067  1.00  0.00     0.163 HD
ENDROOT
BRANCH   1   5
ATOM      5  C   UNL A   1      31.111  28.502  22.714  1.00  0.00     0.171 C 
BRANCH   5   6
ATOM      6  C   UNL A   1      30.047  29.379  22.040  1.00  0.00     0.038 C 
BRANCH   6   7
ATOM      7  C   UNL A   1      28.969  30.153  22.843  1.00  0.00    -0.015 C 
ATOM      8  C   UNL A   1      28.734  31.599  22.424  1.00  0.00     0.007 C 
ATOM      9  C   UNL A   1      27.626  29.410  22.791  1.00  0.00     0.007 C 
ENDBRANCH   6   7
ENDBRANCH   5   6
BRANCH   5  10
ATOM     10  N   UNL A   1      31.844  27.436  21.966  1.00  0.00    -0.343 N 
ATOM     11  C   UNL A   1      32.894  26.590  22.006  1.00  0.00     0.240 C 
ATOM     12  H   UNL A   1      31.379  27.297  21.111  1.00  0.00     0.164 HD
ATOM     13  O   UNL A   1      33.229  26.170  20.885  1.00  0.00    -0.273 OA
BRANCH  11  14
ATOM     14  C   UNL A   1      33.560  25.934  23.225  1.00  0.00     0.216 C 
BRANCH  14  15
ATOM     15  N   UNL A   1      32.771  25.195  24.183  1.00  0.00    -0.342 N 
ATOM     16  C   UNL A   1      32.668  23.875  24.481  1.00  0.00     0.278 C 
ATOM     17  H   UNL A   1      32.188  25.768  24.733  1.00  0.00     0.164 HD
ATOM     18  O   UNL A   1      31.974  23.639  25.480  1.00  0.00    -0.268 OA
BRANCH  16  19
ATOM     19  C   UNL A   1      33.215  22.704  23.599  1.00  0.00     0.273 C 
BRANCH  19  20
ATOM     20  N   UNL A   1      34.638  22.393  23.845  1.00  0.00    -0.347 N 
ATOM     21  H   UNL A   1      35.223  22.990  23.261  1.00  0.00     0.345 HD
ATOM     22  H   UNL A   1      34.817  21.414  23.619  1.00  0.00     0.345 HD
ATOM     23  H   UNL A   1      34.857  22.560  24.828  1.00  0.00     0.345 HD
ENDBRANCH  19  20
BRANCH  19  24
ATOM     24  C   UNL A   1      32.326  21.435  23.669  1.00  0.00     0.051 C 
ATOM     25  C   UNL A   1      31.947  20.914  22.273  1.00  0.00     0.014 C 
ATOM     26  C   UNL A   1      33.031  20.287  24.411  1.00  0.00     0.014 C 
ENDBRANCH  19  24
ENDBRANCH  16  19
ENDBRANCH  14  15
ENDBRANCH  11  14
ENDBRANCH   5  10
ENDBRANCH   1   5
BRANCH   3  27
ATOM     27  C   UNL A   1      32.287  29.475  25.330  1.00  0.00     0.117 C 
BRANCH  27  28
ATOM     28  C   UNL A   1      33.618  29.000  25.857  1.00  0.00     0.042 C 
BRANCH  28  29
ATOM     29  C   UNL A   1      33.647  28.980  27.375  1.00  0.00     0.118 C 
BRANCH  29  30
ATOM     30  N   UNL A   1      33.705  30.313  27.972  1.00  0.00    -0.352 N 
ATOM     31  C   UNL A   1      34.756  30.920  28.620  1.00  0.00     0.251 C 
ATOM     32  H   UNL A   1      32.883  30.849  27.900  1.00  0.00     0.163 HD
ATOM     33  O   UNL A   1      34.617  32.003  29.174  1.00  0.00    -0.269 OA
BRANCH  31  34
ATOM     34  C   UNL A   1      36.043  30.213  28.657  1.00  0.00     0.039 A 
ATOM     35  C   UNL A   1      36.911  30.323  27.571  1.00  0.00     0.014 A 
ATOM     36  C   UNL A   1      36.422  29.544  29.822  1.00  0.00     0.014 A 
ATOM     37  C   UNL A   1      38.207  29.824  27.691  1.00  0.00     0.010 A 
ATOM     38  C   UNL A   1      37.740  29.159  29.980  1.00  0.00     0.010 A 
ATOM     39  C   UNL A   1      38.641  29.282  28.912  1.00  0.00    -0.014 A 
BRANCH  39  40
ATOM     40  C   UNL A   1      40.029  28.805  29.100  1.00  0.00     0.031 A 
ATOM     41  C   UNL A   1      41.055  29.745  29.668  1.00  0.00     0.074 A 
ATOM     42  C   UNL A   1      40.378  27.575  28.680  1.00  0.00     0.049 A 
ATOM     43  N   UNL A   1      42.343  29.571  29.813  1.00  0.00    -0.248 NA
ATOM     44  C   UNL A   1      40.577  31.076  30.084  1.00  0.00     0.031 C 
ATOM     45  C   UNL A   1      39.482  26.599  28.056  1.00  0.00     0.029 A 
ATOM     46  N   UNL A   1      41.592  26.939  28.711  1.00  0.00    -0.354 N 
ATOM     47  C   UNL A   1      42.829  30.779  30.296  1.00  0.00     0.074 A 
ATOM     48  C   UNL A   1      41.713  31.695  30.363  1.00  0.00     0.031 C 
ATOM     49  C   UNL A   1      40.168  25.473  27.799  1.00  0.00     0.029 A 
ATOM     50  C   UNL A   1      41.557  25.663  28.203  1.00  0.00     0.049 A 
ATOM     51  H   UNL A   1      42.411  27.356  29.063  1.00  0.00     0.167 HD
ATOM     52  C   UNL A   1      44.088  31.090  30.679  1.00  0.00     0.031 A 
ATOM     53  C   UNL A   1      42.538  24.751  28.081  1.00  0.00     0.031 A 
ATOM     54  C   UNL A   1      45.181  30.160  30.654  1.00  0.00     0.049 A 
ATOM     55  C   UNL A   1      43.920  25.105  28.553  1.00  0.00     0.074 A 
ATOM     56  C   UNL A   1      46.480  30.344  31.092  1.00  0.00     0.029 A 
ATOM     57  N   UNL A   1      45.095  28.863  30.174  1.00  0.00    -0.354 N 
ATOM     58  N   UNL A   1      44.352  26.229  29.073  1.00  0.00    -0.248 NA
ATOM     59  C   UNL A   1      44.946  24.060  28.433  1.00  0.00     0.031 C 
ATOM     60  C   UNL A   1      47.191  29.165  30.844  1.00  0.00     0.029 A 
ATOM     61  C   UNL A   1      46.321  28.236  30.293  1.00  0.00     0.049 A 
ATOM     62  H   UNL A   1      44.283  28.450  29.803  1.00  0.00     0.167 HD
ATOM     63  C   UNL A   1      45.693  26.019  29.365  1.00  0.00     0.074 A 
ATOM     64  C   UNL A   1      45.997  24.656  28.979  1.00  0.00     0.031 C 
ATOM     65  C   UNL A   1      46.593  26.877  29.904  1.00  0.00     0.031 A 
BRANCH  52  66
ATOM     66  C   UNL A   1      44.332  32.491  31.163  1.00  0.00    -0.014 A 
ATOM     67  C   UNL A   1      44.715  33.511  30.276  1.00  0.00     0.009 A 
ATOM     68  C   UNL A   1      44.175  32.798  32.523  1.00  0.00     0.009 A 
ATOM     69  C   UNL A   1      44.977  34.798  30.748  1.00  0.00     0.001 A 
ATOM     70  C   UNL A   1      44.409  34.093  32.987  1.00  0.00     0.001 A 
ATOM     71  C   UNL A   1      44.820  35.089  32.102  1.00  0.00     0.000 A 
ENDBRANCH  52  66
BRANCH  53  72
ATOM     72  C   UNL A   1      42.243  23.406  27.524  1.00  0.00    -0.014 A 
ATOM     73  C   UNL A   1      41.731  22.394  28.351  1.00  0.00     0.009 A 
ATOM     74  C   UNL A   1      42.465  23.126  26.167  1.00  0.00     0.009 A 
ATOM     75  C   UNL A   1      41.473  21.121  27.837  1.00  0.00     0.001 A 
ATOM     76  C   UNL A   1      42.182  21.858  25.651  1.00  0.00     0.001 A 
ATOM     77  C   UNL A   1      41.695  20.856  26.488  1.00  0.00     0.000 A 
ENDBRANCH  53  72
BRANCH  65  78
ATOM     78  C   UNL A   1      47.979  26.352  30.137  1.00  0.00    -0.014 A 
ATOM     79  C   UNL A   1      48.355  25.826  31.382  1.00  0.00     0.009 A 
ATOM     80  C   UNL A   1      48.902  26.341  29.081  1.00  0.00     0.009 A 
ATOM     81  C   UNL A   1      49.643  25.324  31.572  1.00  0.00     0.001 A 
ATOM     82  C   UNL A   1      50.181  25.815  29.267  1.00  0.00     0.001 A 
ATOM     83  C   UNL A   1      50.552  25.313  30.514  1.00  0.00     0.000 A 
ENDBRANCH  65  78
ENDBRANCH  39  40
ENDBRANCH  31  34
ENDBRANCH  29  30
ENDBRANCH  28  29
ENDBRANCH  27  28
ENDBRANCH   3  27
TORSDOF 18
ENDMDL
