MODEL 1
REMARK VINA RESULT:     -11.6      0.000      0.000
REMARK SMILES Cc1ccc2c(c1)C=C(C(=O)NCCCNC(=O)c1ccc(-c3c4nc(c(-c5ccccc5)c5ccc([nH]5)c(-c5ccccc5)c5nc(c(-c6ccccc6)c6ccc3[nH]6)C=C5)C=C4)cc1)[C@@H](C(F)(F)F)O2
REMARK SMILES IDX 14 1 13 2 12 3 10 4 11 5 9 7 1 8 2 9 3 10 7 11 4 12 6 13
REMARK SMILES IDX 5 14 8 15 72 16 67 17 68 18 69 19 70 20 71 21 15 22 16 23
REMARK SMILES IDX 17 24 18 26 19 27 20 28 66 29 21 30 65 31 22 32 23 33 24 34
REMARK SMILES IDX 59 35 25 36 64 37 58 38 60 39 26 40 63 41 57 42 56 43 27 45
REMARK SMILES IDX 49 46 34 47 48 48 35 49 38 50 47 51 61 52 36 53 37 54 46 56
REMARK SMILES IDX 62 57 39 58 28 59 29 60 33 61 30 62 32 63 31 64 50 65 51 66
REMARK SMILES IDX 55 67 52 68 54 69 53 70 40 71 41 72 45 73 42 74 44 75 43 76
REMARK H PARENT 12 6 16 25 60 44 38 55
REMARK Flexibility Score: inf
ROOT
ATOM      1  C   UNL A   1      32.064  28.231  27.503  1.00  0.00     0.042 C 
ENDROOT
BRANCH   1   2
ATOM      2  C   UNL A   1      31.500  27.601  26.240  1.00  0.00     0.118 C 
BRANCH   2   3
ATOM      3  N   UNL A   1      30.911  26.297  26.502  1.00  0.00    -0.352 N 
ATOM      4  C   UNL A   1      31.187  25.006  26.202  1.00  0.00     0.251 C 
ATOM      5  O   UNL A   1      30.379  24.184  26.646  1.00  0.00    -0.270 OA
ATOM      6  H   UNL A   1      30.092  26.373  27.041  1.00  0.00     0.163 HD
BRANCH   4   7
ATOM      7  C   UNL A   1      32.356  24.540  25.402  1.00  0.00     0.067 C 
ATOM      8  C   UNL A   1      38.310  22.964  26.007  1.00  0.00     0.044 C 
ATOM      9  C   UNL A   1      36.992  23.158  25.317  1.00  0.00    -0.050 A 
ATOM     10  C   UNL A   1      36.857  22.822  23.964  1.00  0.00     0.007 A 
ATOM     11  C   UNL A   1      35.872  23.614  26.027  1.00  0.00     0.015 A 
ATOM     12  C   UNL A   1      35.628  22.962  23.323  1.00  0.00     0.047 A 
ATOM     13  C   UNL A   1      34.640  23.765  25.384  1.00  0.00     0.017 A 
ATOM     14  C   UNL A   1      34.531  23.443  24.031  1.00  0.00     0.128 A 
ATOM     15  C   UNL A   1      33.455  24.214  26.106  1.00  0.00     0.025 C 
ATOM     16  O   UNL A   1      33.353  23.533  23.347  1.00  0.00    -0.475 OA
ATOM     17  C   UNL A   1      32.369  24.447  23.902  1.00  0.00     0.314 C 
BRANCH  17  18
ATOM     18  C   UNL A   1      32.514  25.823  23.223  1.00  0.00     0.429 C 
ATOM     19  F   UNL A   1      33.416  26.586  23.894  1.00  0.00    -0.167 F 
ATOM     20  F   UNL A   1      32.969  25.731  21.949  1.00  0.00    -0.167 F 
ATOM     21  F   UNL A   1      31.355  26.514  23.173  1.00  0.00    -0.167 F 
ENDBRANCH  17  18
ENDBRANCH   4   7
ENDBRANCH   2   3
ENDBRANCH   1   2
BRANCH   1  22
ATOM     22  C   UNL A   1      33.461  28.795  27.291  1.00  0.00     0.118 C 
BRANCH  22  23
ATOM     23  N   UNL A   1      33.560  30.195  27.701  1.00  0.00    -0.352 N 
ATOM     24  C   UNL A   1      34.561  30.872  28.354  1.00  0.00     0.251 C 
ATOM     25  H   UNL A   1      32.778  30.746  27.469  1.00  0.00     0.163 HD
ATOM     26  O   UNL A   1      34.344  31.992  28.809  1.00  0.00    -0.269 OA
BRANCH  24  27
ATOM     27  C   UNL A   1      35.889  30.251  28.526  1.00  0.00     0.039 A 
ATOM     28  C   UNL A   1      36.230  29.648  29.735  1.00  0.00     0.014 A 
ATOM     29  C   UNL A   1      36.805  30.264  27.470  1.00  0.00     0.014 A 
ATOM     30  C   UNL A   1      37.541  29.261  29.963  1.00  0.00     0.010 A 
ATOM     31  C   UNL A   1      38.091  29.748  27.659  1.00  0.00     0.010 A 
ATOM     32  C   UNL A   1      38.486  29.292  28.925  1.00  0.00    -0.014 A 
BRANCH  32  33
ATOM     33  C   UNL A   1      39.864  28.814  29.202  1.00  0.00     0.031 A 
ATOM     34  C   UNL A   1      40.321  27.456  28.744  1.00  0.00     0.074 A 
ATOM     35  C   UNL A   1      40.729  29.652  29.808  1.00  0.00     0.049 A 
ATOM     36  N   UNL A   1      41.507  26.911  28.855  1.00  0.00    -0.248 NA
ATOM     37  C   UNL A   1      39.329  26.593  28.081  1.00  0.00     0.031 C 
ATOM     38  C   UNL A   1      40.400  30.999  30.283  1.00  0.00     0.029 A 
ATOM     39  N   UNL A   1      42.065  29.521  30.087  1.00  0.00    -0.354 N 
ATOM     40  C   UNL A   1      41.397  25.643  28.301  1.00  0.00     0.074 A 
ATOM     41  C   UNL A   1      40.024  25.482  27.879  1.00  0.00     0.031 C 
ATOM     42  C   UNL A   1      41.516  31.597  30.717  1.00  0.00     0.029 A 
ATOM     43  C   UNL A   1      42.623  30.651  30.637  1.00  0.00     0.049 A 
ATOM     44  H   UNL A   1      42.576  28.698  29.910  1.00  0.00     0.167 HD
ATOM     45  C   UNL A   1      42.360  24.703  28.149  1.00  0.00     0.031 A 
ATOM     46  C   UNL A   1      43.880  30.902  31.048  1.00  0.00     0.031 A 
ATOM     47  C   UNL A   1      43.730  24.880  28.555  1.00  0.00     0.049 A 
ATOM     48  C   UNL A   1      44.917  29.829  30.902  1.00  0.00     0.074 A 
ATOM     49  C   UNL A   1      44.784  23.994  28.419  1.00  0.00     0.029 A 
ATOM     50  N   UNL A   1      44.237  26.014  29.172  1.00  0.00    -0.354 N 
ATOM     51  N   UNL A   1      44.798  28.640  30.362  1.00  0.00    -0.248 NA
ATOM     52  C   UNL A   1      46.260  30.126  31.418  1.00  0.00     0.031 C 
ATOM     53  C   UNL A   1      45.911  24.562  29.014  1.00  0.00     0.029 A 
ATOM     54  C   UNL A   1      45.581  25.836  29.450  1.00  0.00     0.049 A 
ATOM     55  H   UNL A   1      43.719  26.825  29.379  1.00  0.00     0.167 HD
ATOM     56  C   UNL A   1      46.050  28.049  30.465  1.00  0.00     0.074 A 
ATOM     57  C   UNL A   1      46.921  29.022  31.093  1.00  0.00     0.031 C 
ATOM     58  C   UNL A   1      46.436  26.810  30.080  1.00  0.00     0.031 A 
BRANCH  45  59
ATOM     59  C   UNL A   1      41.982  23.384  27.530  1.00  0.00    -0.014 A 
ATOM     60  C   UNL A   1      41.447  22.367  28.337  1.00  0.00     0.009 A 
ATOM     61  C   UNL A   1      42.255  23.105  26.183  1.00  0.00     0.009 A 
ATOM     62  C   UNL A   1      41.214  21.093  27.816  1.00  0.00     0.001 A 
ATOM     63  C   UNL A   1      41.993  21.838  25.656  1.00  0.00     0.001 A 
ATOM     64  C   UNL A   1      41.485  20.831  26.475  1.00  0.00     0.000 A 
ENDBRANCH  45  59
BRANCH  46  65
ATOM     65  C   UNL A   1      44.202  32.229  31.637  1.00  0.00    -0.014 A 
ATOM     66  C   UNL A   1      44.698  33.266  30.828  1.00  0.00     0.009 A 
ATOM     67  C   UNL A   1      44.086  32.448  33.018  1.00  0.00     0.009 A 
ATOM     68  C   UNL A   1      45.105  34.477  31.390  1.00  0.00     0.001 A 
ATOM     69  C   UNL A   1      44.460  33.675  33.573  1.00  0.00     0.001 A 
ATOM     70  C   UNL A   1      44.981  34.683  32.762  1.00  0.00     0.000 A 
ENDBRANCH  46  65
BRANCH  58  71
ATOM     71  C   UNL A   1      47.870  26.419  30.314  1.00  0.00    -0.014 A 
ATOM     72  C   UNL A   1      48.804  26.546  29.274  1.00  0.00     0.009 A 
ATOM     73  C   UNL A   1      48.271  25.829  31.521  1.00  0.00     0.009 A 
ATOM     74  C   UNL A   1      50.107  26.071  29.431  1.00  0.00     0.001 A 
ATOM     75  C   UNL A   1      49.585  25.387  31.688  1.00  0.00     0.001 A 
ATOM     76  C   UNL A   1      50.497  25.498  30.639  1.00  0.00     0.000 A 
ENDBRANCH  58  71
ENDBRANCH  32  33
ENDBRANCH  24  27
ENDBRANCH  22  23
ENDBRANCH   1  22
TORSDOF 11
ENDMDL
MODEL 2
REMARK VINA RESULT:     -11.4      0.425      6.085
REMARK SMILES Cc1ccc2c(c1)C=C(C(=O)NCCCNC(=O)c1ccc(-c3c4nc(c(-c5ccccc5)c5ccc([nH]5)c(-c5ccccc5)c5nc(c(-c6ccccc6)c6ccc3[nH]6)C=C5)C=C4)cc1)[C@@H](C(F)(F)F)O2
REMARK SMILES IDX 14 1 13 2 12 3 10 4 11 5 9 7 1 8 2 9 3 10 7 11 4 12 6 13
REMARK SMILES IDX 5 14 8 15 72 16 67 17 68 18 69 19 70 20 71 21 15 22 16 23
REMARK SMILES IDX 17 24 18 26 19 27 20 28 66 29 21 30 65 31 22 32 23 33 24 34
REMARK SMILES IDX 59 35 25 36 64 37 58 38 60 39 26 40 63 41 57 42 56 43 27 45
REMARK SMILES IDX 49 46 34 47 48 48 35 49 38 50 47 51 61 52 36 53 37 54 46 56
REMARK SMILES IDX 62 57 39 58 28 59 29 60 33 61 30 62 32 63 31 64 50 65 51 66
REMARK SMILES IDX 55 67 52 68 54 69 53 70 40 71 41 72 45 73 42 74 44 75 43 76
REMARK H PARENT 12 6 16 25 60 44 38 55
REMARK Flexibility Score: inf
ROOT
ATOM      1  C   UNL A   1      32.104  28.136  27.566  1.00  0.00     0.042 C 
ENDROOT
BRANCH   1   2
ATOM      2  C   UNL A   1      31.425  27.594  26.320  1.00  0.00     0.118 C 
BRANCH   2   3
ATOM      3  N   UNL A   1      30.836  26.285  26.550  1.00  0.00    -0.352 N 
ATOM      4  C   UNL A   1      31.114  25.000  26.225  1.00  0.00     0.251 C 
ATOM      5  O   UNL A   1      30.304  24.169  26.646  1.00  0.00    -0.270 OA
ATOM      6  H   UNL A   1      30.012  26.349  27.086  1.00  0.00     0.163 HD
BRANCH   4   7
ATOM      7  C   UNL A   1      32.288  24.553  25.422  1.00  0.00     0.067 C 
ATOM      8  C   UNL A   1      38.287  23.145  26.002  1.00  0.00     0.044 C 
ATOM      9  C   UNL A   1      36.959  23.292  25.320  1.00  0.00    -0.050 A 
ATOM     10  C   UNL A   1      36.822  22.931  23.974  1.00  0.00     0.007 A 
ATOM     11  C   UNL A   1      35.833  23.731  26.032  1.00  0.00     0.015 A 
ATOM     12  C   UNL A   1      35.584  23.027  23.341  1.00  0.00     0.047 A 
ATOM     13  C   UNL A   1      34.592  23.838  25.397  1.00  0.00     0.017 A 
ATOM     14  C   UNL A   1      34.481  23.490  24.051  1.00  0.00     0.128 A 
ATOM     15  C   UNL A   1      33.402  24.267  26.122  1.00  0.00     0.025 C 
ATOM     16  O   UNL A   1      33.295  23.537  23.375  1.00  0.00    -0.475 OA
ATOM     17  C   UNL A   1      32.292  24.434  23.924  1.00  0.00     0.314 C 
BRANCH  17  18
ATOM     18  C   UNL A   1      32.394  25.802  23.220  1.00  0.00     0.429 C 
ATOM     19  F   UNL A   1      32.782  25.638  21.929  1.00  0.00    -0.167 F 
ATOM     20  F   UNL A   1      31.208  26.457  23.179  1.00  0.00    -0.167 F 
ATOM     21  F   UNL A   1      33.279  26.636  23.808  1.00  0.00    -0.167 F 
ENDBRANCH  17  18
ENDBRANCH   4   7
ENDBRANCH   2   3
ENDBRANCH   1   2
BRANCH   1  22
ATOM     22  C   UNL A   1      33.454  28.767  27.260  1.00  0.00     0.118 C 
BRANCH  22  23
ATOM     23  N   UNL A   1      33.520  30.164  27.686  1.00  0.00    -0.352 N 
ATOM     24  C   UNL A   1      34.512  30.859  28.335  1.00  0.00     0.251 C 
ATOM     25  H   UNL A   1      32.721  30.697  27.472  1.00  0.00     0.163 HD
ATOM     26  O   UNL A   1      34.272  31.968  28.807  1.00  0.00    -0.269 OA
BRANCH  24  27
ATOM     27  C   UNL A   1      35.858  30.272  28.482  1.00  0.00     0.039 A 
ATOM     28  C   UNL A   1      36.237  29.677  29.684  1.00  0.00     0.014 A 
ATOM     29  C   UNL A   1      36.754  30.308  27.409  1.00  0.00     0.014 A 
ATOM     30  C   UNL A   1      37.561  29.323  29.887  1.00  0.00     0.010 A 
ATOM     31  C   UNL A   1      38.055  29.825  27.574  1.00  0.00     0.010 A 
ATOM     32  C   UNL A   1      38.485  29.378  28.832  1.00  0.00    -0.014 A 
BRANCH  32  33
ATOM     33  C   UNL A   1      39.880  28.935  29.083  1.00  0.00     0.031 A 
ATOM     34  C   UNL A   1      40.835  29.789  29.872  1.00  0.00     0.074 A 
ATOM     35  C   UNL A   1      40.257  27.713  28.656  1.00  0.00     0.049 A 
ATOM     36  N   UNL A   1      42.066  29.523  30.228  1.00  0.00    -0.248 NA
ATOM     37  C   UNL A   1      40.357  31.109  30.316  1.00  0.00     0.031 C 
ATOM     38  C   UNL A   1      39.410  26.792  27.893  1.00  0.00     0.029 A 
ATOM     39  N   UNL A   1      41.424  27.015  28.837  1.00  0.00    -0.354 N 
ATOM     40  C   UNL A   1      42.515  30.645  30.914  1.00  0.00     0.074 A 
ATOM     41  C   UNL A   1      41.438  31.608  30.902  1.00  0.00     0.031 C 
ATOM     42  C   UNL A   1      40.051  25.626  27.744  1.00  0.00     0.029 A 
ATOM     43  C   UNL A   1      41.386  25.743  28.318  1.00  0.00     0.049 A 
ATOM     44  H   UNL A   1      42.211  27.389  29.294  1.00  0.00     0.167 HD
ATOM     45  C   UNL A   1      43.714  30.845  31.509  1.00  0.00     0.031 A 
ATOM     46  C   UNL A   1      42.322  24.775  28.290  1.00  0.00     0.031 A 
ATOM     47  C   UNL A   1      44.775  29.871  31.533  1.00  0.00     0.049 A 
ATOM     48  C   UNL A   1      43.655  25.039  28.925  1.00  0.00     0.074 A 
ATOM     49  C   UNL A   1      46.017  29.974  32.133  1.00  0.00     0.029 A 
ATOM     50  N   UNL A   1      44.720  28.621  30.935  1.00  0.00    -0.354 N 
ATOM     51  N   UNL A   1      44.056  26.101  29.581  1.00  0.00    -0.248 NA
ATOM     52  C   UNL A   1      44.665  23.978  28.818  1.00  0.00     0.031 C 
ATOM     53  C   UNL A   1      46.740  28.816  31.841  1.00  0.00     0.029 A 
ATOM     54  C   UNL A   1      45.920  27.957  31.127  1.00  0.00     0.049 A 
ATOM     55  H   UNL A   1      43.945  28.260  30.449  1.00  0.00     0.167 HD
ATOM     56  C   UNL A   1      45.361  25.834  29.973  1.00  0.00     0.074 A 
ATOM     57  C   UNL A   1      45.673  24.499  29.506  1.00  0.00     0.031 C 
ATOM     58  C   UNL A   1      46.221  26.629  30.653  1.00  0.00     0.031 A 
BRANCH  45  59
ATOM     59  C   UNL A   1      43.969  32.169  32.179  1.00  0.00    -0.014 A 
ATOM     60  C   UNL A   1      43.592  32.351  33.520  1.00  0.00     0.009 A 
ATOM     61  C   UNL A   1      44.471  33.265  31.463  1.00  0.00     0.009 A 
ATOM     62  C   UNL A   1      43.692  33.605  34.124  1.00  0.00     0.001 A 
ATOM     63  C   UNL A   1      44.600  34.513  32.078  1.00  0.00     0.001 A 
ATOM     64  C   UNL A   1      44.199  34.685  33.403  1.00  0.00     0.000 A 
ENDBRANCH  45  59
BRANCH  46  65
ATOM     65  C   UNL A   1      42.011  23.479  27.629  1.00  0.00    -0.014 A 
ATOM     66  C   UNL A   1      41.393  22.443  28.350  1.00  0.00     0.009 A 
ATOM     67  C   UNL A   1      42.391  23.243  26.300  1.00  0.00     0.009 A 
ATOM     68  C   UNL A   1      41.197  21.189  27.769  1.00  0.00     0.001 A 
ATOM     69  C   UNL A   1      42.160  21.997  25.710  1.00  0.00     0.001 A 
ATOM     70  C   UNL A   1      41.576  20.968  26.448  1.00  0.00     0.000 A 
ENDBRANCH  46  65
BRANCH  58  71
ATOM     71  C   UNL A   1      47.592  26.087  30.947  1.00  0.00    -0.014 A 
ATOM     72  C   UNL A   1      47.884  25.594  32.229  1.00  0.00     0.009 A 
ATOM     73  C   UNL A   1      48.619  26.161  29.996  1.00  0.00     0.009 A 
ATOM     74  C   UNL A   1      49.183  25.205  32.559  1.00  0.00     0.001 A 
ATOM     75  C   UNL A   1      49.911  25.738  30.318  1.00  0.00     0.001 A 
ATOM     76  C   UNL A   1      50.193  25.272  31.602  1.00  0.00     0.000 A 
ENDBRANCH  58  71
ENDBRANCH  32  33
ENDBRANCH  24  27
ENDBRANCH  22  23
ENDBRANCH   1  22
TORSDOF 11
ENDMDL
MODEL 3
REMARK VINA RESULT:     -11.4      0.928      1.209
REMARK SMILES Cc1ccc2c(c1)C=C(C(=O)NCCCNC(=O)c1ccc(-c3c4nc(c(-c5ccccc5)c5ccc([nH]5)c(-c5ccccc5)c5nc(c(-c6ccccc6)c6ccc3[nH]6)C=C5)C=C4)cc1)[C@@H](C(F)(F)F)O2
REMARK SMILES IDX 14 1 13 2 12 3 10 4 11 5 9 7 1 8 2 9 3 10 7 11 4 12 6 13
REMARK SMILES IDX 5 14 8 15 72 16 67 17 68 18 69 19 70 20 71 21 15 22 16 23
REMARK SMILES IDX 17 24 18 26 19 27 20 28 66 29 21 30 65 31 22 32 23 33 24 34
REMARK SMILES IDX 59 35 25 36 64 37 58 38 60 39 26 40 63 41 57 42 56 43 27 45
REMARK SMILES IDX 49 46 34 47 48 48 35 49 38 50 47 51 61 52 36 53 37 54 46 56
REMARK SMILES IDX 62 57 39 58 28 59 29 60 33 61 30 62 32 63 31 64 50 65 51 66
REMARK SMILES IDX 55 67 52 68 54 69 53 70 40 71 41 72 45 73 42 74 44 75 43 76
REMARK H PARENT 12 6 16 25 60 44 38 55
REMARK Flexibility Score: inf
ROOT
ATOM      1  C   UNL A   1      32.798  28.165  26.950  1.00  0.00     0.042 C 
ENDROOT
BRANCH   1   2
ATOM      2  C   UNL A   1      31.563  27.850  26.122  1.00  0.00     0.118 C 
BRANCH   2   3
ATOM      3  N   UNL A   1      30.989  26.562  26.474  1.00  0.00    -0.352 N 
ATOM      4  C   UNL A   1      31.258  25.257  26.235  1.00  0.00     0.251 C 
ATOM      5  O   UNL A   1      30.470  24.459  26.751  1.00  0.00    -0.270 OA
ATOM      6  H   UNL A   1      30.188  26.666  27.037  1.00  0.00     0.163 HD
BRANCH   4   7
ATOM      7  C   UNL A   1      32.400  24.750  25.421  1.00  0.00     0.067 C 
ATOM      8  C   UNL A   1      38.347  23.111  25.924  1.00  0.00     0.044 C 
ATOM      9  C   UNL A   1      37.014  23.301  25.261  1.00  0.00    -0.050 A 
ATOM     10  C   UNL A   1      36.839  22.925  23.924  1.00  0.00     0.007 A 
ATOM     11  C   UNL A   1      35.918  23.795  25.985  1.00  0.00     0.015 A 
ATOM     12  C   UNL A   1      35.596  23.062  23.310  1.00  0.00     0.047 A 
ATOM     13  C   UNL A   1      34.672  23.943  25.369  1.00  0.00     0.017 A 
ATOM     14  C   UNL A   1      34.524  23.580  24.030  1.00  0.00     0.128 A 
ATOM     15  C   UNL A   1      33.513  24.430  26.106  1.00  0.00     0.025 C 
ATOM     16  O   UNL A   1      33.330  23.665  23.374  1.00  0.00    -0.475 OA
ATOM     17  C   UNL A   1      32.373  24.609  23.925  1.00  0.00     0.314 C 
BRANCH  17  18
ATOM     18  C   UNL A   1      32.518  25.962  23.198  1.00  0.00     0.429 C 
ATOM     19  F   UNL A   1      32.885  25.763  21.906  1.00  0.00    -0.167 F 
ATOM     20  F   UNL A   1      31.357  26.660  23.160  1.00  0.00    -0.167 F 
ATOM     21  F   UNL A   1      33.440  26.770  23.763  1.00  0.00    -0.167 F 
ENDBRANCH  17  18
ENDBRANCH   4   7
ENDBRANCH   2   3
ENDBRANCH   1   2
BRANCH   1  22
ATOM     22  C   UNL A   1      33.748  29.113  26.232  1.00  0.00     0.118 C 
BRANCH  22  23
ATOM     23  N   UNL A   1      33.751  30.448  26.829  1.00  0.00    -0.352 N 
ATOM     24  C   UNL A   1      34.577  31.008  27.773  1.00  0.00     0.251 C 
ATOM     25  H   UNL A   1      33.043  31.047  26.498  1.00  0.00     0.163 HD
ATOM     26  O   UNL A   1      34.263  32.069  28.306  1.00  0.00    -0.269 OA
BRANCH  24  27
ATOM     27  C   UNL A   1      35.830  30.331  28.161  1.00  0.00     0.039 A 
ATOM     28  C   UNL A   1      35.932  29.698  29.398  1.00  0.00     0.014 A 
ATOM     29  C   UNL A   1      36.916  30.320  27.280  1.00  0.00     0.014 A 
ATOM     30  C   UNL A   1      37.167  29.256  29.843  1.00  0.00     0.010 A 
ATOM     31  C   UNL A   1      38.128  29.750  27.680  1.00  0.00     0.010 A 
ATOM     32  C   UNL A   1      38.279  29.261  28.985  1.00  0.00    -0.014 A 
BRANCH  32  33
ATOM     33  C   UNL A   1      39.568  28.723  29.488  1.00  0.00     0.031 A 
ATOM     34  C   UNL A   1      40.115  27.417  28.981  1.00  0.00     0.074 A 
ATOM     35  C   UNL A   1      40.284  29.467  30.356  1.00  0.00     0.049 A 
ATOM     36  N   UNL A   1      41.251  26.837  29.274  1.00  0.00    -0.248 NA
ATOM     37  C   UNL A   1      39.287  26.658  28.028  1.00  0.00     0.031 C 
ATOM     38  C   UNL A   1      39.859  30.757  30.906  1.00  0.00     0.029 A 
ATOM     39  N   UNL A   1      41.532  29.274  30.892  1.00  0.00    -0.354 N 
ATOM     40  C   UNL A   1      41.264  25.643  28.565  1.00  0.00     0.074 A 
ATOM     41  C   UNL A   1      40.012  25.562  27.848  1.00  0.00     0.031 C 
ATOM     42  C   UNL A   1      40.857  31.276  31.632  1.00  0.00     0.029 A 
ATOM     43  C   UNL A   1      41.957  30.321  31.676  1.00  0.00     0.049 A 
ATOM     44  H   UNL A   1      42.070  28.466  30.731  1.00  0.00     0.167 HD
ATOM     45  C   UNL A   1      42.240  24.705  28.510  1.00  0.00     0.031 A 
ATOM     46  C   UNL A   1      43.099  30.495  32.368  1.00  0.00     0.031 A 
ATOM     47  C   UNL A   1      43.493  24.804  29.213  1.00  0.00     0.049 A 
ATOM     48  C   UNL A   1      44.146  29.422  32.319  1.00  0.00     0.074 A 
ATOM     49  C   UNL A   1      44.553  23.915  29.198  1.00  0.00     0.029 A 
ATOM     50  N   UNL A   1      43.855  25.848  30.050  1.00  0.00    -0.354 N 
ATOM     51  N   UNL A   1      44.146  28.306  31.630  1.00  0.00    -0.248 NA
ATOM     52  C   UNL A   1      45.348  29.628  33.136  1.00  0.00     0.031 C 
ATOM     53  C   UNL A   1      45.528  24.386  30.079  1.00  0.00     0.029 A 
ATOM     54  C   UNL A   1      45.111  25.608  30.582  1.00  0.00     0.049 A 
ATOM     55  H   UNL A   1      43.303  26.641  30.237  1.00  0.00     0.167 HD
ATOM     56  C   UNL A   1      45.349  27.679  31.925  1.00  0.00     0.074 A 
ATOM     57  C   UNL A   1      46.065  28.554  32.831  1.00  0.00     0.031 C 
ATOM     58  C   UNL A   1      45.811  26.484  31.487  1.00  0.00     0.031 A 
BRANCH  45  59
ATOM     59  C   UNL A   1      42.004  23.475  27.675  1.00  0.00    -0.014 A 
ATOM     60  C   UNL A   1      41.437  22.334  28.266  1.00  0.00     0.009 A 
ATOM     61  C   UNL A   1      42.440  23.401  26.344  1.00  0.00     0.009 A 
ATOM     62  C   UNL A   1      41.332  21.139  27.551  1.00  0.00     0.001 A 
ATOM     63  C   UNL A   1      42.306  22.213  25.621  1.00  0.00     0.001 A 
ATOM     64  C   UNL A   1      41.765  21.082  26.228  1.00  0.00     0.000 A 
ENDBRANCH  45  59
BRANCH  46  65
ATOM     65  C   UNL A   1      43.286  31.738  33.163  1.00  0.00    -0.014 A 
ATOM     66  C   UNL A   1      43.927  32.854  32.598  1.00  0.00     0.009 A 
ATOM     67  C   UNL A   1      42.894  31.794  34.508  1.00  0.00     0.009 A 
ATOM     68  C   UNL A   1      44.204  33.984  33.370  1.00  0.00     0.001 A 
ATOM     69  C   UNL A   1      43.140  32.941  35.269  1.00  0.00     0.001 A 
ATOM     70  C   UNL A   1      43.805  34.028  34.704  1.00  0.00     0.000 A 
ENDBRANCH  46  65
BRANCH  58  71
ATOM     71  C   UNL A   1      47.164  26.037  31.970  1.00  0.00    -0.014 A 
ATOM     72  C   UNL A   1      48.300  26.284  31.184  1.00  0.00     0.009 A 
ATOM     73  C   UNL A   1      47.299  25.281  33.143  1.00  0.00     0.009 A 
ATOM     74  C   UNL A   1      49.543  25.766  31.552  1.00  0.00     0.001 A 
ATOM     75  C   UNL A   1      48.551  24.794  33.528  1.00  0.00     0.001 A 
ATOM     76  C   UNL A   1      49.667  25.027  32.726  1.00  0.00     0.000 A 
ENDBRANCH  58  71
ENDBRANCH  32  33
ENDBRANCH  24  27
ENDBRANCH  22  23
ENDBRANCH   1  22
TORSDOF 11
ENDMDL
