MODEL 1
REMARK VINA RESULT:     -11.4      0.000      0.000
REMARK SMILES CC(C)n1cncc1[C@@H](NC(=O)OC(C)(C)C)C(=O)NCCCNC(=O)c1ccc(-c2c3nc(c(-c4ccccc4)c4ccc([nH]4)c(-c4ccccc4)c4nc(c(-c5ccccc5)c5ccc2[nH]5)C=C4)C=C3)cc1
REMARK SMILES IDX 21 1 20 2 18 3 19 4 9 6 8 7 4 8 5 9 6 10 7 11 2 12 1 13 3 14
REMARK SMILES IDX 10 15 11 16 12 18 13 19 14 20 15 21 16 22 17 23 22 24 23 25
REMARK SMILES IDX 24 26 25 27 26 29 27 30 28 31 74 32 29 33 73 34 30 35 31 36
REMARK SMILES IDX 32 37 67 38 33 39 72 40 66 41 68 42 34 43 71 44 65 45 64 46
REMARK SMILES IDX 35 48 57 49 42 50 56 51 43 52 46 53 55 54 69 55 44 56 45 57
REMARK SMILES IDX 54 59 70 60 47 61 36 62 37 63 41 64 38 65 40 66 39 67 58 68
REMARK SMILES IDX 59 69 63 70 60 71 62 72 61 73 48 74 49 75 53 76 50 77 52 78
REMARK SMILES IDX 51 79
REMARK H PARENT 20 5 10 17 24 28 68 47 46 58
REMARK Flexibility Score: inf
ROOT
ATOM      1  C   UNL A   1      32.095  29.338  25.631  1.00  0.00     0.117 C 
ENDROOT
BRANCH   1   2
ATOM      2  N   UNL A   1      33.108  29.544  24.613  1.00  0.00    -0.354 N 
ATOM      3  C   UNL A   1      33.229  28.965  23.378  1.00  0.00     0.248 C 
ATOM      4  O   UNL A   1      34.196  29.315  22.687  1.00  0.00    -0.272 OA
ATOM      5  H   UNL A   1      33.811  30.195  24.844  1.00  0.00     0.163 HD
BRANCH   3   6
ATOM      6  C   UNL A   1      32.317  27.781  22.909  1.00  0.00     0.223 C 
BRANCH   6   7
ATOM      7  C   UNL A   1      30.936  28.381  22.711  1.00  0.00     0.070 A 
ATOM      8  N   UNL A   1      29.737  28.008  23.294  1.00  0.00    -0.330 N 
ATOM      9  C   UNL A   1      28.926  29.125  23.260  1.00  0.00     0.199 A 
ATOM     10  N   UNL A   1      29.393  30.043  22.455  1.00  0.00    -0.245 NA
ATOM     11  C   UNL A   1      30.605  29.563  22.059  1.00  0.00     0.137 A 
BRANCH   8  12
ATOM     12  C   UNL A   1      29.185  26.719  23.711  1.00  0.00     0.082 C 
ATOM     13  C   UNL A   1      29.874  26.266  25.014  1.00  0.00     0.031 C 
ATOM     14  C   UNL A   1      27.676  26.634  23.907  1.00  0.00     0.031 C 
ENDBRANCH   8  12
ENDBRANCH   6   7
BRANCH   6  15
ATOM     15  N   UNL A   1      32.665  27.048  21.698  1.00  0.00    -0.304 N 
ATOM     16  C   UNL A   1      33.174  25.785  21.600  1.00  0.00     0.408 C 
ATOM     17  H   UNL A   1      32.515  27.521  20.848  1.00  0.00     0.168 HD
ATOM     18  O   UNL A   1      33.132  25.180  20.533  1.00  0.00    -0.225 OA
BRANCH  16  19
ATOM     19  O   UNL A   1      33.816  25.365  22.713  1.00  0.00    -0.444 OA
BRANCH  19  20
ATOM     20  C   UNL A   1      33.321  24.246  23.507  1.00  0.00     0.106 C 
ATOM     21  C   UNL A   1      33.474  24.519  25.004  1.00  0.00     0.056 C 
ATOM     22  C   UNL A   1      31.869  23.869  23.164  1.00  0.00     0.056 C 
ATOM     23  C   UNL A   1      34.222  23.055  23.130  1.00  0.00     0.056 C 
ENDBRANCH  19  20
ENDBRANCH  16  19
ENDBRANCH   6  15
ENDBRANCH   3   6
ENDBRANCH   1   2
BRANCH   1  24
ATOM     24  C   UNL A   1      32.361  30.101  26.924  1.00  0.00     0.042 C 
BRANCH  24  25
ATOM     25  C   UNL A   1      33.847  30.228  27.206  1.00  0.00     0.118 C 
BRANCH  25  26
ATOM     26  N   UNL A   1      34.300  31.626  27.179  1.00  0.00    -0.352 N 
ATOM     27  C   UNL A   1      35.329  32.212  27.889  1.00  0.00     0.251 C 
ATOM     28  H   UNL A   1      33.805  32.223  26.574  1.00  0.00     0.163 HD
ATOM     29  O   UNL A   1      35.406  33.425  28.028  1.00  0.00    -0.269 OA
BRANCH  27  30
ATOM     30  C   UNL A   1      36.348  31.328  28.469  1.00  0.00     0.039 A 
ATOM     31  C   UNL A   1      36.325  29.948  28.254  1.00  0.00     0.014 A 
ATOM     32  C   UNL A   1      37.404  31.945  29.129  1.00  0.00     0.014 A 
ATOM     33  C   UNL A   1      37.443  29.204  28.621  1.00  0.00     0.010 A 
ATOM     34  C   UNL A   1      38.564  31.247  29.311  1.00  0.00     0.010 A 
ATOM     35  C   UNL A   1      38.573  29.870  29.119  1.00  0.00    -0.014 A 
BRANCH  35  36
ATOM     36  C   UNL A   1      39.834  29.172  29.327  1.00  0.00     0.031 A 
ATOM     37  C   UNL A   1      40.143  28.867  30.747  1.00  0.00     0.074 A 
ATOM     38  C   UNL A   1      40.539  28.620  28.317  1.00  0.00     0.049 A 
ATOM     39  N   UNL A   1      41.005  29.458  31.504  1.00  0.00    -0.248 NA
ATOM     40  C   UNL A   1      39.288  27.901  31.458  1.00  0.00     0.031 C 
ATOM     41  C   UNL A   1      40.177  28.540  26.896  1.00  0.00     0.029 A 
ATOM     42  N   UNL A   1      41.686  27.893  28.371  1.00  0.00    -0.354 N 
ATOM     43  C   UNL A   1      40.983  28.766  32.710  1.00  0.00     0.074 A 
ATOM     44  C   UNL A   1      39.763  28.000  32.702  1.00  0.00     0.031 C 
ATOM     45  C   UNL A   1      40.942  27.611  26.284  1.00  0.00     0.029 A 
ATOM     46  C   UNL A   1      41.964  27.174  27.216  1.00  0.00     0.049 A 
ATOM     47  H   UNL A   1      42.270  27.878  29.164  1.00  0.00     0.167 HD
ATOM     48  C   UNL A   1      42.119  28.627  33.454  1.00  0.00     0.031 A 
ATOM     49  C   UNL A   1      42.957  26.269  27.041  1.00  0.00     0.031 A 
ATOM     50  C   UNL A   1      43.160  29.518  32.986  1.00  0.00     0.049 A 
ATOM     51  C   UNL A   1      43.966  26.517  28.094  1.00  0.00     0.074 A 
ATOM     52  C   UNL A   1      43.279  30.881  32.791  1.00  0.00     0.029 A 
ATOM     53  N   UNL A   1      44.166  28.945  32.243  1.00  0.00    -0.354 N 
ATOM     54  N   UNL A   1      44.703  27.590  28.138  1.00  0.00    -0.248 NA
ATOM     55  C   UNL A   1      43.849  25.789  29.346  1.00  0.00     0.031 C 
ATOM     56  C   UNL A   1      44.035  31.017  31.587  1.00  0.00     0.029 A 
ATOM     57  C   UNL A   1      44.406  29.741  31.158  1.00  0.00     0.049 A 
ATOM     58  H   UNL A   1      44.633  28.105  32.456  1.00  0.00     0.167 HD
ATOM     59  C   UNL A   1      44.747  27.926  29.484  1.00  0.00     0.074 A 
ATOM     60  C   UNL A   1      44.317  26.716  30.186  1.00  0.00     0.031 C 
ATOM     61  C   UNL A   1      44.838  29.232  29.875  1.00  0.00     0.031 A 
BRANCH  48  62
ATOM     62  C   UNL A   1      42.466  27.368  34.229  1.00  0.00    -0.014 A 
ATOM     63  C   UNL A   1      43.508  26.556  33.738  1.00  0.00     0.009 A 
ATOM     64  C   UNL A   1      41.635  26.790  35.206  1.00  0.00     0.009 A 
ATOM     65  C   UNL A   1      43.612  25.205  34.089  1.00  0.00     0.001 A 
ATOM     66  C   UNL A   1      41.765  25.453  35.595  1.00  0.00     0.001 A 
ATOM     67  C   UNL A   1      42.727  24.649  35.005  1.00  0.00     0.000 A 
ENDBRANCH  48  62
BRANCH  49  68
ATOM     68  C   UNL A   1      43.000  25.074  26.175  1.00  0.00    -0.014 A 
ATOM     69  C   UNL A   1      43.981  24.950  25.178  1.00  0.00     0.009 A 
ATOM     70  C   UNL A   1      42.258  23.926  26.510  1.00  0.00     0.009 A 
ATOM     71  C   UNL A   1      44.245  23.713  24.576  1.00  0.00     0.001 A 
ATOM     72  C   UNL A   1      42.519  22.691  25.905  1.00  0.00     0.001 A 
ATOM     73  C   UNL A   1      43.527  22.581  24.953  1.00  0.00     0.000 A 
ENDBRANCH  49  68
BRANCH  61  74
ATOM     74  C   UNL A   1      45.185  30.260  28.826  1.00  0.00    -0.014 A 
ATOM     75  C   UNL A   1      46.503  30.649  28.524  1.00  0.00     0.009 A 
ATOM     76  C   UNL A   1      44.147  30.757  28.024  1.00  0.00     0.009 A 
ATOM     77  C   UNL A   1      46.766  31.538  27.476  1.00  0.00     0.001 A 
ATOM     78  C   UNL A   1      44.411  31.627  26.964  1.00  0.00     0.001 A 
ATOM     79  C   UNL A   1      45.719  32.024  26.695  1.00  0.00     0.000 A 
ENDBRANCH  61  74
ENDBRANCH  35  36
ENDBRANCH  27  30
ENDBRANCH  25  26
ENDBRANCH  24  25
ENDBRANCH   1  24
TORSDOF 15
ENDMDL
MODEL 2
REMARK VINA RESULT:     -11.4      2.732      6.099
REMARK SMILES CC(C)n1cncc1[C@@H](NC(=O)OC(C)(C)C)C(=O)NCCCNC(=O)c1ccc(-c2c3nc(c(-c4ccccc4)c4ccc([nH]4)c(-c4ccccc4)c4nc(c(-c5ccccc5)c5ccc2[nH]5)C=C4)C=C3)cc1
REMARK SMILES IDX 21 1 20 2 18 3 19 4 9 6 8 7 4 8 5 9 6 10 7 11 2 12 1 13 3 14
REMARK SMILES IDX 10 15 11 16 12 18 13 19 14 20 15 21 16 22 17 23 22 24 23 25
REMARK SMILES IDX 24 26 25 27 26 29 27 30 28 31 74 32 29 33 73 34 30 35 31 36
REMARK SMILES IDX 32 37 67 38 33 39 72 40 66 41 68 42 34 43 71 44 65 45 64 46
REMARK SMILES IDX 35 48 57 49 42 50 56 51 43 52 46 53 55 54 69 55 44 56 45 57
REMARK SMILES IDX 54 59 70 60 47 61 36 62 37 63 41 64 38 65 40 66 39 67 58 68
REMARK SMILES IDX 59 69 63 70 60 71 62 72 61 73 48 74 49 75 53 76 50 77 52 78
REMARK SMILES IDX 51 79
REMARK H PARENT 20 5 10 17 24 28 68 47 46 58
REMARK Flexibility Score: inf
ROOT
ATOM      1  C   UNL A   1      31.797  30.117  26.875  1.00  0.00     0.117 C 
ENDROOT
BRANCH   1   2
ATOM      2  N   UNL A   1      33.184  29.733  27.059  1.00  0.00    -0.354 N 
ATOM      3  C   UNL A   1      33.841  28.617  26.615  1.00  0.00     0.248 C 
ATOM      4  O   UNL A   1      35.042  28.521  26.908  1.00  0.00    -0.272 OA
ATOM      5  H   UNL A   1      33.732  30.368  27.576  1.00  0.00     0.163 HD
BRANCH   3   6
ATOM      6  C   UNL A   1      33.100  27.416  25.937  1.00  0.00     0.223 C 
BRANCH   6   7
ATOM      7  C   UNL A   1      33.008  27.771  24.463  1.00  0.00     0.070 A 
ATOM      8  N   UNL A   1      31.986  28.415  23.789  1.00  0.00    -0.330 N 
ATOM      9  C   UNL A   1      32.559  28.990  22.672  1.00  0.00     0.199 A 
ATOM     10  N   UNL A   1      33.754  28.515  22.440  1.00  0.00    -0.245 NA
ATOM     11  C   UNL A   1      34.015  27.710  23.507  1.00  0.00     0.137 A 
BRANCH   8  12
ATOM     12  C   UNL A   1      30.530  28.418  23.944  1.00  0.00     0.082 C 
ATOM     13  C   UNL A   1      29.988  29.830  23.639  1.00  0.00     0.031 C 
ATOM     14  C   UNL A   1      29.737  27.408  23.125  1.00  0.00     0.031 C 
ENDBRANCH   8  12
ENDBRANCH   6   7
BRANCH   6  15
ATOM     15  N   UNL A   1      33.667  26.077  26.041  1.00  0.00    -0.304 N 
ATOM     16  C   UNL A   1      33.001  24.894  26.192  1.00  0.00     0.408 C 
ATOM     17  H   UNL A   1      34.649  26.017  25.996  1.00  0.00     0.168 HD
ATOM     18  O   UNL A   1      33.566  23.830  25.958  1.00  0.00    -0.225 OA
BRANCH  16  19
ATOM     19  O   UNL A   1      31.768  25.024  26.731  1.00  0.00    -0.444 OA
BRANCH  19  20
ATOM     20  C   UNL A   1      30.576  24.543  26.043  1.00  0.00     0.106 C 
ATOM     21  C   UNL A   1      29.432  25.553  26.144  1.00  0.00     0.056 C 
ATOM     22  C   UNL A   1      30.847  24.165  24.576  1.00  0.00     0.056 C 
ATOM     23  C   UNL A   1      30.168  23.262  26.795  1.00  0.00     0.056 C 
ENDBRANCH  19  20
ENDBRANCH  16  19
ENDBRANCH   6  15
ENDBRANCH   3   6
ENDBRANCH   1   2
BRANCH   1  24
ATOM     24  C   UNL A   1      31.583  31.626  26.803  1.00  0.00     0.042 C 
BRANCH  24  25
ATOM     25  C   UNL A   1      32.811  32.390  27.263  1.00  0.00     0.118 C 
BRANCH  25  26
ATOM     26  N   UNL A   1      32.493  33.772  27.651  1.00  0.00    -0.352 N 
ATOM     27  C   UNL A   1      33.053  34.535  28.657  1.00  0.00     0.251 C 
ATOM     28  H   UNL A   1      31.788  34.212  27.124  1.00  0.00     0.163 HD
ATOM     29  O   UNL A   1      32.497  35.536  29.090  1.00  0.00    -0.269 OA
BRANCH  27  30
ATOM     30  C   UNL A   1      34.354  34.114  29.188  1.00  0.00     0.039 A 
ATOM     31  C   UNL A   1      34.455  33.179  30.220  1.00  0.00     0.014 A 
ATOM     32  C   UNL A   1      35.480  34.592  28.526  1.00  0.00     0.014 A 
ATOM     33  C   UNL A   1      35.707  32.643  30.508  1.00  0.00     0.010 A 
ATOM     34  C   UNL A   1      36.665  33.929  28.681  1.00  0.00     0.010 A 
ATOM     35  C   UNL A   1      36.803  33.002  29.708  1.00  0.00    -0.014 A 
BRANCH  35  36
ATOM     36  C   UNL A   1      38.086  32.325  29.832  1.00  0.00     0.031 A 
ATOM     37  C   UNL A   1      38.077  30.903  29.405  1.00  0.00     0.074 A 
ATOM     38  C   UNL A   1      39.240  32.984  30.068  1.00  0.00     0.049 A 
ATOM     39  N   UNL A   1      38.101  29.858  30.163  1.00  0.00    -0.248 NA
ATOM     40  C   UNL A   1      37.857  30.601  27.981  1.00  0.00     0.031 C 
ATOM     41  C   UNL A   1      39.452  34.435  30.165  1.00  0.00     0.029 A 
ATOM     42  N   UNL A   1      40.505  32.495  30.144  1.00  0.00    -0.354 N 
ATOM     43  C   UNL A   1      38.161  28.769  29.301  1.00  0.00     0.074 A 
ATOM     44  C   UNL A   1      37.767  29.269  28.008  1.00  0.00     0.031 C 
ATOM     45  C   UNL A   1      40.769  34.710  30.038  1.00  0.00     0.029 A 
ATOM     46  C   UNL A   1      41.500  33.458  30.043  1.00  0.00     0.049 A 
ATOM     47  H   UNL A   1      40.699  31.536  30.262  1.00  0.00     0.167 HD
ATOM     48  C   UNL A   1      38.844  27.641  29.650  1.00  0.00     0.031 A 
ATOM     49  C   UNL A   1      42.835  33.242  29.951  1.00  0.00     0.031 A 
ATOM     50  C   UNL A   1      39.173  27.647  31.060  1.00  0.00     0.049 A 
ATOM     51  C   UNL A   1      43.092  31.873  30.451  1.00  0.00     0.074 A 
ATOM     52  C   UNL A   1      38.460  27.758  32.239  1.00  0.00     0.029 A 
ATOM     53  N   UNL A   1      40.477  27.943  31.383  1.00  0.00    -0.354 N 
ATOM     54  N   UNL A   1      42.935  31.525  31.696  1.00  0.00    -0.248 NA
ATOM     55  C   UNL A   1      43.092  30.780  29.493  1.00  0.00     0.031 C 
ATOM     56  C   UNL A   1      39.277  28.565  33.089  1.00  0.00     0.029 A 
ATOM     57  C   UNL A   1      40.473  28.834  32.420  1.00  0.00     0.049 A 
ATOM     58  H   UNL A   1      41.277  27.576  30.941  1.00  0.00     0.167 HD
ATOM     59  C   UNL A   1      42.355  30.266  31.635  1.00  0.00     0.074 A 
ATOM     60  C   UNL A   1      42.597  29.809  30.266  1.00  0.00     0.031 C 
ATOM     61  C   UNL A   1      41.484  29.851  32.602  1.00  0.00     0.031 A 
BRANCH  48  62
ATOM     62  C   UNL A   1      39.654  26.811  28.669  1.00  0.00    -0.014 A 
ATOM     63  C   UNL A   1      40.653  27.464  27.920  1.00  0.00     0.009 A 
ATOM     64  C   UNL A   1      39.280  25.531  28.224  1.00  0.00     0.009 A 
ATOM     65  C   UNL A   1      41.132  26.932  26.717  1.00  0.00     0.001 A 
ATOM     66  C   UNL A   1      39.790  24.974  27.047  1.00  0.00     0.001 A 
ATOM     67  C   UNL A   1      40.685  25.694  26.272  1.00  0.00     0.000 A 
ENDBRANCH  48  62
BRANCH  49  68
ATOM     68  C   UNL A   1      43.874  34.040  29.270  1.00  0.00    -0.014 A 
ATOM     69  C   UNL A   1      43.928  34.092  27.867  1.00  0.00     0.009 A 
ATOM     70  C   UNL A   1      44.635  34.978  29.989  1.00  0.00     0.009 A 
ATOM     71  C   UNL A   1      44.676  35.078  27.211  1.00  0.00     0.001 A 
ATOM     72  C   UNL A   1      45.386  35.960  29.333  1.00  0.00     0.001 A 
ATOM     73  C   UNL A   1      45.389  36.022  27.944  1.00  0.00     0.000 A 
ENDBRANCH  49  68
BRANCH  61  74
ATOM     74  C   UNL A   1      41.401  30.663  33.872  1.00  0.00    -0.014 A 
ATOM     75  C   UNL A   1      40.586  31.800  34.015  1.00  0.00     0.009 A 
ATOM     76  C   UNL A   1      42.071  30.181  35.005  1.00  0.00     0.009 A 
ATOM     77  C   UNL A   1      40.480  32.456  35.247  1.00  0.00     0.001 A 
ATOM     78  C   UNL A   1      41.948  30.821  36.240  1.00  0.00     0.001 A 
ATOM     79  C   UNL A   1      41.160  31.963  36.359  1.00  0.00     0.000 A 
ENDBRANCH  61  74
ENDBRANCH  35  36
ENDBRANCH  27  30
ENDBRANCH  25  26
ENDBRANCH  24  25
ENDBRANCH   1  24
TORSDOF 15
ENDMDL
MODEL 3
REMARK VINA RESULT:     -11.3      1.294      2.074
REMARK SMILES CC(C)n1cncc1[C@@H](NC(=O)OC(C)(C)C)C(=O)NCCCNC(=O)c1ccc(-c2c3nc(c(-c4ccccc4)c4ccc([nH]4)c(-c4ccccc4)c4nc(c(-c5ccccc5)c5ccc2[nH]5)C=C4)C=C3)cc1
REMARK SMILES IDX 21 1 20 2 18 3 19 4 9 6 8 7 4 8 5 9 6 10 7 11 2 12 1 13 3 14
REMARK SMILES IDX 10 15 11 16 12 18 13 19 14 20 15 21 16 22 17 23 22 24 23 25
REMARK SMILES IDX 24 26 25 27 26 29 27 30 28 31 74 32 29 33 73 34 30 35 31 36
REMARK SMILES IDX 32 37 67 38 33 39 72 40 66 41 68 42 34 43 71 44 65 45 64 46
REMARK SMILES IDX 35 48 57 49 42 50 56 51 43 52 46 53 55 54 69 55 44 56 45 57
REMARK SMILES IDX 54 59 70 60 47 61 36 62 37 63 41 64 38 65 40 66 39 67 58 68
REMARK SMILES IDX 59 69 63 70 60 71 62 72 61 73 48 74 49 75 53 76 50 77 52 78
REMARK SMILES IDX 51 79
REMARK H PARENT 20 5 10 17 24 28 68 47 46 58
REMARK Flexibility Score: inf
ROOT
ATOM      1  C   UNL A   1      33.459  29.014  26.650  1.00  0.00     0.117 C 
ENDROOT
BRANCH   1   2
ATOM      2  N   UNL A   1      33.809  29.147  25.248  1.00  0.00    -0.354 N 
ATOM      3  C   UNL A   1      33.759  28.214  24.248  1.00  0.00     0.248 C 
ATOM      4  O   UNL A   1      34.116  28.581  23.120  1.00  0.00    -0.272 OA
ATOM      5  H   UNL A   1      34.128  30.039  24.977  1.00  0.00     0.163 HD
BRANCH   3   6
ATOM      6  C   UNL A   1      33.454  26.702  24.521  1.00  0.00     0.223 C 
BRANCH   6   7
ATOM      7  C   UNL A   1      32.949  26.142  23.202  1.00  0.00     0.070 A 
ATOM      8  N   UNL A   1      31.804  26.476  22.500  1.00  0.00    -0.330 N 
ATOM      9  C   UNL A   1      32.051  26.152  21.180  1.00  0.00     0.199 A 
ATOM     10  N   UNL A   1      33.101  25.385  21.055  1.00  0.00    -0.245 NA
ATOM     11  C   UNL A   1      33.626  25.319  22.310  1.00  0.00     0.137 A 
BRANCH   8  12
ATOM     12  C   UNL A   1      30.461  26.885  22.911  1.00  0.00     0.082 C 
ATOM     13  C   UNL A   1      29.955  25.936  24.017  1.00  0.00     0.031 C 
ATOM     14  C   UNL A   1      30.281  28.321  23.386  1.00  0.00     0.031 C 
ENDBRANCH   8  12
ENDBRANCH   6   7
BRANCH   6  15
ATOM     15  N   UNL A   1      34.522  25.833  24.997  1.00  0.00    -0.304 N 
ATOM     16  C   UNL A   1      34.403  24.661  25.690  1.00  0.00     0.408 C 
ATOM     17  H   UNL A   1      35.440  26.124  24.795  1.00  0.00     0.168 HD
ATOM     18  O   UNL A   1      35.349  23.883  25.759  1.00  0.00    -0.225 OA
BRANCH  16  19
ATOM     19  O   UNL A   1      33.238  24.540  26.365  1.00  0.00    -0.444 OA
BRANCH  19  20
ATOM     20  C   UNL A   1      32.487  23.290  26.379  1.00  0.00     0.106 C 
ATOM     21  C   UNL A   1      32.478  22.634  24.998  1.00  0.00     0.056 C 
ATOM     22  C   UNL A   1      32.989  22.306  27.450  1.00  0.00     0.056 C 
ATOM     23  C   UNL A   1      31.045  23.692  26.741  1.00  0.00     0.056 C 
ENDBRANCH  19  20
ENDBRANCH  16  19
ENDBRANCH   6  15
ENDBRANCH   3   6
ENDBRANCH   1   2
BRANCH   1  24
ATOM     24  C   UNL A   1      32.959  30.309  27.283  1.00  0.00     0.042 C 
BRANCH  24  25
ATOM     25  C   UNL A   1      34.056  31.354  27.366  1.00  0.00     0.118 C 
BRANCH  25  26
ATOM     26  N   UNL A   1      34.079  32.032  28.670  1.00  0.00    -0.352 N 
ATOM     27  C   UNL A   1      34.970  31.867  29.712  1.00  0.00     0.251 C 
ATOM     28  H   UNL A   1      33.365  32.693  28.820  1.00  0.00     0.163 HD
ATOM     29  O   UNL A   1      34.708  32.239  30.848  1.00  0.00    -0.269 OA
BRANCH  27  30
ATOM     30  C   UNL A   1      36.261  31.237  29.411  1.00  0.00     0.039 A 
ATOM     31  C   UNL A   1      37.437  31.986  29.323  1.00  0.00     0.014 A 
ATOM     32  C   UNL A   1      36.275  29.848  29.349  1.00  0.00     0.014 A 
ATOM     33  C   UNL A   1      38.651  31.307  29.280  1.00  0.00     0.010 A 
ATOM     34  C   UNL A   1      37.466  29.195  29.498  1.00  0.00     0.010 A 
ATOM     35  C   UNL A   1      38.656  29.909  29.402  1.00  0.00    -0.014 A 
BRANCH  35  36
ATOM     36  C   UNL A   1      39.898  29.167  29.566  1.00  0.00     0.031 A 
ATOM     37  C   UNL A   1      40.257  28.868  30.975  1.00  0.00     0.074 A 
ATOM     38  C   UNL A   1      40.539  28.577  28.534  1.00  0.00     0.049 A 
ATOM     39  N   UNL A   1      41.172  29.435  31.687  1.00  0.00    -0.248 NA
ATOM     40  C   UNL A   1      39.399  27.943  31.735  1.00  0.00     0.031 C 
ATOM     41  C   UNL A   1      40.113  28.494  27.131  1.00  0.00     0.029 A 
ATOM     42  N   UNL A   1      41.659  27.809  28.549  1.00  0.00    -0.354 N 
ATOM     43  C   UNL A   1      41.177  28.759  32.902  1.00  0.00     0.074 A 
ATOM     44  C   UNL A   1      39.930  28.039  32.956  1.00  0.00     0.031 C 
ATOM     45  C   UNL A   1      40.816  27.529  26.499  1.00  0.00     0.029 A 
ATOM     46  C   UNL A   1      41.861  27.066  27.393  1.00  0.00     0.049 A 
ATOM     47  H   UNL A   1      42.276  27.781  29.316  1.00  0.00     0.167 HD
ATOM     48  C   UNL A   1      42.337  28.586  33.598  1.00  0.00     0.031 A 
ATOM     49  C   UNL A   1      42.811  26.122  27.188  1.00  0.00     0.031 A 
ATOM     50  C   UNL A   1      43.389  29.432  33.075  1.00  0.00     0.049 A 
ATOM     51  C   UNL A   1      43.873  26.345  28.193  1.00  0.00     0.074 A 
ATOM     52  C   UNL A   1      43.549  30.787  32.857  1.00  0.00     0.029 A 
ATOM     53  N   UNL A   1      44.341  28.814  32.297  1.00  0.00    -0.354 N 
ATOM     54  N   UNL A   1      44.651  27.390  28.192  1.00  0.00    -0.248 NA
ATOM     55  C   UNL A   1      43.783  25.637  29.459  1.00  0.00     0.031 C 
ATOM     56  C   UNL A   1      44.258  30.881  31.620  1.00  0.00     0.029 A 
ATOM     57  C   UNL A   1      44.563  29.587  31.192  1.00  0.00     0.049 A 
ATOM     58  H   UNL A   1      44.786  27.959  32.502  1.00  0.00     0.167 HD
ATOM     59  C   UNL A   1      44.764  27.741  29.530  1.00  0.00     0.074 A 
ATOM     60  C   UNL A   1      44.321  26.556  30.265  1.00  0.00     0.031 C 
ATOM     61  C   UNL A   1      44.920  29.047  29.899  1.00  0.00     0.031 A 
BRANCH  48  62
ATOM     62  C   UNL A   1      42.671  27.325  34.375  1.00  0.00    -0.014 A 
ATOM     63  C   UNL A   1      43.511  26.374  33.761  1.00  0.00     0.009 A 
ATOM     64  C   UNL A   1      41.966  26.889  35.511  1.00  0.00     0.009 A 
ATOM     65  C   UNL A   1      43.523  25.035  34.168  1.00  0.00     0.001 A 
ATOM     66  C   UNL A   1      42.010  25.562  35.950  1.00  0.00     0.001 A 
ATOM     67  C   UNL A   1      42.756  24.626  35.252  1.00  0.00     0.000 A 
ENDBRANCH  48  62
BRANCH  49  68
ATOM     68  C   UNL A   1      42.772  24.916  26.337  1.00  0.00    -0.014 A 
ATOM     69  C   UNL A   1      43.612  24.807  25.217  1.00  0.00     0.009 A 
ATOM     70  C   UNL A   1      42.120  23.753  26.782  1.00  0.00     0.009 A 
ATOM     71  C   UNL A   1      43.831  23.569  24.598  1.00  0.00     0.001 A 
ATOM     72  C   UNL A   1      42.334  22.517  26.161  1.00  0.00     0.001 A 
ATOM     73  C   UNL A   1      43.206  22.422  25.081  1.00  0.00     0.000 A 
ENDBRANCH  49  68
BRANCH  61  74
ATOM     74  C   UNL A   1      45.259  30.049  28.822  1.00  0.00    -0.014 A 
ATOM     75  C   UNL A   1      46.576  30.381  28.456  1.00  0.00     0.009 A 
ATOM     76  C   UNL A   1      44.206  30.578  28.062  1.00  0.00     0.009 A 
ATOM     77  C   UNL A   1      46.826  31.248  27.386  1.00  0.00     0.001 A 
ATOM     78  C   UNL A   1      44.455  31.425  26.980  1.00  0.00     0.001 A 
ATOM     79  C   UNL A   1      45.764  31.767  26.647  1.00  0.00     0.000 A 
ENDBRANCH  61  74
ENDBRANCH  35  36
ENDBRANCH  27  30
ENDBRANCH  25  26
ENDBRANCH  24  25
ENDBRANCH   1  24
TORSDOF 15
ENDMDL
