MODEL 1
REMARK VINA RESULT:     -11.1      0.000      0.000
REMARK SMILES CCOc1cc2nccc(Nc3ccc(C(=O)NCCCNC(=O)c4ccc(-c5c6nc(c(-c7ccccc7)c7ccc([nH]7)c(-c7ccccc7)c7nc(c(-c8ccccc8)c8ccc5[nH]8)C=C7)C=C6)cc4)cc3)c2cc1OCC
REMARK SMILES IDX 19 1 18 2 16 3 17 4 15 6 12 7 13 8 74 9 14 10 73 11 11 12
REMARK SMILES IDX 10 14 4 15 5 16 77 17 6 18 76 19 7 20 75 21 8 22 9 23 3 24
REMARK SMILES IDX 2 25 1 26 78 27 79 28 80 29 20 30 21 31 22 32 23 33 24 35
REMARK SMILES IDX 25 36 26 37 72 38 27 39 71 40 28 41 29 42 30 43 65 44 31 45
REMARK SMILES IDX 70 46 64 47 66 48 32 49 69 50 63 51 62 52 33 54 55 55 40 56
REMARK SMILES IDX 54 57 41 58 44 59 53 60 67 61 42 62 43 63 52 65 68 66 45 67
REMARK SMILES IDX 34 68 35 69 39 70 36 71 38 72 37 73 56 74 57 75 61 76 58 77
REMARK SMILES IDX 60 78 59 79 46 80 47 81 51 82 48 83 50 84 49 85
REMARK H PARENT 18 5 11 13 22 34 66 53 44 64
REMARK Flexibility Score: inf
ROOT
ATOM      1  C   UNL A   1      41.468  19.576  27.638  1.00  0.00     0.118 C 
ENDROOT
BRANCH   1   2
ATOM      2  N   UNL A   1      41.832  20.895  28.117  1.00  0.00    -0.352 N 
ATOM      3  C   UNL A   1      41.280  22.129  27.897  1.00  0.00     0.251 C 
ATOM      4  O   UNL A   1      41.810  23.100  28.436  1.00  0.00    -0.269 OA
ATOM      5  H   UNL A   1      42.620  20.906  28.708  1.00  0.00     0.163 HD
BRANCH   3   6
ATOM      6  C   UNL A   1      40.032  22.320  27.114  1.00  0.00     0.039 A 
ATOM      7  C   UNL A   1      37.800  22.563  25.416  1.00  0.00     0.038 A 
ATOM      8  C   UNL A   1      38.527  21.371  25.468  1.00  0.00     0.027 A 
ATOM      9  C   UNL A   1      38.166  23.614  26.256  1.00  0.00     0.027 A 
ATOM     10  C   UNL A   1      39.639  21.251  26.301  1.00  0.00     0.016 A 
ATOM     11  C   UNL A   1      39.245  23.475  27.135  1.00  0.00     0.016 A 
BRANCH   7  12
ATOM     12  N   UNL A   1      36.753  22.672  24.497  1.00  0.00    -0.355 N 
ATOM     13  H   UNL A   1      36.923  23.315  23.772  1.00  0.00     0.167 HD
BRANCH  12  14
ATOM     14  C   UNL A   1      35.495  22.031  24.416  1.00  0.00     0.050 A 
ATOM     15  C   UNL A   1      32.192  24.172  22.886  1.00  0.00     0.163 A 
ATOM     16  C   UNL A   1      32.027  22.893  23.441  1.00  0.00     0.079 A 
ATOM     17  C   UNL A   1      33.475  24.697  22.751  1.00  0.00     0.161 A 
ATOM     18  C   UNL A   1      33.115  22.146  23.906  1.00  0.00     0.076 A 
ATOM     19  C   UNL A   1      34.558  23.981  23.241  1.00  0.00     0.063 A 
ATOM     20  N   UNL A   1      32.921  20.919  24.425  1.00  0.00    -0.256 NA
ATOM     21  C   UNL A   1      34.399  22.725  23.849  1.00  0.00     0.028 A 
ATOM     22  C   UNL A   1      33.998  20.247  24.897  1.00  0.00     0.114 A 
ATOM     23  C   UNL A   1      35.288  20.748  24.907  1.00  0.00     0.047 A 
BRANCH  15  24
ATOM     24  O   UNL A   1      31.129  24.984  22.610  1.00  0.00    -0.490 OA
BRANCH  24  25
ATOM     25  C   UNL A   1      30.281  25.293  23.718  1.00  0.00     0.226 C 
ATOM     26  C   UNL A   1      29.968  26.783  23.636  1.00  0.00     0.049 C 
ENDBRANCH  24  25
ENDBRANCH  15  24
BRANCH  17  27
ATOM     27  O   UNL A   1      33.834  25.893  22.198  1.00  0.00    -0.490 OA
BRANCH  27  28
ATOM     28  C   UNL A   1      33.656  27.060  22.998  1.00  0.00     0.226 C 
ATOM     29  C   UNL A   1      33.986  28.368  22.287  1.00  0.00     0.049 C 
ENDBRANCH  27  28
ENDBRANCH  17  27
ENDBRANCH  12  14
ENDBRANCH   7  12
ENDBRANCH   3   6
ENDBRANCH   1   2
BRANCH   1  30
ATOM     30  C   UNL A   1      42.624  18.959  26.855  1.00  0.00     0.042 C 
BRANCH  30  31
ATOM     31  C   UNL A   1      42.661  19.420  25.402  1.00  0.00     0.118 C 
BRANCH  31  32
ATOM     32  N   UNL A   1      43.869  18.968  24.724  1.00  0.00    -0.352 N 
ATOM     33  C   UNL A   1      44.943  19.689  24.280  1.00  0.00     0.251 C 
ATOM     34  H   UNL A   1      43.919  17.999  24.561  1.00  0.00     0.163 HD
ATOM     35  O   UNL A   1      45.754  19.163  23.513  1.00  0.00    -0.269 OA
BRANCH  33  36
ATOM     36  C   UNL A   1      45.136  21.090  24.702  1.00  0.00     0.039 A 
ATOM     37  C   UNL A   1      44.890  22.113  23.782  1.00  0.00     0.014 A 
ATOM     38  C   UNL A   1      45.597  21.398  25.986  1.00  0.00     0.014 A 
ATOM     39  C   UNL A   1      45.058  23.444  24.164  1.00  0.00     0.010 A 
ATOM     40  C   UNL A   1      45.690  22.727  26.389  1.00  0.00     0.010 A 
ATOM     41  C   UNL A   1      45.430  23.762  25.480  1.00  0.00    -0.014 A 
BRANCH  41  42
ATOM     42  C   UNL A   1      45.549  25.173  25.924  1.00  0.00     0.031 A 
ATOM     43  C   UNL A   1      46.888  25.858  25.920  1.00  0.00     0.074 A 
ATOM     44  C   UNL A   1      44.459  25.815  26.387  1.00  0.00     0.049 A 
ATOM     45  N   UNL A   1      47.196  27.066  26.324  1.00  0.00    -0.248 NA
ATOM     46  C   UNL A   1      48.032  25.080  25.422  1.00  0.00     0.031 C 
ATOM     47  C   UNL A   1      43.113  25.246  26.473  1.00  0.00     0.029 A 
ATOM     48  N   UNL A   1      44.315  27.088  26.878  1.00  0.00    -0.354 N 
ATOM     49  C   UNL A   1      48.569  27.183  26.143  1.00  0.00     0.074 A 
ATOM     50  C   UNL A   1      49.041  25.911  25.642  1.00  0.00     0.031 C 
ATOM     51  C   UNL A   1      42.274  26.176  26.959  1.00  0.00     0.029 A 
ATOM     52  C   UNL A   1      43.030  27.387  27.260  1.00  0.00     0.049 A 
ATOM     53  H   UNL A   1      45.061  27.727  26.949  1.00  0.00     0.167 HD
ATOM     54  C   UNL A   1      49.363  28.259  26.358  1.00  0.00     0.031 A 
ATOM     55  C   UNL A   1      42.518  28.508  27.802  1.00  0.00     0.031 A 
ATOM     56  C   UNL A   1      48.891  29.525  26.853  1.00  0.00     0.049 A 
ATOM     57  C   UNL A   1      43.425  29.681  28.052  1.00  0.00     0.074 A 
ATOM     58  C   UNL A   1      49.605  30.692  27.055  1.00  0.00     0.029 A 
ATOM     59  N   UNL A   1      47.582  29.787  27.227  1.00  0.00    -0.354 N 
ATOM     60  N   UNL A   1      44.709  29.798  27.812  1.00  0.00    -0.248 NA
ATOM     61  C   UNL A   1      42.807  30.879  28.636  1.00  0.00     0.031 C 
ATOM     62  C   UNL A   1      48.741  31.644  27.606  1.00  0.00     0.029 A 
ATOM     63  C   UNL A   1      47.473  31.089  27.686  1.00  0.00     0.049 A 
ATOM     64  H   UNL A   1      46.839  29.142  27.175  1.00  0.00     0.167 HD
ATOM     65  C   UNL A   1      45.045  31.092  28.188  1.00  0.00     0.074 A 
ATOM     66  C   UNL A   1      43.829  31.723  28.655  1.00  0.00     0.031 C 
ATOM     67  C   UNL A   1      46.255  31.703  28.147  1.00  0.00     0.031 A 
BRANCH  54  68
ATOM     68  C   UNL A   1      50.831  28.107  26.068  1.00  0.00    -0.014 A 
ATOM     69  C   UNL A   1      51.382  28.534  24.848  1.00  0.00     0.009 A 
ATOM     70  C   UNL A   1      51.683  27.562  27.040  1.00  0.00     0.009 A 
ATOM     71  C   UNL A   1      52.747  28.382  24.595  1.00  0.00     0.001 A 
ATOM     72  C   UNL A   1      53.053  27.440  26.798  1.00  0.00     0.001 A 
ATOM     73  C   UNL A   1      53.582  27.840  25.572  1.00  0.00     0.000 A 
ENDBRANCH  54  68
BRANCH  55  74
ATOM     74  C   UNL A   1      41.071  28.582  28.132  1.00  0.00    -0.014 A 
ATOM     75  C   UNL A   1      40.597  28.117  29.369  1.00  0.00     0.009 A 
ATOM     76  C   UNL A   1      40.153  29.112  27.212  1.00  0.00     0.009 A 
ATOM     77  C   UNL A   1      39.233  28.157  29.665  1.00  0.00     0.001 A 
ATOM     78  C   UNL A   1      38.794  29.179  27.522  1.00  0.00     0.001 A 
ATOM     79  C   UNL A   1      38.334  28.692  28.744  1.00  0.00     0.000 A 
ENDBRANCH  55  74
BRANCH  67  80
ATOM     80  C   UNL A   1      46.314  33.140  28.583  1.00  0.00    -0.014 A 
ATOM     81  C   UNL A   1      46.179  34.191  27.663  1.00  0.00     0.009 A 
ATOM     82  C   UNL A   1      46.469  33.444  29.945  1.00  0.00     0.009 A 
ATOM     83  C   UNL A   1      46.232  35.518  28.094  1.00  0.00     0.001 A 
ATOM     84  C   UNL A   1      46.490  34.771  30.377  1.00  0.00     0.001 A 
ATOM     85  C   UNL A   1      46.382  35.806  29.451  1.00  0.00     0.000 A 
ENDBRANCH  67  80
ENDBRANCH  41  42
ENDBRANCH  33  36
ENDBRANCH  31  32
ENDBRANCH  30  31
ENDBRANCH   1  30
TORSDOF 16
ENDMDL
MODEL 2
REMARK VINA RESULT:     -10.9      5.365     10.581
REMARK SMILES CCOc1cc2nccc(Nc3ccc(C(=O)NCCCNC(=O)c4ccc(-c5c6nc(c(-c7ccccc7)c7ccc([nH]7)c(-c7ccccc7)c7nc(c(-c8ccccc8)c8ccc5[nH]8)C=C7)C=C6)cc4)cc3)c2cc1OCC
REMARK SMILES IDX 19 1 18 2 16 3 17 4 15 6 12 7 13 8 74 9 14 10 73 11 11 12
REMARK SMILES IDX 10 14 4 15 5 16 77 17 6 18 76 19 7 20 75 21 8 22 9 23 3 24
REMARK SMILES IDX 2 25 1 26 78 27 79 28 80 29 20 30 21 31 22 32 23 33 24 35
REMARK SMILES IDX 25 36 26 37 72 38 27 39 71 40 28 41 29 42 30 43 65 44 31 45
REMARK SMILES IDX 70 46 64 47 66 48 32 49 69 50 63 51 62 52 33 54 55 55 40 56
REMARK SMILES IDX 54 57 41 58 44 59 53 60 67 61 42 62 43 63 52 65 68 66 45 67
REMARK SMILES IDX 34 68 35 69 39 70 36 71 38 72 37 73 56 74 57 75 61 76 58 77
REMARK SMILES IDX 60 78 59 79 46 80 47 81 51 82 48 83 50 84 49 85
REMARK H PARENT 18 5 11 13 22 34 66 53 44 64
REMARK Flexibility Score: inf
ROOT
ATOM      1  C   UNL A   1      31.488  30.325  25.815  1.00  0.00     0.118 C 
ENDROOT
BRANCH   1   2
ATOM      2  N   UNL A   1      30.807  30.146  24.548  1.00  0.00    -0.352 N 
ATOM      3  C   UNL A   1      30.697  29.063  23.717  1.00  0.00     0.251 C 
ATOM      4  O   UNL A   1      30.050  29.199  22.678  1.00  0.00    -0.269 OA
ATOM      5  H   UNL A   1      30.339  30.951  24.225  1.00  0.00     0.163 HD
BRANCH   3   6
ATOM      6  C   UNL A   1      31.248  27.729  24.063  1.00  0.00     0.039 A 
ATOM      7  C   UNL A   1      32.185  25.107  24.482  1.00  0.00     0.038 A 
ATOM      8  C   UNL A   1      32.328  25.723  23.235  1.00  0.00     0.027 A 
ATOM      9  C   UNL A   1      31.617  25.830  25.530  1.00  0.00     0.027 A 
ATOM     10  C   UNL A   1      31.856  27.018  23.023  1.00  0.00     0.016 A 
ATOM     11  C   UNL A   1      31.196  27.149  25.334  1.00  0.00     0.016 A 
BRANCH   7  12
ATOM     12  N   UNL A   1      32.584  23.776  24.623  1.00  0.00    -0.355 N 
ATOM     13  H   UNL A   1      31.854  23.125  24.510  1.00  0.00     0.167 HD
BRANCH  12  14
ATOM     14  C   UNL A   1      33.840  23.188  24.899  1.00  0.00     0.050 A 
ATOM     15  C   UNL A   1      34.283  19.006  24.524  1.00  0.00     0.163 A 
ATOM     16  C   UNL A   1      35.318  19.795  25.051  1.00  0.00     0.079 A 
ATOM     17  C   UNL A   1      33.138  19.623  24.029  1.00  0.00     0.161 A 
ATOM     18  C   UNL A   1      35.211  21.188  25.137  1.00  0.00     0.076 A 
ATOM     19  C   UNL A   1      33.005  21.000  24.141  1.00  0.00     0.063 A 
ATOM     20  N   UNL A   1      36.226  21.915  25.640  1.00  0.00    -0.256 NA
ATOM     21  C   UNL A   1      34.009  21.795  24.718  1.00  0.00     0.028 A 
ATOM     22  C   UNL A   1      36.065  23.255  25.738  1.00  0.00     0.114 A 
ATOM     23  C   UNL A   1      34.912  23.931  25.378  1.00  0.00     0.047 A 
BRANCH  15  24
ATOM     24  O   UNL A   1      34.295  17.643  24.615  1.00  0.00    -0.490 OA
BRANCH  24  25
ATOM     25  C   UNL A   1      33.497  17.084  25.660  1.00  0.00     0.226 C 
ATOM     26  C   UNL A   1      33.456  15.577  25.430  1.00  0.00     0.049 C 
ENDBRANCH  24  25
ENDBRANCH  15  24
BRANCH  17  27
ATOM     27  O   UNL A   1      32.056  19.030  23.442  1.00  0.00    -0.490 OA
BRANCH  27  28
ATOM     28  C   UNL A   1      32.310  18.147  22.351  1.00  0.00     0.226 C 
ATOM     29  C   UNL A   1      32.077  18.762  20.976  1.00  0.00     0.049 C 
ENDBRANCH  27  28
ENDBRANCH  17  27
ENDBRANCH  12  14
ENDBRANCH   7  12
ENDBRANCH   3   6
ENDBRANCH   1   2
BRANCH   1  30
ATOM     30  C   UNL A   1      31.325  31.760  26.308  1.00  0.00     0.042 C 
BRANCH  30  31
ATOM     31  C   UNL A   1      32.522  32.241  27.123  1.00  0.00     0.118 C 
BRANCH  31  32
ATOM     32  N   UNL A   1      32.382  33.638  27.510  1.00  0.00    -0.352 N 
ATOM     33  C   UNL A   1      33.108  34.374  28.405  1.00  0.00     0.251 C 
ATOM     34  H   UNL A   1      31.655  34.126  27.060  1.00  0.00     0.163 HD
ATOM     35  O   UNL A   1      32.685  35.471  28.778  1.00  0.00    -0.269 OA
BRANCH  33  36
ATOM     36  C   UNL A   1      34.389  33.865  28.934  1.00  0.00     0.039 A 
ATOM     37  C   UNL A   1      34.377  33.073  30.085  1.00  0.00     0.014 A 
ATOM     38  C   UNL A   1      35.603  34.198  28.324  1.00  0.00     0.014 A 
ATOM     39  C   UNL A   1      35.575  32.574  30.596  1.00  0.00     0.010 A 
ATOM     40  C   UNL A   1      36.789  33.638  28.790  1.00  0.00     0.010 A 
ATOM     41  C   UNL A   1      36.788  32.827  29.934  1.00  0.00    -0.014 A 
BRANCH  41  42
ATOM     42  C   UNL A   1      38.064  32.252  30.424  1.00  0.00     0.031 A 
ATOM     43  C   UNL A   1      38.586  30.964  29.849  1.00  0.00     0.074 A 
ATOM     44  C   UNL A   1      38.721  32.861  31.430  1.00  0.00     0.049 A 
ATOM     45  N   UNL A   1      39.652  30.282  30.188  1.00  0.00    -0.248 NA
ATOM     46  C   UNL A   1      37.797  30.350  28.769  1.00  0.00     0.031 C 
ATOM     47  C   UNL A   1      38.298  34.095  32.095  1.00  0.00     0.029 A 
ATOM     48  N   UNL A   1      39.884  32.518  32.074  1.00  0.00    -0.354 N 
ATOM     49  C   UNL A   1      39.650  29.154  29.377  1.00  0.00     0.074 A 
ATOM     50  C   UNL A   1      38.454  29.217  28.565  1.00  0.00     0.031 C 
ATOM     51  C   UNL A   1      39.203  34.421  33.033  1.00  0.00     0.029 A 
ATOM     52  C   UNL A   1      40.243  33.397  33.066  1.00  0.00     0.049 A 
ATOM     53  H   UNL A   1      40.411  31.718  31.847  1.00  0.00     0.167 HD
ATOM     54  C   UNL A   1      40.570  28.163  29.301  1.00  0.00     0.031 A 
ATOM     55  C   UNL A   1      41.288  33.379  33.914  1.00  0.00     0.031 A 
ATOM     56  C   UNL A   1      41.761  28.104  30.107  1.00  0.00     0.049 A 
ATOM     57  C   UNL A   1      42.283  32.256  33.825  1.00  0.00     0.074 A 
ATOM     58  C   UNL A   1      42.782  27.171  30.069  1.00  0.00     0.029 A 
ATOM     59  N   UNL A   1      42.088  29.015  31.099  1.00  0.00    -0.354 N 
ATOM     60  N   UNL A   1      42.303  31.232  33.006  1.00  0.00    -0.248 NA
ATOM     61  C   UNL A   1      43.406  32.294  34.771  1.00  0.00     0.031 C 
ATOM     62  C   UNL A   1      43.699  27.484  31.078  1.00  0.00     0.029 A 
ATOM     63  C   UNL A   1      43.282  28.651  31.700  1.00  0.00     0.049 A 
ATOM     64  H   UNL A   1      41.551  29.805  31.341  1.00  0.00     0.167 HD
ATOM     65  C   UNL A   1      43.454  30.522  33.318  1.00  0.00     0.074 A 
ATOM     66  C   UNL A   1      44.114  31.241  34.388  1.00  0.00     0.031 C 
ATOM     67  C   UNL A   1      43.925  29.377  32.764  1.00  0.00     0.031 A 
BRANCH  54  68
ATOM     68  C   UNL A   1      40.317  27.054  28.317  1.00  0.00    -0.014 A 
ATOM     69  C   UNL A   1      40.845  27.098  27.016  1.00  0.00     0.009 A 
ATOM     70  C   UNL A   1      39.568  25.932  28.705  1.00  0.00     0.009 A 
ATOM     71  C   UNL A   1      40.596  26.060  26.115  1.00  0.00     0.001 A 
ATOM     72  C   UNL A   1      39.348  24.881  27.813  1.00  0.00     0.001 A 
ATOM     73  C   UNL A   1      39.852  24.951  26.516  1.00  0.00     0.000 A 
ENDBRANCH  54  68
BRANCH  55  74
ATOM     74  C   UNL A   1      41.455  34.466  34.914  1.00  0.00    -0.014 A 
ATOM     75  C   UNL A   1      42.191  35.618  34.598  1.00  0.00     0.009 A 
ATOM     76  C   UNL A   1      40.883  34.357  36.192  1.00  0.00     0.009 A 
ATOM     77  C   UNL A   1      42.375  36.624  35.549  1.00  0.00     0.001 A 
ATOM     78  C   UNL A   1      41.042  35.378  37.130  1.00  0.00     0.001 A 
ATOM     79  C   UNL A   1      41.797  36.506  36.811  1.00  0.00     0.000 A 
ENDBRANCH  55  74
BRANCH  67  80
ATOM     80  C   UNL A   1      45.236  28.853  33.280  1.00  0.00    -0.014 A 
ATOM     81  C   UNL A   1      46.457  29.254  32.718  1.00  0.00     0.009 A 
ATOM     82  C   UNL A   1      45.246  27.972  34.373  1.00  0.00     0.009 A 
ATOM     83  C   UNL A   1      47.662  28.756  33.218  1.00  0.00     0.001 A 
ATOM     84  C   UNL A   1      46.453  27.500  34.892  1.00  0.00     0.001 A 
ATOM     85  C   UNL A   1      47.658  27.884  34.308  1.00  0.00     0.000 A 
ENDBRANCH  67  80
ENDBRANCH  41  42
ENDBRANCH  33  36
ENDBRANCH  31  32
ENDBRANCH  30  31
ENDBRANCH   1  30
TORSDOF 16
ENDMDL
MODEL 3
REMARK VINA RESULT:     -10.9      4.014      8.416
REMARK SMILES CCOc1cc2nccc(Nc3ccc(C(=O)NCCCNC(=O)c4ccc(-c5c6nc(c(-c7ccccc7)c7ccc([nH]7)c(-c7ccccc7)c7nc(c(-c8ccccc8)c8ccc5[nH]8)C=C7)C=C6)cc4)cc3)c2cc1OCC
REMARK SMILES IDX 19 1 18 2 16 3 17 4 15 6 12 7 13 8 74 9 14 10 73 11 11 12
REMARK SMILES IDX 10 14 4 15 5 16 77 17 6 18 76 19 7 20 75 21 8 22 9 23 3 24
REMARK SMILES IDX 2 25 1 26 78 27 79 28 80 29 20 30 21 31 22 32 23 33 24 35
REMARK SMILES IDX 25 36 26 37 72 38 27 39 71 40 28 41 29 42 30 43 65 44 31 45
REMARK SMILES IDX 70 46 64 47 66 48 32 49 69 50 63 51 62 52 33 54 55 55 40 56
REMARK SMILES IDX 54 57 41 58 44 59 53 60 67 61 42 62 43 63 52 65 68 66 45 67
REMARK SMILES IDX 34 68 35 69 39 70 36 71 38 72 37 73 56 74 57 75 61 76 58 77
REMARK SMILES IDX 60 78 59 79 46 80 47 81 51 82 48 83 50 84 49 85
REMARK H PARENT 18 5 11 13 22 34 66 53 44 64
REMARK Flexibility Score: inf
ROOT
ATOM      1  C   UNL A   1      42.897  20.864  25.824  1.00  0.00     0.118 C 
ENDROOT
BRANCH   1   2
ATOM      2  N   UNL A   1      44.257  20.414  25.601  1.00  0.00    -0.352 N 
ATOM      3  C   UNL A   1      45.436  21.101  25.482  1.00  0.00     0.251 C 
ATOM      4  O   UNL A   1      46.462  20.451  25.283  1.00  0.00    -0.269 OA
ATOM      5  H   UNL A   1      44.350  19.437  25.517  1.00  0.00     0.163 HD
BRANCH   3   6
ATOM      6  C   UNL A   1      45.529  22.571  25.669  1.00  0.00     0.039 A 
ATOM      7  C   UNL A   1      45.481  25.338  26.189  1.00  0.00     0.038 A 
ATOM      8  C   UNL A   1      45.314  24.416  27.226  1.00  0.00     0.027 A 
ATOM      9  C   UNL A   1      45.723  24.865  24.900  1.00  0.00     0.027 A 
ATOM     10  C   UNL A   1      45.327  23.045  26.970  1.00  0.00     0.016 A 
ATOM     11  C   UNL A   1      45.796  23.490  24.651  1.00  0.00     0.016 A 
BRANCH   7  12
ATOM     12  N   UNL A   1      45.364  26.700  26.475  1.00  0.00    -0.355 N 
ATOM     13  H   UNL A   1      46.149  27.083  26.927  1.00  0.00     0.167 HD
BRANCH  12  14
ATOM     14  C   UNL A   1      44.327  27.631  26.237  1.00  0.00     0.050 A 
ATOM     15  C   UNL A   1      44.500  31.421  28.092  1.00  0.00     0.163 A 
ATOM     16  C   UNL A   1      43.367  31.027  27.363  1.00  0.00     0.079 A 
ATOM     17  C   UNL A   1      45.617  30.590  28.119  1.00  0.00     0.161 A 
ATOM     18  C   UNL A   1      43.309  29.797  26.699  1.00  0.00     0.076 A 
ATOM     19  C   UNL A   1      45.560  29.353  27.493  1.00  0.00     0.063 A 
ATOM     20  N   UNL A   1      42.210  29.454  26.002  1.00  0.00    -0.256 NA
ATOM     21  C   UNL A   1      44.410  28.923  26.809  1.00  0.00     0.028 A 
ATOM     22  C   UNL A   1      42.183  28.240  25.406  1.00  0.00     0.114 A 
ATOM     23  C   UNL A   1      43.204  27.309  25.484  1.00  0.00     0.047 A 
BRANCH  15  24
ATOM     24  O   UNL A   1      44.494  32.523  28.899  1.00  0.00    -0.490 OA
BRANCH  24  25
ATOM     25  C   UNL A   1      44.500  33.784  28.228  1.00  0.00     0.226 C 
ATOM     26  C   UNL A   1      43.169  34.459  28.540  1.00  0.00     0.049 C 
ENDBRANCH  24  25
ENDBRANCH  15  24
BRANCH  17  27
ATOM     27  O   UNL A   1      46.817  30.823  28.729  1.00  0.00    -0.490 OA
BRANCH  27  28
ATOM     28  C   UNL A   1      47.911  31.197  27.893  1.00  0.00     0.226 C 
ATOM     29  C   UNL A   1      47.608  32.346  26.938  1.00  0.00     0.049 C 
ENDBRANCH  27  28
ENDBRANCH  17  27
ENDBRANCH  12  14
ENDBRANCH   7  12
ENDBRANCH   3   6
ENDBRANCH   1   2
BRANCH   1  30
ATOM     30  C   UNL A   1      42.325  20.218  27.084  1.00  0.00     0.042 C 
BRANCH  30  31
ATOM     31  C   UNL A   1      41.119  20.972  27.634  1.00  0.00     0.118 C 
BRANCH  31  32
ATOM     32  N   UNL A   1      40.156  21.284  26.586  1.00  0.00    -0.352 N 
ATOM     33  C   UNL A   1      39.459  22.438  26.355  1.00  0.00     0.251 C 
ATOM     34  H   UNL A   1      39.980  20.554  25.949  1.00  0.00     0.163 HD
ATOM     35  O   UNL A   1      38.510  22.429  25.567  1.00  0.00    -0.269 OA
BRANCH  33  36
ATOM     36  C   UNL A   1      39.827  23.690  27.044  1.00  0.00     0.039 A 
ATOM     37  C   UNL A   1      41.060  24.281  26.759  1.00  0.00     0.014 A 
ATOM     38  C   UNL A   1      38.978  24.263  27.997  1.00  0.00     0.014 A 
ATOM     39  C   UNL A   1      41.422  25.470  27.392  1.00  0.00     0.010 A 
ATOM     40  C   UNL A   1      39.306  25.488  28.571  1.00  0.00     0.010 A 
ATOM     41  C   UNL A   1      40.535  26.099  28.280  1.00  0.00    -0.014 A 
BRANCH  41  42
ATOM     42  C   UNL A   1      40.874  27.397  28.913  1.00  0.00     0.031 A 
ATOM     43  C   UNL A   1      42.215  27.598  29.561  1.00  0.00     0.074 A 
ATOM     44  C   UNL A   1      39.947  28.374  28.954  1.00  0.00     0.049 A 
ATOM     45  N   UNL A   1      42.669  28.641  30.210  1.00  0.00    -0.248 NA
ATOM     46  C   UNL A   1      43.162  26.474  29.492  1.00  0.00     0.031 C 
ATOM     47  C   UNL A   1      38.598  28.288  28.392  1.00  0.00     0.029 A 
ATOM     48  N   UNL A   1      40.000  29.632  29.501  1.00  0.00    -0.354 N 
ATOM     49  C   UNL A   1      43.944  28.292  30.640  1.00  0.00     0.074 A 
ATOM     50  C   UNL A   1      44.172  26.926  30.222  1.00  0.00     0.031 C 
ATOM     51  C   UNL A   1      37.961  29.453  28.598  1.00  0.00     0.029 A 
ATOM     52  C   UNL A   1      38.839  30.349  29.344  1.00  0.00     0.049 A 
ATOM     53  H   UNL A   1      40.794  29.987  29.961  1.00  0.00     0.167 HD
ATOM     54  C   UNL A   1      44.849  29.046  31.307  1.00  0.00     0.031 A 
ATOM     55  C   UNL A   1      38.513  31.586  29.762  1.00  0.00     0.031 A 
ATOM     56  C   UNL A   1      44.622  30.406  31.718  1.00  0.00     0.049 A 
ATOM     57  C   UNL A   1      39.528  32.395  30.520  1.00  0.00     0.074 A 
ATOM     58  C   UNL A   1      45.495  31.272  32.352  1.00  0.00     0.029 A 
ATOM     59  N   UNL A   1      43.433  31.096  31.539  1.00  0.00    -0.354 N 
ATOM     60  N   UNL A   1      40.754  32.074  30.859  1.00  0.00    -0.248 NA
ATOM     61  C   UNL A   1      39.118  33.741  30.941  1.00  0.00     0.031 C 
ATOM     62  C   UNL A   1      44.815  32.468  32.608  1.00  0.00     0.029 A 
ATOM     63  C   UNL A   1      43.539  32.368  32.075  1.00  0.00     0.049 A 
ATOM     64  H   UNL A   1      42.631  30.734  31.096  1.00  0.00     0.167 HD
ATOM     65  C   UNL A   1      41.270  33.188  31.507  1.00  0.00     0.074 A 
ATOM     66  C   UNL A   1      40.231  34.197  31.497  1.00  0.00     0.031 C 
ATOM     67  C   UNL A   1      42.496  33.360  32.058  1.00  0.00     0.031 A 
BRANCH  54  68
ATOM     68  C   UNL A   1      46.170  28.409  31.643  1.00  0.00    -0.014 A 
ATOM     69  C   UNL A   1      47.245  28.437  30.739  1.00  0.00     0.009 A 
ATOM     70  C   UNL A   1      46.355  27.801  32.895  1.00  0.00     0.009 A 
ATOM     71  C   UNL A   1      48.463  27.837  31.068  1.00  0.00     0.001 A 
ATOM     72  C   UNL A   1      47.583  27.230  33.233  1.00  0.00     0.001 A 
ATOM     73  C   UNL A   1      48.632  27.239  32.316  1.00  0.00     0.000 A 
ENDBRANCH  54  68
BRANCH  55  74
ATOM     74  C   UNL A   1      37.168  32.144  29.460  1.00  0.00    -0.014 A 
ATOM     75  C   UNL A   1      36.095  31.934  30.340  1.00  0.00     0.009 A 
ATOM     76  C   UNL A   1      36.948  32.885  28.288  1.00  0.00     0.009 A 
ATOM     77  C   UNL A   1      34.825  32.430  30.039  1.00  0.00     0.001 A 
ATOM     78  C   UNL A   1      35.684  33.406  28.005  1.00  0.00     0.001 A 
ATOM     79  C   UNL A   1      34.622  33.169  28.876  1.00  0.00     0.000 A 
ENDBRANCH  55  74
BRANCH  67  80
ATOM     80  C   UNL A   1      42.796  34.704  32.661  1.00  0.00    -0.014 A 
ATOM     81  C   UNL A   1      42.460  35.002  33.991  1.00  0.00     0.009 A 
ATOM     82  C   UNL A   1      43.461  35.674  31.894  1.00  0.00     0.009 A 
ATOM     83  C   UNL A   1      42.753  36.256  34.529  1.00  0.00     0.001 A 
ATOM     84  C   UNL A   1      43.782  36.916  32.445  1.00  0.00     0.001 A 
ATOM     85  C   UNL A   1      43.419  37.209  33.758  1.00  0.00     0.000 A 
ENDBRANCH  67  80
ENDBRANCH  41  42
ENDBRANCH  33  36
ENDBRANCH  31  32
ENDBRANCH  30  31
ENDBRANCH   1  30
TORSDOF 16
ENDMDL
