MODEL 1
REMARK VINA RESULT:     -11.8      0.000      0.000
REMARK SMILES O=C(NCCCNC(=O)c1cc2nn[nH]n2n1)c1ccc(-c2c3nc(c(-c4ccccc4)c4ccc([nH]4)c(-c4ccccc4)c4nc(c(-c5ccccc5)c5ccc2[nH]5)C=C4)C=C3)cc1
REMARK SMILES IDX 4 1 3 2 1 3 2 4 18 6 19 7 65 8 20 9 64 10 21 11 22 12 23 13
REMARK SMILES IDX 58 14 24 15 63 16 57 17 59 18 25 19 62 20 56 21 55 22 26 24
REMARK SMILES IDX 48 25 33 26 47 27 34 28 37 29 46 30 60 31 35 32 36 33 45 35
REMARK SMILES IDX 61 36 38 37 27 38 28 39 32 40 29 41 31 42 30 43 49 44 50 45
REMARK SMILES IDX 54 46 51 47 53 48 52 49 39 50 40 51 44 52 41 53 43 54 42 55
REMARK SMILES IDX 5 56 6 57 7 58 8 59 9 61 10 62 11 63 17 64 12 65 16 66 13 67
REMARK SMILES IDX 15 68 14 69
REMARK H PARENT 3 5 59 23 37 34 7 60 15 70
REMARK Flexibility Score: inf
ROOT
ATOM      1  C   UNL A   1      37.797  34.191  29.286  1.00  0.00     0.118 C 
ENDROOT
BRANCH   1   2
ATOM      2  N   UNL A   1      38.060  34.112  30.709  1.00  0.00    -0.352 N 
ATOM      3  O   UNL A   1      38.945  33.652  32.676  1.00  0.00    -0.269 OA
ATOM      4  C   UNL A   1      38.805  33.290  31.505  1.00  0.00     0.251 C 
ATOM      5  H   UNL A   1      37.594  34.813  31.220  1.00  0.00     0.163 HD
BRANCH   4   6
ATOM      6  C   UNL A   1      39.383  31.981  31.092  1.00  0.00     0.039 A 
ATOM      7  C   UNL A   1      38.773  30.734  31.231  1.00  0.00     0.014 A 
ATOM      8  C   UNL A   1      40.688  32.034  30.566  1.00  0.00     0.014 A 
ATOM      9  C   UNL A   1      39.480  29.565  30.957  1.00  0.00     0.010 A 
ATOM     10  C   UNL A   1      41.391  30.874  30.272  1.00  0.00     0.010 A 
ATOM     11  C   UNL A   1      40.800  29.636  30.512  1.00  0.00    -0.014 A 
BRANCH  11  12
ATOM     12  C   UNL A   1      41.501  28.395  30.192  1.00  0.00     0.031 A 
ATOM     13  C   UNL A   1      42.389  27.858  31.267  1.00  0.00     0.074 A 
ATOM     14  C   UNL A   1      41.222  27.676  29.087  1.00  0.00     0.049 A 
ATOM     15  N   UNL A   1      43.627  27.487  31.186  1.00  0.00    -0.248 NA
ATOM     16  C   UNL A   1      41.829  27.775  32.627  1.00  0.00     0.031 C 
ATOM     17  C   UNL A   1      40.157  27.922  28.107  1.00  0.00     0.029 A 
ATOM     18  N   UNL A   1      41.745  26.482  28.680  1.00  0.00    -0.354 N 
ATOM     19  C   UNL A   1      43.961  26.977  32.441  1.00  0.00     0.074 A 
ATOM     20  C   UNL A   1      42.856  27.278  33.314  1.00  0.00     0.031 C 
ATOM     21  C   UNL A   1      39.956  26.800  27.382  1.00  0.00     0.029 A 
ATOM     22  C   UNL A   1      40.954  25.813  27.755  1.00  0.00     0.049 A 
ATOM     23  H   UNL A   1      42.602  26.130  29.013  1.00  0.00     0.167 HD
ATOM     24  C   UNL A   1      45.033  26.160  32.638  1.00  0.00     0.031 A 
ATOM     25  C   UNL A   1      41.056  24.513  27.382  1.00  0.00     0.031 A 
ATOM     26  C   UNL A   1      46.003  26.269  31.584  1.00  0.00     0.049 A 
ATOM     27  C   UNL A   1      42.395  24.026  27.779  1.00  0.00     0.074 A 
ATOM     28  C   UNL A   1      46.787  27.284  31.076  1.00  0.00     0.029 A 
ATOM     29  N   UNL A   1      46.049  25.262  30.652  1.00  0.00    -0.354 N 
ATOM     30  N   UNL A   1      43.503  24.423  27.227  1.00  0.00    -0.248 NA
ATOM     31  C   UNL A   1      42.537  23.388  29.077  1.00  0.00     0.031 C 
ATOM     32  C   UNL A   1      46.844  27.035  29.673  1.00  0.00     0.029 A 
ATOM     33  C   UNL A   1      46.128  25.863  29.424  1.00  0.00     0.049 A 
ATOM     34  H   UNL A   1      46.028  24.295  30.832  1.00  0.00     0.167 HD
ATOM     35  C   UNL A   1      44.414  24.486  28.270  1.00  0.00     0.074 A 
ATOM     36  C   UNL A   1      43.796  23.733  29.359  1.00  0.00     0.031 C 
ATOM     37  C   UNL A   1      45.451  25.374  28.247  1.00  0.00     0.031 A 
BRANCH  24  38
ATOM     38  C   UNL A   1      45.006  24.974  33.576  1.00  0.00    -0.014 A 
ATOM     39  C   UNL A   1      46.122  24.736  34.401  1.00  0.00     0.009 A 
ATOM     40  C   UNL A   1      44.074  23.925  33.460  1.00  0.00     0.009 A 
ATOM     41  C   UNL A   1      46.341  23.484  34.990  1.00  0.00     0.001 A 
ATOM     42  C   UNL A   1      44.267  22.689  34.082  1.00  0.00     0.001 A 
ATOM     43  C   UNL A   1      45.419  22.457  34.820  1.00  0.00     0.000 A 
ENDBRANCH  24  38
BRANCH  25  44
ATOM     44  C   UNL A   1      39.975  23.591  26.973  1.00  0.00    -0.014 A 
ATOM     45  C   UNL A   1      38.721  24.079  26.573  1.00  0.00     0.009 A 
ATOM     46  C   UNL A   1      40.260  22.237  26.727  1.00  0.00     0.009 A 
ATOM     47  C   UNL A   1      37.800  23.245  25.924  1.00  0.00     0.001 A 
ATOM     48  C   UNL A   1      39.339  21.403  26.085  1.00  0.00     0.001 A 
ATOM     49  C   UNL A   1      38.114  21.911  25.671  1.00  0.00     0.000 A 
ENDBRANCH  25  44
BRANCH  37  50
ATOM     50  C   UNL A   1      45.714  26.121  26.965  1.00  0.00    -0.014 A 
ATOM     51  C   UNL A   1      45.160  27.385  26.695  1.00  0.00     0.009 A 
ATOM     52  C   UNL A   1      46.672  25.611  26.077  1.00  0.00     0.009 A 
ATOM     53  C   UNL A   1      45.532  28.102  25.554  1.00  0.00     0.001 A 
ATOM     54  C   UNL A   1      47.060  26.337  24.948  1.00  0.00     0.001 A 
ATOM     55  C   UNL A   1      46.485  27.579  24.684  1.00  0.00     0.000 A 
ENDBRANCH  37  50
ENDBRANCH  11  12
ENDBRANCH   4   6
ENDBRANCH   1   2
BRANCH   1  56
ATOM     56  C   UNL A   1      36.876  33.099  28.741  1.00  0.00     0.042 C 
BRANCH  56  57
ATOM     57  C   UNL A   1      35.520  32.993  29.437  1.00  0.00     0.118 C 
BRANCH  57  58
ATOM     58  N   UNL A   1      34.414  33.344  28.565  1.00  0.00    -0.351 N 
ATOM     59  C   UNL A   1      33.345  34.184  28.769  1.00  0.00     0.271 C 
ATOM     60  H   UNL A   1      34.432  32.908  27.682  1.00  0.00     0.163 HD
ATOM     61  O   UNL A   1      32.441  34.172  27.935  1.00  0.00    -0.267 OA
BRANCH  59  62
ATOM     62  C   UNL A   1      33.328  35.069  29.941  1.00  0.00     0.154 A 
ATOM     63  C   UNL A   1      33.249  36.511  29.960  1.00  0.00     0.089 A 
ATOM     64  N   UNL A   1      33.325  34.562  31.202  1.00  0.00    -0.143 NA
ATOM     65  C   UNL A   1      33.230  36.823  31.289  1.00  0.00     0.199 A 
ATOM     66  N   UNL A   1      33.265  35.656  31.933  1.00  0.00    -0.135 N 
ATOM     67  N   UNL A   1      33.171  37.828  32.191  1.00  0.00    -0.109 NA
ATOM     68  N   UNL A   1      33.257  35.936  33.220  1.00  0.00    -0.177 N 
ATOM     69  N   UNL A   1      33.135  37.307  33.361  1.00  0.00    -0.050 NA
ATOM     70  H   UNL A   1      33.325  35.283  33.955  1.00  0.00     0.216 HD
ENDBRANCH  59  62
ENDBRANCH  57  58
ENDBRANCH  56  57
ENDBRANCH   1  56
TORSDOF 10
ENDMDL
MODEL 2
REMARK VINA RESULT:     -11.8      4.213     12.172
REMARK SMILES O=C(NCCCNC(=O)c1cc2nn[nH]n2n1)c1ccc(-c2c3nc(c(-c4ccccc4)c4ccc([nH]4)c(-c4ccccc4)c4nc(c(-c5ccccc5)c5ccc2[nH]5)C=C4)C=C3)cc1
REMARK SMILES IDX 4 1 3 2 1 3 2 4 18 6 19 7 65 8 20 9 64 10 21 11 22 12 23 13
REMARK SMILES IDX 58 14 24 15 63 16 57 17 59 18 25 19 62 20 56 21 55 22 26 24
REMARK SMILES IDX 48 25 33 26 47 27 34 28 37 29 46 30 60 31 35 32 36 33 45 35
REMARK SMILES IDX 61 36 38 37 27 38 28 39 32 40 29 41 31 42 30 43 49 44 50 45
REMARK SMILES IDX 54 46 51 47 53 48 52 49 39 50 40 51 44 52 41 53 43 54 42 55
REMARK SMILES IDX 5 56 6 57 7 58 8 59 9 61 10 62 11 63 17 64 12 65 16 66 13 67
REMARK SMILES IDX 15 68 14 69
REMARK H PARENT 3 5 59 23 37 34 7 60 15 70
REMARK Flexibility Score: inf
ROOT
ATOM      1  C   UNL A   1      42.586  22.857  28.735  1.00  0.00     0.118 C 
ENDROOT
BRANCH   1   2
ATOM      2  N   UNL A   1      43.929  23.346  28.502  1.00  0.00    -0.352 N 
ATOM      3  O   UNL A   1      45.794  24.523  28.556  1.00  0.00    -0.269 OA
ATOM      4  C   UNL A   1      44.569  24.536  28.703  1.00  0.00     0.251 C 
ATOM      5  H   UNL A   1      44.517  22.663  28.105  1.00  0.00     0.163 HD
BRANCH   4   6
ATOM      6  C   UNL A   1      43.902  25.833  29.005  1.00  0.00     0.039 A 
ATOM      7  C   UNL A   1      43.802  26.432  30.262  1.00  0.00     0.014 A 
ATOM      8  C   UNL A   1      43.278  26.461  27.911  1.00  0.00     0.014 A 
ATOM      9  C   UNL A   1      43.012  27.565  30.445  1.00  0.00     0.010 A 
ATOM     10  C   UNL A   1      42.506  27.602  28.083  1.00  0.00     0.010 A 
ATOM     11  C   UNL A   1      42.337  28.127  29.362  1.00  0.00    -0.014 A 
BRANCH  11  12
ATOM     12  C   UNL A   1      41.552  29.340  29.577  1.00  0.00     0.031 A 
ATOM     13  C   UNL A   1      42.299  30.627  29.445  1.00  0.00     0.074 A 
ATOM     14  C   UNL A   1      40.209  29.316  29.694  1.00  0.00     0.049 A 
ATOM     15  N   UNL A   1      42.343  31.627  30.266  1.00  0.00    -0.248 NA
ATOM     16  C   UNL A   1      43.151  30.794  28.255  1.00  0.00     0.031 C 
ATOM     17  C   UNL A   1      39.320  28.160  29.530  1.00  0.00     0.029 A 
ATOM     18  N   UNL A   1      39.338  30.356  29.842  1.00  0.00    -0.354 N 
ATOM     19  C   UNL A   1      43.100  32.615  29.634  1.00  0.00     0.074 A 
ATOM     20  C   UNL A   1      43.660  32.009  28.453  1.00  0.00     0.031 C 
ATOM     21  C   UNL A   1      38.056  28.597  29.342  1.00  0.00     0.029 A 
ATOM     22  C   UNL A   1      38.029  30.041  29.499  1.00  0.00     0.049 A 
ATOM     23  H   UNL A   1      39.612  31.245  30.162  1.00  0.00     0.167 HD
ATOM     24  C   UNL A   1      43.056  33.923  30.008  1.00  0.00     0.031 A 
ATOM     25  C   UNL A   1      37.012  30.909  29.275  1.00  0.00     0.031 A 
ATOM     26  C   UNL A   1      42.560  34.092  31.346  1.00  0.00     0.049 A 
ATOM     27  C   UNL A   1      37.383  32.213  29.866  1.00  0.00     0.074 A 
ATOM     28  C   UNL A   1      42.965  33.680  32.599  1.00  0.00     0.029 A 
ATOM     29  N   UNL A   1      41.269  34.530  31.498  1.00  0.00    -0.354 N 
ATOM     30  N   UNL A   1      37.478  32.427  31.145  1.00  0.00    -0.248 NA
ATOM     31  C   UNL A   1      38.049  33.188  29.017  1.00  0.00     0.031 C 
ATOM     32  C   UNL A   1      41.755  33.427  33.310  1.00  0.00     0.029 A 
ATOM     33  C   UNL A   1      40.694  33.742  32.458  1.00  0.00     0.049 A 
ATOM     34  H   UNL A   1      40.839  35.269  31.011  1.00  0.00     0.167 HD
ATOM     35  C   UNL A   1      38.556  33.289  31.279  1.00  0.00     0.074 A 
ATOM     36  C   UNL A   1      38.795  33.809  29.934  1.00  0.00     0.031 C 
ATOM     37  C   UNL A   1      39.326  33.284  32.407  1.00  0.00     0.031 A 
BRANCH  24  38
ATOM     38  C   UNL A   1      43.081  35.066  29.018  1.00  0.00    -0.014 A 
ATOM     39  C   UNL A   1      43.987  36.124  29.224  1.00  0.00     0.009 A 
ATOM     40  C   UNL A   1      42.055  35.292  28.080  1.00  0.00     0.009 A 
ATOM     41  C   UNL A   1      43.814  37.367  28.605  1.00  0.00     0.001 A 
ATOM     42  C   UNL A   1      41.904  36.517  27.426  1.00  0.00     0.001 A 
ATOM     43  C   UNL A   1      42.763  37.567  27.714  1.00  0.00     0.000 A 
ENDBRANCH  24  38
BRANCH  25  44
ATOM     44  C   UNL A   1      35.878  30.768  28.337  1.00  0.00    -0.014 A 
ATOM     45  C   UNL A   1      35.636  29.556  27.672  1.00  0.00     0.009 A 
ATOM     46  C   UNL A   1      34.875  31.752  28.290  1.00  0.00     0.009 A 
ATOM     47  C   UNL A   1      34.421  29.328  27.012  1.00  0.00     0.001 A 
ATOM     48  C   UNL A   1      33.665  31.529  27.626  1.00  0.00     0.001 A 
ATOM     49  C   UNL A   1      33.432  30.311  26.998  1.00  0.00     0.000 A 
ENDBRANCH  25  44
BRANCH  37  50
ATOM     50  C   UNL A   1      38.843  32.486  33.590  1.00  0.00    -0.014 A 
ATOM     51  C   UNL A   1      39.150  31.125  33.765  1.00  0.00     0.009 A 
ATOM     52  C   UNL A   1      38.197  33.162  34.635  1.00  0.00     0.009 A 
ATOM     53  C   UNL A   1      38.794  30.455  34.939  1.00  0.00     0.001 A 
ATOM     54  C   UNL A   1      37.860  32.498  35.817  1.00  0.00     0.001 A 
ATOM     55  C   UNL A   1      38.153  31.143  35.966  1.00  0.00     0.000 A 
ENDBRANCH  37  50
ENDBRANCH  11  12
ENDBRANCH   4   6
ENDBRANCH   1   2
BRANCH   1  56
ATOM     56  C   UNL A   1      41.586  23.164  27.619  1.00  0.00     0.042 C 
BRANCH  56  57
ATOM     57  C   UNL A   1      41.894  22.501  26.278  1.00  0.00     0.118 C 
BRANCH  57  58
ATOM     58  N   UNL A   1      42.660  23.359  25.393  1.00  0.00    -0.351 N 
ATOM     59  C   UNL A   1      43.898  23.179  24.821  1.00  0.00     0.271 C 
ATOM     60  H   UNL A   1      42.222  24.211  25.165  1.00  0.00     0.163 HD
ATOM     61  O   UNL A   1      44.410  24.142  24.251  1.00  0.00    -0.267 OA
BRANCH  59  62
ATOM     62  C   UNL A   1      44.547  21.863  24.890  1.00  0.00     0.154 A 
ATOM     63  C   UNL A   1      45.904  21.566  25.284  1.00  0.00     0.089 A 
ATOM     64  N   UNL A   1      43.854  20.724  24.625  1.00  0.00    -0.143 NA
ATOM     65  C   UNL A   1      45.979  20.205  25.208  1.00  0.00     0.199 A 
ATOM     66  N   UNL A   1      44.766  19.798  24.835  1.00  0.00    -0.135 N 
ATOM     67  N   UNL A   1      46.779  19.128  25.376  1.00  0.00    -0.109 NA
ATOM     68  N   UNL A   1      44.820  18.485  24.747  1.00  0.00    -0.177 N 
ATOM     69  N   UNL A   1      46.079  18.078  25.151  1.00  0.00    -0.050 NA
ATOM     70  H   UNL A   1      44.091  17.894  24.446  1.00  0.00     0.216 HD
ENDBRANCH  59  62
ENDBRANCH  57  58
ENDBRANCH  56  57
ENDBRANCH   1  56
TORSDOF 10
ENDMDL
MODEL 3
REMARK VINA RESULT:     -11.6      2.100      3.203
REMARK SMILES O=C(NCCCNC(=O)c1cc2nn[nH]n2n1)c1ccc(-c2c3nc(c(-c4ccccc4)c4ccc([nH]4)c(-c4ccccc4)c4nc(c(-c5ccccc5)c5ccc2[nH]5)C=C4)C=C3)cc1
REMARK SMILES IDX 4 1 3 2 1 3 2 4 18 6 19 7 65 8 20 9 64 10 21 11 22 12 23 13
REMARK SMILES IDX 58 14 24 15 63 16 57 17 59 18 25 19 62 20 56 21 55 22 26 24
REMARK SMILES IDX 48 25 33 26 47 27 34 28 37 29 46 30 60 31 35 32 36 33 45 35
REMARK SMILES IDX 61 36 38 37 27 38 28 39 32 40 29 41 31 42 30 43 49 44 50 45
REMARK SMILES IDX 54 46 51 47 53 48 52 49 39 50 40 51 44 52 41 53 43 54 42 55
REMARK SMILES IDX 5 56 6 57 7 58 8 59 9 61 10 62 11 63 17 64 12 65 16 66 13 67
REMARK SMILES IDX 15 68 14 69
REMARK H PARENT 3 5 59 23 37 34 7 60 15 70
REMARK Flexibility Score: inf
ROOT
ATOM      1  C   UNL A   1      34.956  31.965  31.079  1.00  0.00     0.118 C 
ENDROOT
BRANCH   1   2
ATOM      2  N   UNL A   1      35.172  32.426  29.723  1.00  0.00    -0.352 N 
ATOM      3  O   UNL A   1      35.720  32.547  27.590  1.00  0.00    -0.269 OA
ATOM      4  C   UNL A   1      35.946  32.009  28.677  1.00  0.00     0.251 C 
ATOM      5  H   UNL A   1      34.638  33.224  29.505  1.00  0.00     0.163 HD
BRANCH   4   6
ATOM      6  C   UNL A   1      37.066  31.032  28.769  1.00  0.00     0.039 A 
ATOM      7  C   UNL A   1      36.967  29.651  28.602  1.00  0.00     0.014 A 
ATOM      8  C   UNL A   1      38.318  31.578  29.110  1.00  0.00     0.014 A 
ATOM      9  C   UNL A   1      38.055  28.824  28.873  1.00  0.00     0.010 A 
ATOM     10  C   UNL A   1      39.412  30.762  29.362  1.00  0.00     0.010 A 
ATOM     11  C   UNL A   1      39.265  29.379  29.287  1.00  0.00    -0.014 A 
BRANCH  11  12
ATOM     12  C   UNL A   1      40.401  28.490  29.523  1.00  0.00     0.031 A 
ATOM     13  C   UNL A   1      40.874  28.405  30.938  1.00  0.00     0.074 A 
ATOM     14  C   UNL A   1      40.868  27.653  28.575  1.00  0.00     0.049 A 
ATOM     15  N   UNL A   1      42.076  28.540  31.400  1.00  0.00    -0.248 NA
ATOM     16  C   UNL A   1      39.854  28.193  31.980  1.00  0.00     0.031 C 
ATOM     17  C   UNL A   1      40.301  27.408  27.244  1.00  0.00     0.029 A 
ATOM     18  N   UNL A   1      41.873  26.734  28.656  1.00  0.00    -0.354 N 
ATOM     19  C   UNL A   1      41.996  28.275  32.769  1.00  0.00     0.074 A 
ATOM     20  C   UNL A   1      40.595  28.177  33.086  1.00  0.00     0.031 C 
ATOM     21  C   UNL A   1      40.806  26.254  26.754  1.00  0.00     0.029 A 
ATOM     22  C   UNL A   1      41.816  25.756  27.672  1.00  0.00     0.049 A 
ATOM     23  H   UNL A   1      42.573  26.762  29.348  1.00  0.00     0.167 HD
ATOM     24  C   UNL A   1      43.086  27.952  33.517  1.00  0.00     0.031 A 
ATOM     25  C   UNL A   1      42.487  24.578  27.651  1.00  0.00     0.031 A 
ATOM     26  C   UNL A   1      44.315  28.364  32.897  1.00  0.00     0.049 A 
ATOM     27  C   UNL A   1      43.610  24.672  28.608  1.00  0.00     0.074 A 
ATOM     28  C   UNL A   1      44.859  29.571  32.509  1.00  0.00     0.029 A 
ATOM     29  N   UNL A   1      45.078  27.400  32.287  1.00  0.00    -0.354 N 
ATOM     30  N   UNL A   1      44.649  25.434  28.431  1.00  0.00    -0.248 NA
ATOM     31  C   UNL A   1      43.392  24.219  29.971  1.00  0.00     0.031 C 
ATOM     32  C   UNL A   1      45.581  29.280  31.314  1.00  0.00     0.029 A 
ATOM     33  C   UNL A   1      45.467  27.909  31.077  1.00  0.00     0.049 A 
ATOM     34  H   UNL A   1      45.303  26.513  32.650  1.00  0.00     0.167 HD
ATOM     35  C   UNL A   1      44.958  25.908  29.697  1.00  0.00     0.074 A 
ATOM     36  C   UNL A   1      44.223  25.042  30.616  1.00  0.00     0.031 C 
ATOM     37  C   UNL A   1      45.552  27.126  29.868  1.00  0.00     0.031 A 
BRANCH  24  38
ATOM     38  C   UNL A   1      43.057  26.907  34.610  1.00  0.00    -0.014 A 
ATOM     39  C   UNL A   1      43.131  25.548  34.251  1.00  0.00     0.009 A 
ATOM     40  C   UNL A   1      42.657  27.188  35.930  1.00  0.00     0.009 A 
ATOM     41  C   UNL A   1      42.728  24.536  35.132  1.00  0.00     0.001 A 
ATOM     42  C   UNL A   1      42.295  26.179  36.827  1.00  0.00     0.001 A 
ATOM     43  C   UNL A   1      42.297  24.854  36.416  1.00  0.00     0.000 A 
ENDBRANCH  24  38
BRANCH  25  44
ATOM     44  C   UNL A   1      42.049  23.286  27.081  1.00  0.00    -0.014 A 
ATOM     45  C   UNL A   1      42.933  22.484  26.342  1.00  0.00     0.009 A 
ATOM     46  C   UNL A   1      40.828  22.716  27.482  1.00  0.00     0.009 A 
ATOM     47  C   UNL A   1      42.617  21.152  26.045  1.00  0.00     0.001 A 
ATOM     48  C   UNL A   1      40.509  21.388  27.181  1.00  0.00     0.001 A 
ATOM     49  C   UNL A   1      41.410  20.601  26.474  1.00  0.00     0.000 A 
ENDBRANCH  25  44
BRANCH  37  50
ATOM     50  C   UNL A   1      46.070  27.838  28.645  1.00  0.00    -0.014 A 
ATOM     51  C   UNL A   1      47.393  27.701  28.189  1.00  0.00     0.009 A 
ATOM     52  C   UNL A   1      45.159  28.539  27.841  1.00  0.00     0.009 A 
ATOM     53  C   UNL A   1      47.799  28.273  26.980  1.00  0.00     0.001 A 
ATOM     54  C   UNL A   1      45.559  29.092  26.623  1.00  0.00     0.001 A 
ATOM     55  C   UNL A   1      46.879  28.965  26.195  1.00  0.00     0.000 A 
ENDBRANCH  37  50
ENDBRANCH  11  12
ENDBRANCH   4   6
ENDBRANCH   1   2
BRANCH   1  56
ATOM     56  C   UNL A   1      36.232  31.657  31.865  1.00  0.00     0.042 C 
BRANCH  56  57
ATOM     57  C   UNL A   1      36.856  32.856  32.578  1.00  0.00     0.118 C 
BRANCH  57  58
ATOM     58  N   UNL A   1      36.363  33.020  33.933  1.00  0.00    -0.351 N 
ATOM     59  C   UNL A   1      35.505  33.952  34.466  1.00  0.00     0.271 C 
ATOM     60  H   UNL A   1      36.699  32.354  34.576  1.00  0.00     0.163 HD
ATOM     61  O   UNL A   1      35.387  33.985  35.691  1.00  0.00    -0.267 OA
BRANCH  59  62
ATOM     62  C   UNL A   1      34.755  34.847  33.575  1.00  0.00     0.154 A 
ATOM     63  C   UNL A   1      33.505  34.580  32.902  1.00  0.00     0.089 A 
ATOM     64  N   UNL A   1      35.177  36.117  33.338  1.00  0.00    -0.143 NA
ATOM     65  C   UNL A   1      33.234  35.742  32.239  1.00  0.00     0.199 A 
ATOM     66  N   UNL A   1      34.229  36.573  32.547  1.00  0.00    -0.135 N 
ATOM     67  N   UNL A   1      32.361  36.375  31.423  1.00  0.00    -0.109 NA
ATOM     68  N   UNL A   1      33.991  37.700  31.907  1.00  0.00    -0.177 N 
ATOM     69  N   UNL A   1      32.777  37.576  31.255  1.00  0.00    -0.050 NA
ATOM     70  H   UNL A   1      34.574  38.494  31.896  1.00  0.00     0.216 HD
ENDBRANCH  59  62
ENDBRANCH  57  58
ENDBRANCH  56  57
ENDBRANCH   1  56
TORSDOF 10
ENDMDL
