MODEL 1
REMARK VINA RESULT:     -11.9      0.000      0.000
REMARK SMILES Cc1ccn2c([C@H]3C[C@@H]3C(=O)NCCCNC(=O)c3ccc(-c4c5nc(c(-c6ccccc6)c6ccc([nH]6)c(-c6ccccc6)c6nc(c(-c7ccccc7)c7ccc4[nH]7)C=C6)C=C5)cc3)nnc2c1
REMARK SMILES IDX 14 1 13 2 12 3 10 4 11 5 9 7 7 8 8 9 6 10 1 11 2 12 3 13
REMARK SMILES IDX 70 14 4 15 69 16 5 17 68 18 67 19 15 20 16 21 17 22 18 24
REMARK SMILES IDX 19 25 20 26 66 27 21 28 65 29 22 30 23 31 24 32 59 33 25 34
REMARK SMILES IDX 64 35 58 36 60 37 26 38 63 39 57 40 56 41 27 43 49 44 34 45
REMARK SMILES IDX 48 46 35 47 38 48 47 49 61 50 36 51 37 52 46 54 62 55 39 56
REMARK SMILES IDX 28 57 29 58 33 59 30 60 32 61 31 62 50 63 51 64 55 65 52 66
REMARK SMILES IDX 54 67 53 68 40 69 41 70 45 71 42 72 44 73 43 74
REMARK H PARENT 12 6 16 23 60 42 38 53
REMARK Flexibility Score: inf
ROOT
ATOM      1  C   UNL A   1      36.320  21.045  25.338  1.00  0.00     0.042 C 
ENDROOT
BRANCH   1   2
ATOM      2  C   UNL A   1      35.032  21.463  26.044  1.00  0.00     0.117 C 
BRANCH   2   3
ATOM      3  N   UNL A   1      33.962  20.497  25.866  1.00  0.00    -0.356 N 
ATOM      4  C   UNL A   1      33.054  20.398  24.843  1.00  0.00     0.223 C 
ATOM      5  O   UNL A   1      32.186  19.543  24.861  1.00  0.00    -0.275 OA
ATOM      6  H   UNL A   1      33.878  19.820  26.576  1.00  0.00     0.163 HD
BRANCH   4   7
ATOM      7  C   UNL A   1      33.157  21.366  23.731  1.00  0.00     0.090 C 
ATOM      8  C   UNL A   1      32.222  22.555  23.705  1.00  0.00     0.071 C 
ATOM      9  C   UNL A   1      32.090  21.474  22.670  1.00  0.00     0.026 C 
BRANCH   8  10
ATOM     10  C   UNL A   1      32.791  23.902  23.315  1.00  0.00     0.141 A 
ATOM     11  C   UNL A   1      33.877  28.684  25.976  1.00  0.00     0.044 C 
ATOM     12  C   UNL A   1      33.609  27.383  25.281  1.00  0.00    -0.046 A 
ATOM     13  C   UNL A   1      32.972  26.330  26.076  1.00  0.00     0.022 A 
ATOM     14  C   UNL A   1      33.910  27.179  23.978  1.00  0.00     0.053 A 
ATOM     15  C   UNL A   1      32.709  25.143  25.505  1.00  0.00     0.095 A 
ATOM     16  C   UNL A   1      33.588  25.938  23.363  1.00  0.00     0.161 A 
ATOM     17  N   UNL A   1      33.026  24.956  24.163  1.00  0.00    -0.286 N 
ATOM     18  N   UNL A   1      33.661  25.506  22.123  1.00  0.00    -0.130 NA
ATOM     19  N   UNL A   1      33.115  24.239  22.085  1.00  0.00    -0.134 NA
ENDBRANCH   8  10
ENDBRANCH   4   7
ENDBRANCH   2   3
ENDBRANCH   1   2
BRANCH   1  20
ATOM     20  C   UNL A   1      37.395  22.132  25.286  1.00  0.00     0.118 C 
BRANCH  20  21
ATOM     21  N   UNL A   1      38.742  21.658  25.544  1.00  0.00    -0.352 N 
ATOM     22  C   UNL A   1      39.764  22.046  26.366  1.00  0.00     0.251 C 
ATOM     23  H   UNL A   1      38.976  20.873  24.999  1.00  0.00     0.163 HD
ATOM     24  O   UNL A   1      40.711  21.259  26.455  1.00  0.00    -0.269 OA
BRANCH  22  25
ATOM     25  C   UNL A   1      39.850  23.343  27.093  1.00  0.00     0.039 A 
ATOM     26  C   UNL A   1      38.902  24.360  27.043  1.00  0.00     0.014 A 
ATOM     27  C   UNL A   1      41.044  23.580  27.808  1.00  0.00     0.014 A 
ATOM     28  C   UNL A   1      39.180  25.607  27.599  1.00  0.00     0.010 A 
ATOM     29  C   UNL A   1      41.321  24.820  28.379  1.00  0.00     0.010 A 
ATOM     30  C   UNL A   1      40.406  25.854  28.231  1.00  0.00    -0.014 A 
BRANCH  30  31
ATOM     31  C   UNL A   1      40.636  27.208  28.728  1.00  0.00     0.031 A 
ATOM     32  C   UNL A   1      41.689  27.990  28.023  1.00  0.00     0.074 A 
ATOM     33  C   UNL A   1      39.983  27.783  29.757  1.00  0.00     0.049 A 
ATOM     34  N   UNL A   1      42.843  28.353  28.482  1.00  0.00    -0.248 NA
ATOM     35  C   UNL A   1      41.460  28.346  26.618  1.00  0.00     0.031 C 
ATOM     36  C   UNL A   1      38.761  27.354  30.438  1.00  0.00     0.029 A 
ATOM     37  N   UNL A   1      40.290  28.958  30.380  1.00  0.00    -0.354 N 
ATOM     38  C   UNL A   1      43.451  29.095  27.475  1.00  0.00     0.074 A 
ATOM     39  C   UNL A   1      42.591  28.990  26.321  1.00  0.00     0.031 C 
ATOM     40  C   UNL A   1      38.320  28.358  31.235  1.00  0.00     0.029 A 
ATOM     41  C   UNL A   1      39.314  29.418  31.246  1.00  0.00     0.049 A 
ATOM     42  H   UNL A   1      41.137  29.438  30.227  1.00  0.00     0.167 HD
ATOM     43  C   UNL A   1      44.558  29.857  27.699  1.00  0.00     0.031 A 
ATOM     44  C   UNL A   1      39.317  30.602  31.903  1.00  0.00     0.031 A 
ATOM     45  C   UNL A   1      45.222  29.501  28.924  1.00  0.00     0.049 A 
ATOM     46  C   UNL A   1      40.717  31.068  32.000  1.00  0.00     0.074 A 
ATOM     47  C   UNL A   1      45.851  28.365  29.393  1.00  0.00     0.029 A 
ATOM     48  N   UNL A   1      45.013  30.292  30.027  1.00  0.00    -0.354 N 
ATOM     49  N   UNL A   1      41.622  30.491  32.736  1.00  0.00    -0.248 NA
ATOM     50  C   UNL A   1      41.221  31.978  30.986  1.00  0.00     0.031 C 
ATOM     51  C   UNL A   1      45.540  28.318  30.783  1.00  0.00     0.029 A 
ATOM     52  C   UNL A   1      44.778  29.450  31.083  1.00  0.00     0.049 A 
ATOM     53  H   UNL A   1      45.029  31.276  30.053  1.00  0.00     0.167 HD
ATOM     54  C   UNL A   1      42.798  30.622  32.015  1.00  0.00     0.074 A 
ATOM     55  C   UNL A   1      42.514  31.646  31.014  1.00  0.00     0.031 C 
ATOM     56  C   UNL A   1      43.801  29.701  32.122  1.00  0.00     0.031 A 
BRANCH  43  57
ATOM     57  C   UNL A   1      44.884  31.127  26.955  1.00  0.00    -0.014 A 
ATOM     58  C   UNL A   1      43.919  32.097  26.629  1.00  0.00     0.009 A 
ATOM     59  C   UNL A   1      46.232  31.499  26.791  1.00  0.00     0.009 A 
ATOM     60  C   UNL A   1      44.273  33.373  26.178  1.00  0.00     0.001 A 
ATOM     61  C   UNL A   1      46.592  32.788  26.380  1.00  0.00     0.001 A 
ATOM     62  C   UNL A   1      45.610  33.726  26.077  1.00  0.00     0.000 A 
ENDBRANCH  43  57
BRANCH  44  63
ATOM     63  C   UNL A   1      38.179  31.517  32.122  1.00  0.00    -0.014 A 
ATOM     64  C   UNL A   1      37.706  31.743  33.428  1.00  0.00     0.009 A 
ATOM     65  C   UNL A   1      37.363  31.911  31.049  1.00  0.00     0.009 A 
ATOM     66  C   UNL A   1      36.440  32.291  33.654  1.00  0.00     0.001 A 
ATOM     67  C   UNL A   1      36.095  32.460  31.276  1.00  0.00     0.001 A 
ATOM     68  C   UNL A   1      35.627  32.633  32.578  1.00  0.00     0.000 A 
ENDBRANCH  44  63
BRANCH  56  69
ATOM     69  C   UNL A   1      43.717  28.669  33.225  1.00  0.00    -0.014 A 
ATOM     70  C   UNL A   1      44.532  28.831  34.358  1.00  0.00     0.009 A 
ATOM     71  C   UNL A   1      42.997  27.469  33.094  1.00  0.00     0.009 A 
ATOM     72  C   UNL A   1      44.632  27.825  35.322  1.00  0.00     0.001 A 
ATOM     73  C   UNL A   1      43.076  26.472  34.074  1.00  0.00     0.001 A 
ATOM     74  C   UNL A   1      43.902  26.647  35.181  1.00  0.00     0.000 A 
ENDBRANCH  56  69
ENDBRANCH  30  31
ENDBRANCH  22  25
ENDBRANCH  20  21
ENDBRANCH   1  20
TORSDOF 11
ENDMDL
MODEL 2
REMARK VINA RESULT:     -11.8      3.144      7.715
REMARK SMILES Cc1ccn2c([C@H]3C[C@@H]3C(=O)NCCCNC(=O)c3ccc(-c4c5nc(c(-c6ccccc6)c6ccc([nH]6)c(-c6ccccc6)c6nc(c(-c7ccccc7)c7ccc4[nH]7)C=C6)C=C5)cc3)nnc2c1
REMARK SMILES IDX 14 1 13 2 12 3 10 4 11 5 9 7 7 8 8 9 6 10 1 11 2 12 3 13
REMARK SMILES IDX 70 14 4 15 69 16 5 17 68 18 67 19 15 20 16 21 17 22 18 24
REMARK SMILES IDX 19 25 20 26 66 27 21 28 65 29 22 30 23 31 24 32 59 33 25 34
REMARK SMILES IDX 64 35 58 36 60 37 26 38 63 39 57 40 56 41 27 43 49 44 34 45
REMARK SMILES IDX 48 46 35 47 38 48 47 49 61 50 36 51 37 52 46 54 62 55 39 56
REMARK SMILES IDX 28 57 29 58 33 59 30 60 32 61 31 62 50 63 51 64 55 65 52 66
REMARK SMILES IDX 54 67 53 68 40 69 41 70 45 71 42 72 44 73 43 74
REMARK H PARENT 12 6 16 23 60 42 38 53
REMARK Flexibility Score: inf
ROOT
ATOM      1  C   UNL A   1      32.347  30.148  26.052  1.00  0.00     0.042 C 
ENDROOT
BRANCH   1   2
ATOM      2  C   UNL A   1      32.817  29.187  24.962  1.00  0.00     0.117 C 
BRANCH   2   3
ATOM      3  N   UNL A   1      32.039  29.308  23.742  1.00  0.00    -0.356 N 
ATOM      4  C   UNL A   1      30.928  28.603  23.356  1.00  0.00     0.223 C 
ATOM      5  O   UNL A   1      30.409  28.802  22.272  1.00  0.00    -0.275 OA
ATOM      6  H   UNL A   1      32.351  29.991  23.105  1.00  0.00     0.163 HD
BRANCH   4   7
ATOM      7  C   UNL A   1      30.394  27.590  24.291  1.00  0.00     0.090 C 
ATOM      8  C   UNL A   1      30.637  26.125  24.000  1.00  0.00     0.071 C 
ATOM      9  C   UNL A   1      29.246  26.687  23.912  1.00  0.00     0.026 C 
BRANCH   8  10
ATOM     10  C   UNL A   1      31.010  25.221  25.156  1.00  0.00     0.141 A 
ATOM     11  C   UNL A   1      35.265  21.808  26.328  1.00  0.00     0.044 C 
ATOM     12  C   UNL A   1      34.143  22.752  26.014  1.00  0.00    -0.046 A 
ATOM     13  C   UNL A   1      34.172  23.395  24.697  1.00  0.00     0.022 A 
ATOM     14  C   UNL A   1      33.132  22.994  26.878  1.00  0.00     0.053 A 
ATOM     15  C   UNL A   1      33.193  24.251  24.361  1.00  0.00     0.095 A 
ATOM     16  C   UNL A   1      32.072  23.865  26.503  1.00  0.00     0.161 A 
ATOM     17  N   UNL A   1      32.162  24.484  25.266  1.00  0.00    -0.286 N 
ATOM     18  N   UNL A   1      30.936  24.194  27.077  1.00  0.00    -0.130 NA
ATOM     19  N   UNL A   1      30.245  25.012  26.207  1.00  0.00    -0.134 NA
ENDBRANCH   8  10
ENDBRANCH   4   7
ENDBRANCH   2   3
ENDBRANCH   1   2
BRANCH   1  20
ATOM     20  C   UNL A   1      33.294  30.261  27.248  1.00  0.00     0.118 C 
BRANCH  20  21
ATOM     21  N   UNL A   1      33.836  31.591  27.463  1.00  0.00    -0.352 N 
ATOM     22  C   UNL A   1      35.061  32.094  27.804  1.00  0.00     0.251 C 
ATOM     23  H   UNL A   1      33.163  32.297  27.333  1.00  0.00     0.163 HD
ATOM     24  O   UNL A   1      35.191  33.316  27.694  1.00  0.00    -0.269 OA
BRANCH  22  25
ATOM     25  C   UNL A   1      36.203  31.307  28.347  1.00  0.00     0.039 A 
ATOM     26  C   UNL A   1      37.362  31.843  28.901  1.00  0.00     0.014 A 
ATOM     27  C   UNL A   1      36.125  29.906  28.192  1.00  0.00     0.014 A 
ATOM     28  C   UNL A   1      38.447  31.020  29.191  1.00  0.00     0.010 A 
ATOM     29  C   UNL A   1      37.202  29.075  28.495  1.00  0.00     0.010 A 
ATOM     30  C   UNL A   1      38.386  29.641  28.950  1.00  0.00    -0.014 A 
BRANCH  30  31
ATOM     31  C   UNL A   1      39.593  28.864  29.225  1.00  0.00     0.031 A 
ATOM     32  C   UNL A   1      39.913  28.645  30.662  1.00  0.00     0.074 A 
ATOM     33  C   UNL A   1      40.419  28.350  28.292  1.00  0.00     0.049 A 
ATOM     34  N   UNL A   1      40.899  29.144  31.336  1.00  0.00    -0.248 NA
ATOM     35  C   UNL A   1      38.987  27.834  31.459  1.00  0.00     0.031 C 
ATOM     36  C   UNL A   1      40.212  28.194  26.852  1.00  0.00     0.029 A 
ATOM     37  N   UNL A   1      41.649  27.793  28.491  1.00  0.00    -0.354 N 
ATOM     38  C   UNL A   1      40.803  28.618  32.620  1.00  0.00     0.074 A 
ATOM     39  C   UNL A   1      39.561  27.882  32.663  1.00  0.00     0.031 C 
ATOM     40  C   UNL A   1      41.186  27.399  26.345  1.00  0.00     0.029 A 
ATOM     41  C   UNL A   1      42.165  27.139  27.386  1.00  0.00     0.049 A 
ATOM     42  H   UNL A   1      42.129  27.852  29.349  1.00  0.00     0.167 HD
ATOM     43  C   UNL A   1      41.818  28.714  33.524  1.00  0.00     0.031 A 
ATOM     44  C   UNL A   1      43.308  26.413  27.345  1.00  0.00     0.031 A 
ATOM     45  C   UNL A   1      42.778  29.718  33.156  1.00  0.00     0.049 A 
ATOM     46  C   UNL A   1      44.178  26.866  28.452  1.00  0.00     0.074 A 
ATOM     47  C   UNL A   1      42.736  31.088  32.986  1.00  0.00     0.029 A 
ATOM     48  N   UNL A   1      43.950  29.307  32.568  1.00  0.00    -0.354 N 
ATOM     49  N   UNL A   1      44.749  28.035  28.491  1.00  0.00    -0.248 NA
ATOM     50  C   UNL A   1      44.131  26.150  29.714  1.00  0.00     0.031 C 
ATOM     51  C   UNL A   1      43.615  31.352  31.896  1.00  0.00     0.029 A 
ATOM     52  C   UNL A   1      44.170  30.134  31.497  1.00  0.00     0.049 A 
ATOM     53  H   UNL A   1      44.521  28.561  32.860  1.00  0.00     0.167 HD
ATOM     54  C   UNL A   1      44.745  28.384  29.832  1.00  0.00     0.074 A 
ATOM     55  C   UNL A   1      44.465  27.141  30.544  1.00  0.00     0.031 C 
ATOM     56  C   UNL A   1      44.699  29.693  30.223  1.00  0.00     0.031 A 
BRANCH  43  57
ATOM     57  C   UNL A   1      42.099  27.697  34.600  1.00  0.00    -0.014 A 
ATOM     58  C   UNL A   1      41.650  27.835  35.926  1.00  0.00     0.009 A 
ATOM     59  C   UNL A   1      42.610  26.436  34.236  1.00  0.00     0.009 A 
ATOM     60  C   UNL A   1      41.692  26.775  36.837  1.00  0.00     0.001 A 
ATOM     61  C   UNL A   1      42.614  25.360  35.132  1.00  0.00     0.001 A 
ATOM     62  C   UNL A   1      42.151  25.530  36.433  1.00  0.00     0.000 A 
ENDBRANCH  43  57
BRANCH  44  63
ATOM     63  C   UNL A   1      43.539  25.129  26.654  1.00  0.00    -0.014 A 
ATOM     64  C   UNL A   1      44.374  25.085  25.522  1.00  0.00     0.009 A 
ATOM     65  C   UNL A   1      42.704  24.026  26.900  1.00  0.00     0.009 A 
ATOM     66  C   UNL A   1      44.337  24.003  24.638  1.00  0.00     0.001 A 
ATOM     67  C   UNL A   1      42.667  22.943  26.013  1.00  0.00     0.001 A 
ATOM     68  C   UNL A   1      43.469  22.941  24.873  1.00  0.00     0.000 A 
ENDBRANCH  44  63
BRANCH  56  69
ATOM     69  C   UNL A   1      44.907  30.765  29.177  1.00  0.00    -0.014 A 
ATOM     70  C   UNL A   1      46.141  31.436  29.140  1.00  0.00     0.009 A 
ATOM     71  C   UNL A   1      43.870  31.244  28.357  1.00  0.00     0.009 A 
ATOM     72  C   UNL A   1      46.329  32.552  28.321  1.00  0.00     0.001 A 
ATOM     73  C   UNL A   1      44.067  32.344  27.516  1.00  0.00     0.001 A 
ATOM     74  C   UNL A   1      45.293  33.004  27.507  1.00  0.00     0.000 A 
ENDBRANCH  56  69
ENDBRANCH  30  31
ENDBRANCH  22  25
ENDBRANCH  20  21
ENDBRANCH   1  20
TORSDOF 11
ENDMDL
MODEL 3
REMARK VINA RESULT:     -11.8      5.075     10.129
REMARK SMILES Cc1ccn2c([C@H]3C[C@@H]3C(=O)NCCCNC(=O)c3ccc(-c4c5nc(c(-c6ccccc6)c6ccc([nH]6)c(-c6ccccc6)c6nc(c(-c7ccccc7)c7ccc4[nH]7)C=C6)C=C5)cc3)nnc2c1
REMARK SMILES IDX 14 1 13 2 12 3 10 4 11 5 9 7 7 8 8 9 6 10 1 11 2 12 3 13
REMARK SMILES IDX 70 14 4 15 69 16 5 17 68 18 67 19 15 20 16 21 17 22 18 24
REMARK SMILES IDX 19 25 20 26 66 27 21 28 65 29 22 30 23 31 24 32 59 33 25 34
REMARK SMILES IDX 64 35 58 36 60 37 26 38 63 39 57 40 56 41 27 43 49 44 34 45
REMARK SMILES IDX 48 46 35 47 38 48 47 49 61 50 36 51 37 52 46 54 62 55 39 56
REMARK SMILES IDX 28 57 29 58 33 59 30 60 32 61 31 62 50 63 51 64 55 65 52 66
REMARK SMILES IDX 54 67 53 68 40 69 41 70 45 71 42 72 44 73 43 74
REMARK H PARENT 12 6 16 23 60 42 38 53
REMARK Flexibility Score: inf
ROOT
ATOM      1  C   UNL A   1      34.393  33.954  31.292  1.00  0.00     0.042 C 
ENDROOT
BRANCH   1   2
ATOM      2  C   UNL A   1      35.338  33.318  32.310  1.00  0.00     0.117 C 
BRANCH   2   3
ATOM      3  N   UNL A   1      35.492  31.888  32.105  1.00  0.00    -0.356 N 
ATOM      4  C   UNL A   1      36.462  31.050  32.590  1.00  0.00     0.223 C 
ATOM      5  O   UNL A   1      36.471  29.869  32.291  1.00  0.00    -0.275 OA
ATOM      6  H   UNL A   1      34.806  31.463  31.542  1.00  0.00     0.163 HD
BRANCH   4   7
ATOM      7  C   UNL A   1      37.498  31.628  33.471  1.00  0.00     0.090 C 
ATOM      8  C   UNL A   1      38.956  31.383  33.147  1.00  0.00     0.071 C 
ATOM      9  C   UNL A   1      38.346  30.765  34.374  1.00  0.00     0.026 C 
BRANCH   8  10
ATOM     10  C   UNL A   1      39.922  32.539  33.291  1.00  0.00     0.141 A 
ATOM     11  C   UNL A   1      43.231  35.414  29.840  1.00  0.00     0.044 C 
ATOM     12  C   UNL A   1      42.315  34.654  30.750  1.00  0.00    -0.046 A 
ATOM     13  C   UNL A   1      41.581  33.531  30.159  1.00  0.00     0.022 A 
ATOM     14  C   UNL A   1      42.175  34.956  32.061  1.00  0.00     0.053 A 
ATOM     15  C   UNL A   1      40.744  32.814  30.927  1.00  0.00     0.095 A 
ATOM     16  C   UNL A   1      41.324  34.167  32.884  1.00  0.00     0.161 A 
ATOM     17  N   UNL A   1      40.618  33.143  32.273  1.00  0.00    -0.286 N 
ATOM     18  N   UNL A   1      41.083  34.158  34.176  1.00  0.00    -0.130 NA
ATOM     19  N   UNL A   1      40.235  33.102  34.440  1.00  0.00    -0.134 NA
ENDBRANCH   8  10
ENDBRANCH   4   7
ENDBRANCH   2   3
ENDBRANCH   1   2
BRANCH   1  20
ATOM     20  C   UNL A   1      35.068  34.402  29.994  1.00  0.00     0.118 C 
BRANCH  20  21
ATOM     21  N   UNL A   1      34.691  33.631  28.823  1.00  0.00    -0.352 N 
ATOM     22  C   UNL A   1      35.039  32.410  28.314  1.00  0.00     0.251 C 
ATOM     23  H   UNL A   1      34.029  34.096  28.264  1.00  0.00     0.163 HD
ATOM     24  O   UNL A   1      34.343  31.998  27.382  1.00  0.00    -0.269 OA
BRANCH  22  25
ATOM     25  C   UNL A   1      36.207  31.591  28.743  1.00  0.00     0.039 A 
ATOM     26  C   UNL A   1      37.471  32.085  29.049  1.00  0.00     0.014 A 
ATOM     27  C   UNL A   1      36.021  30.192  28.740  1.00  0.00     0.014 A 
ATOM     28  C   UNL A   1      38.538  31.212  29.242  1.00  0.00     0.010 A 
ATOM     29  C   UNL A   1      37.083  29.312  28.948  1.00  0.00     0.010 A 
ATOM     30  C   UNL A   1      38.357  29.826  29.150  1.00  0.00    -0.014 A 
BRANCH  30  31
ATOM     31  C   UNL A   1      39.545  28.988  29.303  1.00  0.00     0.031 A 
ATOM     32  C   UNL A   1      39.910  28.625  30.700  1.00  0.00     0.074 A 
ATOM     33  C   UNL A   1      40.316  28.538  28.295  1.00  0.00     0.049 A 
ATOM     34  N   UNL A   1      40.936  29.027  31.378  1.00  0.00    -0.248 NA
ATOM     35  C   UNL A   1      38.985  27.773  31.456  1.00  0.00     0.031 C 
ATOM     36  C   UNL A   1      40.051  28.524  26.856  1.00  0.00     0.029 A 
ATOM     37  N   UNL A   1      41.532  27.925  28.392  1.00  0.00    -0.354 N 
ATOM     38  C   UNL A   1      40.869  28.387  32.610  1.00  0.00     0.074 A 
ATOM     39  C   UNL A   1      39.604  27.690  32.635  1.00  0.00     0.031 C 
ATOM     40  C   UNL A   1      40.977  27.749  26.240  1.00  0.00     0.029 A 
ATOM     41  C   UNL A   1      41.984  27.361  27.212  1.00  0.00     0.049 A 
ATOM     42  H   UNL A   1      42.045  27.887  29.232  1.00  0.00     0.167 HD
ATOM     43  C   UNL A   1      41.919  28.364  33.478  1.00  0.00     0.031 A 
ATOM     44  C   UNL A   1      43.098  26.606  27.059  1.00  0.00     0.031 A 
ATOM     45  C   UNL A   1      42.901  29.367  33.166  1.00  0.00     0.049 A 
ATOM     46  C   UNL A   1      44.024  26.925  28.167  1.00  0.00     0.074 A 
ATOM     47  C   UNL A   1      42.902  30.747  33.126  1.00  0.00     0.029 A 
ATOM     48  N   UNL A   1      44.034  28.975  32.497  1.00  0.00    -0.354 N 
ATOM     49  N   UNL A   1      44.637  28.066  28.291  1.00  0.00    -0.248 NA
ATOM     50  C   UNL A   1      43.997  26.095  29.359  1.00  0.00     0.031 C 
ATOM     51  C   UNL A   1      43.749  31.084  32.031  1.00  0.00     0.029 A 
ATOM     52  C   UNL A   1      44.245  29.891  31.499  1.00  0.00     0.049 A 
ATOM     53  H   UNL A   1      44.589  28.187  32.695  1.00  0.00     0.167 HD
ATOM     54  C   UNL A   1      44.694  28.288  29.657  1.00  0.00     0.074 A 
ATOM     55  C   UNL A   1      44.397  26.993  30.262  1.00  0.00     0.031 C 
ATOM     56  C   UNL A   1      44.710  29.554  30.169  1.00  0.00     0.031 A 
BRANCH  43  57
ATOM     57  C   UNL A   1      42.203  27.243  34.443  1.00  0.00    -0.014 A 
ATOM     58  C   UNL A   1      41.528  27.092  35.669  1.00  0.00     0.009 A 
ATOM     59  C   UNL A   1      42.987  26.153  34.018  1.00  0.00     0.009 A 
ATOM     60  C   UNL A   1      41.614  25.917  36.423  1.00  0.00     0.001 A 
ATOM     61  C   UNL A   1      43.042  24.960  34.749  1.00  0.00     0.001 A 
ATOM     62  C   UNL A   1      42.351  24.842  35.950  1.00  0.00     0.000 A 
ENDBRANCH  43  57
BRANCH  44  63
ATOM     63  C   UNL A   1      43.257  25.385  26.243  1.00  0.00    -0.014 A 
ATOM     64  C   UNL A   1      42.427  24.274  26.480  1.00  0.00     0.009 A 
ATOM     65  C   UNL A   1      44.411  25.191  25.467  1.00  0.00     0.009 A 
ATOM     66  C   UNL A   1      42.766  23.003  26.006  1.00  0.00     0.001 A 
ATOM     67  C   UNL A   1      44.751  23.918  24.992  1.00  0.00     0.001 A 
ATOM     68  C   UNL A   1      43.938  22.822  25.278  1.00  0.00     0.000 A 
ENDBRANCH  44  63
BRANCH  56  69
ATOM     69  C   UNL A   1      44.918  30.713  29.219  1.00  0.00    -0.014 A 
ATOM     70  C   UNL A   1      46.134  31.414  29.272  1.00  0.00     0.009 A 
ATOM     71  C   UNL A   1      43.891  31.231  28.410  1.00  0.00     0.009 A 
ATOM     72  C   UNL A   1      46.315  32.597  28.551  1.00  0.00     0.001 A 
ATOM     73  C   UNL A   1      44.082  32.400  27.666  1.00  0.00     0.001 A 
ATOM     74  C   UNL A   1      45.290  33.088  27.746  1.00  0.00     0.000 A 
ENDBRANCH  56  69
ENDBRANCH  30  31
ENDBRANCH  22  25
ENDBRANCH  20  21
ENDBRANCH   1  20
TORSDOF 11
ENDMDL
