MODEL 1
REMARK VINA RESULT:     -11.9      0.000      0.000
REMARK SMILES Cc1cc(Cl)c(C)c2c1O[C@H](C(F)(F)F)C(C(=O)NCCCNC(=O)c1ccc(-c3c4nc(c(-c5ccccc5)c5ccc([nH]5)c(-c5ccccc5)c5nc(c(-c6ccccc6)c6ccc3[nH]6)C=C5)C=C4)cc1)=C2
REMARK SMILES IDX 21 1 20 2 19 3 17 4 18 5 16 7 1 8 2 9 3 10 9 11 4 12 8 13
REMARK SMILES IDX 10 14 5 15 6 16 74 17 11 18 7 19 12 20 13 21 14 22 15 23
REMARK SMILES IDX 22 24 23 25 24 26 25 28 26 29 27 30 73 31 28 32 72 33 29 34
REMARK SMILES IDX 30 35 31 36 66 37 32 38 71 39 65 40 67 41 33 42 70 43 64 44
REMARK SMILES IDX 63 45 34 47 56 48 41 49 55 50 42 51 45 52 54 53 68 54 43 55
REMARK SMILES IDX 44 56 53 58 69 59 46 60 35 61 36 62 40 63 37 64 39 65 38 66
REMARK SMILES IDX 57 67 58 68 62 69 59 70 61 71 60 72 47 73 48 74 52 75 49 76
REMARK SMILES IDX 51 77 50 78
REMARK H PARENT 19 6 23 27 67 46 45 57
REMARK Flexibility Score: inf
ROOT
ATOM      1  C   UNL A   1      33.812  28.497  24.618  1.00  0.00     0.042 C 
ENDROOT
BRANCH   1   2
ATOM      2  C   UNL A   1      33.090  27.206  24.267  1.00  0.00     0.118 C 
BRANCH   2   3
ATOM      3  N   UNL A   1      32.249  26.744  25.361  1.00  0.00    -0.352 N 
ATOM      4  C   UNL A   1      31.990  25.575  25.989  1.00  0.00     0.251 C 
ATOM      5  O   UNL A   1      31.160  25.641  26.900  1.00  0.00    -0.270 OA
ATOM      6  H   UNL A   1      31.726  27.483  25.748  1.00  0.00     0.163 HD
BRANCH   4   7
ATOM      7  C   UNL A   1      32.624  24.267  25.657  1.00  0.00     0.067 C 
ATOM      8  C   UNL A   1      33.645  19.367  24.522  1.00  0.00     0.048 C 
ATOM      9  C   UNL A   1      34.455  20.559  24.947  1.00  0.00    -0.007 A 
ATOM     10  C   UNL A   1      35.845  20.454  24.999  1.00  0.00     0.028 A 
ATOM     11  C   UNL A   1      33.870  21.793  25.249  1.00  0.00     0.131 A 
ATOM     12  C   UNL A   1      36.637  21.553  25.354  1.00  0.00     0.045 A 
ATOM     13  C   UNL A   1      34.646  22.911  25.604  1.00  0.00     0.022 A 
ATOM     14  O   UNL A   1      32.504  21.833  25.232  1.00  0.00    -0.475 OA
ATOM     15  Cl  UNL A   1      38.346  21.286  25.398  1.00  0.00    -0.084 Cl
ATOM     16  C   UNL A   1      36.056  22.800  25.657  1.00  0.00    -0.021 A 
ATOM     17  C   UNL A   1      33.936  24.154  25.933  1.00  0.00     0.026 C 
ATOM     18  C   UNL A   1      31.892  23.125  25.030  1.00  0.00     0.314 C 
ATOM     19  C   UNL A   1      36.898  23.997  26.026  1.00  0.00     0.047 C 
BRANCH  18  20
ATOM     20  C   UNL A   1      31.612  23.334  23.529  1.00  0.00     0.429 C 
ATOM     21  F   UNL A   1      30.377  23.870  23.353  1.00  0.00    -0.167 F 
ATOM     22  F   UNL A   1      32.486  24.192  22.950  1.00  0.00    -0.167 F 
ATOM     23  F   UNL A   1      31.662  22.185  22.820  1.00  0.00    -0.167 F 
ENDBRANCH  18  20
ENDBRANCH   4   7
ENDBRANCH   2   3
ENDBRANCH   1   2
BRANCH   1  24
ATOM     24  C   UNL A   1      34.073  28.611  26.113  1.00  0.00     0.118 C 
BRANCH  24  25
ATOM     25  N   UNL A   1      33.856  29.973  26.597  1.00  0.00    -0.352 N 
ATOM     26  C   UNL A   1      34.506  30.676  27.577  1.00  0.00     0.251 C 
ATOM     27  H   UNL A   1      33.128  30.461  26.149  1.00  0.00     0.163 HD
ATOM     28  O   UNL A   1      33.997  31.693  28.044  1.00  0.00    -0.269 OA
BRANCH  26  29
ATOM     29  C   UNL A   1      35.816  30.212  28.068  1.00  0.00     0.039 A 
ATOM     30  C   UNL A   1      35.913  29.646  29.342  1.00  0.00     0.014 A 
ATOM     31  C   UNL A   1      36.954  30.360  27.273  1.00  0.00     0.014 A 
ATOM     32  C   UNL A   1      37.146  29.174  29.789  1.00  0.00     0.010 A 
ATOM     33  C   UNL A   1      38.153  29.792  27.672  1.00  0.00     0.010 A 
ATOM     34  C   UNL A   1      38.267  29.214  28.943  1.00  0.00    -0.014 A 
BRANCH  34  35
ATOM     35  C   UNL A   1      39.585  28.701  29.378  1.00  0.00     0.031 A 
ATOM     36  C   UNL A   1      40.430  29.519  30.315  1.00  0.00     0.074 A 
ATOM     37  C   UNL A   1      40.038  27.531  28.891  1.00  0.00     0.049 A 
ATOM     38  N   UNL A   1      41.628  29.266  30.774  1.00  0.00    -0.248 NA
ATOM     39  C   UNL A   1      39.868  30.801  30.773  1.00  0.00     0.031 C 
ATOM     40  C   UNL A   1      39.319  26.668  27.952  1.00  0.00     0.029 A 
ATOM     41  N   UNL A   1      41.212  26.863  29.125  1.00  0.00    -0.354 N 
ATOM     42  C   UNL A   1      41.962  30.359  31.565  1.00  0.00     0.074 A 
ATOM     43  C   UNL A   1      40.877  31.307  31.465  1.00  0.00     0.031 C 
ATOM     44  C   UNL A   1      40.045  25.562  27.729  1.00  0.00     0.029 A 
ATOM     45  C   UNL A   1      41.298  25.658  28.472  1.00  0.00     0.049 A 
ATOM     46  H   UNL A   1      41.925  27.213  29.707  1.00  0.00     0.167 HD
ATOM     47  C   UNL A   1      43.059  30.542  32.334  1.00  0.00     0.031 A 
ATOM     48  C   UNL A   1      42.276  24.734  28.476  1.00  0.00     0.031 A 
ATOM     49  C   UNL A   1      44.130  29.591  32.439  1.00  0.00     0.049 A 
ATOM     50  C   UNL A   1      43.505  24.976  29.306  1.00  0.00     0.074 A 
ATOM     51  C   UNL A   1      45.268  29.660  33.221  1.00  0.00     0.029 A 
ATOM     52  N   UNL A   1      44.192  28.396  31.740  1.00  0.00    -0.354 N 
ATOM     53  N   UNL A   1      43.783  25.989  30.091  1.00  0.00    -0.248 NA
ATOM     54  C   UNL A   1      44.552  23.946  29.256  1.00  0.00     0.031 C 
ATOM     55  C   UNL A   1      46.047  28.531  32.952  1.00  0.00     0.029 A 
ATOM     56  C   UNL A   1      45.364  27.730  32.050  1.00  0.00     0.049 A 
ATOM     57  H   UNL A   1      43.504  28.069  31.115  1.00  0.00     0.167 HD
ATOM     58  C   UNL A   1      45.026  25.711  30.644  1.00  0.00     0.074 A 
ATOM     59  C   UNL A   1      45.439  24.426  30.117  1.00  0.00     0.031 C 
ATOM     60  C   UNL A   1      45.760  26.454  31.508  1.00  0.00     0.031 A 
BRANCH  47  61
ATOM     61  C   UNL A   1      43.144  31.817  33.127  1.00  0.00    -0.014 A 
ATOM     62  C   UNL A   1      43.743  32.968  32.587  1.00  0.00     0.009 A 
ATOM     63  C   UNL A   1      42.593  31.881  34.416  1.00  0.00     0.009 A 
ATOM     64  C   UNL A   1      43.820  34.144  33.335  1.00  0.00     0.001 A 
ATOM     65  C   UNL A   1      42.642  33.069  35.149  1.00  0.00     0.001 A 
ATOM     66  C   UNL A   1      43.264  34.195  34.612  1.00  0.00     0.000 A 
ENDBRANCH  47  61
BRANCH  48  67
ATOM     67  C   UNL A   1      42.106  23.478  27.698  1.00  0.00    -0.014 A 
ATOM     68  C   UNL A   1      42.564  23.399  26.375  1.00  0.00     0.009 A 
ATOM     69  C   UNL A   1      41.523  22.343  28.283  1.00  0.00     0.009 A 
ATOM     70  C   UNL A   1      42.433  22.213  25.649  1.00  0.00     0.001 A 
ATOM     71  C   UNL A   1      41.418  21.150  27.563  1.00  0.00     0.001 A 
ATOM     72  C   UNL A   1      41.867  21.088  26.246  1.00  0.00     0.000 A 
ENDBRANCH  48  67
BRANCH  60  73
ATOM     73  C   UNL A   1      47.084  25.899  31.950  1.00  0.00    -0.014 A 
ATOM     74  C   UNL A   1      48.248  26.121  31.199  1.00  0.00     0.009 A 
ATOM     75  C   UNL A   1      47.181  25.223  33.177  1.00  0.00     0.009 A 
ATOM     76  C   UNL A   1      49.482  25.659  31.660  1.00  0.00     0.001 A 
ATOM     77  C   UNL A   1      48.420  24.790  33.649  1.00  0.00     0.001 A 
ATOM     78  C   UNL A   1      49.567  25.002  32.889  1.00  0.00     0.000 A 
ENDBRANCH  60  73
ENDBRANCH  34  35
ENDBRANCH  26  29
ENDBRANCH  24  25
ENDBRANCH   1  24
TORSDOF 11
ENDMDL
MODEL 2
REMARK VINA RESULT:     -11.7      0.951      1.382
REMARK SMILES Cc1cc(Cl)c(C)c2c1O[C@H](C(F)(F)F)C(C(=O)NCCCNC(=O)c1ccc(-c3c4nc(c(-c5ccccc5)c5ccc([nH]5)c(-c5ccccc5)c5nc(c(-c6ccccc6)c6ccc3[nH]6)C=C5)C=C4)cc1)=C2
REMARK SMILES IDX 21 1 20 2 19 3 17 4 18 5 16 7 1 8 2 9 3 10 9 11 4 12 8 13
REMARK SMILES IDX 10 14 5 15 6 16 74 17 11 18 7 19 12 20 13 21 14 22 15 23
REMARK SMILES IDX 22 24 23 25 24 26 25 28 26 29 27 30 73 31 28 32 72 33 29 34
REMARK SMILES IDX 30 35 31 36 66 37 32 38 71 39 65 40 67 41 33 42 70 43 64 44
REMARK SMILES IDX 63 45 34 47 56 48 41 49 55 50 42 51 45 52 54 53 68 54 43 55
REMARK SMILES IDX 44 56 53 58 69 59 46 60 35 61 36 62 40 63 37 64 39 65 38 66
REMARK SMILES IDX 57 67 58 68 62 69 59 70 61 71 60 72 47 73 48 74 52 75 49 76
REMARK SMILES IDX 51 77 50 78
REMARK H PARENT 19 6 23 27 67 46 45 57
REMARK Flexibility Score: inf
ROOT
ATOM      1  C   UNL A   1      34.018  28.565  25.594  1.00  0.00     0.042 C 
ENDROOT
BRANCH   1   2
ATOM      2  C   UNL A   1      33.474  27.282  24.985  1.00  0.00     0.118 C 
BRANCH   2   3
ATOM      3  N   UNL A   1      32.372  26.741  25.765  1.00  0.00    -0.352 N 
ATOM      4  C   UNL A   1      31.923  25.520  26.136  1.00  0.00     0.251 C 
ATOM      5  O   UNL A   1      30.896  25.524  26.820  1.00  0.00    -0.270 OA
ATOM      6  H   UNL A   1      31.796  27.457  26.118  1.00  0.00     0.163 HD
BRANCH   4   7
ATOM      7  C   UNL A   1      32.573  24.226  25.780  1.00  0.00     0.067 C 
ATOM      8  C   UNL A   1      33.654  19.353  24.587  1.00  0.00     0.048 C 
ATOM      9  C   UNL A   1      34.452  20.556  25.004  1.00  0.00    -0.007 A 
ATOM     10  C   UNL A   1      35.845  20.475  25.024  1.00  0.00     0.028 A 
ATOM     11  C   UNL A   1      33.852  21.777  25.327  1.00  0.00     0.131 A 
ATOM     12  C   UNL A   1      36.625  21.585  25.370  1.00  0.00     0.045 A 
ATOM     13  C   UNL A   1      34.616  22.906  25.673  1.00  0.00     0.022 A 
ATOM     14  O   UNL A   1      32.485  21.793  25.340  1.00  0.00    -0.475 OA
ATOM     15  Cl  UNL A   1      38.339  21.348  25.375  1.00  0.00    -0.084 Cl
ATOM     16  C   UNL A   1      36.029  22.820  25.695  1.00  0.00    -0.021 A 
ATOM     17  C   UNL A   1      33.892  24.134  26.027  1.00  0.00     0.026 C 
ATOM     18  C   UNL A   1      31.847  23.076  25.161  1.00  0.00     0.314 C 
ATOM     19  C   UNL A   1      36.857  24.029  26.055  1.00  0.00     0.047 C 
BRANCH  18  20
ATOM     20  C   UNL A   1      31.530  23.291  23.668  1.00  0.00     0.429 C 
ATOM     21  F   UNL A   1      30.285  23.811  23.523  1.00  0.00    -0.167 F 
ATOM     22  F   UNL A   1      32.380  24.164  23.076  1.00  0.00    -0.167 F 
ATOM     23  F   UNL A   1      31.580  22.147  22.951  1.00  0.00    -0.167 F 
ENDBRANCH  18  20
ENDBRANCH   4   7
ENDBRANCH   2   3
ENDBRANCH   1   2
BRANCH   1  24
ATOM     24  C   UNL A   1      33.759  28.635  27.092  1.00  0.00     0.118 C 
BRANCH  24  25
ATOM     25  N   UNL A   1      33.733  30.015  27.572  1.00  0.00    -0.352 N 
ATOM     26  C   UNL A   1      34.640  30.702  28.335  1.00  0.00     0.251 C 
ATOM     27  H   UNL A   1      32.938  30.532  27.306  1.00  0.00     0.163 HD
ATOM     28  O   UNL A   1      34.312  31.753  28.883  1.00  0.00    -0.269 OA
BRANCH  26  29
ATOM     29  C   UNL A   1      36.009  30.181  28.496  1.00  0.00     0.039 A 
ATOM     30  C   UNL A   1      36.915  30.285  27.439  1.00  0.00     0.014 A 
ATOM     31  C   UNL A   1      36.386  29.565  29.691  1.00  0.00     0.014 A 
ATOM     32  C   UNL A   1      38.221  29.824  27.608  1.00  0.00     0.010 A 
ATOM     33  C   UNL A   1      37.709  29.210  29.897  1.00  0.00     0.010 A 
ATOM     34  C   UNL A   1      38.633  29.314  28.850  1.00  0.00    -0.014 A 
BRANCH  34  35
ATOM     35  C   UNL A   1      40.018  28.837  29.069  1.00  0.00     0.031 A 
ATOM     36  C   UNL A   1      41.025  29.748  29.713  1.00  0.00     0.074 A 
ATOM     37  C   UNL A   1      40.375  27.611  28.643  1.00  0.00     0.049 A 
ATOM     38  N   UNL A   1      42.294  29.535  29.949  1.00  0.00    -0.248 NA
ATOM     39  C   UNL A   1      40.555  31.083  30.119  1.00  0.00     0.031 C 
ATOM     40  C   UNL A   1      39.490  26.653  27.977  1.00  0.00     0.029 A 
ATOM     41  N   UNL A   1      41.579  26.959  28.715  1.00  0.00    -0.354 N 
ATOM     42  C   UNL A   1      42.769  30.709  30.521  1.00  0.00     0.074 A 
ATOM     43  C   UNL A   1      41.677  31.654  30.529  1.00  0.00     0.031 C 
ATOM     44  C   UNL A   1      40.168  25.519  27.746  1.00  0.00     0.029 A 
ATOM     45  C   UNL A   1      41.544  25.684  28.205  1.00  0.00     0.049 A 
ATOM     46  H   UNL A   1      42.391  27.365  29.095  1.00  0.00     0.167 HD
ATOM     47  C   UNL A   1      43.997  30.966  31.027  1.00  0.00     0.031 A 
ATOM     48  C   UNL A   1      42.512  24.753  28.121  1.00  0.00     0.031 A 
ATOM     49  C   UNL A   1      45.077  30.019  31.026  1.00  0.00     0.049 A 
ATOM     50  C   UNL A   1      43.880  25.075  28.653  1.00  0.00     0.074 A 
ATOM     51  C   UNL A   1      46.348  30.164  31.549  1.00  0.00     0.029 A 
ATOM     52  N   UNL A   1      45.009  28.749  30.475  1.00  0.00    -0.354 N 
ATOM     53  N   UNL A   1      44.300  26.170  29.241  1.00  0.00    -0.248 NA
ATOM     54  C   UNL A   1      44.906  24.032  28.516  1.00  0.00     0.031 C 
ATOM     55  C   UNL A   1      47.068  29.000  31.265  1.00  0.00     0.029 A 
ATOM     56  C   UNL A   1      46.226  28.107  30.620  1.00  0.00     0.049 A 
ATOM     57  H   UNL A   1      44.213  28.360  30.045  1.00  0.00     0.167 HD
ATOM     58  C   UNL A   1      45.632  25.942  29.560  1.00  0.00     0.074 A 
ATOM     59  C   UNL A   1      45.944  24.598  29.118  1.00  0.00     0.031 C 
ATOM     60  C   UNL A   1      46.517  26.771  30.165  1.00  0.00     0.031 A 
BRANCH  47  61
ATOM     61  C   UNL A   1      44.227  32.324  31.629  1.00  0.00    -0.014 A 
ATOM     62  C   UNL A   1      44.657  33.404  30.839  1.00  0.00     0.009 A 
ATOM     63  C   UNL A   1      43.982  32.538  32.994  1.00  0.00     0.009 A 
ATOM     64  C   UNL A   1      44.872  34.659  31.411  1.00  0.00     0.001 A 
ATOM     65  C   UNL A   1      44.166  33.803  33.557  1.00  0.00     0.001 A 
ATOM     66  C   UNL A   1      44.620  34.859  32.768  1.00  0.00     0.000 A 
ENDBRANCH  47  61
BRANCH  48  67
ATOM     67  C   UNL A   1      42.201  23.417  27.549  1.00  0.00    -0.014 A 
ATOM     68  C   UNL A   1      42.553  23.117  26.225  1.00  0.00     0.009 A 
ATOM     69  C   UNL A   1      41.590  22.423  28.330  1.00  0.00     0.009 A 
ATOM     70  C   UNL A   1      42.290  21.854  25.690  1.00  0.00     0.001 A 
ATOM     71  C   UNL A   1      41.353  21.153  27.801  1.00  0.00     0.001 A 
ATOM     72  C   UNL A   1      41.697  20.871  26.480  1.00  0.00     0.000 A 
ENDBRANCH  48  67
BRANCH  60  73
ATOM     73  C   UNL A   1      47.908  26.254  30.395  1.00  0.00    -0.014 A 
ATOM     74  C   UNL A   1      48.300  25.768  31.651  1.00  0.00     0.009 A 
ATOM     75  C   UNL A   1      48.807  26.168  29.320  1.00  0.00     0.009 A 
ATOM     76  C   UNL A   1      49.574  25.224  31.831  1.00  0.00     0.001 A 
ATOM     77  C   UNL A   1      50.067  25.596  29.495  1.00  0.00     0.001 A 
ATOM     78  C   UNL A   1      50.452  25.131  30.750  1.00  0.00     0.000 A 
ENDBRANCH  60  73
ENDBRANCH  34  35
ENDBRANCH  26  29
ENDBRANCH  24  25
ENDBRANCH   1  24
TORSDOF 11
ENDMDL
MODEL 3
REMARK VINA RESULT:     -11.6      2.905      7.357
REMARK SMILES Cc1cc(Cl)c(C)c2c1O[C@H](C(F)(F)F)C(C(=O)NCCCNC(=O)c1ccc(-c3c4nc(c(-c5ccccc5)c5ccc([nH]5)c(-c5ccccc5)c5nc(c(-c6ccccc6)c6ccc3[nH]6)C=C5)C=C4)cc1)=C2
REMARK SMILES IDX 21 1 20 2 19 3 17 4 18 5 16 7 1 8 2 9 3 10 9 11 4 12 8 13
REMARK SMILES IDX 10 14 5 15 6 16 74 17 11 18 7 19 12 20 13 21 14 22 15 23
REMARK SMILES IDX 22 24 23 25 24 26 25 28 26 29 27 30 73 31 28 32 72 33 29 34
REMARK SMILES IDX 30 35 31 36 66 37 32 38 71 39 65 40 67 41 33 42 70 43 64 44
REMARK SMILES IDX 63 45 34 47 56 48 41 49 55 50 42 51 45 52 54 53 68 54 43 55
REMARK SMILES IDX 44 56 53 58 69 59 46 60 35 61 36 62 40 63 37 64 39 65 38 66
REMARK SMILES IDX 57 67 58 68 62 69 59 70 61 71 60 72 47 73 48 74 52 75 49 76
REMARK SMILES IDX 51 77 50 78
REMARK H PARENT 19 6 23 27 67 46 45 57
REMARK Flexibility Score: inf
ROOT
ATOM      1  C   UNL A   1      37.722  19.788  24.866  1.00  0.00     0.042 C 
ENDROOT
BRANCH   1   2
ATOM      2  C   UNL A   1      36.411  20.528  25.077  1.00  0.00     0.118 C 
BRANCH   2   3
ATOM      3  N   UNL A   1      35.266  19.633  24.985  1.00  0.00    -0.352 N 
ATOM      4  C   UNL A   1      33.919  19.745  24.947  1.00  0.00     0.251 C 
ATOM      5  O   UNL A   1      33.306  18.676  24.875  1.00  0.00    -0.270 OA
ATOM      6  H   UNL A   1      35.550  18.691  24.939  1.00  0.00     0.163 HD
BRANCH   4   7
ATOM      7  C   UNL A   1      33.167  21.031  24.985  1.00  0.00     0.067 C 
ATOM      8  C   UNL A   1      30.108  24.986  26.149  1.00  0.00     0.048 C 
ATOM      9  C   UNL A   1      30.897  24.560  24.942  1.00  0.00    -0.007 A 
ATOM     10  C   UNL A   1      30.960  25.408  23.836  1.00  0.00     0.028 A 
ATOM     11  C   UNL A   1      31.616  23.361  24.902  1.00  0.00     0.131 A 
ATOM     12  C   UNL A   1      31.715  25.065  22.708  1.00  0.00     0.045 A 
ATOM     13  C   UNL A   1      32.385  22.998  23.781  1.00  0.00     0.022 A 
ATOM     14  O   UNL A   1      31.484  22.542  25.988  1.00  0.00    -0.475 OA
ATOM     15  Cl  UNL A   1      31.695  26.195  21.397  1.00  0.00    -0.084 Cl
ATOM     16  C   UNL A   1      32.444  23.860  22.660  1.00  0.00    -0.021 A 
ATOM     17  C   UNL A   1      33.078  21.704  23.823  1.00  0.00     0.026 C 
ATOM     18  C   UNL A   1      32.548  21.595  26.223  1.00  0.00     0.314 C 
ATOM     19  C   UNL A   1      33.274  23.484  21.457  1.00  0.00     0.047 C 
BRANCH  18  20
ATOM     20  C   UNL A   1      33.579  22.206  27.192  1.00  0.00     0.429 C 
ATOM     21  F   UNL A   1      34.378  23.084  26.535  1.00  0.00    -0.167 F 
ATOM     22  F   UNL A   1      32.998  22.899  28.201  1.00  0.00    -0.167 F 
ATOM     23  F   UNL A   1      34.377  21.278  27.764  1.00  0.00    -0.167 F 
ENDBRANCH  18  20
ENDBRANCH   4   7
ENDBRANCH   2   3
ENDBRANCH   1   2
BRANCH   1  24
ATOM     24  C   UNL A   1      38.837  20.353  25.733  1.00  0.00     0.118 C 
BRANCH  24  25
ATOM     25  N   UNL A   1      39.935  19.400  25.890  1.00  0.00    -0.352 N 
ATOM     26  C   UNL A   1      41.265  19.618  26.132  1.00  0.00     0.251 C 
ATOM     27  H   UNL A   1      39.677  18.454  25.809  1.00  0.00     0.163 HD
ATOM     28  O   UNL A   1      42.081  18.718  25.940  1.00  0.00    -0.269 OA
BRANCH  26  29
ATOM     29  C   UNL A   1      41.717  20.932  26.623  1.00  0.00     0.039 A 
ATOM     30  C   UNL A   1      42.181  21.886  25.714  1.00  0.00     0.014 A 
ATOM     31  C   UNL A   1      41.704  21.210  27.991  1.00  0.00     0.014 A 
ATOM     32  C   UNL A   1      42.573  23.141  26.178  1.00  0.00     0.010 A 
ATOM     33  C   UNL A   1      41.986  22.490  28.438  1.00  0.00     0.010 A 
ATOM     34  C   UNL A   1      42.446  23.461  27.539  1.00  0.00    -0.014 A 
BRANCH  34  35
ATOM     35  C   UNL A   1      42.832  24.792  28.061  1.00  0.00     0.031 A 
ATOM     36  C   UNL A   1      41.778  25.844  28.268  1.00  0.00     0.074 A 
ATOM     37  C   UNL A   1      44.129  25.065  28.295  1.00  0.00     0.049 A 
ATOM     38  N   UNL A   1      41.919  27.081  28.670  1.00  0.00    -0.248 NA
ATOM     39  C   UNL A   1      40.389  25.468  27.955  1.00  0.00     0.031 C 
ATOM     40  C   UNL A   1      45.241  24.132  28.100  1.00  0.00     0.029 A 
ATOM     41  N   UNL A   1      44.730  26.208  28.757  1.00  0.00    -0.354 N 
ATOM     42  C   UNL A   1      40.642  27.627  28.650  1.00  0.00     0.074 A 
ATOM     43  C   UNL A   1      39.752  26.616  28.127  1.00  0.00     0.031 C 
ATOM     44  C   UNL A   1      46.382  24.723  28.486  1.00  0.00     0.029 A 
ATOM     45  C   UNL A   1      46.089  26.089  28.912  1.00  0.00     0.049 A 
ATOM     46  H   UNL A   1      44.234  27.034  28.958  1.00  0.00     0.167 HD
ATOM     47  C   UNL A   1      40.238  28.850  29.062  1.00  0.00     0.031 A 
ATOM     48  C   UNL A   1      46.996  26.980  29.353  1.00  0.00     0.031 A 
ATOM     49  C   UNL A   1      41.125  29.848  29.591  1.00  0.00     0.049 A 
ATOM     50  C   UNL A   1      46.532  28.348  29.768  1.00  0.00     0.074 A 
ATOM     51  C   UNL A   1      40.815  31.105  30.076  1.00  0.00     0.029 A 
ATOM     52  N   UNL A   1      42.499  29.699  29.706  1.00  0.00    -0.354 N 
ATOM     53  N   UNL A   1      45.313  28.832  29.795  1.00  0.00    -0.248 NA
ATOM     54  C   UNL A   1      47.565  29.290  30.219  1.00  0.00     0.031 C 
ATOM     55  C   UNL A   1      42.009  31.739  30.432  1.00  0.00     0.029 A 
ATOM     56  C   UNL A   1      43.056  30.852  30.228  1.00  0.00     0.049 A 
ATOM     57  H   UNL A   1      43.004  28.891  29.454  1.00  0.00     0.167 HD
ATOM     58  C   UNL A   1      45.430  30.127  30.282  1.00  0.00     0.074 A 
ATOM     59  C   UNL A   1      46.836  30.345  30.555  1.00  0.00     0.031 C 
ATOM     60  C   UNL A   1      44.460  31.052  30.484  1.00  0.00     0.031 A 
BRANCH  47  61
ATOM     61  C   UNL A   1      38.772  29.166  28.962  1.00  0.00    -0.014 A 
ATOM     62  C   UNL A   1      37.919  29.006  30.068  1.00  0.00     0.009 A 
ATOM     63  C   UNL A   1      38.240  29.659  27.761  1.00  0.00     0.009 A 
ATOM     64  C   UNL A   1      36.559  29.298  29.961  1.00  0.00     0.001 A 
ATOM     65  C   UNL A   1      36.884  29.982  27.667  1.00  0.00     0.001 A 
ATOM     66  C   UNL A   1      36.044  29.792  28.763  1.00  0.00     0.000 A 
ENDBRANCH  47  61
BRANCH  48  67
ATOM     67  C   UNL A   1      48.424  26.584  29.462  1.00  0.00    -0.014 A 
ATOM     68  C   UNL A   1      49.312  26.848  28.408  1.00  0.00     0.009 A 
ATOM     69  C   UNL A   1      48.918  25.980  30.629  1.00  0.00     0.009 A 
ATOM     70  C   UNL A   1      50.662  26.504  28.516  1.00  0.00     0.001 A 
ATOM     71  C   UNL A   1      50.273  25.663  30.745  1.00  0.00     0.001 A 
ATOM     72  C   UNL A   1      51.143  25.919  29.687  1.00  0.00     0.000 A 
ENDBRANCH  48  67
BRANCH  60  73
ATOM     73  C   UNL A   1      44.877  32.386  31.035  1.00  0.00    -0.014 A 
ATOM     74  C   UNL A   1      45.175  33.458  30.182  1.00  0.00     0.009 A 
ATOM     75  C   UNL A   1      44.885  32.595  32.423  1.00  0.00     0.009 A 
ATOM     76  C   UNL A   1      45.492  34.712  30.710  1.00  0.00     0.001 A 
ATOM     77  C   UNL A   1      45.172  33.856  32.947  1.00  0.00     0.001 A 
ATOM     78  C   UNL A   1      45.480  34.911  32.091  1.00  0.00     0.000 A 
ENDBRANCH  60  73
ENDBRANCH  34  35
ENDBRANCH  26  29
ENDBRANCH  24  25
ENDBRANCH   1  24
TORSDOF 11
ENDMDL
