MODEL 1
REMARK VINA RESULT:      -9.0      0.000      0.000
REMARK SMILES CCN(CCC(=O)NCCCNC(=O)c1ccc(-c2c3nc(c(-c4ccccc4)c4ccc([nH]4)c(-c4ccccc4)c4nc(c(-c5ccccc5)c5ccc2[nH]5)C=C4)C=C3)cc1)C(=O)c1cc(Cl)ccc1F
REMARK SMILES IDX 9 1 8 2 6 3 7 4 5 6 4 7 3 8 2 9 1 10 63 11 64 12 65 13 66 14
REMARK SMILES IDX 71 15 67 16 70 17 72 18 68 19 69 20 10 21 11 22 12 23 13 24
REMARK SMILES IDX 14 26 15 27 16 28 62 29 17 30 61 31 18 32 19 33 20 34 55 35
REMARK SMILES IDX 21 36 60 37 54 38 56 39 22 40 59 41 53 42 52 43 23 45 45 46
REMARK SMILES IDX 30 47 44 48 31 49 34 50 43 51 57 52 32 53 33 54 42 56 58 57
REMARK SMILES IDX 35 58 24 59 25 60 29 61 26 62 28 63 27 64 46 65 47 66 51 67
REMARK SMILES IDX 48 68 50 69 49 70 36 71 37 72 41 73 38 74 40 75 39 76
REMARK H PARENT 8 5 12 25 56 44 34 55
REMARK Flexibility Score: inf
ROOT
ATOM      1  C   UNL A   1      34.844  35.045  33.035  1.00  0.00     0.117 C 
ENDROOT
BRANCH   1   2
ATOM      2  N   UNL A   1      34.829  34.570  34.408  1.00  0.00    -0.356 N 
ATOM      3  C   UNL A   1      35.821  34.006  35.151  1.00  0.00     0.221 C 
ATOM      4  O   UNL A   1      35.599  33.777  36.341  1.00  0.00    -0.275 OA
ATOM      5  H   UNL A   1      33.968  34.672  34.874  1.00  0.00     0.163 HD
BRANCH   3   6
ATOM      6  C   UNL A   1      37.152  33.666  34.531  1.00  0.00     0.121 C 
BRANCH   6   7
ATOM      7  C   UNL A   1      38.317  34.002  35.454  1.00  0.00     0.129 C 
BRANCH   7   8
ATOM      8  N   UNL A   1      38.759  32.926  36.354  1.00  0.00    -0.338 N 
BRANCH   8   9
ATOM      9  C   UNL A   1      39.460  33.417  37.560  1.00  0.00     0.116 C 
ATOM     10  C   UNL A   1      38.712  33.572  38.876  1.00  0.00     0.027 C 
ENDBRANCH   8   9
BRANCH   8  11
ATOM     11  C   UNL A   1      38.420  31.567  36.203  1.00  0.00     0.256 C 
ATOM     12  O   UNL A   1      37.704  30.969  37.009  1.00  0.00    -0.269 OA
BRANCH  11  13
ATOM     13  C   UNL A   1      39.110  30.678  35.221  1.00  0.00     0.077 A 
ATOM     14  C   UNL A   1      40.347  30.154  35.649  1.00  0.00     0.037 A 
ATOM     15  C   UNL A   1      38.631  30.267  33.981  1.00  0.00     0.136 A 
ATOM     16  C   UNL A   1      41.117  29.344  34.811  1.00  0.00     0.042 A 
ATOM     17  C   UNL A   1      39.427  29.505  33.117  1.00  0.00     0.041 A 
ATOM     18  F   UNL A   1      37.377  30.510  33.588  1.00  0.00    -0.206 F 
ATOM     19  Cl  UNL A   1      42.614  28.707  35.364  1.00  0.00    -0.084 Cl
ATOM     20  C   UNL A   1      40.679  29.053  33.525  1.00  0.00     0.023 A 
ENDBRANCH  11  13
ENDBRANCH   8  11
ENDBRANCH   7   8
ENDBRANCH   6   7
ENDBRANCH   3   6
ENDBRANCH   1   2
BRANCH   1  21
ATOM     21  C   UNL A   1      33.464  35.448  32.526  1.00  0.00     0.042 C 
BRANCH  21  22
ATOM     22  C   UNL A   1      33.480  36.229  31.216  1.00  0.00     0.118 C 
BRANCH  22  23
ATOM     23  N   UNL A   1      32.743  35.554  30.167  1.00  0.00    -0.352 N 
ATOM     24  C   UNL A   1      33.135  34.641  29.220  1.00  0.00     0.251 C 
ATOM     25  H   UNL A   1      31.790  35.792  30.126  1.00  0.00     0.163 HD
ATOM     26  O   UNL A   1      32.355  34.409  28.298  1.00  0.00    -0.269 OA
BRANCH  24  27
ATOM     27  C   UNL A   1      34.439  33.921  29.256  1.00  0.00     0.039 A 
ATOM     28  C   UNL A   1      34.594  32.916  30.220  1.00  0.00     0.014 A 
ATOM     29  C   UNL A   1      35.550  34.288  28.491  1.00  0.00     0.014 A 
ATOM     30  C   UNL A   1      35.837  32.306  30.427  1.00  0.00     0.010 A 
ATOM     31  C   UNL A   1      36.777  33.625  28.644  1.00  0.00     0.010 A 
ATOM     32  C   UNL A   1      36.949  32.658  29.645  1.00  0.00    -0.014 A 
BRANCH  32  33
ATOM     33  C   UNL A   1      38.289  32.080  29.947  1.00  0.00     0.031 A 
ATOM     34  C   UNL A   1      39.236  32.786  30.888  1.00  0.00     0.074 A 
ATOM     35  C   UNL A   1      38.658  30.897  29.416  1.00  0.00     0.049 A 
ATOM     36  N   UNL A   1      40.405  32.393  31.336  1.00  0.00    -0.248 NA
ATOM     37  C   UNL A   1      38.824  34.108  31.383  1.00  0.00     0.031 C 
ATOM     38  C   UNL A   1      37.866  30.105  28.475  1.00  0.00     0.029 A 
ATOM     39  N   UNL A   1      39.794  30.147  29.609  1.00  0.00    -0.354 N 
ATOM     40  C   UNL A   1      40.866  33.420  32.152  1.00  0.00     0.074 A 
ATOM     41  C   UNL A   1      39.876  34.473  32.101  1.00  0.00     0.031 C 
ATOM     42  C   UNL A   1      38.521  28.965  28.203  1.00  0.00     0.029 A 
ATOM     43  C   UNL A   1      39.788  28.952  28.930  1.00  0.00     0.049 A 
ATOM     44  H   UNL A   1      40.542  30.438  30.179  1.00  0.00     0.167 HD
ATOM     45  C   UNL A   1      41.998  33.482  32.895  1.00  0.00     0.031 A 
ATOM     46  C   UNL A   1      40.689  27.951  28.904  1.00  0.00     0.031 A 
ATOM     47  C   UNL A   1      42.988  32.442  32.972  1.00  0.00     0.049 A 
ATOM     48  C   UNL A   1      41.936  28.040  29.739  1.00  0.00     0.074 A 
ATOM     49  C   UNL A   1      44.145  32.407  33.733  1.00  0.00     0.029 A 
ATOM     50  N   UNL A   1      42.939  31.252  32.264  1.00  0.00    -0.354 N 
ATOM     51  N   UNL A   1      42.321  28.992  30.553  1.00  0.00    -0.248 NA
ATOM     52  C   UNL A   1      42.864  26.901  29.666  1.00  0.00     0.031 C 
ATOM     53  C   UNL A   1      44.815  31.210  33.458  1.00  0.00     0.029 A 
ATOM     54  C   UNL A   1      44.052  30.481  32.561  1.00  0.00     0.049 A 
ATOM     55  H   UNL A   1      42.221  30.993  31.643  1.00  0.00     0.167 HD
ATOM     56  C   UNL A   1      43.515  28.552  31.111  1.00  0.00     0.074 A 
ATOM     57  C   UNL A   1      43.786  27.244  30.555  1.00  0.00     0.031 C 
ATOM     58  C   UNL A   1      44.312  29.178  32.012  1.00  0.00     0.031 A 
BRANCH  45  59
ATOM     59  C   UNL A   1      42.227  34.734  33.696  1.00  0.00    -0.014 A 
ATOM     60  C   UNL A   1      41.819  34.822  35.036  1.00  0.00     0.009 A 
ATOM     61  C   UNL A   1      42.889  35.826  33.112  1.00  0.00     0.009 A 
ATOM     62  C   UNL A   1      42.038  35.992  35.766  1.00  0.00     0.001 A 
ATOM     63  C   UNL A   1      43.131  36.985  33.853  1.00  0.00     0.001 A 
ATOM     64  C   UNL A   1      42.697  37.070  35.176  1.00  0.00     0.000 A 
ENDBRANCH  45  59
BRANCH  46  65
ATOM     65  C   UNL A   1      40.430  26.743  28.079  1.00  0.00    -0.014 A 
ATOM     66  C   UNL A   1      40.959  26.642  26.783  1.00  0.00     0.009 A 
ATOM     67  C   UNL A   1      39.640  25.697  28.576  1.00  0.00     0.009 A 
ATOM     68  C   UNL A   1      40.679  25.526  25.990  1.00  0.00     0.001 A 
ATOM     69  C   UNL A   1      39.382  24.571  27.790  1.00  0.00     0.001 A 
ATOM     70  C   UNL A   1      39.893  24.491  26.496  1.00  0.00     0.000 A 
ENDBRANCH  46  65
BRANCH  58  71
ATOM     71  C   UNL A   1      45.528  28.437  32.490  1.00  0.00    -0.014 A 
ATOM     72  C   UNL A   1      46.772  28.587  31.858  1.00  0.00     0.009 A 
ATOM     73  C   UNL A   1      45.431  27.596  33.610  1.00  0.00     0.009 A 
ATOM     74  C   UNL A   1      47.887  27.882  32.317  1.00  0.00     0.001 A 
ATOM     75  C   UNL A   1      46.553  26.913  34.082  1.00  0.00     0.001 A 
ATOM     76  C   UNL A   1      47.778  27.048  33.430  1.00  0.00     0.000 A 
ENDBRANCH  58  71
ENDBRANCH  32  33
ENDBRANCH  24  27
ENDBRANCH  22  23
ENDBRANCH  21  22
ENDBRANCH   1  21
TORSDOF 15
ENDMDL
MODEL 2
REMARK VINA RESULT:      -8.5      0.555      6.037
REMARK SMILES CCN(CCC(=O)NCCCNC(=O)c1ccc(-c2c3nc(c(-c4ccccc4)c4ccc([nH]4)c(-c4ccccc4)c4nc(c(-c5ccccc5)c5ccc2[nH]5)C=C4)C=C3)cc1)C(=O)c1cc(Cl)ccc1F
REMARK SMILES IDX 9 1 8 2 6 3 7 4 5 6 4 7 3 8 2 9 1 10 63 11 64 12 65 13 66 14
REMARK SMILES IDX 71 15 67 16 70 17 72 18 68 19 69 20 10 21 11 22 12 23 13 24
REMARK SMILES IDX 14 26 15 27 16 28 62 29 17 30 61 31 18 32 19 33 20 34 55 35
REMARK SMILES IDX 21 36 60 37 54 38 56 39 22 40 59 41 53 42 52 43 23 45 45 46
REMARK SMILES IDX 30 47 44 48 31 49 34 50 43 51 57 52 32 53 33 54 42 56 58 57
REMARK SMILES IDX 35 58 24 59 25 60 29 61 26 62 28 63 27 64 46 65 47 66 51 67
REMARK SMILES IDX 48 68 50 69 49 70 36 71 37 72 41 73 38 74 40 75 39 76
REMARK H PARENT 8 5 12 25 56 44 34 55
REMARK Flexibility Score: inf
ROOT
ATOM      1  C   UNL A   1      34.800  34.988  32.984  1.00  0.00     0.117 C 
ENDROOT
BRANCH   1   2
ATOM      2  N   UNL A   1      34.775  34.597  34.384  1.00  0.00    -0.356 N 
ATOM      3  C   UNL A   1      35.728  33.984  35.139  1.00  0.00     0.221 C 
ATOM      4  O   UNL A   1      35.516  33.847  36.345  1.00  0.00    -0.275 OA
ATOM      5  H   UNL A   1      33.940  34.808  34.860  1.00  0.00     0.163 HD
BRANCH   3   6
ATOM      6  C   UNL A   1      37.004  33.482  34.514  1.00  0.00     0.121 C 
BRANCH   6   7
ATOM      7  C   UNL A   1      38.229  33.839  35.346  1.00  0.00     0.129 C 
BRANCH   7   8
ATOM      8  N   UNL A   1      38.689  32.811  36.293  1.00  0.00    -0.338 N 
BRANCH   8   9
ATOM      9  C   UNL A   1      39.239  33.369  37.548  1.00  0.00     0.116 C 
ATOM     10  C   UNL A   1      39.204  34.868  37.804  1.00  0.00     0.027 C 
ENDBRANCH   8   9
BRANCH   8  11
ATOM     11  C   UNL A   1      38.488  31.427  36.130  1.00  0.00     0.256 C 
ATOM     12  O   UNL A   1      37.872  30.746  36.952  1.00  0.00    -0.269 OA
BRANCH  11  13
ATOM     13  C   UNL A   1      39.226  30.629  35.105  1.00  0.00     0.077 A 
ATOM     14  C   UNL A   1      40.550  30.284  35.450  1.00  0.00     0.037 A 
ATOM     15  C   UNL A   1      38.726  30.142  33.901  1.00  0.00     0.136 A 
ATOM     16  C   UNL A   1      41.364  29.578  34.562  1.00  0.00     0.042 A 
ATOM     17  C   UNL A   1      39.559  29.487  32.987  1.00  0.00     0.041 A 
ATOM     18  F   UNL A   1      37.427  30.208  33.595  1.00  0.00    -0.206 F 
ATOM     19  Cl  UNL A   1      42.969  29.158  35.014  1.00  0.00    -0.084 Cl
ATOM     20  C   UNL A   1      40.886  29.215  33.310  1.00  0.00     0.023 A 
ENDBRANCH  11  13
ENDBRANCH   8  11
ENDBRANCH   7   8
ENDBRANCH   6   7
ENDBRANCH   3   6
ENDBRANCH   1   2
BRANCH   1  21
ATOM     21  C   UNL A   1      33.413  35.277  32.419  1.00  0.00     0.042 C 
BRANCH  21  22
ATOM     22  C   UNL A   1      33.417  36.086  31.126  1.00  0.00     0.118 C 
BRANCH  22  23
ATOM     23  N   UNL A   1      32.765  35.382  30.040  1.00  0.00    -0.352 N 
ATOM     24  C   UNL A   1      33.239  34.474  29.127  1.00  0.00     0.251 C 
ATOM     25  H   UNL A   1      31.809  35.594  29.938  1.00  0.00     0.163 HD
ATOM     26  O   UNL A   1      32.524  34.214  28.161  1.00  0.00    -0.269 OA
BRANCH  24  27
ATOM     27  C   UNL A   1      34.557  33.791  29.248  1.00  0.00     0.039 A 
ATOM     28  C   UNL A   1      34.655  32.737  30.167  1.00  0.00     0.014 A 
ATOM     29  C   UNL A   1      35.722  34.233  28.615  1.00  0.00     0.014 A 
ATOM     30  C   UNL A   1      35.892  32.152  30.459  1.00  0.00     0.010 A 
ATOM     31  C   UNL A   1      36.951  33.597  28.850  1.00  0.00     0.010 A 
ATOM     32  C   UNL A   1      37.060  32.579  29.808  1.00  0.00    -0.014 A 
BRANCH  32  33
ATOM     33  C   UNL A   1      38.385  32.024  30.206  1.00  0.00     0.031 A 
ATOM     34  C   UNL A   1      38.865  30.707  29.645  1.00  0.00     0.074 A 
ATOM     35  C   UNL A   1      39.191  32.709  31.041  1.00  0.00     0.049 A 
ATOM     36  N   UNL A   1      40.022  30.109  29.808  1.00  0.00    -0.248 NA
ATOM     37  C   UNL A   1      37.923  29.957  28.799  1.00  0.00     0.031 C 
ATOM     38  C   UNL A   1      38.861  33.982  31.683  1.00  0.00     0.029 A 
ATOM     39  N   UNL A   1      40.465  32.435  31.479  1.00  0.00    -0.354 N 
ATOM     40  C   UNL A   1      39.940  28.917  29.097  1.00  0.00     0.074 A 
ATOM     41  C   UNL A   1      38.606  28.852  28.540  1.00  0.00     0.031 C 
ATOM     42  C   UNL A   1      39.918  34.397  32.400  1.00  0.00     0.029 A 
ATOM     43  C   UNL A   1      40.991  33.412  32.290  1.00  0.00     0.049 A 
ATOM     44  H   UNL A   1      40.953  31.615  31.237  1.00  0.00     0.167 HD
ATOM     45  C   UNL A   1      40.888  27.968  28.901  1.00  0.00     0.031 A 
ATOM     46  C   UNL A   1      42.203  33.515  32.868  1.00  0.00     0.031 A 
ATOM     47  C   UNL A   1      42.223  28.020  29.433  1.00  0.00     0.049 A 
ATOM     48  C   UNL A   1      43.241  32.452  32.635  1.00  0.00     0.074 A 
ATOM     49  C   UNL A   1      43.260  27.120  29.250  1.00  0.00     0.029 A 
ATOM     50  N   UNL A   1      42.709  29.027  30.250  1.00  0.00    -0.354 N 
ATOM     51  N   UNL A   1      43.163  31.365  31.908  1.00  0.00    -0.248 NA
ATOM     52  C   UNL A   1      44.543  32.644  33.291  1.00  0.00     0.031 C 
ATOM     53  C   UNL A   1      44.363  27.564  29.986  1.00  0.00     0.029 A 
ATOM     54  C   UNL A   1      44.026  28.765  30.590  1.00  0.00     0.049 A 
ATOM     55  H   UNL A   1      42.195  29.813  30.545  1.00  0.00     0.167 HD
ATOM     56  C   UNL A   1      44.413  30.764  31.991  1.00  0.00     0.074 A 
ATOM     57  C   UNL A   1      45.234  31.611  32.829  1.00  0.00     0.031 C 
ATOM     58  C   UNL A   1      44.841  29.614  31.416  1.00  0.00     0.031 A 
BRANCH  45  59
ATOM     59  C   UNL A   1      40.506  26.777  28.067  1.00  0.00    -0.014 A 
ATOM     60  C   UNL A   1      39.739  25.731  28.606  1.00  0.00     0.009 A 
ATOM     61  C   UNL A   1      40.890  26.715  26.719  1.00  0.00     0.009 A 
ATOM     62  C   UNL A   1      39.393  24.631  27.819  1.00  0.00     0.001 A 
ATOM     63  C   UNL A   1      40.520  25.625  25.927  1.00  0.00     0.001 A 
ATOM     64  C   UNL A   1      39.780  24.580  26.480  1.00  0.00     0.000 A 
ENDBRANCH  45  59
BRANCH  46  65
ATOM     65  C   UNL A   1      42.527  34.700  33.704  1.00  0.00    -0.014 A 
ATOM     66  C   UNL A   1      43.016  35.875  33.113  1.00  0.00     0.009 A 
ATOM     67  C   UNL A   1      42.367  34.654  35.097  1.00  0.00     0.009 A 
ATOM     68  C   UNL A   1      43.363  36.973  33.903  1.00  0.00     0.001 A 
ATOM     69  C   UNL A   1      42.692  35.762  35.883  1.00  0.00     0.001 A 
ATOM     70  C   UNL A   1      43.198  36.916  35.286  1.00  0.00     0.000 A 
ENDBRANCH  46  65
BRANCH  58  71
ATOM     71  C   UNL A   1      46.276  29.226  31.634  1.00  0.00    -0.014 A 
ATOM     72  C   UNL A   1      46.657  28.394  32.698  1.00  0.00     0.009 A 
ATOM     73  C   UNL A   1      47.259  29.679  30.740  1.00  0.00     0.009 A 
ATOM     74  C   UNL A   1      47.999  28.053  32.882  1.00  0.00     0.001 A 
ATOM     75  C   UNL A   1      48.596  29.316  30.912  1.00  0.00     0.001 A 
ATOM     76  C   UNL A   1      48.966  28.511  31.988  1.00  0.00     0.000 A 
ENDBRANCH  58  71
ENDBRANCH  32  33
ENDBRANCH  24  27
ENDBRANCH  22  23
ENDBRANCH  21  22
ENDBRANCH   1  21
TORSDOF 15
ENDMDL
MODEL 3
REMARK VINA RESULT:      -8.4      4.564      7.361
REMARK SMILES CCN(CCC(=O)NCCCNC(=O)c1ccc(-c2c3nc(c(-c4ccccc4)c4ccc([nH]4)c(-c4ccccc4)c4nc(c(-c5ccccc5)c5ccc2[nH]5)C=C4)C=C3)cc1)C(=O)c1cc(Cl)ccc1F
REMARK SMILES IDX 9 1 8 2 6 3 7 4 5 6 4 7 3 8 2 9 1 10 63 11 64 12 65 13 66 14
REMARK SMILES IDX 71 15 67 16 70 17 72 18 68 19 69 20 10 21 11 22 12 23 13 24
REMARK SMILES IDX 14 26 15 27 16 28 62 29 17 30 61 31 18 32 19 33 20 34 55 35
REMARK SMILES IDX 21 36 60 37 54 38 56 39 22 40 59 41 53 42 52 43 23 45 45 46
REMARK SMILES IDX 30 47 44 48 31 49 34 50 43 51 57 52 32 53 33 54 42 56 58 57
REMARK SMILES IDX 35 58 24 59 25 60 29 61 26 62 28 63 27 64 46 65 47 66 51 67
REMARK SMILES IDX 48 68 50 69 49 70 36 71 37 72 41 73 38 74 40 75 39 76
REMARK H PARENT 8 5 12 25 56 44 34 55
REMARK Flexibility Score: inf
ROOT
ATOM      1  C   UNL A   1      30.902  30.226  24.961  1.00  0.00     0.117 C 
ENDROOT
BRANCH   1   2
ATOM      2  N   UNL A   1      30.406  30.280  23.596  1.00  0.00    -0.356 N 
ATOM      3  C   UNL A   1      30.155  29.272  22.715  1.00  0.00     0.221 C 
ATOM      4  O   UNL A   1      29.634  29.558  21.636  1.00  0.00    -0.275 OA
ATOM      5  H   UNL A   1      30.222  31.184  23.255  1.00  0.00     0.163 HD
BRANCH   3   6
ATOM      6  C   UNL A   1      30.514  27.847  23.050  1.00  0.00     0.121 C 
BRANCH   6   7
ATOM      7  C   UNL A   1      31.965  27.527  22.711  1.00  0.00     0.129 C 
BRANCH   7   8
ATOM      8  N   UNL A   1      32.442  26.192  23.105  1.00  0.00    -0.338 N 
BRANCH   8   9
ATOM      9  C   UNL A   1      32.838  25.345  21.959  1.00  0.00     0.116 C 
ATOM     10  C   UNL A   1      32.360  25.679  20.554  1.00  0.00     0.027 C 
ENDBRANCH   8   9
BRANCH   8  11
ATOM     11  C   UNL A   1      32.673  25.787  24.434  1.00  0.00     0.256 C 
ATOM     12  O   UNL A   1      32.755  24.601  24.760  1.00  0.00    -0.269 OA
BRANCH  11  13
ATOM     13  C   UNL A   1      32.564  26.731  25.586  1.00  0.00     0.077 A 
ATOM     14  C   UNL A   1      33.697  27.541  25.810  1.00  0.00     0.037 A 
ATOM     15  C   UNL A   1      31.453  26.939  26.398  1.00  0.00     0.136 A 
ATOM     16  C   UNL A   1      33.744  28.435  26.882  1.00  0.00     0.042 A 
ATOM     17  C   UNL A   1      31.520  27.791  27.506  1.00  0.00     0.041 A 
ATOM     18  F   UNL A   1      30.261  26.403  26.120  1.00  0.00    -0.206 F 
ATOM     19  Cl  UNL A   1      35.132  29.419  27.123  1.00  0.00    -0.084 Cl
ATOM     20  C   UNL A   1      32.672  28.531  27.760  1.00  0.00     0.023 A 
ENDBRANCH  11  13
ENDBRANCH   8  11
ENDBRANCH   7   8
ENDBRANCH   6   7
ENDBRANCH   3   6
ENDBRANCH   1   2
BRANCH   1  21
ATOM     21  C   UNL A   1      30.870  31.580  25.662  1.00  0.00     0.042 C 
BRANCH  21  22
ATOM     22  C   UNL A   1      31.895  31.734  26.781  1.00  0.00     0.118 C 
BRANCH  22  23
ATOM     23  N   UNL A   1      32.029  33.109  27.216  1.00  0.00    -0.352 N 
ATOM     24  C   UNL A   1      32.979  33.735  27.983  1.00  0.00     0.251 C 
ATOM     25  H   UNL A   1      31.308  33.702  26.904  1.00  0.00     0.163 HD
ATOM     26  O   UNL A   1      32.721  34.864  28.398  1.00  0.00    -0.269 OA
BRANCH  24  27
ATOM     27  C   UNL A   1      34.294  33.127  28.329  1.00  0.00     0.039 A 
ATOM     28  C   UNL A   1      34.306  32.139  29.323  1.00  0.00     0.014 A 
ATOM     29  C   UNL A   1      35.516  33.585  27.831  1.00  0.00     0.014 A 
ATOM     30  C   UNL A   1      35.513  31.636  29.820  1.00  0.00     0.010 A 
ATOM     31  C   UNL A   1      36.726  33.027  28.274  1.00  0.00     0.010 A 
ATOM     32  C   UNL A   1      36.742  32.078  29.306  1.00  0.00    -0.014 A 
BRANCH  32  33
ATOM     33  C   UNL A   1      38.020  31.615  29.918  1.00  0.00     0.031 A 
ATOM     34  C   UNL A   1      38.554  32.268  31.170  1.00  0.00     0.074 A 
ATOM     35  C   UNL A   1      38.696  30.579  29.384  1.00  0.00     0.049 A 
ATOM     36  N   UNL A   1      39.601  31.944  31.892  1.00  0.00    -0.248 NA
ATOM     37  C   UNL A   1      37.825  33.442  31.675  1.00  0.00     0.031 C 
ATOM     38  C   UNL A   1      38.323  29.859  28.165  1.00  0.00     0.029 A 
ATOM     39  N   UNL A   1      39.837  29.940  29.811  1.00  0.00    -0.354 N 
ATOM     40  C   UNL A   1      39.658  32.877  32.921  1.00  0.00     0.074 A 
ATOM     41  C   UNL A   1      38.571  33.807  32.707  1.00  0.00     0.031 C 
ATOM     42  C   UNL A   1      39.193  28.856  27.966  1.00  0.00     0.029 A 
ATOM     43  C   UNL A   1      40.199  28.873  29.025  1.00  0.00     0.049 A 
ATOM     44  H   UNL A   1      40.346  30.222  30.605  1.00  0.00     0.167 HD
ATOM     45  C   UNL A   1      40.519  32.949  33.966  1.00  0.00     0.031 A 
ATOM     46  C   UNL A   1      41.214  27.996  29.146  1.00  0.00     0.031 A 
ATOM     47  C   UNL A   1      41.597  32.028  34.206  1.00  0.00     0.049 A 
ATOM     48  C   UNL A   1      42.156  28.094  30.315  1.00  0.00     0.074 A 
ATOM     49  C   UNL A   1      42.492  32.005  35.263  1.00  0.00     0.029 A 
ATOM     50  N   UNL A   1      41.926  30.965  33.381  1.00  0.00    -0.354 N 
ATOM     51  N   UNL A   1      42.153  28.945  31.311  1.00  0.00    -0.248 NA
ATOM     52  C   UNL A   1      43.230  27.091  30.384  1.00  0.00     0.031 C 
ATOM     53  C   UNL A   1      43.387  30.949  35.058  1.00  0.00     0.029 A 
ATOM     54  C   UNL A   1      43.019  30.287  33.898  1.00  0.00     0.049 A 
ATOM     55  H   UNL A   1      41.454  30.727  32.551  1.00  0.00     0.167 HD
ATOM     56  C   UNL A   1      43.201  28.560  32.139  1.00  0.00     0.074 A 
ATOM     57  C   UNL A   1      43.810  27.394  31.537  1.00  0.00     0.031 C 
ATOM     58  C   UNL A   1      43.615  29.123  33.301  1.00  0.00     0.031 A 
BRANCH  45  59
ATOM     59  C   UNL A   1      40.327  34.079  34.939  1.00  0.00    -0.014 A 
ATOM     60  C   UNL A   1      39.541  33.917  36.091  1.00  0.00     0.009 A 
ATOM     61  C   UNL A   1      40.967  35.309  34.719  1.00  0.00     0.009 A 
ATOM     62  C   UNL A   1      39.371  34.975  36.985  1.00  0.00     0.001 A 
ATOM     63  C   UNL A   1      40.816  36.357  35.629  1.00  0.00     0.001 A 
ATOM     64  C   UNL A   1      40.011  36.193  36.756  1.00  0.00     0.000 A 
ENDBRANCH  45  59
BRANCH  46  65
ATOM     65  C   UNL A   1      41.379  26.910  28.146  1.00  0.00    -0.014 A 
ATOM     66  C   UNL A   1      42.207  27.094  27.028  1.00  0.00     0.009 A 
ATOM     67  C   UNL A   1      40.696  25.695  28.295  1.00  0.00     0.009 A 
ATOM     68  C   UNL A   1      42.327  26.090  26.064  1.00  0.00     0.001 A 
ATOM     69  C   UNL A   1      40.837  24.683  27.343  1.00  0.00     0.001 A 
ATOM     70  C   UNL A   1      41.644  24.885  26.224  1.00  0.00     0.000 A 
ENDBRANCH  46  65
BRANCH  58  71
ATOM     71  C   UNL A   1      44.752  28.459  34.023  1.00  0.00    -0.014 A 
ATOM     72  C   UNL A   1      46.085  28.832  33.792  1.00  0.00     0.009 A 
ATOM     73  C   UNL A   1      44.480  27.461  34.972  1.00  0.00     0.009 A 
ATOM     74  C   UNL A   1      47.125  28.194  34.472  1.00  0.00     0.001 A 
ATOM     75  C   UNL A   1      45.521  26.843  35.669  1.00  0.00     0.001 A 
ATOM     76  C   UNL A   1      46.842  27.203  35.412  1.00  0.00     0.000 A 
ENDBRANCH  58  71
ENDBRANCH  32  33
ENDBRANCH  24  27
ENDBRANCH  22  23
ENDBRANCH  21  22
ENDBRANCH   1  21
TORSDOF 15
ENDMDL
