MODEL 1
REMARK VINA RESULT:     -12.2      0.000      0.000
REMARK SMILES O=C(NCCCNC(=O)c1ccnc(-n2cnnn2)c1)c1ccc(-c2c3nc(c(-c4ccccc4)c4ccc([nH]4)c(-c4ccccc4)c4nc(c(-c5ccccc5)c5ccc2[nH]5)C=C4)C=C3)cc1
REMARK SMILES IDX 4 1 3 2 1 3 2 4 21 6 22 7 68 8 23 9 67 10 24 11 25 12 26 13
REMARK SMILES IDX 61 14 27 15 66 16 60 17 62 18 28 19 65 20 59 21 58 22 29 24
REMARK SMILES IDX 51 25 36 26 50 27 37 28 40 29 49 30 63 31 38 32 39 33 48 35
REMARK SMILES IDX 64 36 41 37 30 38 31 39 35 40 32 41 34 42 33 43 52 44 53 45
REMARK SMILES IDX 57 46 54 47 56 48 55 49 42 50 43 51 47 52 44 53 46 54 45 55
REMARK SMILES IDX 5 56 6 57 7 58 8 59 9 61 10 62 11 63 20 64 12 65 14 66 13 67
REMARK SMILES IDX 15 68 16 69 19 70 17 71 18 72
REMARK H PARENT 3 5 62 23 40 34 7 60
REMARK Flexibility Score: inf
ROOT
ATOM      1  C   UNL A   1      37.824  22.090  25.757  1.00  0.00     0.118 C 
ENDROOT
BRANCH   1   2
ATOM      2  N   UNL A   1      39.237  21.798  25.891  1.00  0.00    -0.352 N 
ATOM      3  O   UNL A   1      41.340  21.732  26.549  1.00  0.00    -0.269 OA
ATOM      4  C   UNL A   1      40.298  22.392  26.515  1.00  0.00     0.251 C 
ATOM      5  H   UNL A   1      39.496  20.974  25.418  1.00  0.00     0.163 HD
BRANCH   4   6
ATOM      6  C   UNL A   1      40.317  23.772  27.073  1.00  0.00     0.039 A 
ATOM      7  C   UNL A   1      39.361  24.766  26.859  1.00  0.00     0.014 A 
ATOM      8  C   UNL A   1      41.423  24.073  27.894  1.00  0.00     0.014 A 
ATOM      9  C   UNL A   1      39.545  26.045  27.395  1.00  0.00     0.010 A 
ATOM     10  C   UNL A   1      41.610  25.342  28.431  1.00  0.00     0.010 A 
ATOM     11  C   UNL A   1      40.680  26.340  28.161  1.00  0.00    -0.014 A 
BRANCH  11  12
ATOM     12  C   UNL A   1      40.761  27.632  28.850  1.00  0.00     0.031 A 
ATOM     13  C   UNL A   1      41.755  28.574  28.255  1.00  0.00     0.074 A 
ATOM     14  C   UNL A   1      39.912  28.047  29.815  1.00  0.00     0.049 A 
ATOM     15  N   UNL A   1      42.789  29.101  28.824  1.00  0.00    -0.248 NA
ATOM     16  C   UNL A   1      41.637  28.892  26.822  1.00  0.00     0.031 C 
ATOM     17  C   UNL A   1      38.704  27.376  30.300  1.00  0.00     0.029 A 
ATOM     18  N   UNL A   1      39.897  29.229  30.502  1.00  0.00    -0.354 N 
ATOM     19  C   UNL A   1      43.364  29.949  27.877  1.00  0.00     0.074 A 
ATOM     20  C   UNL A   1      42.693  29.682  26.632  1.00  0.00     0.031 C 
ATOM     21  C   UNL A   1      37.963  28.250  31.024  1.00  0.00     0.029 A 
ATOM     22  C   UNL A   1      38.702  29.494  31.167  1.00  0.00     0.049 A 
ATOM     23  H   UNL A   1      40.666  29.843  30.525  1.00  0.00     0.167 HD
ATOM     24  C   UNL A   1      44.205  30.959  28.234  1.00  0.00     0.031 A 
ATOM     25  C   UNL A   1      38.327  30.661  31.753  1.00  0.00     0.031 A 
ATOM     26  C   UNL A   1      44.722  30.780  29.563  1.00  0.00     0.049 A 
ATOM     27  C   UNL A   1      39.545  31.466  31.981  1.00  0.00     0.074 A 
ATOM     28  C   UNL A   1      45.486  29.819  30.194  1.00  0.00     0.029 A 
ATOM     29  N   UNL A   1      44.144  31.520  30.565  1.00  0.00    -0.354 N 
ATOM     30  N   UNL A   1      40.459  31.158  32.853  1.00  0.00    -0.248 NA
ATOM     31  C   UNL A   1      39.954  32.397  30.943  1.00  0.00     0.031 C 
ATOM     32  C   UNL A   1      44.938  29.721  31.506  1.00  0.00     0.029 A 
ATOM     33  C   UNL A   1      43.927  30.676  31.622  1.00  0.00     0.049 A 
ATOM     34  H   UNL A   1      43.926  32.479  30.531  1.00  0.00     0.167 HD
ATOM     35  C   UNL A   1      41.652  31.471  32.225  1.00  0.00     0.074 A 
ATOM     36  C   UNL A   1      41.279  32.326  31.100  1.00  0.00     0.031 C 
ATOM     37  C   UNL A   1      42.795  30.780  32.511  1.00  0.00     0.031 A 
BRANCH  24  38
ATOM     38  C   UNL A   1      44.233  32.304  27.547  1.00  0.00    -0.014 A 
ATOM     39  C   UNL A   1      43.746  33.429  28.242  1.00  0.00     0.009 A 
ATOM     40  C   UNL A   1      44.432  32.457  26.163  1.00  0.00     0.009 A 
ATOM     41  C   UNL A   1      43.394  34.606  27.572  1.00  0.00     0.001 A 
ATOM     42  C   UNL A   1      44.120  33.646  25.496  1.00  0.00     0.001 A 
ATOM     43  C   UNL A   1      43.571  34.710  26.196  1.00  0.00     0.000 A 
ENDBRANCH  24  38
BRANCH  25  44
ATOM     44  C   UNL A   1      36.982  31.261  31.919  1.00  0.00    -0.014 A 
ATOM     45  C   UNL A   1      36.581  31.810  33.151  1.00  0.00     0.009 A 
ATOM     46  C   UNL A   1      36.205  31.567  30.789  1.00  0.00     0.009 A 
ATOM     47  C   UNL A   1      35.474  32.667  33.238  1.00  0.00     0.001 A 
ATOM     48  C   UNL A   1      35.099  32.421  30.876  1.00  0.00     0.001 A 
ATOM     49  C   UNL A   1      34.744  32.985  32.097  1.00  0.00     0.000 A 
ENDBRANCH  25  44
BRANCH  37  50
ATOM     50  C   UNL A   1      42.790  29.858  33.705  1.00  0.00    -0.014 A 
ATOM     51  C   UNL A   1      43.167  30.260  35.000  1.00  0.00     0.009 A 
ATOM     52  C   UNL A   1      42.245  28.576  33.540  1.00  0.00     0.009 A 
ATOM     53  C   UNL A   1      43.029  29.390  36.087  1.00  0.00     0.001 A 
ATOM     54  C   UNL A   1      42.085  27.717  34.628  1.00  0.00     0.001 A 
ATOM     55  C   UNL A   1      42.483  28.121  35.900  1.00  0.00     0.000 A 
ENDBRANCH  37  50
ENDBRANCH  11  12
ENDBRANCH   4   6
ENDBRANCH   1   2
BRANCH   1  56
ATOM     56  C   UNL A   1      37.145  21.457  24.544  1.00  0.00     0.042 C 
BRANCH  56  57
ATOM     57  C   UNL A   1      35.815  22.100  24.146  1.00  0.00     0.118 C 
BRANCH  57  58
ATOM     58  N   UNL A   1      34.916  22.278  25.279  1.00  0.00    -0.352 N 
ATOM     59  C   UNL A   1      33.725  21.676  25.567  1.00  0.00     0.251 C 
ATOM     60  H   UNL A   1      35.218  22.938  25.944  1.00  0.00     0.163 HD
ATOM     61  O   UNL A   1      33.021  22.115  26.483  1.00  0.00    -0.269 OA
BRANCH  59  62
ATOM     62  C   UNL A   1      33.236  20.514  24.804  1.00  0.00     0.045 A 
ATOM     63  C   UNL A   1      32.487  20.678  23.642  1.00  0.00     0.034 A 
ATOM     64  C   UNL A   1      33.659  19.242  25.199  1.00  0.00     0.063 A 
ATOM     65  C   UNL A   1      32.164  19.543  22.925  1.00  0.00     0.114 A 
ATOM     66  C   UNL A   1      33.300  18.158  24.407  1.00  0.00     0.157 A 
ATOM     67  N   UNL A   1      32.560  18.301  23.275  1.00  0.00    -0.237 NA
BRANCH  66  68
ATOM     68  N   UNL A   1      33.726  16.854  24.767  1.00  0.00    -0.182 N 
ATOM     69  C   UNL A   1      35.002  16.368  24.906  1.00  0.00     0.254 A 
ATOM     70  N   UNL A   1      32.866  15.850  25.052  1.00  0.00    -0.039 NA
ATOM     71  N   UNL A   1      34.951  15.089  25.195  1.00  0.00    -0.117 NA
ATOM     72  N   UNL A   1      33.618  14.778  25.267  1.00  0.00    -0.024 NA
ENDBRANCH  66  68
ENDBRANCH  59  62
ENDBRANCH  57  58
ENDBRANCH  56  57
ENDBRANCH   1  56
TORSDOF 11
ENDMDL
MODEL 2
REMARK VINA RESULT:     -12.1      5.160     11.572
REMARK SMILES O=C(NCCCNC(=O)c1ccnc(-n2cnnn2)c1)c1ccc(-c2c3nc(c(-c4ccccc4)c4ccc([nH]4)c(-c4ccccc4)c4nc(c(-c5ccccc5)c5ccc2[nH]5)C=C4)C=C3)cc1
REMARK SMILES IDX 4 1 3 2 1 3 2 4 21 6 22 7 68 8 23 9 67 10 24 11 25 12 26 13
REMARK SMILES IDX 61 14 27 15 66 16 60 17 62 18 28 19 65 20 59 21 58 22 29 24
REMARK SMILES IDX 51 25 36 26 50 27 37 28 40 29 49 30 63 31 38 32 39 33 48 35
REMARK SMILES IDX 64 36 41 37 30 38 31 39 35 40 32 41 34 42 33 43 52 44 53 45
REMARK SMILES IDX 57 46 54 47 56 48 55 49 42 50 43 51 47 52 44 53 46 54 45 55
REMARK SMILES IDX 5 56 6 57 7 58 8 59 9 61 10 62 11 63 20 64 12 65 14 66 13 67
REMARK SMILES IDX 15 68 16 69 19 70 17 71 18 72
REMARK H PARENT 3 5 62 23 40 34 7 60
REMARK Flexibility Score: inf
ROOT
ATOM      1  C   UNL A   1      39.071  34.689  29.719  1.00  0.00     0.118 C 
ENDROOT
BRANCH   1   2
ATOM      2  N   UNL A   1      39.315  34.541  31.139  1.00  0.00    -0.352 N 
ATOM      3  O   UNL A   1      40.139  33.985  33.107  1.00  0.00    -0.269 OA
ATOM      4  C   UNL A   1      40.027  33.672  31.918  1.00  0.00     0.251 C 
ATOM      5  H   UNL A   1      38.858  35.231  31.672  1.00  0.00     0.163 HD
BRANCH   4   6
ATOM      6  C   UNL A   1      40.597  32.371  31.472  1.00  0.00     0.039 A 
ATOM      7  C   UNL A   1      41.907  32.142  31.049  1.00  0.00     0.014 A 
ATOM      8  C   UNL A   1      39.699  31.285  31.489  1.00  0.00     0.014 A 
ATOM      9  C   UNL A   1      42.286  30.875  30.591  1.00  0.00     0.010 A 
ATOM     10  C   UNL A   1      40.070  30.024  31.037  1.00  0.00     0.010 A 
ATOM     11  C   UNL A   1      41.362  29.823  30.562  1.00  0.00    -0.014 A 
BRANCH  11  12
ATOM     12  C   UNL A   1      41.829  28.471  30.241  1.00  0.00     0.031 A 
ATOM     13  C   UNL A   1      42.656  27.845  31.315  1.00  0.00     0.074 A 
ATOM     14  C   UNL A   1      41.425  27.746  29.175  1.00  0.00     0.049 A 
ATOM     15  N   UNL A   1      43.879  27.431  31.237  1.00  0.00    -0.248 NA
ATOM     16  C   UNL A   1      42.084  27.759  32.670  1.00  0.00     0.031 C 
ATOM     17  C   UNL A   1      40.392  28.088  28.195  1.00  0.00     0.029 A 
ATOM     18  N   UNL A   1      41.790  26.483  28.801  1.00  0.00    -0.354 N 
ATOM     19  C   UNL A   1      44.183  26.879  32.481  1.00  0.00     0.074 A 
ATOM     20  C   UNL A   1      43.092  27.224  33.357  1.00  0.00     0.031 C 
ATOM     21  C   UNL A   1      40.059  26.981  27.487  1.00  0.00     0.029 A 
ATOM     22  C   UNL A   1      40.942  25.891  27.868  1.00  0.00     0.049 A 
ATOM     23  H   UNL A   1      42.586  26.028  29.161  1.00  0.00     0.167 HD
ATOM     24  C   UNL A   1      45.208  25.998  32.645  1.00  0.00     0.031 A 
ATOM     25  C   UNL A   1      40.935  24.592  27.469  1.00  0.00     0.031 A 
ATOM     26  C   UNL A   1      46.131  26.041  31.544  1.00  0.00     0.049 A 
ATOM     27  C   UNL A   1      42.242  24.001  27.826  1.00  0.00     0.074 A 
ATOM     28  C   UNL A   1      46.948  27.006  30.991  1.00  0.00     0.029 A 
ATOM     29  N   UNL A   1      46.030  25.047  30.603  1.00  0.00    -0.354 N 
ATOM     30  N   UNL A   1      43.359  24.321  27.244  1.00  0.00    -0.248 NA
ATOM     31  C   UNL A   1      42.370  23.353  29.120  1.00  0.00     0.031 C 
ATOM     32  C   UNL A   1      46.885  26.776  29.586  1.00  0.00     0.029 A 
ATOM     33  C   UNL A   1      46.098  25.643  29.372  1.00  0.00     0.049 A 
ATOM     34  H   UNL A   1      45.928  24.083  30.779  1.00  0.00     0.167 HD
ATOM     35  C   UNL A   1      44.287  24.347  28.271  1.00  0.00     0.074 A 
ATOM     36  C   UNL A   1      43.648  23.642  29.380  1.00  0.00     0.031 C 
ATOM     37  C   UNL A   1      45.368  25.180  28.216  1.00  0.00     0.031 A 
BRANCH  24  38
ATOM     38  C   UNL A   1      45.152  24.819  33.588  1.00  0.00    -0.014 A 
ATOM     39  C   UNL A   1      44.271  23.759  33.293  1.00  0.00     0.009 A 
ATOM     40  C   UNL A   1      45.695  24.843  34.885  1.00  0.00     0.009 A 
ATOM     41  C   UNL A   1      43.889  22.834  34.272  1.00  0.00     0.001 A 
ATOM     42  C   UNL A   1      45.347  23.896  35.853  1.00  0.00     0.001 A 
ATOM     43  C   UNL A   1      44.419  22.911  35.555  1.00  0.00     0.000 A 
ENDBRANCH  24  38
BRANCH  25  44
ATOM     44  C   UNL A   1      39.813  23.732  27.023  1.00  0.00    -0.014 A 
ATOM     45  C   UNL A   1      38.596  24.294  26.597  1.00  0.00     0.009 A 
ATOM     46  C   UNL A   1      40.039  22.377  26.730  1.00  0.00     0.009 A 
ATOM     47  C   UNL A   1      37.664  23.541  25.868  1.00  0.00     0.001 A 
ATOM     48  C   UNL A   1      39.109  21.624  26.004  1.00  0.00     0.001 A 
ATOM     49  C   UNL A   1      37.929  22.210  25.558  1.00  0.00     0.000 A 
ENDBRANCH  25  44
BRANCH  37  50
ATOM     50  C   UNL A   1      45.671  25.868  26.908  1.00  0.00    -0.014 A 
ATOM     51  C   UNL A   1      45.109  27.102  26.532  1.00  0.00     0.009 A 
ATOM     52  C   UNL A   1      46.671  25.318  26.094  1.00  0.00     0.009 A 
ATOM     53  C   UNL A   1      45.519  27.746  25.358  1.00  0.00     0.001 A 
ATOM     54  C   UNL A   1      47.097  25.972  24.937  1.00  0.00     0.001 A 
ATOM     55  C   UNL A   1      46.517  27.182  24.566  1.00  0.00     0.000 A 
ENDBRANCH  37  50
ENDBRANCH  11  12
ENDBRANCH   4   6
ENDBRANCH   1   2
BRANCH   1  56
ATOM     56  C   UNL A   1      37.683  34.257  29.252  1.00  0.00     0.042 C 
BRANCH  56  57
ATOM     57  C   UNL A   1      37.557  32.774  28.899  1.00  0.00     0.118 C 
BRANCH  57  58
ATOM     58  N   UNL A   1      36.226  32.420  28.426  1.00  0.00    -0.352 N 
ATOM     59  C   UNL A   1      35.051  32.283  29.109  1.00  0.00     0.251 C 
ATOM     60  H   UNL A   1      36.163  32.253  27.458  1.00  0.00     0.163 HD
ATOM     61  O   UNL A   1      34.071  31.781  28.549  1.00  0.00    -0.269 OA
BRANCH  59  62
ATOM     62  C   UNL A   1      34.914  32.709  30.513  1.00  0.00     0.045 A 
ATOM     63  C   UNL A   1      35.378  31.912  31.556  1.00  0.00     0.034 A 
ATOM     64  C   UNL A   1      34.430  33.995  30.768  1.00  0.00     0.063 A 
ATOM     65  C   UNL A   1      35.314  32.431  32.833  1.00  0.00     0.114 A 
ATOM     66  C   UNL A   1      34.418  34.441  32.083  1.00  0.00     0.157 A 
ATOM     67  N   UNL A   1      34.858  33.670  33.114  1.00  0.00    -0.237 NA
BRANCH  66  68
ATOM     68  N   UNL A   1      33.950  35.747  32.377  1.00  0.00    -0.182 N 
ATOM     69  C   UNL A   1      32.841  36.397  31.896  1.00  0.00     0.254 A 
ATOM     70  N   UNL A   1      34.576  36.578  33.242  1.00  0.00    -0.039 NA
ATOM     71  N   UNL A   1      32.808  37.617  32.381  1.00  0.00    -0.117 NA
ATOM     72  N   UNL A   1      33.901  37.719  33.202  1.00  0.00    -0.024 NA
ENDBRANCH  66  68
ENDBRANCH  59  62
ENDBRANCH  57  58
ENDBRANCH  56  57
ENDBRANCH   1  56
TORSDOF 11
ENDMDL
MODEL 3
REMARK VINA RESULT:     -12.1      5.246      6.647
REMARK SMILES O=C(NCCCNC(=O)c1ccnc(-n2cnnn2)c1)c1ccc(-c2c3nc(c(-c4ccccc4)c4ccc([nH]4)c(-c4ccccc4)c4nc(c(-c5ccccc5)c5ccc2[nH]5)C=C4)C=C3)cc1
REMARK SMILES IDX 4 1 3 2 1 3 2 4 21 6 22 7 68 8 23 9 67 10 24 11 25 12 26 13
REMARK SMILES IDX 61 14 27 15 66 16 60 17 62 18 28 19 65 20 59 21 58 22 29 24
REMARK SMILES IDX 51 25 36 26 50 27 37 28 40 29 49 30 63 31 38 32 39 33 48 35
REMARK SMILES IDX 64 36 41 37 30 38 31 39 35 40 32 41 34 42 33 43 52 44 53 45
REMARK SMILES IDX 57 46 54 47 56 48 55 49 42 50 43 51 47 52 44 53 46 54 45 55
REMARK SMILES IDX 5 56 6 57 7 58 8 59 9 61 10 62 11 63 20 64 12 65 14 66 13 67
REMARK SMILES IDX 15 68 16 69 19 70 17 71 18 72
REMARK H PARENT 3 5 62 23 40 34 7 60
REMARK Flexibility Score: inf
ROOT
ATOM      1  C   UNL A   1      43.354  22.954  29.494  1.00  0.00     0.118 C 
ENDROOT
BRANCH   1   2
ATOM      2  N   UNL A   1      44.598  23.573  29.084  1.00  0.00    -0.352 N 
ATOM      3  O   UNL A   1      46.256  24.983  28.736  1.00  0.00    -0.269 OA
ATOM      4  C   UNL A   1      45.047  24.856  28.947  1.00  0.00     0.251 C 
ATOM      5  H   UNL A   1      45.286  22.910  28.845  1.00  0.00     0.163 HD
BRANCH   4   6
ATOM      6  C   UNL A   1      44.198  26.080  28.953  1.00  0.00     0.039 A 
ATOM      7  C   UNL A   1      43.709  26.755  27.835  1.00  0.00     0.014 A 
ATOM      8  C   UNL A   1      43.876  26.580  30.231  1.00  0.00     0.014 A 
ATOM      9  C   UNL A   1      42.977  27.937  27.992  1.00  0.00     0.010 A 
ATOM     10  C   UNL A   1      43.147  27.753  30.394  1.00  0.00     0.010 A 
ATOM     11  C   UNL A   1      42.716  28.449  29.270  1.00  0.00    -0.014 A 
BRANCH  11  12
ATOM     12  C   UNL A   1      41.805  29.589  29.410  1.00  0.00     0.031 A 
ATOM     13  C   UNL A   1      42.474  30.918  29.284  1.00  0.00     0.074 A 
ATOM     14  C   UNL A   1      40.458  29.499  29.463  1.00  0.00     0.049 A 
ATOM     15  N   UNL A   1      42.527  31.867  30.160  1.00  0.00    -0.248 NA
ATOM     16  C   UNL A   1      43.263  31.184  28.068  1.00  0.00     0.031 C 
ATOM     17  C   UNL A   1      39.629  28.304  29.292  1.00  0.00     0.029 A 
ATOM     18  N   UNL A   1      39.531  30.497  29.578  1.00  0.00    -0.354 N 
ATOM     19  C   UNL A   1      43.213  32.919  29.552  1.00  0.00     0.074 A 
ATOM     20  C   UNL A   1      43.751  32.398  28.322  1.00  0.00     0.031 C 
ATOM     21  C   UNL A   1      38.341  28.675  29.091  1.00  0.00     0.029 A 
ATOM     22  C   UNL A   1      38.231  30.115  29.250  1.00  0.00     0.049 A 
ATOM     23  H   UNL A   1      39.761  31.409  29.868  1.00  0.00     0.167 HD
ATOM     24  C   UNL A   1      43.108  34.200  30.003  1.00  0.00     0.031 A 
ATOM     25  C   UNL A   1      37.154  30.926  29.077  1.00  0.00     0.031 A 
ATOM     26  C   UNL A   1      42.586  34.254  31.341  1.00  0.00     0.049 A 
ATOM     27  C   UNL A   1      37.450  32.219  29.729  1.00  0.00     0.074 A 
ATOM     28  C   UNL A   1      42.992  33.774  32.570  1.00  0.00     0.029 A 
ATOM     29  N   UNL A   1      41.259  34.579  31.483  1.00  0.00    -0.354 N 
ATOM     30  N   UNL A   1      37.537  32.373  31.017  1.00  0.00    -0.248 NA
ATOM     31  C   UNL A   1      38.064  33.264  28.928  1.00  0.00     0.031 C 
ATOM     32  C   UNL A   1      41.789  33.375  33.221  1.00  0.00     0.029 A 
ATOM     33  C   UNL A   1      40.719  33.704  32.386  1.00  0.00     0.049 A 
ATOM     34  H   UNL A   1      40.784  35.307  31.021  1.00  0.00     0.167 HD
ATOM     35  C   UNL A   1      38.591  33.254  31.188  1.00  0.00     0.074 A 
ATOM     36  C   UNL A   1      38.807  33.850  29.871  1.00  0.00     0.031 C 
ATOM     37  C   UNL A   1      39.366  33.207  32.311  1.00  0.00     0.031 A 
BRANCH  24  38
ATOM     38  C   UNL A   1      43.088  35.405  29.094  1.00  0.00    -0.014 A 
ATOM     39  C   UNL A   1      41.911  35.687  28.371  1.00  0.00     0.009 A 
ATOM     40  C   UNL A   1      44.251  36.088  28.694  1.00  0.00     0.009 A 
ATOM     41  C   UNL A   1      41.924  36.534  27.256  1.00  0.00     0.001 A 
ATOM     42  C   UNL A   1      44.258  36.966  27.605  1.00  0.00     0.001 A 
ATOM     43  C   UNL A   1      43.101  37.164  26.867  1.00  0.00     0.000 A 
ENDBRANCH  24  38
BRANCH  25  44
ATOM     44  C   UNL A   1      35.977  30.779  28.188  1.00  0.00    -0.014 A 
ATOM     45  C   UNL A   1      35.683  29.548  27.574  1.00  0.00     0.009 A 
ATOM     46  C   UNL A   1      34.975  31.763  28.181  1.00  0.00     0.009 A 
ATOM     47  C   UNL A   1      34.420  29.298  27.017  1.00  0.00     0.001 A 
ATOM     48  C   UNL A   1      33.715  31.515  27.623  1.00  0.00     0.001 A 
ATOM     49  C   UNL A   1      33.432  30.277  27.057  1.00  0.00     0.000 A 
ENDBRANCH  25  44
BRANCH  37  50
ATOM     50  C   UNL A   1      38.894  32.362  33.468  1.00  0.00    -0.014 A 
ATOM     51  C   UNL A   1      39.223  31.003  33.624  1.00  0.00     0.009 A 
ATOM     52  C   UNL A   1      38.211  33.004  34.512  1.00  0.00     0.009 A 
ATOM     53  C   UNL A   1      38.851  30.305  34.778  1.00  0.00     0.001 A 
ATOM     54  C   UNL A   1      37.862  32.314  35.674  1.00  0.00     0.001 A 
ATOM     55  C   UNL A   1      38.176  30.964  35.804  1.00  0.00     0.000 A 
ENDBRANCH  37  50
ENDBRANCH  11  12
ENDBRANCH   4   6
ENDBRANCH   1   2
BRANCH   1  56
ATOM     56  C   UNL A   1      42.110  23.457  28.767  1.00  0.00     0.042 C 
BRANCH  56  57
ATOM     57  C   UNL A   1      41.916  22.889  27.359  1.00  0.00     0.118 C 
BRANCH  57  58
ATOM     58  N   UNL A   1      41.782  23.928  26.348  1.00  0.00    -0.352 N 
ATOM     59  C   UNL A   1      42.689  24.412  25.449  1.00  0.00     0.251 C 
ATOM     60  H   UNL A   1      40.893  24.350  26.306  1.00  0.00     0.163 HD
ATOM     61  O   UNL A   1      42.433  25.437  24.809  1.00  0.00    -0.269 OA
BRANCH  59  62
ATOM     62  C   UNL A   1      43.986  23.750  25.222  1.00  0.00     0.045 A 
ATOM     63  C   UNL A   1      45.169  24.484  25.166  1.00  0.00     0.034 A 
ATOM     64  C   UNL A   1      44.019  22.354  25.202  1.00  0.00     0.063 A 
ATOM     65  C   UNL A   1      46.352  23.781  25.063  1.00  0.00     0.114 A 
ATOM     66  C   UNL A   1      45.258  21.730  25.112  1.00  0.00     0.157 A 
ATOM     67  N   UNL A   1      46.420  22.433  25.046  1.00  0.00    -0.237 NA
BRANCH  66  68
ATOM     68  N   UNL A   1      45.331  20.313  25.106  1.00  0.00    -0.182 N 
ATOM     69  C   UNL A   1      44.332  19.397  24.896  1.00  0.00     0.254 A 
ATOM     70  N   UNL A   1      46.482  19.634  25.311  1.00  0.00    -0.039 NA
ATOM     71  N   UNL A   1      44.817  18.185  25.035  1.00  0.00    -0.117 NA
ATOM     72  N   UNL A   1      46.150  18.349  25.309  1.00  0.00    -0.024 NA
ENDBRANCH  66  68
ENDBRANCH  59  62
ENDBRANCH  57  58
ENDBRANCH  56  57
ENDBRANCH   1  56
TORSDOF 11
ENDMDL
