MODEL 1
REMARK VINA RESULT:     -10.9      0.000      0.000
REMARK SMILES O=C(NCCCNC(=O)c1cccnc1SCC(=O)c1ccccc1Cl)c1ccc(-c2c3nc(c(-c4ccccc4)c4ccc([nH]4)c(-c4ccccc4)c4nc(c(-c5ccccc5)c5ccc2[nH]5)C=C4)C=C3)cc1
REMARK SMILES IDX 6 1 5 2 4 3 3 4 1 5 2 6 27 8 28 9 74 10 29 11 73 12 30 13
REMARK SMILES IDX 31 14 32 15 67 16 33 17 72 18 66 19 68 20 34 21 71 22 65 23
REMARK SMILES IDX 64 24 35 26 57 27 42 28 56 29 43 30 46 31 55 32 69 33 44 34
REMARK SMILES IDX 45 35 54 37 70 38 47 39 36 40 37 41 41 42 38 43 40 44 39 45
REMARK SMILES IDX 58 46 59 47 63 48 60 49 62 50 61 51 48 52 49 53 53 54 50 55
REMARK SMILES IDX 52 56 51 57 7 58 8 59 9 61 10 62 11 63 15 64 12 65 14 66
REMARK SMILES IDX 13 67 16 68 17 69 18 70 19 71 20 72 21 73 25 74 22 75 24 76
REMARK SMILES IDX 26 77 23 78
REMARK H PARENT 3 7 68 25 46 36 7 60
REMARK Flexibility Score: inf
ROOT
ATOM      1  C   UNL A   1      34.693  24.504  24.496  1.00  0.00     0.118 C 
ENDROOT
BRANCH   1   2
ATOM      2  C   UNL A   1      36.059  23.844  24.603  1.00  0.00     0.042 C 
BRANCH   2   3
ATOM      3  C   UNL A   1      36.424  23.359  26.003  1.00  0.00     0.118 C 
BRANCH   3   4
ATOM      4  N   UNL A   1      37.622  22.532  26.029  1.00  0.00    -0.352 N 
ATOM      5  O   UNL A   1      39.791  21.969  26.106  1.00  0.00    -0.269 OA
ATOM      6  C   UNL A   1      38.931  22.819  26.327  1.00  0.00     0.251 C 
ATOM      7  H   UNL A   1      37.465  21.590  25.790  1.00  0.00     0.163 HD
BRANCH   6   8
ATOM      8  C   UNL A   1      39.338  24.129  26.887  1.00  0.00     0.039 A 
ATOM      9  C   UNL A   1      39.111  24.464  28.222  1.00  0.00     0.014 A 
ATOM     10  C   UNL A   1      40.048  25.016  26.068  1.00  0.00     0.014 A 
ATOM     11  C   UNL A   1      39.459  25.728  28.694  1.00  0.00     0.010 A 
ATOM     12  C   UNL A   1      40.474  26.253  26.565  1.00  0.00     0.010 A 
ATOM     13  C   UNL A   1      40.153  26.634  27.875  1.00  0.00    -0.014 A 
BRANCH  13  14
ATOM     14  C   UNL A   1      40.575  27.946  28.430  1.00  0.00     0.031 A 
ATOM     15  C   UNL A   1      39.578  29.047  28.663  1.00  0.00     0.074 A 
ATOM     16  C   UNL A   1      41.866  28.127  28.768  1.00  0.00     0.049 A 
ATOM     17  N   UNL A   1      39.771  30.229  29.196  1.00  0.00    -0.248 NA
ATOM     18  C   UNL A   1      38.192  28.798  28.241  1.00  0.00     0.031 C 
ATOM     19  C   UNL A   1      42.935  27.142  28.584  1.00  0.00     0.029 A 
ATOM     20  N   UNL A   1      42.493  29.190  29.368  1.00  0.00    -0.354 N 
ATOM     21  C   UNL A   1      38.539  30.868  29.157  1.00  0.00     0.074 A 
ATOM     22  C   UNL A   1      37.608  29.953  28.531  1.00  0.00     0.031 C 
ATOM     23  C   UNL A   1      44.068  27.620  29.118  1.00  0.00     0.029 A 
ATOM     24  C   UNL A   1      43.820  28.960  29.638  1.00  0.00     0.049 A 
ATOM     25  H   UNL A   1      42.036  30.035  29.584  1.00  0.00     0.167 HD
ATOM     26  C   UNL A   1      38.209  32.103  29.607  1.00  0.00     0.031 A 
ATOM     27  C   UNL A   1      44.738  29.738  30.240  1.00  0.00     0.031 A 
ATOM     28  C   UNL A   1      39.123  33.014  30.241  1.00  0.00     0.049 A 
ATOM     29  C   UNL A   1      44.347  31.101  30.724  1.00  0.00     0.074 A 
ATOM     30  C   UNL A   1      38.871  34.277  30.750  1.00  0.00     0.029 A 
ATOM     31  N   UNL A   1      40.468  32.759  30.457  1.00  0.00    -0.354 N 
ATOM     32  N   UNL A   1      43.172  31.681  30.692  1.00  0.00    -0.248 NA
ATOM     33  C   UNL A   1      45.411  31.919  31.324  1.00  0.00     0.031 C 
ATOM     34  C   UNL A   1      40.070  34.798  31.248  1.00  0.00     0.029 A 
ATOM     35  C   UNL A   1      41.061  33.845  31.078  1.00  0.00     0.049 A 
ATOM     36  H   UNL A   1      40.932  31.927  30.207  1.00  0.00     0.167 HD
ATOM     37  C   UNL A   1      43.354  32.930  31.268  1.00  0.00     0.074 A 
ATOM     38  C   UNL A   1      44.746  33.015  31.661  1.00  0.00     0.031 C 
ATOM     39  C   UNL A   1      42.448  33.920  31.450  1.00  0.00     0.031 A 
BRANCH  26  40
ATOM     40  C   UNL A   1      36.790  32.551  29.410  1.00  0.00    -0.014 A 
ATOM     41  C   UNL A   1      35.852  32.460  30.450  1.00  0.00     0.009 A 
ATOM     42  C   UNL A   1      36.399  33.112  28.185  1.00  0.00     0.009 A 
ATOM     43  C   UNL A   1      34.541  32.900  30.257  1.00  0.00     0.001 A 
ATOM     44  C   UNL A   1      35.092  33.567  28.001  1.00  0.00     0.001 A 
ATOM     45  C   UNL A   1      34.163  33.456  29.035  1.00  0.00     0.000 A 
ENDBRANCH  26  40
BRANCH  27  46
ATOM     46  C   UNL A   1      46.121  29.233  30.423  1.00  0.00    -0.014 A 
ATOM     47  C   UNL A   1      46.470  28.532  31.587  1.00  0.00     0.009 A 
ATOM     48  C   UNL A   1      47.088  29.429  29.426  1.00  0.00     0.009 A 
ATOM     49  C   UNL A   1      47.768  28.046  31.753  1.00  0.00     0.001 A 
ATOM     50  C   UNL A   1      48.379  28.923  29.586  1.00  0.00     0.001 A 
ATOM     51  C   UNL A   1      48.719  28.237  30.751  1.00  0.00     0.000 A 
ENDBRANCH  27  46
BRANCH  39  52
ATOM     52  C   UNL A   1      42.939  35.174  32.106  1.00  0.00    -0.014 A 
ATOM     53  C   UNL A   1      43.574  36.176  31.355  1.00  0.00     0.009 A 
ATOM     54  C   UNL A   1      42.747  35.366  33.482  1.00  0.00     0.009 A 
ATOM     55  C   UNL A   1      44.032  37.338  31.978  1.00  0.00     0.001 A 
ATOM     56  C   UNL A   1      43.191  36.538  34.098  1.00  0.00     0.001 A 
ATOM     57  C   UNL A   1      43.840  37.518  33.347  1.00  0.00     0.000 A 
ENDBRANCH  39  52
ENDBRANCH  13  14
ENDBRANCH   6   8
ENDBRANCH   3   4
ENDBRANCH   2   3
ENDBRANCH   1   2
BRANCH   1  58
ATOM     58  N   UNL A   1      34.133  24.460  23.155  1.00  0.00    -0.352 N 
ATOM     59  C   UNL A   1      33.515  25.462  22.461  1.00  0.00     0.254 C 
ATOM     60  H   UNL A   1      34.209  23.597  22.688  1.00  0.00     0.163 HD
ATOM     61  O   UNL A   1      33.398  25.424  21.239  1.00  0.00    -0.269 OA
BRANCH  59  62
ATOM     62  C   UNL A   1      33.105  26.679  23.138  1.00  0.00     0.072 A 
ATOM     63  C   UNL A   1      33.962  27.779  22.948  1.00  0.00     0.018 A 
ATOM     64  C   UNL A   1      31.956  26.815  23.904  1.00  0.00     0.109 A 
ATOM     65  C   UNL A   1      33.680  28.991  23.557  1.00  0.00     0.021 A 
ATOM     66  N   UNL A   1      31.681  28.026  24.476  1.00  0.00    -0.249 NA
ATOM     67  C   UNL A   1      32.526  29.067  24.303  1.00  0.00     0.112 A 
BRANCH  64  68
ATOM     68  S   UNL A   1      30.838  25.617  24.563  1.00  0.00    -0.097 SA
BRANCH  68  69
ATOM     69  C   UNL A   1      31.196  24.992  26.214  1.00  0.00     0.157 C 
BRANCH  69  70
ATOM     70  C   UNL A   1      31.227  23.556  26.631  1.00  0.00     0.174 C 
ATOM     71  O   UNL A   1      30.366  23.200  27.452  1.00  0.00    -0.293 OA
BRANCH  70  72
ATOM     72  C   UNL A   1      32.048  22.475  25.973  1.00  0.00     0.037 A 
ATOM     73  C   UNL A   1      31.678  22.191  24.633  1.00  0.00     0.013 A 
ATOM     74  C   UNL A   1      33.140  21.770  26.495  1.00  0.00     0.051 A 
ATOM     75  C   UNL A   1      32.350  21.244  23.855  1.00  0.00     0.001 A 
ATOM     76  C   UNL A   1      33.797  20.796  25.713  1.00  0.00     0.021 A 
ATOM     77  Cl  UNL A   1      33.833  22.021  28.050  1.00  0.00    -0.084 Cl
ATOM     78  C   UNL A   1      33.407  20.535  24.401  1.00  0.00     0.002 A 
ENDBRANCH  70  72
ENDBRANCH  69  70
ENDBRANCH  68  69
ENDBRANCH  64  68
ENDBRANCH  59  62
ENDBRANCH   1  58
TORSDOF 14
ENDMDL
MODEL 2
REMARK VINA RESULT:     -10.9      2.903      7.698
REMARK SMILES O=C(NCCCNC(=O)c1cccnc1SCC(=O)c1ccccc1Cl)c1ccc(-c2c3nc(c(-c4ccccc4)c4ccc([nH]4)c(-c4ccccc4)c4nc(c(-c5ccccc5)c5ccc2[nH]5)C=C4)C=C3)cc1
REMARK SMILES IDX 6 1 5 2 4 3 3 4 1 5 2 6 27 8 28 9 74 10 29 11 73 12 30 13
REMARK SMILES IDX 31 14 32 15 67 16 33 17 72 18 66 19 68 20 34 21 71 22 65 23
REMARK SMILES IDX 64 24 35 26 57 27 42 28 56 29 43 30 46 31 55 32 69 33 44 34
REMARK SMILES IDX 45 35 54 37 70 38 47 39 36 40 37 41 41 42 38 43 40 44 39 45
REMARK SMILES IDX 58 46 59 47 63 48 60 49 62 50 61 51 48 52 49 53 53 54 50 55
REMARK SMILES IDX 52 56 51 57 7 58 8 59 9 61 10 62 11 63 15 64 12 65 14 66
REMARK SMILES IDX 13 67 16 68 17 69 18 70 19 71 20 72 21 73 25 74 22 75 24 76
REMARK SMILES IDX 26 77 23 78
REMARK H PARENT 3 7 68 25 46 36 7 60
REMARK Flexibility Score: inf
ROOT
ATOM      1  C   UNL A   1      33.627  27.005  25.092  1.00  0.00     0.118 C 
ENDROOT
BRANCH   1   2
ATOM      2  C   UNL A   1      34.008  28.340  25.714  1.00  0.00     0.042 C 
BRANCH   2   3
ATOM      3  C   UNL A   1      33.645  28.482  27.189  1.00  0.00     0.118 C 
BRANCH   3   4
ATOM      4  N   UNL A   1      33.613  29.866  27.642  1.00  0.00    -0.352 N 
ATOM      5  O   UNL A   1      34.213  31.750  28.697  1.00  0.00    -0.269 OA
ATOM      6  C   UNL A   1      34.552  30.652  28.259  1.00  0.00     0.251 C 
ATOM      7  H   UNL A   1      32.758  30.324  27.471  1.00  0.00     0.163 HD
BRANCH   6   8
ATOM      8  C   UNL A   1      35.955  30.209  28.434  1.00  0.00     0.039 A 
ATOM      9  C   UNL A   1      36.912  30.375  27.432  1.00  0.00     0.014 A 
ATOM     10  C   UNL A   1      36.344  29.688  29.674  1.00  0.00     0.014 A 
ATOM     11  C   UNL A   1      38.206  29.892  27.615  1.00  0.00     0.010 A 
ATOM     12  C   UNL A   1      37.666  29.281  29.889  1.00  0.00     0.010 A 
ATOM     13  C   UNL A   1      38.602  29.349  28.848  1.00  0.00    -0.014 A 
BRANCH  13  14
ATOM     14  C   UNL A   1      40.009  28.911  29.036  1.00  0.00     0.031 A 
ATOM     15  C   UNL A   1      41.006  29.785  29.744  1.00  0.00     0.074 A 
ATOM     16  C   UNL A   1      40.376  27.690  28.602  1.00  0.00     0.049 A 
ATOM     17  N   UNL A   1      42.256  29.527  30.044  1.00  0.00    -0.248 NA
ATOM     18  C   UNL A   1      40.552  31.118  30.163  1.00  0.00     0.031 C 
ATOM     19  C   UNL A   1      39.507  26.748  27.891  1.00  0.00     0.029 A 
ATOM     20  N   UNL A   1      41.566  27.018  28.722  1.00  0.00    -0.354 N 
ATOM     21  C   UNL A   1      42.740  30.669  30.668  1.00  0.00     0.074 A 
ATOM     22  C   UNL A   1      41.657  31.629  30.689  1.00  0.00     0.031 C 
ATOM     23  C   UNL A   1      40.172  25.599  27.698  1.00  0.00     0.029 A 
ATOM     24  C   UNL A   1      41.525  25.739  28.224  1.00  0.00     0.049 A 
ATOM     25  H   UNL A   1      42.372  27.415  29.126  1.00  0.00     0.167 HD
ATOM     26  C   UNL A   1      43.971  30.897  31.186  1.00  0.00     0.031 A 
ATOM     27  C   UNL A   1      42.467  24.780  28.195  1.00  0.00     0.031 A 
ATOM     28  C   UNL A   1      45.049  29.944  31.182  1.00  0.00     0.049 A 
ATOM     29  C   UNL A   1      43.823  25.060  28.770  1.00  0.00     0.074 A 
ATOM     30  C   UNL A   1      46.324  30.080  31.704  1.00  0.00     0.029 A 
ATOM     31  N   UNL A   1      44.977  28.675  30.630  1.00  0.00    -0.354 N 
ATOM     32  N   UNL A   1      44.254  26.141  29.372  1.00  0.00    -0.248 NA
ATOM     33  C   UNL A   1      44.822  23.987  28.658  1.00  0.00     0.031 C 
ATOM     34  C   UNL A   1      47.034  28.904  31.443  1.00  0.00     0.029 A 
ATOM     35  C   UNL A   1      46.190  28.024  30.786  1.00  0.00     0.049 A 
ATOM     36  H   UNL A   1      44.182  28.293  30.192  1.00  0.00     0.167 HD
ATOM     37  C   UNL A   1      45.574  25.879  29.711  1.00  0.00     0.074 A 
ATOM     38  C   UNL A   1      45.865  24.530  29.270  1.00  0.00     0.031 C 
ATOM     39  C   UNL A   1      46.466  26.688  30.330  1.00  0.00     0.031 A 
BRANCH  26  40
ATOM     40  C   UNL A   1      44.226  32.247  31.789  1.00  0.00    -0.014 A 
ATOM     41  C   UNL A   1      44.746  33.298  31.016  1.00  0.00     0.009 A 
ATOM     42  C   UNL A   1      43.899  32.484  33.132  1.00  0.00     0.009 A 
ATOM     43  C   UNL A   1      44.958  34.554  31.588  1.00  0.00     0.001 A 
ATOM     44  C   UNL A   1      44.095  33.747  33.696  1.00  0.00     0.001 A 
ATOM     45  C   UNL A   1      44.630  34.779  32.925  1.00  0.00     0.000 A 
ENDBRANCH  26  40
BRANCH  27  46
ATOM     46  C   UNL A   1      42.150  23.457  27.603  1.00  0.00    -0.014 A 
ATOM     47  C   UNL A   1      41.518  22.469  28.373  1.00  0.00     0.009 A 
ATOM     48  C   UNL A   1      42.458  23.185  26.262  1.00  0.00     0.009 A 
ATOM     49  C   UNL A   1      41.208  21.229  27.811  1.00  0.00     0.001 A 
ATOM     50  C   UNL A   1      42.127  21.952  25.697  1.00  0.00     0.001 A 
ATOM     51  C   UNL A   1      41.508  20.974  26.474  1.00  0.00     0.000 A 
ENDBRANCH  27  46
BRANCH  39  52
ATOM     52  C   UNL A   1      47.837  26.129  30.567  1.00  0.00    -0.014 A 
ATOM     53  C   UNL A   1      48.780  26.079  29.528  1.00  0.00     0.009 A 
ATOM     54  C   UNL A   1      48.195  25.667  31.842  1.00  0.00     0.009 A 
ATOM     55  C   UNL A   1      50.052  25.551  29.758  1.00  0.00     0.001 A 
ATOM     56  C   UNL A   1      49.473  25.155  32.072  1.00  0.00     0.001 A 
ATOM     57  C   UNL A   1      50.397  25.091  31.029  1.00  0.00     0.000 A 
ENDBRANCH  39  52
ENDBRANCH  13  14
ENDBRANCH   6   8
ENDBRANCH   3   4
ENDBRANCH   2   3
ENDBRANCH   1   2
BRANCH   1  58
ATOM     58  N   UNL A   1      33.918  26.926  23.670  1.00  0.00    -0.352 N 
ATOM     59  C   UNL A   1      33.670  25.894  22.810  1.00  0.00     0.254 C 
ATOM     60  H   UNL A   1      34.349  27.718  23.276  1.00  0.00     0.163 HD
ATOM     61  O   UNL A   1      33.633  26.060  21.594  1.00  0.00    -0.269 OA
BRANCH  59  62
ATOM     62  C   UNL A   1      33.296  24.587  23.321  1.00  0.00     0.072 A 
ATOM     63  C   UNL A   1      34.362  23.679  23.459  1.00  0.00     0.018 A 
ATOM     64  C   UNL A   1      32.011  24.212  23.685  1.00  0.00     0.109 A 
ATOM     65  C   UNL A   1      34.124  22.395  23.924  1.00  0.00     0.021 A 
ATOM     66  N   UNL A   1      31.800  22.950  24.166  1.00  0.00    -0.249 NA
ATOM     67  C   UNL A   1      32.831  22.082  24.272  1.00  0.00     0.112 A 
BRANCH  64  68
ATOM     68  S   UNL A   1      30.442  24.970  23.394  1.00  0.00    -0.097 SA
BRANCH  68  69
ATOM     69  C   UNL A   1      30.284  26.709  23.833  1.00  0.00     0.157 C 
BRANCH  69  70
ATOM     70  C   UNL A   1      30.286  27.867  22.886  1.00  0.00     0.174 C 
ATOM     71  O   UNL A   1      30.757  27.656  21.756  1.00  0.00    -0.293 OA
BRANCH  70  72
ATOM     72  C   UNL A   1      29.561  29.172  23.103  1.00  0.00     0.037 A 
ATOM     73  C   UNL A   1      28.360  29.306  22.361  1.00  0.00     0.013 A 
ATOM     74  C   UNL A   1      29.895  30.221  23.969  1.00  0.00     0.051 A 
ATOM     75  C   UNL A   1      27.538  30.432  22.461  1.00  0.00     0.001 A 
ATOM     76  C   UNL A   1      29.075  31.367  24.046  1.00  0.00     0.021 A 
ATOM     77  Cl  UNL A   1      31.239  30.233  25.043  1.00  0.00    -0.084 Cl
ATOM     78  C   UNL A   1      27.903  31.473  23.299  1.00  0.00     0.002 A 
ENDBRANCH  70  72
ENDBRANCH  69  70
ENDBRANCH  68  69
ENDBRANCH  64  68
ENDBRANCH  59  62
ENDBRANCH   1  58
TORSDOF 14
ENDMDL
MODEL 3
REMARK VINA RESULT:     -10.8      2.629      7.732
REMARK SMILES O=C(NCCCNC(=O)c1cccnc1SCC(=O)c1ccccc1Cl)c1ccc(-c2c3nc(c(-c4ccccc4)c4ccc([nH]4)c(-c4ccccc4)c4nc(c(-c5ccccc5)c5ccc2[nH]5)C=C4)C=C3)cc1
REMARK SMILES IDX 6 1 5 2 4 3 3 4 1 5 2 6 27 8 28 9 74 10 29 11 73 12 30 13
REMARK SMILES IDX 31 14 32 15 67 16 33 17 72 18 66 19 68 20 34 21 71 22 65 23
REMARK SMILES IDX 64 24 35 26 57 27 42 28 56 29 43 30 46 31 55 32 69 33 44 34
REMARK SMILES IDX 45 35 54 37 70 38 47 39 36 40 37 41 41 42 38 43 40 44 39 45
REMARK SMILES IDX 58 46 59 47 63 48 60 49 62 50 61 51 48 52 49 53 53 54 50 55
REMARK SMILES IDX 52 56 51 57 7 58 8 59 9 61 10 62 11 63 15 64 12 65 14 66
REMARK SMILES IDX 13 67 16 68 17 69 18 70 19 71 20 72 21 73 25 74 22 75 24 76
REMARK SMILES IDX 26 77 23 78
REMARK H PARENT 3 7 68 25 46 36 7 60
REMARK Flexibility Score: inf
ROOT
ATOM      1  C   UNL A   1      32.772  26.188  26.368  1.00  0.00     0.118 C 
ENDROOT
BRANCH   1   2
ATOM      2  C   UNL A   1      32.632  27.641  26.794  1.00  0.00     0.042 C 
BRANCH   2   3
ATOM      3  C   UNL A   1      33.770  28.549  26.337  1.00  0.00     0.118 C 
BRANCH   3   4
ATOM      4  N   UNL A   1      33.673  29.901  26.870  1.00  0.00    -0.352 N 
ATOM      5  O   UNL A   1      34.093  31.697  28.145  1.00  0.00    -0.269 OA
ATOM      6  C   UNL A   1      34.492  30.622  27.703  1.00  0.00     0.251 C 
ATOM      7  H   UNL A   1      32.871  30.391  26.577  1.00  0.00     0.163 HD
BRANCH   6   8
ATOM      8  C   UNL A   1      35.832  30.132  28.101  1.00  0.00     0.039 A 
ATOM      9  C   UNL A   1      36.931  30.208  27.245  1.00  0.00     0.014 A 
ATOM     10  C   UNL A   1      36.012  29.659  29.407  1.00  0.00     0.014 A 
ATOM     11  C   UNL A   1      38.161  29.684  27.638  1.00  0.00     0.010 A 
ATOM     12  C   UNL A   1      37.268  29.209  29.832  1.00  0.00     0.010 A 
ATOM     13  C   UNL A   1      38.347  29.188  28.939  1.00  0.00    -0.014 A 
BRANCH  13  14
ATOM     14  C   UNL A   1      39.689  28.703  29.351  1.00  0.00     0.031 A 
ATOM     15  C   UNL A   1      40.213  27.375  28.882  1.00  0.00     0.074 A 
ATOM     16  C   UNL A   1      40.461  29.494  30.122  1.00  0.00     0.049 A 
ATOM     17  N   UNL A   1      41.386  26.832  29.100  1.00  0.00    -0.248 NA
ATOM     18  C   UNL A   1      39.309  26.545  28.073  1.00  0.00     0.031 C 
ATOM     19  C   UNL A   1      40.067  30.802  30.652  1.00  0.00     0.029 A 
ATOM     20  N   UNL A   1      41.748  29.329  30.566  1.00  0.00    -0.354 N 
ATOM     21  C   UNL A   1      41.354  25.594  28.473  1.00  0.00     0.074 A 
ATOM     22  C   UNL A   1      40.041  25.455  27.880  1.00  0.00     0.031 C 
ATOM     23  C   UNL A   1      41.112  31.347  31.293  1.00  0.00     0.029 A 
ATOM     24  C   UNL A   1      42.229  30.411  31.262  1.00  0.00     0.049 A 
ATOM     25  H   UNL A   1      42.276  28.514  30.402  1.00  0.00     0.167 HD
ATOM     26  C   UNL A   1      42.331  24.658  28.389  1.00  0.00     0.031 A 
ATOM     27  C   UNL A   1      43.437  30.631  31.812  1.00  0.00     0.031 A 
ATOM     28  C   UNL A   1      43.643  24.793  28.963  1.00  0.00     0.049 A 
ATOM     29  C   UNL A   1      44.498  29.578  31.709  1.00  0.00     0.074 A 
ATOM     30  C   UNL A   1      44.704  23.905  28.908  1.00  0.00     0.029 A 
ATOM     31  N   UNL A   1      44.075  25.886  29.696  1.00  0.00    -0.354 N 
ATOM     32  N   UNL A   1      44.453  28.421  31.096  1.00  0.00    -0.248 NA
ATOM     33  C   UNL A   1      45.776  29.861  32.379  1.00  0.00     0.031 C 
ATOM     34  C   UNL A   1      45.770  24.449  29.633  1.00  0.00     0.029 A 
ATOM     35  C   UNL A   1      45.381  25.690  30.111  1.00  0.00     0.049 A 
ATOM     36  H   UNL A   1      43.533  26.685  29.891  1.00  0.00     0.167 HD
ATOM     37  C   UNL A   1      45.694  27.838  31.304  1.00  0.00     0.074 A 
ATOM     38  C   UNL A   1      46.478  28.777  32.080  1.00  0.00     0.031 C 
ATOM     39  C   UNL A   1      46.142  26.628  30.893  1.00  0.00     0.031 A 
BRANCH  26  40
ATOM     40  C   UNL A   1      42.007  23.388  27.658  1.00  0.00    -0.014 A 
ATOM     41  C   UNL A   1      42.383  23.209  26.318  1.00  0.00     0.009 A 
ATOM     42  C   UNL A   1      41.360  22.341  28.332  1.00  0.00     0.009 A 
ATOM     43  C   UNL A   1      42.092  22.012  25.659  1.00  0.00     0.001 A 
ATOM     44  C   UNL A   1      41.087  21.140  27.676  1.00  0.00     0.001 A 
ATOM     45  C   UNL A   1      41.448  20.978  26.338  1.00  0.00     0.000 A 
ENDBRANCH  26  40
BRANCH  27  46
ATOM     46  C   UNL A   1      43.704  31.916  32.506  1.00  0.00    -0.014 A 
ATOM     47  C   UNL A   1      43.271  32.112  33.825  1.00  0.00     0.009 A 
ATOM     48  C   UNL A   1      44.412  32.940  31.859  1.00  0.00     0.009 A 
ATOM     49  C   UNL A   1      43.534  33.316  34.481  1.00  0.00     0.001 A 
ATOM     50  C   UNL A   1      44.691  34.134  32.525  1.00  0.00     0.001 A 
ATOM     51  C   UNL A   1      44.248  34.323  33.833  1.00  0.00     0.000 A 
ENDBRANCH  27  46
BRANCH  39  52
ATOM     52  C   UNL A   1      47.544  26.260  31.271  1.00  0.00    -0.014 A 
ATOM     53  C   UNL A   1      47.817  25.644  32.503  1.00  0.00     0.009 A 
ATOM     54  C   UNL A   1      48.600  26.512  30.383  1.00  0.00     0.009 A 
ATOM     55  C   UNL A   1      49.127  25.311  32.848  1.00  0.00     0.001 A 
ATOM     56  C   UNL A   1      49.907  26.162  30.724  1.00  0.00     0.001 A 
ATOM     57  C   UNL A   1      50.170  25.569  31.959  1.00  0.00     0.000 A 
ENDBRANCH  39  52
ENDBRANCH  13  14
ENDBRANCH   6   8
ENDBRANCH   3   4
ENDBRANCH   2   3
ENDBRANCH   1   2
BRANCH   1  58
ATOM     58  N   UNL A   1      31.510  25.465  26.357  1.00  0.00    -0.352 N 
ATOM     59  C   UNL A   1      31.301  24.121  26.489  1.00  0.00     0.254 C 
ATOM     60  H   UNL A   1      30.703  26.015  26.238  1.00  0.00     0.163 HD
ATOM     61  O   UNL A   1      30.207  23.666  26.811  1.00  0.00    -0.269 OA
BRANCH  59  62
ATOM     62  C   UNL A   1      32.413  23.193  26.395  1.00  0.00     0.072 A 
ATOM     63  C   UNL A   1      32.944  22.779  27.630  1.00  0.00     0.018 A 
ATOM     64  C   UNL A   1      32.938  22.697  25.210  1.00  0.00     0.109 A 
ATOM     65  C   UNL A   1      34.018  21.904  27.665  1.00  0.00     0.021 A 
ATOM     66  N   UNL A   1      33.980  21.815  25.266  1.00  0.00    -0.249 NA
ATOM     67  C   UNL A   1      34.495  21.444  26.460  1.00  0.00     0.112 A 
BRANCH  64  68
ATOM     68  S   UNL A   1      32.714  23.194  23.530  1.00  0.00    -0.097 SA
BRANCH  68  69
ATOM     69  C   UNL A   1      33.625  24.647  22.982  1.00  0.00     0.157 C 
BRANCH  69  70
ATOM     70  C   UNL A   1      33.093  25.763  22.140  1.00  0.00     0.174 C 
ATOM     71  O   UNL A   1      33.242  25.648  20.912  1.00  0.00    -0.293 OA
BRANCH  70  72
ATOM     72  C   UNL A   1      32.198  26.875  22.629  1.00  0.00     0.037 A 
ATOM     73  C   UNL A   1      30.858  26.484  22.877  1.00  0.00     0.013 A 
ATOM     74  C   UNL A   1      32.536  28.205  22.912  1.00  0.00     0.051 A 
ATOM     75  C   UNL A   1      29.896  27.372  23.368  1.00  0.00     0.001 A 
ATOM     76  C   UNL A   1      31.554  29.103  23.381  1.00  0.00     0.021 A 
ATOM     77  Cl  UNL A   1      34.117  28.875  22.792  1.00  0.00    -0.084 Cl
ATOM     78  C   UNL A   1      30.243  28.690  23.610  1.00  0.00     0.002 A 
ENDBRANCH  70  72
ENDBRANCH  69  70
ENDBRANCH  68  69
ENDBRANCH  64  68
ENDBRANCH  59  62
ENDBRANCH   1  58
TORSDOF 14
ENDMDL
