MODEL 1
REMARK VINA RESULT:     -12.2      0.000      0.000
REMARK SMILES O=C(NCCCNC(=O)c1ccccc1/N=C/c1coc2ccccc2c1=O)c1ccc(-c2c3nc(c(-c4ccccc4)c4ccc([nH]4)c(-c4ccccc4)c4nc(c(-c5ccccc5)c5ccc2[nH]5)C=C4)C=C3)cc1
REMARK SMILES IDX 5 1 4 2 3 3 1 4 2 5 29 7 30 8 76 9 31 10 75 11 32 12 33 13
REMARK SMILES IDX 34 14 69 15 35 16 74 17 68 18 70 19 36 20 73 21 67 22 66 23
REMARK SMILES IDX 37 25 59 26 44 27 58 28 45 29 48 30 57 31 71 32 46 33 47 34
REMARK SMILES IDX 56 36 72 37 49 38 38 39 39 40 43 41 40 42 42 43 41 44 60 45
REMARK SMILES IDX 61 46 65 47 62 48 64 49 63 50 50 51 51 52 55 53 52 54 54 55
REMARK SMILES IDX 53 56 6 57 7 58 8 59 9 61 10 62 11 63 15 64 12 65 14 66
REMARK SMILES IDX 13 67 16 68 17 69 18 70 19 71 27 72 20 73 26 74 28 75 21 76
REMARK SMILES IDX 25 77 22 78 24 79 23 80
REMARK H PARENT 3 6 70 24 48 35 7 60
REMARK Flexibility Score: inf
ROOT
ATOM      1  C   UNL A   1      37.067  20.906  24.591  1.00  0.00     0.042 C 
ENDROOT
BRANCH   1   2
ATOM      2  C   UNL A   1      38.290  20.982  25.499  1.00  0.00     0.118 C 
BRANCH   2   3
ATOM      3  N   UNL A   1      39.249  19.897  25.376  1.00  0.00    -0.352 N 
ATOM      4  O   UNL A   1      41.195  18.792  25.739  1.00  0.00    -0.269 OA
ATOM      5  C   UNL A   1      40.526  19.808  25.894  1.00  0.00     0.251 C 
ATOM      6  H   UNL A   1      38.947  19.120  24.852  1.00  0.00     0.163 HD
BRANCH   5   7
ATOM      7  C   UNL A   1      41.151  20.973  26.572  1.00  0.00     0.039 A 
ATOM      8  C   UNL A   1      41.163  21.122  27.960  1.00  0.00     0.014 A 
ATOM      9  C   UNL A   1      41.721  21.968  25.766  1.00  0.00     0.014 A 
ATOM     10  C   UNL A   1      41.579  22.330  28.524  1.00  0.00     0.010 A 
ATOM     11  C   UNL A   1      42.195  23.154  26.337  1.00  0.00     0.010 A 
ATOM     12  C   UNL A   1      42.068  23.368  27.716  1.00  0.00    -0.014 A 
BRANCH  12  13
ATOM     13  C   UNL A   1      42.377  24.687  28.322  1.00  0.00     0.031 A 
ATOM     14  C   UNL A   1      43.803  25.074  28.616  1.00  0.00     0.074 A 
ATOM     15  C   UNL A   1      41.390  25.575  28.541  1.00  0.00     0.049 A 
ATOM     16  N   UNL A   1      44.271  26.210  29.074  1.00  0.00    -0.248 NA
ATOM     17  C   UNL A   1      44.838  24.057  28.369  1.00  0.00     0.031 C 
ATOM     18  C   UNL A   1      39.967  25.336  28.298  1.00  0.00     0.029 A 
ATOM     19  N   UNL A   1      41.444  26.875  28.976  1.00  0.00    -0.354 N 
ATOM     20  C   UNL A   1      45.642  26.031  29.202  1.00  0.00     0.074 A 
ATOM     21  C   UNL A   1      45.936  24.681  28.772  1.00  0.00     0.031 C 
ATOM     22  C   UNL A   1      39.291  26.475  28.519  1.00  0.00     0.029 A 
ATOM     23  C   UNL A   1      40.229  27.511  28.940  1.00  0.00     0.049 A 
ATOM     24  H   UNL A   1      42.272  27.308  29.285  1.00  0.00     0.167 HD
ATOM     25  C   UNL A   1      46.578  26.908  29.636  1.00  0.00     0.031 A 
ATOM     26  C   UNL A   1      39.907  28.792  29.192  1.00  0.00     0.031 A 
ATOM     27  C   UNL A   1      46.315  28.265  30.029  1.00  0.00     0.049 A 
ATOM     28  C   UNL A   1      40.968  29.763  29.615  1.00  0.00     0.074 A 
ATOM     29  C   UNL A   1      47.206  29.222  30.482  1.00  0.00     0.029 A 
ATOM     30  N   UNL A   1      45.067  28.862  29.993  1.00  0.00    -0.354 N 
ATOM     31  N   UNL A   1      42.254  29.567  29.755  1.00  0.00    -0.248 NA
ATOM     32  C   UNL A   1      40.526  31.132  29.920  1.00  0.00     0.031 C 
ATOM     33  C   UNL A   1      46.494  30.404  30.725  1.00  0.00     0.029 A 
ATOM     34  C   UNL A   1      45.164  30.178  30.413  1.00  0.00     0.049 A 
ATOM     35  H   UNL A   1      44.235  28.417  29.714  1.00  0.00     0.167 HD
ATOM     36  C   UNL A   1      42.776  30.782  30.175  1.00  0.00     0.074 A 
ATOM     37  C   UNL A   1      41.671  31.716  30.248  1.00  0.00     0.031 C 
ATOM     38  C   UNL A   1      44.058  31.091  30.484  1.00  0.00     0.031 A 
BRANCH  25  39
ATOM     39  C   UNL A   1      47.988  26.409  29.722  1.00  0.00    -0.014 A 
ATOM     40  C   UNL A   1      48.862  26.530  28.633  1.00  0.00     0.009 A 
ATOM     41  C   UNL A   1      48.452  25.834  30.916  1.00  0.00     0.009 A 
ATOM     42  C   UNL A   1      50.174  26.064  28.730  1.00  0.00     0.001 A 
ATOM     43  C   UNL A   1      49.768  25.379  31.013  1.00  0.00     0.001 A 
ATOM     44  C   UNL A   1      50.626  25.490  29.920  1.00  0.00     0.000 A 
ENDBRANCH  25  39
BRANCH  26  45
ATOM     45  C   UNL A   1      38.509  29.242  29.007  1.00  0.00    -0.014 A 
ATOM     46  C   UNL A   1      37.626  29.240  30.097  1.00  0.00     0.009 A 
ATOM     47  C   UNL A   1      38.062  29.695  27.759  1.00  0.00     0.009 A 
ATOM     48  C   UNL A   1      36.311  29.680  29.936  1.00  0.00     0.001 A 
ATOM     49  C   UNL A   1      36.749  30.141  27.605  1.00  0.00     0.001 A 
ATOM     50  C   UNL A   1      35.874  30.132  28.692  1.00  0.00     0.000 A 
ENDBRANCH  26  45
BRANCH  38  51
ATOM     51  C   UNL A   1      44.325  32.492  30.940  1.00  0.00    -0.014 A 
ATOM     52  C   UNL A   1      44.639  33.491  30.007  1.00  0.00     0.009 A 
ATOM     53  C   UNL A   1      44.240  32.821  32.300  1.00  0.00     0.009 A 
ATOM     54  C   UNL A   1      44.881  34.798  30.433  1.00  0.00     0.001 A 
ATOM     55  C   UNL A   1      44.477  34.131  32.720  1.00  0.00     0.001 A 
ATOM     56  C   UNL A   1      44.800  35.116  31.788  1.00  0.00     0.000 A 
ENDBRANCH  38  51
ENDBRANCH  12  13
ENDBRANCH   5   7
ENDBRANCH   2   3
ENDBRANCH   1   2
BRANCH   1  57
ATOM     57  C   UNL A   1      36.096  22.078  24.646  1.00  0.00     0.118 C 
BRANCH  57  58
ATOM     58  N   UNL A   1      35.238  22.104  25.815  1.00  0.00    -0.352 N 
ATOM     59  C   UNL A   1      34.091  21.384  26.041  1.00  0.00     0.253 C 
ATOM     60  H   UNL A   1      35.513  22.715  26.537  1.00  0.00     0.163 HD
ATOM     61  O   UNL A   1      33.512  21.471  27.120  1.00  0.00    -0.269 OA
BRANCH  59  62
ATOM     62  C   UNL A   1      33.506  20.530  24.989  1.00  0.00     0.065 A 
ATOM     63  C   UNL A   1      33.751  19.151  25.087  1.00  0.00     0.016 A 
ATOM     64  C   UNL A   1      32.771  21.038  23.910  1.00  0.00     0.076 A 
ATOM     65  C   UNL A   1      33.221  18.270  24.143  1.00  0.00     0.001 A 
ATOM     66  C   UNL A   1      32.244  20.135  22.974  1.00  0.00     0.029 A 
ATOM     67  C   UNL A   1      32.463  18.762  23.086  1.00  0.00     0.002 A 
BRANCH  64  68
ATOM     68  N   UNL A   1      32.368  22.363  23.748  1.00  0.00    -0.255 NA
ATOM     69  C   UNL A   1      32.788  23.105  22.775  1.00  0.00     0.127 C 
BRANCH  69  70
ATOM     70  C   UNL A   1      32.169  24.441  22.686  1.00  0.00     0.076 A 
ATOM     71  C   UNL A   1      30.966  24.505  23.281  1.00  0.00     0.209 A 
ATOM     72  C   UNL A   1      33.021  25.647  22.810  1.00  0.00     0.201 A 
ATOM     73  O   UNL A   1      30.535  25.588  24.033  1.00  0.00    -0.463 OA
ATOM     74  C   UNL A   1      32.819  26.370  24.073  1.00  0.00     0.065 A 
ATOM     75  O   UNL A   1      33.894  25.934  22.002  1.00  0.00    -0.288 OA
ATOM     76  C   UNL A   1      31.558  26.268  24.664  1.00  0.00     0.137 A 
ATOM     77  C   UNL A   1      33.883  26.979  24.736  1.00  0.00     0.016 A 
ATOM     78  C   UNL A   1      31.347  26.779  25.940  1.00  0.00     0.048 A 
ATOM     79  C   UNL A   1      33.681  27.460  26.029  1.00  0.00     0.001 A 
ATOM     80  C   UNL A   1      32.418  27.357  26.629  1.00  0.00     0.004 A 
ENDBRANCH  69  70
ENDBRANCH  64  68
ENDBRANCH  59  62
ENDBRANCH  57  58
ENDBRANCH   1  57
TORSDOF 12
ENDMDL
MODEL 2
REMARK VINA RESULT:     -12.2      2.517      7.662
REMARK SMILES O=C(NCCCNC(=O)c1ccccc1/N=C/c1coc2ccccc2c1=O)c1ccc(-c2c3nc(c(-c4ccccc4)c4ccc([nH]4)c(-c4ccccc4)c4nc(c(-c5ccccc5)c5ccc2[nH]5)C=C4)C=C3)cc1
REMARK SMILES IDX 5 1 4 2 3 3 1 4 2 5 29 7 30 8 76 9 31 10 75 11 32 12 33 13
REMARK SMILES IDX 34 14 69 15 35 16 74 17 68 18 70 19 36 20 73 21 67 22 66 23
REMARK SMILES IDX 37 25 59 26 44 27 58 28 45 29 48 30 57 31 71 32 46 33 47 34
REMARK SMILES IDX 56 36 72 37 49 38 38 39 39 40 43 41 40 42 42 43 41 44 60 45
REMARK SMILES IDX 61 46 65 47 62 48 64 49 63 50 50 51 51 52 55 53 52 54 54 55
REMARK SMILES IDX 53 56 6 57 7 58 8 59 9 61 10 62 11 63 15 64 12 65 14 66
REMARK SMILES IDX 13 67 16 68 17 69 18 70 19 71 27 72 20 73 26 74 28 75 21 76
REMARK SMILES IDX 25 77 22 78 24 79 23 80
REMARK H PARENT 3 6 70 24 48 35 7 60
REMARK Flexibility Score: inf
ROOT
ATOM      1  C   UNL A   1      32.357  28.519  27.039  1.00  0.00     0.042 C 
ENDROOT
BRANCH   1   2
ATOM      2  C   UNL A   1      33.769  29.029  27.306  1.00  0.00     0.118 C 
BRANCH   2   3
ATOM      3  N   UNL A   1      33.873  30.301  28.002  1.00  0.00    -0.352 N 
ATOM      4  O   UNL A   1      34.913  31.998  29.087  1.00  0.00    -0.269 OA
ATOM      5  C   UNL A   1      34.985  30.886  28.576  1.00  0.00     0.251 C 
ATOM      6  H   UNL A   1      33.036  30.815  28.075  1.00  0.00     0.163 HD
BRANCH   5   7
ATOM      7  C   UNL A   1      36.269  30.145  28.666  1.00  0.00     0.039 A 
ATOM      8  C   UNL A   1      36.687  29.495  29.829  1.00  0.00     0.014 A 
ATOM      9  C   UNL A   1      37.096  30.134  27.534  1.00  0.00     0.014 A 
ATOM     10  C   UNL A   1      37.988  28.996  29.915  1.00  0.00     0.010 A 
ATOM     11  C   UNL A   1      38.378  29.578  27.601  1.00  0.00     0.010 A 
ATOM     12  C   UNL A   1      38.855  29.062  28.813  1.00  0.00    -0.014 A 
BRANCH  12  13
ATOM     13  C   UNL A   1      40.272  28.647  28.968  1.00  0.00     0.031 A 
ATOM     14  C   UNL A   1      40.715  27.273  28.539  1.00  0.00     0.074 A 
ATOM     15  C   UNL A   1      41.184  29.526  29.424  1.00  0.00     0.049 A 
ATOM     16  N   UNL A   1      41.922  26.762  28.529  1.00  0.00    -0.248 NA
ATOM     17  C   UNL A   1      39.671  26.352  28.062  1.00  0.00     0.031 C 
ATOM     18  C   UNL A   1      40.896  30.890  29.871  1.00  0.00     0.029 A 
ATOM     19  N   UNL A   1      42.547  29.413  29.543  1.00  0.00    -0.354 N 
ATOM     20  C   UNL A   1      41.777  25.455  28.081  1.00  0.00     0.074 A 
ATOM     21  C   UNL A   1      40.368  25.249  27.826  1.00  0.00     0.031 C 
ATOM     22  C   UNL A   1      42.055  31.511  30.146  1.00  0.00     0.029 A 
ATOM     23  C   UNL A   1      43.158  30.582  29.919  1.00  0.00     0.049 A 
ATOM     24  H   UNL A   1      43.036  28.575  29.376  1.00  0.00     0.167 HD
ATOM     25  C   UNL A   1      42.727  24.509  27.896  1.00  0.00     0.031 A 
ATOM     26  C   UNL A   1      44.463  30.882  30.042  1.00  0.00     0.031 A 
ATOM     27  C   UNL A   1      44.135  24.704  28.104  1.00  0.00     0.049 A 
ATOM     28  C   UNL A   1      45.503  29.837  29.775  1.00  0.00     0.074 A 
ATOM     29  C   UNL A   1      45.168  23.797  27.941  1.00  0.00     0.029 A 
ATOM     30  N   UNL A   1      44.710  25.899  28.502  1.00  0.00    -0.354 N 
ATOM     31  N   UNL A   1      45.343  28.600  29.379  1.00  0.00    -0.248 NA
ATOM     32  C   UNL A   1      46.905  30.232  29.982  1.00  0.00     0.031 C 
ATOM     33  C   UNL A   1      46.373  24.445  28.243  1.00  0.00     0.029 A 
ATOM     34  C   UNL A   1      46.084  25.755  28.585  1.00  0.00     0.049 A 
ATOM     35  H   UNL A   1      44.214  26.727  28.698  1.00  0.00     0.167 HD
ATOM     36  C   UNL A   1      46.620  28.064  29.298  1.00  0.00     0.074 A 
ATOM     37  C   UNL A   1      47.546  29.115  29.666  1.00  0.00     0.031 C 
ATOM     38  C   UNL A   1      46.989  26.806  28.957  1.00  0.00     0.031 A 
BRANCH  25  39
ATOM     39  C   UNL A   1      42.261  23.155  27.455  1.00  0.00    -0.014 A 
ATOM     40  C   UNL A   1      42.360  22.762  26.112  1.00  0.00     0.009 A 
ATOM     41  C   UNL A   1      41.737  22.257  28.397  1.00  0.00     0.009 A 
ATOM     42  C   UNL A   1      41.925  21.496  25.718  1.00  0.00     0.001 A 
ATOM     43  C   UNL A   1      41.312  20.988  28.000  1.00  0.00     0.001 A 
ATOM     44  C   UNL A   1      41.402  20.610  26.661  1.00  0.00     0.000 A 
ENDBRANCH  25  39
BRANCH  26  45
ATOM     45  C   UNL A   1      44.861  32.262  30.401  1.00  0.00    -0.014 A 
ATOM     46  C   UNL A   1      45.032  32.611  31.749  1.00  0.00     0.009 A 
ATOM     47  C   UNL A   1      45.095  33.221  29.406  1.00  0.00     0.009 A 
ATOM     48  C   UNL A   1      45.426  33.904  32.095  1.00  0.00     0.001 A 
ATOM     49  C   UNL A   1      45.496  34.511  29.757  1.00  0.00     0.001 A 
ATOM     50  C   UNL A   1      45.660  34.852  31.100  1.00  0.00     0.000 A 
ENDBRANCH  26  45
BRANCH  38  51
ATOM     51  C   UNL A   1      48.455  26.500  28.983  1.00  0.00    -0.014 A 
ATOM     52  C   UNL A   1      49.240  26.707  27.840  1.00  0.00     0.009 A 
ATOM     53  C   UNL A   1      49.058  26.028  30.157  1.00  0.00     0.009 A 
ATOM     54  C   UNL A   1      50.608  26.430  27.868  1.00  0.00     0.001 A 
ATOM     55  C   UNL A   1      50.427  25.757  30.182  1.00  0.00     0.001 A 
ATOM     56  C   UNL A   1      51.199  25.955  29.038  1.00  0.00     0.000 A 
ENDBRANCH  38  51
ENDBRANCH  12  13
ENDBRANCH   5   7
ENDBRANCH   2   3
ENDBRANCH   1   2
BRANCH   1  57
ATOM     57  C   UNL A   1      31.582  29.197  25.917  1.00  0.00     0.118 C 
BRANCH  57  58
ATOM     58  N   UNL A   1      32.163  29.043  24.597  1.00  0.00    -0.352 N 
ATOM     59  C   UNL A   1      31.514  28.948  23.391  1.00  0.00     0.253 C 
ATOM     60  H   UNL A   1      33.147  29.001  24.562  1.00  0.00     0.163 HD
ATOM     61  O   UNL A   1      32.159  28.889  22.348  1.00  0.00    -0.269 OA
BRANCH  59  62
ATOM     62  C   UNL A   1      30.042  28.871  23.321  1.00  0.00     0.065 A 
ATOM     63  C   UNL A   1      29.363  30.060  23.009  1.00  0.00     0.016 A 
ATOM     64  C   UNL A   1      29.322  27.699  23.583  1.00  0.00     0.076 A 
ATOM     65  C   UNL A   1      27.971  30.072  22.906  1.00  0.00     0.001 A 
ATOM     66  C   UNL A   1      27.923  27.733  23.470  1.00  0.00     0.029 A 
ATOM     67  C   UNL A   1      27.250  28.906  23.133  1.00  0.00     0.002 A 
BRANCH  64  68
ATOM     68  N   UNL A   1      29.870  26.436  23.799  1.00  0.00    -0.255 NA
ATOM     69  C   UNL A   1      30.114  25.975  24.984  1.00  0.00     0.127 C 
BRANCH  69  70
ATOM     70  C   UNL A   1      30.581  24.577  25.034  1.00  0.00     0.076 A 
ATOM     71  C   UNL A   1      30.708  24.020  23.819  1.00  0.00     0.209 A 
ATOM     72  C   UNL A   1      31.597  24.184  26.040  1.00  0.00     0.201 A 
ATOM     73  O   UNL A   1      31.751  23.177  23.464  1.00  0.00    -0.463 OA
ATOM     74  C   UNL A   1      32.913  23.902  25.452  1.00  0.00     0.065 A 
ATOM     75  O   UNL A   1      31.391  24.221  27.246  1.00  0.00    -0.288 OA
ATOM     76  C   UNL A   1      32.929  23.437  24.135  1.00  0.00     0.137 A 
ATOM     77  C   UNL A   1      34.090  24.251  26.113  1.00  0.00     0.016 A 
ATOM     78  C   UNL A   1      34.138  23.315  23.458  1.00  0.00     0.048 A 
ATOM     79  C   UNL A   1      35.298  24.161  25.422  1.00  0.00     0.001 A 
ATOM     80  C   UNL A   1      35.320  23.698  24.100  1.00  0.00     0.004 A 
ENDBRANCH  69  70
ENDBRANCH  64  68
ENDBRANCH  59  62
ENDBRANCH  57  58
ENDBRANCH   1  57
TORSDOF 12
ENDMDL
MODEL 3
REMARK VINA RESULT:     -12.2      3.371      8.573
REMARK SMILES O=C(NCCCNC(=O)c1ccccc1/N=C/c1coc2ccccc2c1=O)c1ccc(-c2c3nc(c(-c4ccccc4)c4ccc([nH]4)c(-c4ccccc4)c4nc(c(-c5ccccc5)c5ccc2[nH]5)C=C4)C=C3)cc1
REMARK SMILES IDX 5 1 4 2 3 3 1 4 2 5 29 7 30 8 76 9 31 10 75 11 32 12 33 13
REMARK SMILES IDX 34 14 69 15 35 16 74 17 68 18 70 19 36 20 73 21 67 22 66 23
REMARK SMILES IDX 37 25 59 26 44 27 58 28 45 29 48 30 57 31 71 32 46 33 47 34
REMARK SMILES IDX 56 36 72 37 49 38 38 39 39 40 43 41 40 42 42 43 41 44 60 45
REMARK SMILES IDX 61 46 65 47 62 48 64 49 63 50 50 51 51 52 55 53 52 54 54 55
REMARK SMILES IDX 53 56 6 57 7 58 8 59 9 61 10 62 11 63 15 64 12 65 14 66
REMARK SMILES IDX 13 67 16 68 17 69 18 70 19 71 27 72 20 73 26 74 28 75 21 76
REMARK SMILES IDX 25 77 22 78 24 79 23 80
REMARK H PARENT 3 6 70 24 48 35 7 60
REMARK Flexibility Score: inf
ROOT
ATOM      1  C   UNL A   1      31.757  30.574  26.169  1.00  0.00     0.042 C 
ENDROOT
BRANCH   1   2
ATOM      2  C   UNL A   1      32.742  31.407  26.981  1.00  0.00     0.118 C 
BRANCH   2   3
ATOM      3  N   UNL A   1      32.267  32.703  27.435  1.00  0.00    -0.352 N 
ATOM      4  O   UNL A   1      32.414  34.755  28.387  1.00  0.00    -0.269 OA
ATOM      5  C   UNL A   1      32.953  33.687  28.120  1.00  0.00     0.251 C 
ATOM      6  H   UNL A   1      31.326  32.908  27.226  1.00  0.00     0.163 HD
BRANCH   5   7
ATOM      7  C   UNL A   1      34.328  33.439  28.624  1.00  0.00     0.039 A 
ATOM      8  C   UNL A   1      35.471  33.854  27.939  1.00  0.00     0.014 A 
ATOM      9  C   UNL A   1      34.464  32.729  29.826  1.00  0.00     0.014 A 
ATOM     10  C   UNL A   1      36.729  33.413  28.356  1.00  0.00     0.010 A 
ATOM     11  C   UNL A   1      35.729  32.340  30.277  1.00  0.00     0.010 A 
ATOM     12  C   UNL A   1      36.866  32.626  29.510  1.00  0.00    -0.014 A 
BRANCH  12  13
ATOM     13  C   UNL A   1      38.193  32.058  29.858  1.00  0.00     0.031 A 
ATOM     14  C   UNL A   1      39.046  32.711  30.914  1.00  0.00     0.074 A 
ATOM     15  C   UNL A   1      38.606  30.913  29.285  1.00  0.00     0.049 A 
ATOM     16  N   UNL A   1      40.197  32.317  31.403  1.00  0.00    -0.248 NA
ATOM     17  C   UNL A   1      38.548  33.968  31.495  1.00  0.00     0.031 C 
ATOM     18  C   UNL A   1      37.880  30.172  28.252  1.00  0.00     0.029 A 
ATOM     19  N   UNL A   1      39.721  30.150  29.526  1.00  0.00    -0.354 N 
ATOM     20  C   UNL A   1      40.574  33.291  32.318  1.00  0.00     0.074 A 
ATOM     21  C   UNL A   1      39.532  34.295  32.322  1.00  0.00     0.031 C 
ATOM     22  C   UNL A   1      38.531  29.025  28.001  1.00  0.00     0.029 A 
ATOM     23  C   UNL A   1      39.728  28.965  28.835  1.00  0.00     0.049 A 
ATOM     24  H   UNL A   1      40.444  30.426  30.135  1.00  0.00     0.167 HD
ATOM     25  C   UNL A   1      41.685  33.350  33.089  1.00  0.00     0.031 A 
ATOM     26  C   UNL A   1      40.587  27.932  28.884  1.00  0.00     0.031 A 
ATOM     27  C   UNL A   1      42.712  32.346  33.131  1.00  0.00     0.049 A 
ATOM     28  C   UNL A   1      41.781  27.990  29.789  1.00  0.00     0.074 A 
ATOM     29  C   UNL A   1      43.873  32.327  33.885  1.00  0.00     0.029 A 
ATOM     30  N   UNL A   1      42.688  31.170  32.401  1.00  0.00    -0.354 N 
ATOM     31  N   UNL A   1      42.133  28.933  30.626  1.00  0.00    -0.248 NA
ATOM     32  C   UNL A   1      42.698  26.842  29.747  1.00  0.00     0.031 C 
ATOM     33  C   UNL A   1      44.556  31.136  33.608  1.00  0.00     0.029 A 
ATOM     34  C   UNL A   1      43.812  30.415  32.689  1.00  0.00     0.049 A 
ATOM     35  H   UNL A   1      41.978  30.911  31.770  1.00  0.00     0.167 HD
ATOM     36  C   UNL A   1      43.317  28.499  31.203  1.00  0.00     0.074 A 
ATOM     37  C   UNL A   1      43.614  27.199  30.637  1.00  0.00     0.031 C 
ATOM     38  C   UNL A   1      44.095  29.130  32.116  1.00  0.00     0.031 A 
BRANCH  25  39
ATOM     39  C   UNL A   1      41.852  34.567  33.948  1.00  0.00    -0.014 A 
ATOM     40  C   UNL A   1      42.483  35.716  33.452  1.00  0.00     0.009 A 
ATOM     41  C   UNL A   1      41.351  34.567  35.259  1.00  0.00     0.009 A 
ATOM     42  C   UNL A   1      42.627  36.843  34.264  1.00  0.00     0.001 A 
ATOM     43  C   UNL A   1      41.489  35.699  36.064  1.00  0.00     0.001 A 
ATOM     44  C   UNL A   1      42.129  36.834  35.568  1.00  0.00     0.000 A 
ENDBRANCH  25  39
BRANCH  26  45
ATOM     45  C   UNL A   1      40.320  26.723  28.072  1.00  0.00    -0.014 A 
ATOM     46  C   UNL A   1      39.499  25.707  28.582  1.00  0.00     0.009 A 
ATOM     47  C   UNL A   1      40.859  26.593  26.785  1.00  0.00     0.009 A 
ATOM     48  C   UNL A   1      39.227  24.573  27.815  1.00  0.00     0.001 A 
ATOM     49  C   UNL A   1      40.578  25.461  26.019  1.00  0.00     0.001 A 
ATOM     50  C   UNL A   1      39.764  24.452  26.534  1.00  0.00     0.000 A 
ENDBRANCH  26  45
BRANCH  38  51
ATOM     51  C   UNL A   1      45.345  28.425  32.542  1.00  0.00    -0.014 A 
ATOM     52  C   UNL A   1      46.548  28.641  31.855  1.00  0.00     0.009 A 
ATOM     53  C   UNL A   1      45.328  27.562  33.647  1.00  0.00     0.009 A 
ATOM     54  C   UNL A   1      47.714  27.989  32.259  1.00  0.00     0.001 A 
ATOM     55  C   UNL A   1      46.498  26.916  34.050  1.00  0.00     0.001 A 
ATOM     56  C   UNL A   1      47.688  27.128  33.355  1.00  0.00     0.000 A 
ENDBRANCH  38  51
ENDBRANCH  12  13
ENDBRANCH   5   7
ENDBRANCH   2   3
ENDBRANCH   1   2
BRANCH   1  57
ATOM     57  C   UNL A   1      32.137  29.123  25.906  1.00  0.00     0.118 C 
BRANCH  57  58
ATOM     58  N   UNL A   1      32.748  28.878  24.614  1.00  0.00    -0.352 N 
ATOM     59  C   UNL A   1      32.128  28.709  23.401  1.00  0.00     0.253 C 
ATOM     60  H   UNL A   1      33.732  28.826  24.606  1.00  0.00     0.163 HD
ATOM     61  O   UNL A   1      32.798  28.577  22.380  1.00  0.00    -0.269 OA
BRANCH  59  62
ATOM     62  C   UNL A   1      30.657  28.640  23.298  1.00  0.00     0.065 A 
ATOM     63  C   UNL A   1      29.996  29.820  22.922  1.00  0.00     0.016 A 
ATOM     64  C   UNL A   1      29.922  27.485  23.593  1.00  0.00     0.076 A 
ATOM     65  C   UNL A   1      28.606  29.838  22.785  1.00  0.00     0.001 A 
ATOM     66  C   UNL A   1      28.527  27.524  23.445  1.00  0.00     0.029 A 
ATOM     67  C   UNL A   1      27.871  28.687  23.043  1.00  0.00     0.002 A 
BRANCH  64  68
ATOM     68  N   UNL A   1      30.454  26.228  23.874  1.00  0.00    -0.255 NA
ATOM     69  C   UNL A   1      30.249  25.620  24.998  1.00  0.00     0.127 C 
BRANCH  69  70
ATOM     70  C   UNL A   1      30.785  24.249  25.082  1.00  0.00     0.076 A 
ATOM     71  C   UNL A   1      30.955  23.675  23.880  1.00  0.00     0.209 A 
ATOM     72  C   UNL A   1      31.808  23.929  26.106  1.00  0.00     0.201 A 
ATOM     73  O   UNL A   1      32.043  22.880  23.552  1.00  0.00    -0.463 OA
ATOM     74  C   UNL A   1      33.144  23.703  25.537  1.00  0.00     0.065 A 
ATOM     75  O   UNL A   1      31.588  23.979  27.309  1.00  0.00    -0.288 OA
ATOM     76  C   UNL A   1      33.199  23.213  24.231  1.00  0.00     0.137 A 
ATOM     77  C   UNL A   1      34.294  24.124  26.203  1.00  0.00     0.016 A 
ATOM     78  C   UNL A   1      34.420  23.140  23.569  1.00  0.00     0.048 A 
ATOM     79  C   UNL A   1      35.513  24.083  25.527  1.00  0.00     0.001 A 
ATOM     80  C   UNL A   1      35.574  23.595  24.215  1.00  0.00     0.004 A 
ENDBRANCH  69  70
ENDBRANCH  64  68
ENDBRANCH  59  62
ENDBRANCH  57  58
ENDBRANCH   1  57
TORSDOF 12
ENDMDL
