MODEL 1
REMARK VINA RESULT:     -12.3      0.000      0.000
REMARK SMILES Cc1cccc(Cn2c(=O)c3sccc3n(CC(=O)NCCCNC(=O)c3ccc(-c4c5nc(c(-c6ccccc6)c6ccc([nH]6)c(-c6ccccc6)c6nc(c(-c7ccccc7)c7ccc4[nH]7)C=C6)C=C5)cc3)c2=O)c1
REMARK SMILES IDX 21 1 20 2 18 3 19 4 17 6 16 7 8 8 9 9 75 10 10 11 11 12
REMARK SMILES IDX 76 13 12 14 15 15 13 16 14 17 7 18 6 19 1 20 2 21 3 22 77 23
REMARK SMILES IDX 4 24 5 25 22 26 23 27 24 28 25 29 26 31 27 32 28 33 74 34
REMARK SMILES IDX 29 35 73 36 30 37 31 38 32 39 67 40 33 41 72 42 66 43 68 44
REMARK SMILES IDX 34 45 71 46 65 47 64 48 35 50 57 51 42 52 56 53 43 54 46 55
REMARK SMILES IDX 55 56 69 57 44 58 45 59 54 61 70 62 47 63 36 64 37 65 41 66
REMARK SMILES IDX 38 67 40 68 39 69 58 70 59 71 63 72 60 73 62 74 61 75 48 76
REMARK SMILES IDX 49 77 53 78 50 79 52 80 51 81
REMARK H PARENT 20 5 24 30 68 49 46 60
REMARK Flexibility Score: inf
ROOT
ATOM      1  C   UNL A   1      38.147  21.506  25.547  1.00  0.00     0.117 C 
ENDROOT
BRANCH   1   2
ATOM      2  N   UNL A   1      37.684  21.977  24.251  1.00  0.00    -0.354 N 
ATOM      3  C   UNL A   1      36.815  22.986  23.946  1.00  0.00     0.240 C 
ATOM      4  O   UNL A   1      36.658  23.262  22.752  1.00  0.00    -0.273 OA
ATOM      5  H   UNL A   1      38.054  21.495  23.475  1.00  0.00     0.163 HD
BRANCH   3   6
ATOM      6  C   UNL A   1      36.087  23.789  25.030  1.00  0.00     0.227 C 
BRANCH   6   7
ATOM      7  N   UNL A   1      34.631  23.607  25.053  1.00  0.00    -0.283 N 
ATOM      8  N   UNL A   1      32.751  22.194  25.536  1.00  0.00    -0.254 N 
ATOM      9  C   UNL A   1      31.811  23.108  25.033  1.00  0.00     0.274 A 
ATOM     10  C   UNL A   1      34.133  22.387  25.512  1.00  0.00     0.332 A 
ATOM     11  O   UNL A   1      30.616  22.867  24.970  1.00  0.00    -0.268 OA
ATOM     12  C   UNL A   1      32.411  24.330  24.549  1.00  0.00     0.116 A 
ATOM     13  O   UNL A   1      34.920  21.482  25.800  1.00  0.00    -0.247 OA
ATOM     14  S   UNL A   1      31.515  25.591  23.846  1.00  0.00    -0.136 S 
ATOM     15  C   UNL A   1      33.756  24.577  24.566  1.00  0.00     0.070 A 
ATOM     16  C   UNL A   1      32.935  26.507  23.566  1.00  0.00     0.068 A 
ATOM     17  C   UNL A   1      34.065  25.854  24.012  1.00  0.00     0.039 A 
BRANCH   8  18
ATOM     18  C   UNL A   1      32.259  20.872  25.936  1.00  0.00     0.166 C 
BRANCH  18  19
ATOM     19  C   UNL A   1      32.447  19.788  24.890  1.00  0.00    -0.028 A 
ATOM     20  C   UNL A   1      33.296  16.072  24.658  1.00  0.00     0.044 C 
ATOM     21  C   UNL A   1      32.979  17.488  24.280  1.00  0.00    -0.051 A 
ATOM     22  C   UNL A   1      32.831  17.812  22.926  1.00  0.00     0.003 A 
ATOM     23  C   UNL A   1      32.821  18.487  25.256  1.00  0.00     0.009 A 
ATOM     24  C   UNL A   1      32.447  19.092  22.552  1.00  0.00     0.001 A 
ATOM     25  C   UNL A   1      32.219  20.055  23.530  1.00  0.00     0.005 A 
ENDBRANCH  18  19
ENDBRANCH   8  18
ENDBRANCH   6   7
ENDBRANCH   3   6
ENDBRANCH   1   2
BRANCH   1  26
ATOM     26  C   UNL A   1      39.169  22.448  26.173  1.00  0.00     0.042 C 
BRANCH  26  27
ATOM     27  C   UNL A   1      40.201  21.743  27.027  1.00  0.00     0.118 C 
BRANCH  27  28
ATOM     28  N   UNL A   1      41.104  20.876  26.282  1.00  0.00    -0.352 N 
ATOM     29  C   UNL A   1      42.469  20.982  26.091  1.00  0.00     0.251 C 
ATOM     30  H   UNL A   1      40.679  20.100  25.852  1.00  0.00     0.163 HD
ATOM     31  O   UNL A   1      43.037  20.188  25.347  1.00  0.00    -0.269 OA
BRANCH  29  32
ATOM     32  C   UNL A   1      43.271  21.912  26.928  1.00  0.00     0.039 A 
ATOM     33  C   UNL A   1      43.014  21.876  28.305  1.00  0.00     0.014 A 
ATOM     34  C   UNL A   1      43.890  23.017  26.362  1.00  0.00     0.014 A 
ATOM     35  C   UNL A   1      43.028  23.063  29.020  1.00  0.00     0.010 A 
ATOM     36  C   UNL A   1      43.751  24.217  27.006  1.00  0.00     0.010 A 
ATOM     37  C   UNL A   1      43.251  24.234  28.308  1.00  0.00    -0.014 A 
BRANCH  37  38
ATOM     38  C   UNL A   1      43.061  25.561  28.841  1.00  0.00     0.031 A 
ATOM     39  C   UNL A   1      41.856  26.270  28.406  1.00  0.00     0.074 A 
ATOM     40  C   UNL A   1      43.901  25.996  29.802  1.00  0.00     0.049 A 
ATOM     41  N   UNL A   1      41.718  27.543  28.430  1.00  0.00    -0.248 NA
ATOM     42  C   UNL A   1      40.704  25.574  27.832  1.00  0.00     0.031 C 
ATOM     43  C   UNL A   1      43.770  27.149  30.684  1.00  0.00     0.029 A 
ATOM     44  N   UNL A   1      45.200  25.545  30.025  1.00  0.00    -0.354 N 
ATOM     45  C   UNL A   1      40.388  27.805  28.195  1.00  0.00     0.074 A 
ATOM     46  C   UNL A   1      39.826  26.571  27.714  1.00  0.00     0.031 C 
ATOM     47  C   UNL A   1      44.993  27.489  31.136  1.00  0.00     0.029 A 
ATOM     48  C   UNL A   1      45.960  26.651  30.440  1.00  0.00     0.049 A 
ATOM     49  H   UNL A   1      45.525  24.623  29.911  1.00  0.00     0.167 HD
ATOM     50  C   UNL A   1      39.889  29.000  28.607  1.00  0.00     0.031 A 
ATOM     51  C   UNL A   1      46.949  27.120  29.621  1.00  0.00     0.031 A 
ATOM     52  C   UNL A   1      40.960  29.832  29.152  1.00  0.00     0.049 A 
ATOM     53  C   UNL A   1      46.610  28.482  29.048  1.00  0.00     0.074 A 
ATOM     54  C   UNL A   1      41.409  30.037  30.447  1.00  0.00     0.029 A 
ATOM     55  N   UNL A   1      41.993  30.227  28.308  1.00  0.00    -0.354 N 
ATOM     56  N   UNL A   1      45.396  28.954  28.941  1.00  0.00    -0.248 NA
ATOM     57  C   UNL A   1      47.619  29.437  28.604  1.00  0.00     0.031 C 
ATOM     58  C   UNL A   1      42.762  30.473  30.372  1.00  0.00     0.029 A 
ATOM     59  C   UNL A   1      43.118  30.568  29.037  1.00  0.00     0.049 A 
ATOM     60  H   UNL A   1      41.930  30.261  27.326  1.00  0.00     0.167 HD
ATOM     61  C   UNL A   1      45.441  30.249  28.495  1.00  0.00     0.074 A 
ATOM     62  C   UNL A   1      46.859  30.501  28.291  1.00  0.00     0.031 C 
ATOM     63  C   UNL A   1      44.322  31.024  28.349  1.00  0.00     0.031 A 
BRANCH  50  64
ATOM     64  C   UNL A   1      38.421  29.282  28.795  1.00  0.00    -0.014 A 
ATOM     65  C   UNL A   1      37.665  29.713  27.690  1.00  0.00     0.009 A 
ATOM     66  C   UNL A   1      37.731  29.196  30.017  1.00  0.00     0.009 A 
ATOM     67  C   UNL A   1      36.322  30.089  27.808  1.00  0.00     0.001 A 
ATOM     68  C   UNL A   1      36.393  29.596  30.149  1.00  0.00     0.001 A 
ATOM     69  C   UNL A   1      35.689  30.047  29.043  1.00  0.00     0.000 A 
ENDBRANCH  50  64
BRANCH  51  70
ATOM     70  C   UNL A   1      47.666  26.006  28.920  1.00  0.00    -0.014 A 
ATOM     71  C   UNL A   1      47.375  25.826  27.547  1.00  0.00     0.009 A 
ATOM     72  C   UNL A   1      48.885  25.515  29.408  1.00  0.00     0.009 A 
ATOM     73  C   UNL A   1      48.353  25.369  26.659  1.00  0.00     0.001 A 
ATOM     74  C   UNL A   1      49.849  25.023  28.514  1.00  0.00     0.001 A 
ATOM     75  C   UNL A   1      49.608  25.011  27.139  1.00  0.00     0.000 A 
ENDBRANCH  51  70
BRANCH  63  76
ATOM     76  C   UNL A   1      44.238  32.338  27.600  1.00  0.00    -0.014 A 
ATOM     77  C   UNL A   1      44.385  32.476  26.216  1.00  0.00     0.009 A 
ATOM     78  C   UNL A   1      43.853  33.505  28.305  1.00  0.00     0.009 A 
ATOM     79  C   UNL A   1      44.211  33.713  25.581  1.00  0.00     0.001 A 
ATOM     80  C   UNL A   1      43.609  34.722  27.668  1.00  0.00     0.001 A 
ATOM     81  C   UNL A   1      43.807  34.830  26.303  1.00  0.00     0.000 A 
ENDBRANCH  63  76
ENDBRANCH  37  38
ENDBRANCH  29  32
ENDBRANCH  27  28
ENDBRANCH  26  27
ENDBRANCH   1  26
TORSDOF 13
ENDMDL
MODEL 2
REMARK VINA RESULT:     -12.0      2.495      4.171
REMARK SMILES Cc1cccc(Cn2c(=O)c3sccc3n(CC(=O)NCCCNC(=O)c3ccc(-c4c5nc(c(-c6ccccc6)c6ccc([nH]6)c(-c6ccccc6)c6nc(c(-c7ccccc7)c7ccc4[nH]7)C=C6)C=C5)cc3)c2=O)c1
REMARK SMILES IDX 21 1 20 2 18 3 19 4 17 6 16 7 8 8 9 9 75 10 10 11 11 12
REMARK SMILES IDX 76 13 12 14 15 15 13 16 14 17 7 18 6 19 1 20 2 21 3 22 77 23
REMARK SMILES IDX 4 24 5 25 22 26 23 27 24 28 25 29 26 31 27 32 28 33 74 34
REMARK SMILES IDX 29 35 73 36 30 37 31 38 32 39 67 40 33 41 72 42 66 43 68 44
REMARK SMILES IDX 34 45 71 46 65 47 64 48 35 50 57 51 42 52 56 53 43 54 46 55
REMARK SMILES IDX 55 56 69 57 44 58 45 59 54 61 70 62 47 63 36 64 37 65 41 66
REMARK SMILES IDX 38 67 40 68 39 69 58 70 59 71 63 72 60 73 62 74 61 75 48 76
REMARK SMILES IDX 49 77 53 78 50 79 52 80 51 81
REMARK H PARENT 20 5 24 30 68 49 46 60
REMARK Flexibility Score: inf
ROOT
ATOM      1  C   UNL A   1      37.856  21.390  25.591  1.00  0.00     0.117 C 
ENDROOT
BRANCH   1   2
ATOM      2  N   UNL A   1      37.633  21.899  24.247  1.00  0.00    -0.354 N 
ATOM      3  C   UNL A   1      36.854  22.938  23.824  1.00  0.00     0.240 C 
ATOM      4  O   UNL A   1      36.909  23.243  22.628  1.00  0.00    -0.273 OA
ATOM      5  H   UNL A   1      38.118  21.423  23.534  1.00  0.00     0.163 HD
BRANCH   3   6
ATOM      6  C   UNL A   1      35.970  23.739  24.788  1.00  0.00     0.227 C 
BRANCH   6   7
ATOM      7  N   UNL A   1      34.527  23.593  24.562  1.00  0.00    -0.283 N 
ATOM      8  N   UNL A   1      32.523  22.311  24.885  1.00  0.00    -0.254 N 
ATOM      9  C   UNL A   1      31.738  23.155  24.083  1.00  0.00     0.274 A 
ATOM     10  C   UNL A   1      33.894  22.470  25.095  1.00  0.00     0.332 A 
ATOM     11  O   UNL A   1      30.565  22.931  23.832  1.00  0.00    -0.268 OA
ATOM     12  C   UNL A   1      32.476  24.274  23.545  1.00  0.00     0.116 A 
ATOM     13  O   UNL A   1      34.569  21.604  25.657  1.00  0.00    -0.247 OA
ATOM     14  S   UNL A   1      31.788  25.428  22.505  1.00  0.00    -0.136 S 
ATOM     15  C   UNL A   1      33.806  24.493  23.779  1.00  0.00     0.070 A 
ATOM     16  C   UNL A   1      33.279  26.261  22.366  1.00  0.00     0.068 A 
ATOM     17  C   UNL A   1      34.274  25.661  23.110  1.00  0.00     0.039 A 
BRANCH   8  18
ATOM     18  C   UNL A   1      31.902  21.078  25.377  1.00  0.00     0.166 C 
BRANCH  18  19
ATOM     19  C   UNL A   1      32.301  19.825  24.617  1.00  0.00    -0.028 A 
ATOM     20  C   UNL A   1      33.605  16.299  25.283  1.00  0.00     0.044 C 
ATOM     21  C   UNL A   1      33.152  17.541  24.575  1.00  0.00    -0.051 A 
ATOM     22  C   UNL A   1      33.074  17.537  23.177  1.00  0.00     0.003 A 
ATOM     23  C   UNL A   1      32.798  18.700  25.288  1.00  0.00     0.009 A 
ATOM     24  C   UNL A   1      32.569  18.639  22.503  1.00  0.00     0.001 A 
ATOM     25  C   UNL A   1      32.151  19.754  23.222  1.00  0.00     0.005 A 
ENDBRANCH  18  19
ENDBRANCH   8  18
ENDBRANCH   6   7
ENDBRANCH   3   6
ENDBRANCH   1   2
BRANCH   1  26
ATOM     26  C   UNL A   1      39.237  21.752  26.125  1.00  0.00     0.042 C 
BRANCH  26  27
ATOM     27  C   UNL A   1      39.324  23.159  26.676  1.00  0.00     0.118 C 
BRANCH  27  28
ATOM     28  N   UNL A   1      40.451  23.385  27.571  1.00  0.00    -0.352 N 
ATOM     29  C   UNL A   1      40.919  24.565  28.119  1.00  0.00     0.251 C 
ATOM     30  H   UNL A   1      40.954  22.577  27.823  1.00  0.00     0.163 HD
ATOM     31  O   UNL A   1      41.950  24.553  28.786  1.00  0.00    -0.269 OA
BRANCH  29  32
ATOM     32  C   UNL A   1      40.082  25.792  28.075  1.00  0.00     0.039 A 
ATOM     33  C   UNL A   1      40.470  26.768  27.148  1.00  0.00     0.014 A 
ATOM     34  C   UNL A   1      39.268  26.132  29.147  1.00  0.00     0.014 A 
ATOM     35  C   UNL A   1      40.364  28.104  27.498  1.00  0.00     0.010 A 
ATOM     36  C   UNL A   1      39.305  27.430  29.579  1.00  0.00     0.010 A 
ATOM     37  C   UNL A   1      39.918  28.394  28.781  1.00  0.00    -0.014 A 
BRANCH  37  38
ATOM     38  C   UNL A   1      39.977  29.702  29.388  1.00  0.00     0.031 A 
ATOM     39  C   UNL A   1      38.902  30.630  29.037  1.00  0.00     0.074 A 
ATOM     40  C   UNL A   1      40.908  29.930  30.337  1.00  0.00     0.049 A 
ATOM     41  N   UNL A   1      38.988  31.905  29.131  1.00  0.00    -0.248 NA
ATOM     42  C   UNL A   1      37.630  30.177  28.473  1.00  0.00     0.031 C 
ATOM     43  C   UNL A   1      41.006  31.036  31.281  1.00  0.00     0.029 A 
ATOM     44  N   UNL A   1      42.114  29.250  30.486  1.00  0.00    -0.354 N 
ATOM     45  C   UNL A   1      37.718  32.405  28.962  1.00  0.00     0.074 A 
ATOM     46  C   UNL A   1      36.936  31.315  28.441  1.00  0.00     0.031 C 
ATOM     47  C   UNL A   1      42.281  31.134  31.702  1.00  0.00     0.029 A 
ATOM     48  C   UNL A   1      43.067  30.184  30.927  1.00  0.00     0.049 A 
ATOM     49  H   UNL A   1      42.271  28.294  30.312  1.00  0.00     0.167 HD
ATOM     50  C   UNL A   1      37.446  33.642  29.453  1.00  0.00     0.031 A 
ATOM     51  C   UNL A   1      44.098  30.522  30.095  1.00  0.00     0.031 A 
ATOM     52  C   UNL A   1      38.661  34.245  29.998  1.00  0.00     0.049 A 
ATOM     53  C   UNL A   1      43.984  31.952  29.606  1.00  0.00     0.074 A 
ATOM     54  C   UNL A   1      39.177  34.296  31.283  1.00  0.00     0.029 A 
ATOM     55  N   UNL A   1      39.722  34.505  29.136  1.00  0.00    -0.354 N 
ATOM     56  N   UNL A   1      42.868  32.631  29.571  1.00  0.00    -0.248 NA
ATOM     57  C   UNL A   1      45.131  32.742  29.173  1.00  0.00     0.031 C 
ATOM     58  C   UNL A   1      40.582  34.496  31.178  1.00  0.00     0.029 A 
ATOM     59  C   UNL A   1      40.909  34.604  29.837  1.00  0.00     0.049 A 
ATOM     60  H   UNL A   1      39.637  34.604  28.160  1.00  0.00     0.167 HD
ATOM     61  C   UNL A   1      43.125  33.922  29.190  1.00  0.00     0.074 A 
ATOM     62  C   UNL A   1      44.558  33.938  28.944  1.00  0.00     0.031 C 
ATOM     63  C   UNL A   1      42.154  34.885  29.127  1.00  0.00     0.031 A 
BRANCH  50  64
ATOM     64  C   UNL A   1      36.055  34.162  29.712  1.00  0.00    -0.014 A 
ATOM     65  C   UNL A   1      35.584  34.209  31.036  1.00  0.00     0.009 A 
ATOM     66  C   UNL A   1      35.148  34.571  28.720  1.00  0.00     0.009 A 
ATOM     67  C   UNL A   1      34.271  34.585  31.346  1.00  0.00     0.001 A 
ATOM     68  C   UNL A   1      33.823  34.922  29.019  1.00  0.00     0.001 A 
ATOM     69  C   UNL A   1      33.384  34.925  30.334  1.00  0.00     0.000 A 
ENDBRANCH  50  64
BRANCH  51  70
ATOM     70  C   UNL A   1      44.590  29.342  29.311  1.00  0.00    -0.014 A 
ATOM     71  C   UNL A   1      44.784  28.138  30.027  1.00  0.00     0.009 A 
ATOM     72  C   UNL A   1      44.385  29.263  27.927  1.00  0.00     0.009 A 
ATOM     73  C   UNL A   1      44.568  26.897  29.420  1.00  0.00     0.001 A 
ATOM     74  C   UNL A   1      44.205  28.010  27.316  1.00  0.00     0.001 A 
ATOM     75  C   UNL A   1      44.232  26.838  28.072  1.00  0.00     0.000 A 
ENDBRANCH  51  70
BRANCH  63  76
ATOM     76  C   UNL A   1      42.278  36.234  28.450  1.00  0.00    -0.014 A 
ATOM     77  C   UNL A   1      41.966  36.484  27.110  1.00  0.00     0.009 A 
ATOM     78  C   UNL A   1      42.601  37.368  29.236  1.00  0.00     0.009 A 
ATOM     79  C   UNL A   1      42.025  37.777  26.572  1.00  0.00     0.001 A 
ATOM     80  C   UNL A   1      42.592  38.666  28.723  1.00  0.00     0.001 A 
ATOM     81  C   UNL A   1      42.321  38.868  27.382  1.00  0.00     0.000 A 
ENDBRANCH  63  76
ENDBRANCH  37  38
ENDBRANCH  29  32
ENDBRANCH  27  28
ENDBRANCH  26  27
ENDBRANCH   1  26
TORSDOF 13
ENDMDL
MODEL 3
REMARK VINA RESULT:     -11.7      1.480      3.153
REMARK SMILES Cc1cccc(Cn2c(=O)c3sccc3n(CC(=O)NCCCNC(=O)c3ccc(-c4c5nc(c(-c6ccccc6)c6ccc([nH]6)c(-c6ccccc6)c6nc(c(-c7ccccc7)c7ccc4[nH]7)C=C6)C=C5)cc3)c2=O)c1
REMARK SMILES IDX 21 1 20 2 18 3 19 4 17 6 16 7 8 8 9 9 75 10 10 11 11 12
REMARK SMILES IDX 76 13 12 14 15 15 13 16 14 17 7 18 6 19 1 20 2 21 3 22 77 23
REMARK SMILES IDX 4 24 5 25 22 26 23 27 24 28 25 29 26 31 27 32 28 33 74 34
REMARK SMILES IDX 29 35 73 36 30 37 31 38 32 39 67 40 33 41 72 42 66 43 68 44
REMARK SMILES IDX 34 45 71 46 65 47 64 48 35 50 57 51 42 52 56 53 43 54 46 55
REMARK SMILES IDX 55 56 69 57 44 58 45 59 54 61 70 62 47 63 36 64 37 65 41 66
REMARK SMILES IDX 38 67 40 68 39 69 58 70 59 71 63 72 60 73 62 74 61 75 48 76
REMARK SMILES IDX 49 77 53 78 50 79 52 80 51 81
REMARK H PARENT 20 5 24 30 68 49 46 60
REMARK Flexibility Score: inf
ROOT
ATOM      1  C   UNL A   1      38.274  24.022  26.259  1.00  0.00     0.117 C 
ENDROOT
BRANCH   1   2
ATOM      2  N   UNL A   1      37.861  23.490  24.969  1.00  0.00    -0.354 N 
ATOM      3  C   UNL A   1      36.987  22.482  24.678  1.00  0.00     0.240 C 
ATOM      4  O   UNL A   1      36.724  22.281  23.488  1.00  0.00    -0.273 OA
ATOM      5  H   UNL A   1      38.276  23.924  24.188  1.00  0.00     0.163 HD
BRANCH   3   6
ATOM      6  C   UNL A   1      36.312  21.647  25.772  1.00  0.00     0.227 C 
BRANCH   6   7
ATOM      7  N   UNL A   1      34.847  21.603  25.693  1.00  0.00    -0.283 N 
ATOM      8  N   UNL A   1      32.738  22.640  26.181  1.00  0.00    -0.254 N 
ATOM      9  C   UNL A   1      31.984  21.561  25.693  1.00  0.00     0.274 A 
ATOM     10  C   UNL A   1      34.132  22.668  26.242  1.00  0.00     0.332 A 
ATOM     11  O   UNL A   1      30.766  21.521  25.751  1.00  0.00    -0.268 OA
ATOM     12  C   UNL A   1      32.800  20.488  25.174  1.00  0.00     0.116 A 
ATOM     13  O   UNL A   1      34.738  23.559  26.841  1.00  0.00    -0.247 OA
ATOM     14  S   UNL A   1      32.153  19.040  24.563  1.00  0.00    -0.136 S 
ATOM     15  C   UNL A   1      34.168  20.508  25.163  1.00  0.00     0.070 A 
ATOM     16  C   UNL A   1      33.719  18.417  24.252  1.00  0.00     0.068 A 
ATOM     17  C   UNL A   1      34.708  19.311  24.608  1.00  0.00     0.039 A 
BRANCH   8  18
ATOM     18  C   UNL A   1      32.010  23.726  26.845  1.00  0.00     0.166 C 
BRANCH  18  19
ATOM     19  C   UNL A   1      31.708  24.918  25.954  1.00  0.00    -0.028 A 
ATOM     20  C   UNL A   1      28.847  26.358  23.876  1.00  0.00     0.044 C 
ATOM     21  C   UNL A   1      30.196  26.161  24.502  1.00  0.00    -0.051 A 
ATOM     22  C   UNL A   1      31.195  27.116  24.276  1.00  0.00     0.003 A 
ATOM     23  C   UNL A   1      30.469  25.047  25.313  1.00  0.00     0.009 A 
ATOM     24  C   UNL A   1      32.421  27.007  24.917  1.00  0.00     0.001 A 
ATOM     25  C   UNL A   1      32.656  25.940  25.777  1.00  0.00     0.005 A 
ENDBRANCH  18  19
ENDBRANCH   8  18
ENDBRANCH   6   7
ENDBRANCH   3   6
ENDBRANCH   1   2
BRANCH   1  26
ATOM     26  C   UNL A   1      39.752  23.779  26.538  1.00  0.00     0.042 C 
BRANCH  26  27
ATOM     27  C   UNL A   1      40.029  22.470  27.246  1.00  0.00     0.118 C 
BRANCH  27  28
ATOM     28  N   UNL A   1      40.790  21.511  26.456  1.00  0.00    -0.352 N 
ATOM     29  C   UNL A   1      42.137  21.495  26.147  1.00  0.00     0.251 C 
ATOM     30  H   UNL A   1      40.266  20.763  26.089  1.00  0.00     0.163 HD
ATOM     31  O   UNL A   1      42.570  20.636  25.384  1.00  0.00    -0.269 OA
BRANCH  29  32
ATOM     32  C   UNL A   1      43.083  22.374  26.882  1.00  0.00     0.039 A 
ATOM     33  C   UNL A   1      42.997  22.336  28.280  1.00  0.00     0.014 A 
ATOM     34  C   UNL A   1      43.683  23.453  26.249  1.00  0.00     0.014 A 
ATOM     35  C   UNL A   1      43.161  23.512  28.993  1.00  0.00     0.010 A 
ATOM     36  C   UNL A   1      43.687  24.651  26.911  1.00  0.00     0.010 A 
ATOM     37  C   UNL A   1      43.353  24.678  28.265  1.00  0.00    -0.014 A 
BRANCH  37  38
ATOM     38  C   UNL A   1      43.299  26.007  28.824  1.00  0.00     0.031 A 
ATOM     39  C   UNL A   1      42.027  26.719  28.685  1.00  0.00     0.074 A 
ATOM     40  C   UNL A   1      44.344  26.442  29.558  1.00  0.00     0.049 A 
ATOM     41  N   UNL A   1      41.903  27.993  28.737  1.00  0.00    -0.248 NA
ATOM     42  C   UNL A   1      40.771  26.026  28.403  1.00  0.00     0.031 C 
ATOM     43  C   UNL A   1      44.430  27.596  30.442  1.00  0.00     0.029 A 
ATOM     44  N   UNL A   1      45.657  25.986  29.467  1.00  0.00    -0.354 N 
ATOM     45  C   UNL A   1      40.556  28.260  28.824  1.00  0.00     0.074 A 
ATOM     46  C   UNL A   1      39.892  27.026  28.494  1.00  0.00     0.031 C 
ATOM     47  C   UNL A   1      45.725  27.933  30.590  1.00  0.00     0.029 A 
ATOM     48  C   UNL A   1      46.497  27.090  29.687  1.00  0.00     0.049 A 
ATOM     49  H   UNL A   1      45.943  25.062  29.282  1.00  0.00     0.167 HD
ATOM     50  C   UNL A   1      40.172  29.457  29.339  1.00  0.00     0.031 A 
ATOM     51  C   UNL A   1      47.265  27.554  28.656  1.00  0.00     0.031 A 
ATOM     52  C   UNL A   1      41.345  30.286  29.611  1.00  0.00     0.049 A 
ATOM     53  C   UNL A   1      46.805  28.916  28.176  1.00  0.00     0.074 A 
ATOM     54  C   UNL A   1      42.089  30.493  30.763  1.00  0.00     0.029 A 
ATOM     55  N   UNL A   1      42.149  30.676  28.546  1.00  0.00    -0.354 N 
ATOM     56  N   UNL A   1      45.601  29.392  28.358  1.00  0.00    -0.248 NA
ATOM     57  C   UNL A   1      47.683  29.866  27.502  1.00  0.00     0.031 C 
ATOM     58  C   UNL A   1      43.387  30.923  30.368  1.00  0.00     0.029 A 
ATOM     59  C   UNL A   1      43.415  31.014  28.986  1.00  0.00     0.049 A 
ATOM     60  H   UNL A   1      41.856  30.708  27.607  1.00  0.00     0.167 HD
ATOM     61  C   UNL A   1      45.544  30.686  27.910  1.00  0.00     0.074 A 
ATOM     62  C   UNL A   1      46.873  30.932  27.375  1.00  0.00     0.031 C 
ATOM     63  C   UNL A   1      44.424  31.464  28.031  1.00  0.00     0.031 A 
BRANCH  50  64
ATOM     64  C   UNL A   1      38.791  29.745  29.869  1.00  0.00    -0.014 A 
ATOM     65  C   UNL A   1      38.069  30.825  29.331  1.00  0.00     0.009 A 
ATOM     66  C   UNL A   1      38.163  29.042  30.911  1.00  0.00     0.009 A 
ATOM     67  C   UNL A   1      36.824  31.215  29.838  1.00  0.00     0.001 A 
ATOM     68  C   UNL A   1      36.928  29.442  31.444  1.00  0.00     0.001 A 
ATOM     69  C   UNL A   1      36.260  30.533  30.908  1.00  0.00     0.000 A 
ENDBRANCH  50  64
BRANCH  51  70
ATOM     70  C   UNL A   1      47.792  26.435  27.808  1.00  0.00    -0.014 A 
ATOM     71  C   UNL A   1      47.446  26.459  26.437  1.00  0.00     0.009 A 
ATOM     72  C   UNL A   1      48.936  25.720  28.190  1.00  0.00     0.009 A 
ATOM     73  C   UNL A   1      48.326  25.970  25.465  1.00  0.00     0.001 A 
ATOM     74  C   UNL A   1      49.796  25.199  27.209  1.00  0.00     0.001 A 
ATOM     75  C   UNL A   1      49.524  25.381  25.853  1.00  0.00     0.000 A 
ENDBRANCH  51  70
BRANCH  63  76
ATOM     76  C   UNL A   1      44.169  32.777  27.319  1.00  0.00    -0.014 A 
ATOM     77  C   UNL A   1      44.146  32.938  25.931  1.00  0.00     0.009 A 
ATOM     78  C   UNL A   1      43.792  33.909  28.084  1.00  0.00     0.009 A 
ATOM     79  C   UNL A   1      43.819  34.167  25.341  1.00  0.00     0.001 A 
ATOM     80  C   UNL A   1      43.397  35.114  27.500  1.00  0.00     0.001 A 
ATOM     81  C   UNL A   1      43.429  35.248  26.124  1.00  0.00     0.000 A 
ENDBRANCH  63  76
ENDBRANCH  37  38
ENDBRANCH  29  32
ENDBRANCH  27  28
ENDBRANCH  26  27
ENDBRANCH   1  26
TORSDOF 13
ENDMDL
