MODEL 1
REMARK VINA RESULT:     -13.1      0.000      0.000
REMARK SMILES Cc1ccc(-c2c(C)sc(NC(=O)[C@H]3CC=CC[C@H]3C(=O)NCCCNC(=O)c3ccc(-c4c5nc(c(-c6ccccc6)c6ccc([nH]6)c(-c6ccccc6)c6nc(c(-c7ccccc7)c7ccc4[nH]7)C=C6)C=C5)cc3)c2C(N)=O)cc1
REMARK SMILES IDX 23 1 22 2 20 3 21 4 19 6 14 7 15 8 16 9 18 10 17 11 12 12
REMARK SMILES IDX 11 13 13 15 10 16 6 17 7 18 77 19 8 20 9 21 5 22 1 23 2 24
REMARK SMILES IDX 3 25 82 26 4 27 81 28 78 29 79 30 80 31 24 34 25 35 26 36
REMARK SMILES IDX 27 37 28 39 29 40 30 41 76 42 31 43 75 44 32 45 33 46 34 47
REMARK SMILES IDX 69 48 35 49 74 50 68 51 70 52 36 53 73 54 67 55 66 56 37 58
REMARK SMILES IDX 59 59 44 60 58 61 45 62 48 63 57 64 71 65 46 66 47 67 56 69
REMARK SMILES IDX 72 70 49 71 38 72 39 73 43 74 40 75 42 76 41 77 60 78 61 79
REMARK SMILES IDX 65 80 62 81 64 82 63 83 50 84 51 85 55 86 52 87 54 88 53 89
REMARK H PARENT 22 5 11 14 79 32 79 33 26 38 70 57 48 68
REMARK Flexibility Score: inf
ROOT
ATOM      1  C   UNL A   1      34.766  29.661  27.414  1.00  0.00     0.117 C 
ENDROOT
BRANCH   1   2
ATOM      2  N   UNL A   1      33.575  28.887  27.647  1.00  0.00    -0.356 N 
ATOM      3  C   UNL A   1      32.689  28.399  26.748  1.00  0.00     0.224 C 
ATOM      4  O   UNL A   1      31.580  28.078  27.188  1.00  0.00    -0.275 OA
ATOM      5  H   UNL A   1      33.378  28.684  28.590  1.00  0.00     0.163 HD
BRANCH   3   6
ATOM      6  C   UNL A   1      33.026  28.183  25.280  1.00  0.00     0.095 C 
ATOM      7  C   UNL A   1      32.882  26.790  24.631  1.00  0.00     0.095 C 
ATOM      8  C   UNL A   1      33.833  26.719  23.417  1.00  0.00     0.041 C 
ATOM      9  C   UNL A   1      33.988  28.027  22.667  1.00  0.00    -0.030 C 
ATOM     10  C   UNL A   1      32.689  29.344  24.353  1.00  0.00     0.041 C 
ATOM     11  C   UNL A   1      33.440  29.190  23.060  1.00  0.00    -0.030 C 
BRANCH   7  12
ATOM     12  C   UNL A   1      31.516  26.065  24.447  1.00  0.00     0.229 C 
ATOM     13  N   UNL A   1      31.234  24.736  24.296  1.00  0.00    -0.317 N 
ATOM     14  H   UNL A   1      30.423  24.559  23.767  1.00  0.00     0.170 HD
ATOM     15  O   UNL A   1      30.509  26.791  24.332  1.00  0.00    -0.274 OA
BRANCH  13  16
ATOM     16  C   UNL A   1      31.867  23.598  24.742  1.00  0.00     0.109 A 
ATOM     17  C   UNL A   1      32.929  21.555  25.107  1.00  0.00     0.010 A 
ATOM     18  C   UNL A   1      32.869  22.111  26.376  1.00  0.00     0.012 A 
ATOM     19  C   UNL A   1      32.320  22.437  24.101  1.00  0.00     0.082 A 
ATOM     20  C   UNL A   1      33.551  21.769  27.657  1.00  0.00     0.057 C 
ATOM     21  S   UNL A   1      31.629  23.262  26.389  1.00  0.00    -0.122 S 
BRANCH  17  22
ATOM     22  C   UNL A   1      33.457  20.200  24.961  1.00  0.00    -0.016 A 
ATOM     23  C   UNL A   1      34.756  16.115  24.543  1.00  0.00     0.044 C 
ATOM     24  C   UNL A   1      34.311  17.535  24.714  1.00  0.00    -0.051 A 
ATOM     25  C   UNL A   1      35.230  18.592  24.628  1.00  0.00     0.004 A 
ATOM     26  C   UNL A   1      32.961  17.820  24.920  1.00  0.00     0.004 A 
ATOM     27  C   UNL A   1      34.808  19.921  24.763  1.00  0.00     0.009 A 
ATOM     28  C   UNL A   1      32.539  19.140  25.023  1.00  0.00     0.009 A 
ENDBRANCH  17  22
BRANCH  19  29
ATOM     29  C   UNL A   1      32.245  22.086  22.671  1.00  0.00     0.252 C 
ATOM     30  N   UNL A   1      32.797  22.945  21.765  1.00  0.00    -0.365 N 
ATOM     31  O   UNL A   1      31.725  21.075  22.237  1.00  0.00    -0.269 OA
ATOM     32  H   UNL A   1      33.228  23.775  22.072  1.00  0.00     0.159 HD
ATOM     33  H   UNL A   1      32.765  22.735  20.804  1.00  0.00     0.159 HD
ENDBRANCH  19  29
ENDBRANCH  13  16
ENDBRANCH   7  12
ENDBRANCH   3   6
ENDBRANCH   1   2
BRANCH   1  34
ATOM     34  C   UNL A   1      34.432  31.127  27.570  1.00  0.00     0.042 C 
BRANCH  34  35
ATOM     35  C   UNL A   1      34.799  31.699  28.906  1.00  0.00     0.118 C 
BRANCH  35  36
ATOM     36  N   UNL A   1      33.949  32.800  29.321  1.00  0.00    -0.352 N 
ATOM     37  C   UNL A   1      34.215  33.831  30.204  1.00  0.00     0.251 C 
ATOM     38  H   UNL A   1      33.052  32.815  28.915  1.00  0.00     0.163 HD
ATOM     39  O   UNL A   1      33.304  34.602  30.495  1.00  0.00    -0.269 OA
BRANCH  37  40
ATOM     40  C   UNL A   1      35.617  34.140  30.617  1.00  0.00     0.039 A 
ATOM     41  C   UNL A   1      36.511  34.315  29.554  1.00  0.00     0.014 A 
ATOM     42  C   UNL A   1      36.094  33.668  31.826  1.00  0.00     0.014 A 
ATOM     43  C   UNL A   1      37.725  33.649  29.586  1.00  0.00     0.010 A 
ATOM     44  C   UNL A   1      37.131  32.784  31.771  1.00  0.00     0.010 A 
ATOM     45  C   UNL A   1      37.931  32.762  30.631  1.00  0.00    -0.014 A 
BRANCH  45  46
ATOM     46  C   UNL A   1      39.057  31.878  30.770  1.00  0.00     0.031 A 
ATOM     47  C   UNL A   1      38.857  30.522  30.234  1.00  0.00     0.074 A 
ATOM     48  C   UNL A   1      40.248  32.408  31.124  1.00  0.00     0.049 A 
ATOM     49  N   UNL A   1      39.640  29.541  30.474  1.00  0.00    -0.248 NA
ATOM     50  C   UNL A   1      37.710  30.143  29.399  1.00  0.00     0.031 C 
ATOM     51  C   UNL A   1      41.583  31.848  30.962  1.00  0.00     0.029 A 
ATOM     52  N   UNL A   1      40.450  33.533  31.925  1.00  0.00    -0.354 N 
ATOM     53  C   UNL A   1      39.308  28.534  29.599  1.00  0.00     0.074 A 
ATOM     54  C   UNL A   1      38.048  28.909  29.019  1.00  0.00     0.031 C 
ATOM     55  C   UNL A   1      42.408  32.426  31.855  1.00  0.00     0.029 A 
ATOM     56  C   UNL A   1      41.587  33.267  32.713  1.00  0.00     0.049 A 
ATOM     57  H   UNL A   1      39.904  34.353  31.936  1.00  0.00     0.167 HD
ATOM     58  C   UNL A   1      40.237  27.572  29.371  1.00  0.00     0.031 A 
ATOM     59  C   UNL A   1      41.447  33.095  34.064  1.00  0.00     0.031 A 
ATOM     60  C   UNL A   1      41.396  27.792  30.226  1.00  0.00     0.049 A 
ATOM     61  C   UNL A   1      41.763  31.675  34.488  1.00  0.00     0.074 A 
ATOM     62  C   UNL A   1      42.604  28.435  30.019  1.00  0.00     0.029 A 
ATOM     63  N   UNL A   1      41.214  27.707  31.597  1.00  0.00    -0.354 N 
ATOM     64  N   UNL A   1      41.672  30.637  33.698  1.00  0.00    -0.248 NA
ATOM     65  C   UNL A   1      42.269  31.319  35.811  1.00  0.00     0.031 C 
ATOM     66  C   UNL A   1      43.125  28.786  31.296  1.00  0.00     0.029 A 
ATOM     67  C   UNL A   1      42.245  28.334  32.262  1.00  0.00     0.049 A 
ATOM     68  H   UNL A   1      40.454  27.261  32.035  1.00  0.00     0.167 HD
ATOM     69  C   UNL A   1      42.156  29.523  34.338  1.00  0.00     0.074 A 
ATOM     70  C   UNL A   1      42.492  29.999  35.668  1.00  0.00     0.031 C 
ATOM     71  C   UNL A   1      42.269  28.310  33.716  1.00  0.00     0.031 A 
BRANCH  58  72
ATOM     72  C   UNL A   1      40.222  26.585  28.243  1.00  0.00    -0.014 A 
ATOM     73  C   UNL A   1      39.273  25.546  28.284  1.00  0.00     0.009 A 
ATOM     74  C   UNL A   1      41.089  26.595  27.140  1.00  0.00     0.009 A 
ATOM     75  C   UNL A   1      39.208  24.556  27.301  1.00  0.00     0.001 A 
ATOM     76  C   UNL A   1      41.040  25.596  26.157  1.00  0.00     0.001 A 
ATOM     77  C   UNL A   1      40.099  24.576  26.238  1.00  0.00     0.000 A 
ENDBRANCH  58  72
BRANCH  59  78
ATOM     78  C   UNL A   1      40.381  33.988  34.624  1.00  0.00    -0.014 A 
ATOM     79  C   UNL A   1      39.213  33.350  35.104  1.00  0.00     0.009 A 
ATOM     80  C   UNL A   1      40.708  35.248  35.144  1.00  0.00     0.009 A 
ATOM     81  C   UNL A   1      38.534  33.846  36.222  1.00  0.00     0.001 A 
ATOM     82  C   UNL A   1      39.996  35.758  36.242  1.00  0.00     0.001 A 
ATOM     83  C   UNL A   1      38.959  35.027  36.821  1.00  0.00     0.000 A 
ENDBRANCH  59  78
BRANCH  71  84
ATOM     84  C   UNL A   1      42.453  26.955  34.371  1.00  0.00    -0.014 A 
ATOM     85  C   UNL A   1      41.528  26.347  35.223  1.00  0.00     0.009 A 
ATOM     86  C   UNL A   1      43.567  26.158  33.995  1.00  0.00     0.009 A 
ATOM     87  C   UNL A   1      41.715  25.036  35.686  1.00  0.00     0.001 A 
ATOM     88  C   UNL A   1      43.722  24.832  34.394  1.00  0.00     0.001 A 
ATOM     89  C   UNL A   1      42.797  24.272  35.256  1.00  0.00     0.000 A 
ENDBRANCH  71  84
ENDBRANCH  45  46
ENDBRANCH  37  40
ENDBRANCH  35  36
ENDBRANCH  34  35
ENDBRANCH   1  34
TORSDOF 14
ENDMDL
MODEL 2
REMARK VINA RESULT:     -13.0      2.220      3.498
REMARK SMILES Cc1ccc(-c2c(C)sc(NC(=O)[C@H]3CC=CC[C@H]3C(=O)NCCCNC(=O)c3ccc(-c4c5nc(c(-c6ccccc6)c6ccc([nH]6)c(-c6ccccc6)c6nc(c(-c7ccccc7)c7ccc4[nH]7)C=C6)C=C5)cc3)c2C(N)=O)cc1
REMARK SMILES IDX 23 1 22 2 20 3 21 4 19 6 14 7 15 8 16 9 18 10 17 11 12 12
REMARK SMILES IDX 11 13 13 15 10 16 6 17 7 18 77 19 8 20 9 21 5 22 1 23 2 24
REMARK SMILES IDX 3 25 82 26 4 27 81 28 78 29 79 30 80 31 24 34 25 35 26 36
REMARK SMILES IDX 27 37 28 39 29 40 30 41 76 42 31 43 75 44 32 45 33 46 34 47
REMARK SMILES IDX 69 48 35 49 74 50 68 51 70 52 36 53 73 54 67 55 66 56 37 58
REMARK SMILES IDX 59 59 44 60 58 61 45 62 48 63 57 64 71 65 46 66 47 67 56 69
REMARK SMILES IDX 72 70 49 71 38 72 39 73 43 74 40 75 42 76 41 77 60 78 61 79
REMARK SMILES IDX 65 80 62 81 64 82 63 83 50 84 51 85 55 86 52 87 54 88 53 89
REMARK H PARENT 22 5 11 14 79 32 79 33 26 38 70 57 48 68
REMARK Flexibility Score: inf
ROOT
ATOM      1  C   UNL A   1      31.878  29.351  25.934  1.00  0.00     0.117 C 
ENDROOT
BRANCH   1   2
ATOM      2  N   UNL A   1      31.031  29.737  24.836  1.00  0.00    -0.356 N 
ATOM      3  C   UNL A   1      30.731  29.047  23.711  1.00  0.00     0.224 C 
ATOM      4  O   UNL A   1      30.281  29.704  22.766  1.00  0.00    -0.275 OA
ATOM      5  H   UNL A   1      30.612  30.624  24.914  1.00  0.00     0.163 HD
BRANCH   3   6
ATOM      6  C   UNL A   1      30.867  27.536  23.599  1.00  0.00     0.095 C 
ATOM      7  C   UNL A   1      32.174  26.892  23.091  1.00  0.00     0.095 C 
ATOM      8  C   UNL A   1      31.838  25.504  22.505  1.00  0.00     0.041 C 
ATOM      9  C   UNL A   1      30.723  24.775  23.227  1.00  0.00    -0.030 C 
ATOM     10  C   UNL A   1      30.152  26.732  24.678  1.00  0.00     0.041 C 
ATOM     11  C   UNL A   1      29.999  25.307  24.227  1.00  0.00    -0.030 C 
BRANCH   7  12
ATOM     12  C   UNL A   1      33.528  26.980  23.856  1.00  0.00     0.229 C 
ATOM     13  N   UNL A   1      34.045  26.174  24.832  1.00  0.00    -0.317 N 
ATOM     14  H   UNL A   1      34.648  26.640  25.454  1.00  0.00     0.170 HD
ATOM     15  O   UNL A   1      34.237  27.979  23.626  1.00  0.00    -0.274 OA
BRANCH  13  16
ATOM     16  C   UNL A   1      33.885  24.834  25.109  1.00  0.00     0.109 A 
ATOM     17  C   UNL A   1      33.783  22.508  25.212  1.00  0.00     0.010 A 
ATOM     18  C   UNL A   1      33.219  22.903  26.416  1.00  0.00     0.012 A 
ATOM     19  C   UNL A   1      34.188  23.665  24.400  1.00  0.00     0.082 A 
ATOM     20  C   UNL A   1      32.901  22.159  27.669  1.00  0.00     0.057 C 
ATOM     21  S   UNL A   1      32.669  24.493  26.243  1.00  0.00    -0.122 S 
BRANCH  17  22
ATOM     22  C   UNL A   1      33.799  21.085  24.880  1.00  0.00    -0.016 A 
ATOM     23  C   UNL A   1      33.589  16.916  23.818  1.00  0.00     0.044 C 
ATOM     24  C   UNL A   1      33.659  18.359  24.212  1.00  0.00    -0.051 A 
ATOM     25  C   UNL A   1      34.864  18.927  24.655  1.00  0.00     0.004 A 
ATOM     26  C   UNL A   1      32.526  19.166  24.101  1.00  0.00     0.004 A 
ATOM     27  C   UNL A   1      34.933  20.283  25.001  1.00  0.00     0.009 A 
ATOM     28  C   UNL A   1      32.603  20.517  24.413  1.00  0.00     0.009 A 
ENDBRANCH  17  22
BRANCH  19  29
ATOM     29  C   UNL A   1      34.810  23.528  23.070  1.00  0.00     0.252 C 
ATOM     30  N   UNL A   1      36.139  23.219  23.007  1.00  0.00    -0.365 N 
ATOM     31  O   UNL A   1      34.220  23.671  22.015  1.00  0.00    -0.269 OA
ATOM     32  H   UNL A   1      36.656  23.095  23.836  1.00  0.00     0.159 HD
ATOM     33  H   UNL A   1      36.580  23.119  22.133  1.00  0.00     0.159 HD
ENDBRANCH  19  29
ENDBRANCH  13  16
ENDBRANCH   7  12
ENDBRANCH   3   6
ENDBRANCH   1   2
BRANCH   1  34
ATOM     34  C   UNL A   1      32.939  30.410  26.126  1.00  0.00     0.042 C 
BRANCH  34  35
ATOM     35  C   UNL A   1      33.239  30.722  27.561  1.00  0.00     0.118 C 
BRANCH  35  36
ATOM     36  N   UNL A   1      34.318  31.677  27.736  1.00  0.00    -0.352 N 
ATOM     37  C   UNL A   1      35.612  31.470  28.176  1.00  0.00     0.251 C 
ATOM     38  H   UNL A   1      34.096  32.609  27.508  1.00  0.00     0.163 HD
ATOM     39  O   UNL A   1      36.335  32.448  28.354  1.00  0.00    -0.269 OA
BRANCH  37  40
ATOM     40  C   UNL A   1      36.193  30.094  28.219  1.00  0.00     0.039 A 
ATOM     41  C   UNL A   1      36.287  29.543  29.503  1.00  0.00     0.014 A 
ATOM     42  C   UNL A   1      37.100  29.704  27.251  1.00  0.00     0.014 A 
ATOM     43  C   UNL A   1      37.483  28.963  29.894  1.00  0.00     0.010 A 
ATOM     44  C   UNL A   1      38.360  29.407  27.679  1.00  0.00     0.010 A 
ATOM     45  C   UNL A   1      38.549  29.061  29.015  1.00  0.00    -0.014 A 
BRANCH  45  46
ATOM     46  C   UNL A   1      39.901  28.649  29.288  1.00  0.00     0.031 A 
ATOM     47  C   UNL A   1      40.268  27.325  28.763  1.00  0.00     0.074 A 
ATOM     48  C   UNL A   1      40.770  29.572  29.751  1.00  0.00     0.049 A 
ATOM     49  N   UNL A   1      41.327  26.695  29.102  1.00  0.00    -0.248 NA
ATOM     50  C   UNL A   1      39.433  26.567  27.822  1.00  0.00     0.031 C 
ATOM     51  C   UNL A   1      42.227  29.544  29.740  1.00  0.00     0.029 A 
ATOM     52  N   UNL A   1      40.462  30.678  30.545  1.00  0.00    -0.354 N 
ATOM     53  C   UNL A   1      41.480  25.652  28.219  1.00  0.00     0.074 A 
ATOM     54  C   UNL A   1      40.237  25.550  27.504  1.00  0.00     0.031 C 
ATOM     55  C   UNL A   1      42.686  30.368  30.701  1.00  0.00     0.029 A 
ATOM     56  C   UNL A   1      41.530  30.833  31.451  1.00  0.00     0.049 A 
ATOM     57  H   UNL A   1      39.655  31.240  30.483  1.00  0.00     0.167 HD
ATOM     58  C   UNL A   1      42.715  25.102  28.107  1.00  0.00     0.031 A 
ATOM     59  C   UNL A   1      41.323  30.596  32.784  1.00  0.00     0.031 A 
ATOM     60  C   UNL A   1      43.617  25.716  29.073  1.00  0.00     0.049 A 
ATOM     61  C   UNL A   1      42.092  29.384  33.268  1.00  0.00     0.074 A 
ATOM     62  C   UNL A   1      44.519  26.762  28.978  1.00  0.00     0.029 A 
ATOM     63  N   UNL A   1      43.339  25.546  30.419  1.00  0.00    -0.354 N 
ATOM     64  N   UNL A   1      42.471  28.400  32.494  1.00  0.00    -0.248 NA
ATOM     65  C   UNL A   1      42.554  29.214  34.643  1.00  0.00     0.031 C 
ATOM     66  C   UNL A   1      44.741  27.256  30.294  1.00  0.00     0.029 A 
ATOM     67  C   UNL A   1      43.993  26.495  31.174  1.00  0.00     0.049 A 
ATOM     68  H   UNL A   1      42.754  24.844  30.785  1.00  0.00     0.167 HD
ATOM     69  C   UNL A   1      43.260  27.530  33.204  1.00  0.00     0.074 A 
ATOM     70  C   UNL A   1      43.259  28.071  34.552  1.00  0.00     0.031 C 
ATOM     71  C   UNL A   1      43.873  26.454  32.623  1.00  0.00     0.031 A 
BRANCH  58  72
ATOM     72  C   UNL A   1      43.180  24.200  27.005  1.00  0.00    -0.014 A 
ATOM     73  C   UNL A   1      44.031  24.740  26.022  1.00  0.00     0.009 A 
ATOM     74  C   UNL A   1      42.829  22.850  26.854  1.00  0.00     0.009 A 
ATOM     75  C   UNL A   1      44.484  23.989  24.934  1.00  0.00     0.001 A 
ATOM     76  C   UNL A   1      43.266  22.095  25.756  1.00  0.00     0.001 A 
ATOM     77  C   UNL A   1      44.094  22.665  24.797  1.00  0.00     0.000 A 
ENDBRANCH  58  72
BRANCH  59  78
ATOM     78  C   UNL A   1      39.952  31.026  33.212  1.00  0.00    -0.014 A 
ATOM     79  C   UNL A   1      39.591  32.362  32.918  1.00  0.00     0.009 A 
ATOM     80  C   UNL A   1      38.927  30.083  33.371  1.00  0.00     0.009 A 
ATOM     81  C   UNL A   1      38.275  32.689  32.569  1.00  0.00     0.001 A 
ATOM     82  C   UNL A   1      37.603  30.429  33.056  1.00  0.00     0.001 A 
ATOM     83  C   UNL A   1      37.291  31.707  32.590  1.00  0.00     0.000 A 
ENDBRANCH  59  78
BRANCH  71  84
ATOM     84  C   UNL A   1      44.472  25.249  33.321  1.00  0.00    -0.014 A 
ATOM     85  C   UNL A   1      43.774  24.084  33.647  1.00  0.00     0.009 A 
ATOM     86  C   UNL A   1      45.875  25.212  33.541  1.00  0.00     0.009 A 
ATOM     87  C   UNL A   1      44.430  22.964  34.177  1.00  0.00     0.001 A 
ATOM     88  C   UNL A   1      46.543  24.079  34.000  1.00  0.00     0.001 A 
ATOM     89  C   UNL A   1      45.814  22.952  34.333  1.00  0.00     0.000 A 
ENDBRANCH  71  84
ENDBRANCH  45  46
ENDBRANCH  37  40
ENDBRANCH  35  36
ENDBRANCH  34  35
ENDBRANCH   1  34
TORSDOF 14
ENDMDL
MODEL 3
REMARK VINA RESULT:     -12.8      1.715      2.400
REMARK SMILES Cc1ccc(-c2c(C)sc(NC(=O)[C@H]3CC=CC[C@H]3C(=O)NCCCNC(=O)c3ccc(-c4c5nc(c(-c6ccccc6)c6ccc([nH]6)c(-c6ccccc6)c6nc(c(-c7ccccc7)c7ccc4[nH]7)C=C6)C=C5)cc3)c2C(N)=O)cc1
REMARK SMILES IDX 23 1 22 2 20 3 21 4 19 6 14 7 15 8 16 9 18 10 17 11 12 12
REMARK SMILES IDX 11 13 13 15 10 16 6 17 7 18 77 19 8 20 9 21 5 22 1 23 2 24
REMARK SMILES IDX 3 25 82 26 4 27 81 28 78 29 79 30 80 31 24 34 25 35 26 36
REMARK SMILES IDX 27 37 28 39 29 40 30 41 76 42 31 43 75 44 32 45 33 46 34 47
REMARK SMILES IDX 69 48 35 49 74 50 68 51 70 52 36 53 73 54 67 55 66 56 37 58
REMARK SMILES IDX 59 59 44 60 58 61 45 62 48 63 57 64 71 65 46 66 47 67 56 69
REMARK SMILES IDX 72 70 49 71 38 72 39 73 43 74 40 75 42 76 41 77 60 78 61 79
REMARK SMILES IDX 65 80 62 81 64 82 63 83 50 84 51 85 55 86 52 87 54 88 53 89
REMARK H PARENT 22 5 11 14 79 32 79 33 26 38 70 57 48 68
REMARK Flexibility Score: inf
ROOT
ATOM      1  C   UNL A   1      32.769  28.773  26.901  1.00  0.00     0.117 C 
ENDROOT
BRANCH   1   2
ATOM      2  N   UNL A   1      31.710  29.353  26.119  1.00  0.00    -0.356 N 
ATOM      3  C   UNL A   1      31.104  28.863  25.012  1.00  0.00     0.224 C 
ATOM      4  O   UNL A   1      30.483  29.676  24.319  1.00  0.00    -0.275 OA
ATOM      5  H   UNL A   1      31.380  30.226  26.431  1.00  0.00     0.163 HD
BRANCH   3   6
ATOM      6  C   UNL A   1      31.112  27.387  24.643  1.00  0.00     0.095 C 
ATOM      7  C   UNL A   1      32.185  26.812  23.695  1.00  0.00     0.095 C 
ATOM      8  C   UNL A   1      31.616  25.541  23.030  1.00  0.00     0.041 C 
ATOM      9  C   UNL A   1      30.703  24.724  23.921  1.00  0.00    -0.030 C 
ATOM     10  C   UNL A   1      30.677  26.433  25.749  1.00  0.00     0.041 C 
ATOM     11  C   UNL A   1      30.319  25.101  25.153  1.00  0.00    -0.030 C 
BRANCH   7  12
ATOM     12  C   UNL A   1      33.700  26.754  24.049  1.00  0.00     0.229 C 
ATOM     13  N   UNL A   1      34.396  25.860  24.815  1.00  0.00    -0.317 N 
ATOM     14  H   UNL A   1      35.188  26.245  25.255  1.00  0.00     0.170 HD
ATOM     15  O   UNL A   1      34.403  27.706  23.657  1.00  0.00    -0.274 OA
BRANCH  13  16
ATOM     16  C   UNL A   1      34.201  24.524  25.086  1.00  0.00     0.109 A 
ATOM     17  C   UNL A   1      33.950  22.208  25.151  1.00  0.00     0.010 A 
ATOM     18  C   UNL A   1      33.701  22.589  26.461  1.00  0.00     0.012 A 
ATOM     19  C   UNL A   1      34.248  23.368  24.298  1.00  0.00     0.082 A 
ATOM     20  C   UNL A   1      33.617  21.817  27.734  1.00  0.00     0.057 C 
ATOM     21  S   UNL A   1      33.249  24.219  26.458  1.00  0.00    -0.122 S 
BRANCH  17  22
ATOM     22  C   UNL A   1      33.783  20.803  24.787  1.00  0.00    -0.016 A 
ATOM     23  C   UNL A   1      33.545  16.616  23.804  1.00  0.00     0.044 C 
ATOM     24  C   UNL A   1      33.632  18.077  24.121  1.00  0.00    -0.051 A 
ATOM     25  C   UNL A   1      32.518  18.916  23.961  1.00  0.00     0.004 A 
ATOM     26  C   UNL A   1      34.821  18.610  24.620  1.00  0.00     0.004 A 
ATOM     27  C   UNL A   1      32.595  20.278  24.281  1.00  0.00     0.009 A 
ATOM     28  C   UNL A   1      34.887  19.954  24.967  1.00  0.00     0.009 A 
ENDBRANCH  17  22
BRANCH  19  29
ATOM     29  C   UNL A   1      34.544  23.245  22.859  1.00  0.00     0.252 C 
ATOM     30  N   UNL A   1      33.497  23.099  21.993  1.00  0.00    -0.365 N 
ATOM     31  O   UNL A   1      35.664  23.268  22.381  1.00  0.00    -0.269 OA
ATOM     32  H   UNL A   1      32.575  23.076  22.336  1.00  0.00     0.159 HD
ATOM     33  H   UNL A   1      33.665  23.019  21.027  1.00  0.00     0.159 HD
ENDBRANCH  19  29
ENDBRANCH  13  16
ENDBRANCH   7  12
ENDBRANCH   3   6
ENDBRANCH   1   2
BRANCH   1  34
ATOM     34  C   UNL A   1      34.026  29.589  26.699  1.00  0.00     0.042 C 
BRANCH  34  35
ATOM     35  C   UNL A   1      34.160  30.748  27.640  1.00  0.00     0.118 C 
BRANCH  35  36
ATOM     36  N   UNL A   1      33.263  31.849  27.340  1.00  0.00    -0.352 N 
ATOM     37  C   UNL A   1      33.101  33.055  27.997  1.00  0.00     0.251 C 
ATOM     38  H   UNL A   1      32.685  31.718  26.553  1.00  0.00     0.163 HD
ATOM     39  O   UNL A   1      32.198  33.805  27.632  1.00  0.00    -0.269 OA
BRANCH  37  40
ATOM     40  C   UNL A   1      34.128  33.539  28.969  1.00  0.00     0.039 A 
ATOM     41  C   UNL A   1      35.148  34.310  28.400  1.00  0.00     0.014 A 
ATOM     42  C   UNL A   1      34.397  32.798  30.105  1.00  0.00     0.014 A 
ATOM     43  C   UNL A   1      36.464  34.011  28.713  1.00  0.00     0.010 A 
ATOM     44  C   UNL A   1      35.658  32.291  30.218  1.00  0.00     0.010 A 
ATOM     45  C   UNL A   1      36.687  32.889  29.495  1.00  0.00    -0.014 A 
BRANCH  45  46
ATOM     46  C   UNL A   1      37.975  32.333  29.815  1.00  0.00     0.031 A 
ATOM     47  C   UNL A   1      38.257  31.021  29.212  1.00  0.00     0.074 A 
ATOM     48  C   UNL A   1      38.892  33.135  30.399  1.00  0.00     0.049 A 
ATOM     49  N   UNL A   1      39.230  30.272  29.564  1.00  0.00    -0.248 NA
ATOM     50  C   UNL A   1      37.422  30.415  28.167  1.00  0.00     0.031 C 
ATOM     51  C   UNL A   1      40.337  32.970  30.472  1.00  0.00     0.029 A 
ATOM     52  N   UNL A   1      38.631  34.205  31.257  1.00  0.00    -0.354 N 
ATOM     53  C   UNL A   1      39.347  29.285  28.613  1.00  0.00     0.074 A 
ATOM     54  C   UNL A   1      38.150  29.351  27.820  1.00  0.00     0.031 C 
ATOM     55  C   UNL A   1      40.803  33.677  31.520  1.00  0.00     0.029 A 
ATOM     56  C   UNL A   1      39.646  34.193  32.234  1.00  0.00     0.049 A 
ATOM     57  H   UNL A   1      37.884  34.843  31.191  1.00  0.00     0.167 HD
ATOM     58  C   UNL A   1      40.533  28.631  28.533  1.00  0.00     0.031 A 
ATOM     59  C   UNL A   1      39.331  33.882  33.530  1.00  0.00     0.031 A 
ATOM     60  C   UNL A   1      41.420  29.086  29.595  1.00  0.00     0.049 A 
ATOM     61  C   UNL A   1      39.955  32.571  33.964  1.00  0.00     0.074 A 
ATOM     62  C   UNL A   1      42.417  30.046  29.635  1.00  0.00     0.029 A 
ATOM     63  N   UNL A   1      41.039  28.847  30.905  1.00  0.00    -0.354 N 
ATOM     64  N   UNL A   1      40.294  31.614  33.140  1.00  0.00    -0.248 NA
ATOM     65  C   UNL A   1      40.308  32.261  35.346  1.00  0.00     0.031 C 
ATOM     66  C   UNL A   1      42.594  30.422  30.996  1.00  0.00     0.029 A 
ATOM     67  C   UNL A   1      41.724  29.673  31.768  1.00  0.00     0.049 A 
ATOM     68  H   UNL A   1      40.371  28.179  31.180  1.00  0.00     0.167 HD
ATOM     69  C   UNL A   1      40.954  30.624  33.825  1.00  0.00     0.074 A 
ATOM     70  C   UNL A   1      40.912  31.065  35.208  1.00  0.00     0.031 C 
ATOM     71  C   UNL A   1      41.506  29.540  33.200  1.00  0.00     0.031 A 
BRANCH  58  72
ATOM     72  C   UNL A   1      40.987  27.770  27.393  1.00  0.00    -0.014 A 
ATOM     73  C   UNL A   1      40.480  26.459  27.310  1.00  0.00     0.009 A 
ATOM     74  C   UNL A   1      41.895  28.153  26.394  1.00  0.00     0.009 A 
ATOM     75  C   UNL A   1      40.875  25.569  26.308  1.00  0.00     0.001 A 
ATOM     76  C   UNL A   1      42.308  27.260  25.395  1.00  0.00     0.001 A 
ATOM     77  C   UNL A   1      41.797  25.968  25.352  1.00  0.00     0.000 A 
ENDBRANCH  58  72
BRANCH  59  78
ATOM     78  C   UNL A   1      37.979  34.407  33.908  1.00  0.00    -0.014 A 
ATOM     79  C   UNL A   1      37.168  34.878  32.848  1.00  0.00     0.009 A 
ATOM     80  C   UNL A   1      37.347  33.970  35.081  1.00  0.00     0.009 A 
ATOM     81  C   UNL A   1      35.780  34.700  32.876  1.00  0.00     0.001 A 
ATOM     82  C   UNL A   1      35.950  33.832  35.114  1.00  0.00     0.001 A 
ATOM     83  C   UNL A   1      35.178  34.130  33.991  1.00  0.00     0.000 A 
ENDBRANCH  59  78
BRANCH  71  84
ATOM     84  C   UNL A   1      41.947  28.237  33.838  1.00  0.00    -0.014 A 
ATOM     85  C   UNL A   1      41.158  27.453  34.682  1.00  0.00     0.009 A 
ATOM     86  C   UNL A   1      43.192  27.673  33.451  1.00  0.00     0.009 A 
ATOM     87  C   UNL A   1      41.594  26.196  35.127  1.00  0.00     0.001 A 
ATOM     88  C   UNL A   1      43.599  26.396  33.833  1.00  0.00     0.001 A 
ATOM     89  C   UNL A   1      42.801  25.659  34.687  1.00  0.00     0.000 A 
ENDBRANCH  71  84
ENDBRANCH  45  46
ENDBRANCH  37  40
ENDBRANCH  35  36
ENDBRANCH  34  35
ENDBRANCH   1  34
TORSDOF 14
ENDMDL
