MODEL 1
REMARK VINA RESULT:     -11.7      0.000      0.000
REMARK SMILES Cc1ccc(NC(=O)C[N@H+]2CCC[C@@H](C(=O)NCCCNC(=O)c3ccc(-c4c5nc(c(-c6ccccc6)c6ccc([nH]6)c(-c6ccccc6)c6nc(c(-c7ccccc7)c7ccc4[nH]7)C=C6)C=C5)cc3)C2)cc1Cl
REMARK SMILES IDX 18 1 17 2 15 3 16 4 14 6 10 7 11 8 72 9 12 11 13 12 9 13
REMARK SMILES IDX 7 14 6 15 8 17 5 18 1 19 2 20 3 21 74 22 4 23 73 24 75 25
REMARK SMILES IDX 19 26 20 27 21 28 22 29 23 31 24 32 25 33 71 34 26 35 70 36
REMARK SMILES IDX 27 37 28 38 29 39 64 40 30 41 69 42 63 43 65 44 31 45 68 46
REMARK SMILES IDX 62 47 61 48 32 50 54 51 39 52 53 53 40 54 43 55 52 56 66 57
REMARK SMILES IDX 41 58 42 59 51 61 67 62 44 63 33 64 34 65 38 66 35 67 37 68
REMARK SMILES IDX 36 69 55 70 56 71 60 72 57 73 59 74 58 75 45 76 46 77 50 78
REMARK SMILES IDX 47 79 49 80 48 81
REMARK H PARENT 17 5 10 10 6 16 21 30 65 49 43 60
REMARK Flexibility Score: inf
ROOT
ATOM      1  C   UNL A   1      38.065  21.806  25.470  1.00  0.00     0.117 C 
ENDROOT
BRANCH   1   2
ATOM      2  N   UNL A   1      37.368  22.536  24.426  1.00  0.00    -0.356 N 
ATOM      3  C   UNL A   1      36.062  22.482  24.043  1.00  0.00     0.228 C 
ATOM      4  O   UNL A   1      35.765  23.004  22.967  1.00  0.00    -0.275 OA
ATOM      5  H   UNL A   1      37.926  23.166  23.916  1.00  0.00     0.163 HD
BRANCH   3   6
ATOM      6  C   UNL A   1      35.013  21.933  25.003  1.00  0.00     0.133 C 
ATOM      7  N   UNL A   1      32.556  22.397  25.450  1.00  0.00    -0.326 N 
ATOM      8  C   UNL A   1      32.220  21.011  25.108  1.00  0.00     0.262 C 
ATOM      9  C   UNL A   1      33.791  22.835  24.800  1.00  0.00     0.276 C 
ATOM     10  H   UNL A   1      32.726  22.419  26.455  1.00  0.00     0.348 HD
ATOM     11  C   UNL A   1      33.388  20.076  25.440  1.00  0.00     0.062 C 
ATOM     12  C   UNL A   1      34.653  20.481  24.688  1.00  0.00     0.025 C 
BRANCH   7  13
ATOM     13  C   UNL A   1      31.424  23.335  25.201  1.00  0.00     0.363 C 
BRANCH  13  14
ATOM     14  C   UNL A   1      30.740  23.908  26.456  1.00  0.00     0.279 C 
ATOM     15  N   UNL A   1      30.272  25.194  26.551  1.00  0.00    -0.321 N 
ATOM     16  H   UNL A   1      29.838  25.394  27.413  1.00  0.00     0.170 HD
ATOM     17  O   UNL A   1      30.518  23.168  27.425  1.00  0.00    -0.268 OA
BRANCH  15  18
ATOM     18  C   UNL A   1      30.287  26.281  25.661  1.00  0.00     0.042 A 
ATOM     19  C   UNL A   1      30.544  29.037  22.337  1.00  0.00     0.046 C 
ATOM     20  C   UNL A   1      30.416  28.159  23.550  1.00  0.00    -0.032 A 
ATOM     21  C   UNL A   1      29.419  27.174  23.574  1.00  0.00     0.007 A 
ATOM     22  C   UNL A   1      31.304  28.226  24.632  1.00  0.00     0.046 A 
ATOM     23  C   UNL A   1      29.342  26.260  24.630  1.00  0.00     0.026 A 
ATOM     24  C   UNL A   1      31.217  27.315  25.695  1.00  0.00     0.047 A 
ATOM     25  Cl  UNL A   1      32.591  29.380  24.676  1.00  0.00    -0.084 Cl
ENDBRANCH  15  18
ENDBRANCH  13  14
ENDBRANCH   7  13
ENDBRANCH   3   6
ENDBRANCH   1   2
BRANCH   1  26
ATOM     26  C   UNL A   1      38.521  20.443  24.957  1.00  0.00     0.042 C 
BRANCH  26  27
ATOM     27  C   UNL A   1      39.014  19.502  26.057  1.00  0.00     0.118 C 
BRANCH  27  28
ATOM     28  N   UNL A   1      40.350  18.974  25.804  1.00  0.00    -0.352 N 
ATOM     29  C   UNL A   1      41.576  19.581  25.934  1.00  0.00     0.251 C 
ATOM     30  H   UNL A   1      40.377  18.041  25.491  1.00  0.00     0.163 HD
ATOM     31  O   UNL A   1      42.589  19.010  25.542  1.00  0.00    -0.269 OA
BRANCH  29  32
ATOM     32  C   UNL A   1      41.673  20.939  26.510  1.00  0.00     0.039 A 
ATOM     33  C   UNL A   1      41.582  21.090  27.896  1.00  0.00     0.014 A 
ATOM     34  C   UNL A   1      41.878  22.054  25.693  1.00  0.00     0.014 A 
ATOM     35  C   UNL A   1      41.796  22.345  28.471  1.00  0.00     0.010 A 
ATOM     36  C   UNL A   1      42.164  23.287  26.271  1.00  0.00     0.010 A 
ATOM     37  C   UNL A   1      42.144  23.442  27.666  1.00  0.00    -0.014 A 
BRANCH  37  38
ATOM     38  C   UNL A   1      42.536  24.746  28.261  1.00  0.00     0.031 A 
ATOM     39  C   UNL A   1      41.515  25.829  28.462  1.00  0.00     0.074 A 
ATOM     40  C   UNL A   1      43.834  24.987  28.533  1.00  0.00     0.049 A 
ATOM     41  N   UNL A   1      41.689  27.064  28.863  1.00  0.00    -0.248 NA
ATOM     42  C   UNL A   1      40.117  25.488  28.149  1.00  0.00     0.031 C 
ATOM     43  C   UNL A   1      44.933  24.035  28.351  1.00  0.00     0.029 A 
ATOM     44  N   UNL A   1      44.452  26.118  29.008  1.00  0.00    -0.354 N 
ATOM     45  C   UNL A   1      40.431  27.650  28.832  1.00  0.00     0.074 A 
ATOM     46  C   UNL A   1      39.510  26.651  28.334  1.00  0.00     0.031 C 
ATOM     47  C   UNL A   1      46.084  24.614  28.728  1.00  0.00     0.029 A 
ATOM     48  C   UNL A   1      45.816  25.989  29.131  1.00  0.00     0.049 A 
ATOM     49  H   UNL A   1      43.966  26.942  29.238  1.00  0.00     0.167 HD
ATOM     50  C   UNL A   1      40.071  28.904  29.198  1.00  0.00     0.031 A 
ATOM     51  C   UNL A   1      46.749  26.882  29.510  1.00  0.00     0.031 A 
ATOM     52  C   UNL A   1      40.984  29.896  29.700  1.00  0.00     0.049 A 
ATOM     53  C   UNL A   1      46.328  28.276  29.880  1.00  0.00     0.074 A 
ATOM     54  C   UNL A   1      40.702  31.174  30.153  1.00  0.00     0.029 A 
ATOM     55  N   UNL A   1      42.354  29.726  29.810  1.00  0.00    -0.354 N 
ATOM     56  N   UNL A   1      45.125  28.796  29.907  1.00  0.00    -0.248 NA
ATOM     57  C   UNL A   1      47.395  29.206  30.276  1.00  0.00     0.031 C 
ATOM     58  C   UNL A   1      41.910  31.794  30.488  1.00  0.00     0.029 A 
ATOM     59  C   UNL A   1      42.937  30.884  30.295  1.00  0.00     0.049 A 
ATOM     60  H   UNL A   1      42.842  28.902  29.578  1.00  0.00     0.167 HD
ATOM     61  C   UNL A   1      45.287  30.103  30.344  1.00  0.00     0.074 A 
ATOM     62  C   UNL A   1      46.703  30.294  30.585  1.00  0.00     0.031 C 
ATOM     63  C   UNL A   1      44.346  31.062  30.527  1.00  0.00     0.031 A 
BRANCH  50  64
ATOM     64  C   UNL A   1      38.621  29.277  29.057  1.00  0.00    -0.014 A 
ATOM     65  C   UNL A   1      37.727  29.139  30.130  1.00  0.00     0.009 A 
ATOM     66  C   UNL A   1      38.152  29.808  27.846  1.00  0.00     0.009 A 
ATOM     67  C   UNL A   1      36.384  29.491  29.982  1.00  0.00     0.001 A 
ATOM     68  C   UNL A   1      36.814  30.186  27.709  1.00  0.00     0.001 A 
ATOM     69  C   UNL A   1      35.931  30.019  28.774  1.00  0.00     0.000 A 
ENDBRANCH  50  64
BRANCH  51  70
ATOM     70  C   UNL A   1      48.181  26.488  29.557  1.00  0.00    -0.014 A 
ATOM     71  C   UNL A   1      48.999  26.646  28.429  1.00  0.00     0.009 A 
ATOM     72  C   UNL A   1      48.736  25.943  30.727  1.00  0.00     0.009 A 
ATOM     73  C   UNL A   1      50.336  26.247  28.462  1.00  0.00     0.001 A 
ATOM     74  C   UNL A   1      50.081  25.570  30.766  1.00  0.00     0.001 A 
ATOM     75  C   UNL A   1      50.877  25.713  29.630  1.00  0.00     0.000 A 
ENDBRANCH  51  70
BRANCH  63  76
ATOM     76  C   UNL A   1      44.813  32.395  31.038  1.00  0.00    -0.014 A 
ATOM     77  C   UNL A   1      44.917  32.650  32.414  1.00  0.00     0.009 A 
ATOM     78  C   UNL A   1      45.198  33.393  30.128  1.00  0.00     0.009 A 
ATOM     79  C   UNL A   1      45.373  33.889  32.869  1.00  0.00     0.001 A 
ATOM     80  C   UNL A   1      45.679  34.620  30.586  1.00  0.00     0.001 A 
ATOM     81  C   UNL A   1      45.759  34.870  31.955  1.00  0.00     0.000 A 
ENDBRANCH  63  76
ENDBRANCH  37  38
ENDBRANCH  29  32
ENDBRANCH  27  28
ENDBRANCH  26  27
ENDBRANCH   1  26
TORSDOF 13
ENDMDL
MODEL 2
REMARK VINA RESULT:     -11.5      1.785      2.492
REMARK SMILES Cc1ccc(NC(=O)C[N@H+]2CCC[C@@H](C(=O)NCCCNC(=O)c3ccc(-c4c5nc(c(-c6ccccc6)c6ccc([nH]6)c(-c6ccccc6)c6nc(c(-c7ccccc7)c7ccc4[nH]7)C=C6)C=C5)cc3)C2)cc1Cl
REMARK SMILES IDX 18 1 17 2 15 3 16 4 14 6 10 7 11 8 72 9 12 11 13 12 9 13
REMARK SMILES IDX 7 14 6 15 8 17 5 18 1 19 2 20 3 21 74 22 4 23 73 24 75 25
REMARK SMILES IDX 19 26 20 27 21 28 22 29 23 31 24 32 25 33 71 34 26 35 70 36
REMARK SMILES IDX 27 37 28 38 29 39 64 40 30 41 69 42 63 43 65 44 31 45 68 46
REMARK SMILES IDX 62 47 61 48 32 50 54 51 39 52 53 53 40 54 43 55 52 56 66 57
REMARK SMILES IDX 41 58 42 59 51 61 67 62 44 63 33 64 34 65 38 66 35 67 37 68
REMARK SMILES IDX 36 69 55 70 56 71 60 72 57 73 59 74 58 75 45 76 46 77 50 78
REMARK SMILES IDX 47 79 49 80 48 81
REMARK H PARENT 17 5 10 10 6 16 21 30 65 49 43 60
REMARK Flexibility Score: inf
ROOT
ATOM      1  C   UNL A   1      36.544  21.295  25.396  1.00  0.00     0.117 C 
ENDROOT
BRANCH   1   2
ATOM      2  N   UNL A   1      35.269  20.647  25.147  1.00  0.00    -0.356 N 
ATOM      3  C   UNL A   1      34.001  21.119  25.311  1.00  0.00     0.228 C 
ATOM      4  O   UNL A   1      33.083  20.297  25.278  1.00  0.00    -0.275 OA
ATOM      5  H   UNL A   1      35.330  19.725  24.808  1.00  0.00     0.163 HD
BRANCH   3   6
ATOM      6  C   UNL A   1      33.752  22.621  25.370  1.00  0.00     0.133 C 
ATOM      7  N   UNL A   1      32.569  24.315  23.893  1.00  0.00    -0.326 N 
ATOM      8  C   UNL A   1      31.648  24.641  24.987  1.00  0.00     0.262 C 
ATOM      9  C   UNL A   1      33.110  22.962  24.022  1.00  0.00     0.276 C 
ATOM     10  H   UNL A   1      33.357  24.958  23.972  1.00  0.00     0.348 HD
ATOM     11  C   UNL A   1      32.329  24.439  26.345  1.00  0.00     0.062 C 
ATOM     12  C   UNL A   1      32.810  23.000  26.513  1.00  0.00     0.025 C 
BRANCH   7  13
ATOM     13  C   UNL A   1      31.968  24.557  22.551  1.00  0.00     0.363 C 
BRANCH  13  14
ATOM     14  C   UNL A   1      32.719  25.556  21.651  1.00  0.00     0.279 C 
ATOM     15  N   UNL A   1      32.977  26.858  22.003  1.00  0.00    -0.321 N 
ATOM     16  H   UNL A   1      33.490  27.356  21.326  1.00  0.00     0.170 HD
ATOM     17  O   UNL A   1      33.197  25.173  20.574  1.00  0.00    -0.268 OA
BRANCH  15  18
ATOM     18  C   UNL A   1      32.654  27.617  23.140  1.00  0.00     0.042 A 
ATOM     19  C   UNL A   1      31.709  30.621  26.105  1.00  0.00     0.046 C 
ATOM     20  C   UNL A   1      32.014  29.505  25.147  1.00  0.00    -0.032 A 
ATOM     21  C   UNL A   1      31.130  29.256  24.089  1.00  0.00     0.007 A 
ATOM     22  C   UNL A   1      33.190  28.746  25.218  1.00  0.00     0.046 A 
ATOM     23  C   UNL A   1      31.437  28.307  23.109  1.00  0.00     0.026 A 
ATOM     24  C   UNL A   1      33.490  27.786  24.240  1.00  0.00     0.047 A 
ATOM     25  Cl  UNL A   1      34.361  29.004  26.463  1.00  0.00    -0.084 Cl
ENDBRANCH  15  18
ENDBRANCH  13  14
ENDBRANCH   7  13
ENDBRANCH   3   6
ENDBRANCH   1   2
BRANCH   1  26
ATOM     26  C   UNL A   1      37.698  20.360  25.045  1.00  0.00     0.042 C 
BRANCH  26  27
ATOM     27  C   UNL A   1      38.980  20.638  25.830  1.00  0.00     0.118 C 
BRANCH  27  28
ATOM     28  N   UNL A   1      39.899  19.507  25.847  1.00  0.00    -0.352 N 
ATOM     29  C   UNL A   1      41.250  19.472  26.099  1.00  0.00     0.251 C 
ATOM     30  H   UNL A   1      39.489  18.634  25.647  1.00  0.00     0.163 HD
ATOM     31  O   UNL A   1      41.879  18.431  25.934  1.00  0.00    -0.269 OA
BRANCH  29  32
ATOM     32  C   UNL A   1      41.954  20.698  26.530  1.00  0.00     0.039 A 
ATOM     33  C   UNL A   1      42.426  21.582  25.555  1.00  0.00     0.014 A 
ATOM     34  C   UNL A   1      42.128  20.989  27.885  1.00  0.00     0.014 A 
ATOM     35  C   UNL A   1      42.982  22.804  25.940  1.00  0.00     0.010 A 
ATOM     36  C   UNL A   1      42.613  22.237  28.265  1.00  0.00     0.010 A 
ATOM     37  C   UNL A   1      43.028  23.164  27.297  1.00  0.00    -0.014 A 
BRANCH  37  38
ATOM     38  C   UNL A   1      43.462  24.519  27.724  1.00  0.00     0.031 A 
ATOM     39  C   UNL A   1      42.447  25.570  28.074  1.00  0.00     0.074 A 
ATOM     40  C   UNL A   1      44.773  24.832  27.706  1.00  0.00     0.049 A 
ATOM     41  N   UNL A   1      42.632  26.834  28.361  1.00  0.00    -0.248 NA
ATOM     42  C   UNL A   1      41.036  25.151  28.078  1.00  0.00     0.031 C 
ATOM     43  C   UNL A   1      45.862  23.917  27.352  1.00  0.00     0.029 A 
ATOM     44  N   UNL A   1      45.414  26.016  27.979  1.00  0.00    -0.354 N 
ATOM     45  C   UNL A   1      41.364  27.364  28.561  1.00  0.00     0.074 A 
ATOM     46  C   UNL A   1      40.417  26.297  28.321  1.00  0.00     0.031 C 
ATOM     47  C   UNL A   1      47.033  24.567  27.449  1.00  0.00     0.029 A 
ATOM     48  C   UNL A   1      46.778  25.953  27.823  1.00  0.00     0.049 A 
ATOM     49  H   UNL A   1      44.941  26.832  28.260  1.00  0.00     0.167 HD
ATOM     50  C   UNL A   1      41.020  28.623  28.924  1.00  0.00     0.031 A 
ATOM     51  C   UNL A   1      47.719  26.908  27.949  1.00  0.00     0.031 A 
ATOM     52  C   UNL A   1      41.961  29.683  29.170  1.00  0.00     0.049 A 
ATOM     53  C   UNL A   1      47.308  28.303  28.321  1.00  0.00     0.074 A 
ATOM     54  C   UNL A   1      41.709  30.975  29.600  1.00  0.00     0.029 A 
ATOM     55  N   UNL A   1      43.332  29.577  29.001  1.00  0.00    -0.354 N 
ATOM     56  N   UNL A   1      46.110  28.773  28.570  1.00  0.00    -0.248 NA
ATOM     57  C   UNL A   1      48.382  29.301  28.435  1.00  0.00     0.031 C 
ATOM     58  C   UNL A   1      42.924  31.666  29.641  1.00  0.00     0.029 A 
ATOM     59  C   UNL A   1      43.937  30.789  29.289  1.00  0.00     0.049 A 
ATOM     60  H   UNL A   1      43.805  28.762  28.718  1.00  0.00     0.167 HD
ATOM     61  C   UNL A   1      46.287  30.112  28.890  1.00  0.00     0.074 A 
ATOM     62  C   UNL A   1      47.709  30.377  28.821  1.00  0.00     0.031 C 
ATOM     63  C   UNL A   1      45.353  31.039  29.212  1.00  0.00     0.031 A 
BRANCH  50  64
ATOM     64  C   UNL A   1      39.554  28.925  29.068  1.00  0.00    -0.014 A 
ATOM     65  C   UNL A   1      38.795  29.383  27.979  1.00  0.00     0.009 A 
ATOM     66  C   UNL A   1      38.915  28.713  30.300  1.00  0.00     0.009 A 
ATOM     67  C   UNL A   1      37.434  29.658  28.130  1.00  0.00     0.001 A 
ATOM     68  C   UNL A   1      37.548  28.961  30.440  1.00  0.00     0.001 A 
ATOM     69  C   UNL A   1      36.812  29.441  29.358  1.00  0.00     0.000 A 
ENDBRANCH  50  64
BRANCH  51  70
ATOM     70  C   UNL A   1      49.150  26.577  27.719  1.00  0.00    -0.014 A 
ATOM     71  C   UNL A   1      49.684  26.600  26.422  1.00  0.00     0.009 A 
ATOM     72  C   UNL A   1      49.987  26.229  28.792  1.00  0.00     0.009 A 
ATOM     73  C   UNL A   1      51.020  26.259  26.200  1.00  0.00     0.001 A 
ATOM     74  C   UNL A   1      51.329  25.916  28.571  1.00  0.00     0.001 A 
ATOM     75  C   UNL A   1      51.842  25.921  27.274  1.00  0.00     0.000 A 
ENDBRANCH  51  70
BRANCH  63  76
ATOM     76  C   UNL A   1      45.841  32.422  29.542  1.00  0.00    -0.014 A 
ATOM     77  C   UNL A   1      46.292  32.746  30.830  1.00  0.00     0.009 A 
ATOM     78  C   UNL A   1      45.893  33.399  28.534  1.00  0.00     0.009 A 
ATOM     79  C   UNL A   1      46.762  34.031  31.109  1.00  0.00     0.001 A 
ATOM     80  C   UNL A   1      46.389  34.674  28.810  1.00  0.00     0.001 A 
ATOM     81  C   UNL A   1      46.815  34.991  30.099  1.00  0.00     0.000 A 
ENDBRANCH  63  76
ENDBRANCH  37  38
ENDBRANCH  29  32
ENDBRANCH  27  28
ENDBRANCH  26  27
ENDBRANCH   1  26
TORSDOF 13
ENDMDL
MODEL 3
REMARK VINA RESULT:     -11.4      3.365      7.192
REMARK SMILES Cc1ccc(NC(=O)C[N@H+]2CCC[C@@H](C(=O)NCCCNC(=O)c3ccc(-c4c5nc(c(-c6ccccc6)c6ccc([nH]6)c(-c6ccccc6)c6nc(c(-c7ccccc7)c7ccc4[nH]7)C=C6)C=C5)cc3)C2)cc1Cl
REMARK SMILES IDX 18 1 17 2 15 3 16 4 14 6 10 7 11 8 72 9 12 11 13 12 9 13
REMARK SMILES IDX 7 14 6 15 8 17 5 18 1 19 2 20 3 21 74 22 4 23 73 24 75 25
REMARK SMILES IDX 19 26 20 27 21 28 22 29 23 31 24 32 25 33 71 34 26 35 70 36
REMARK SMILES IDX 27 37 28 38 29 39 64 40 30 41 69 42 63 43 65 44 31 45 68 46
REMARK SMILES IDX 62 47 61 48 32 50 54 51 39 52 53 53 40 54 43 55 52 56 66 57
REMARK SMILES IDX 41 58 42 59 51 61 67 62 44 63 33 64 34 65 38 66 35 67 37 68
REMARK SMILES IDX 36 69 55 70 56 71 60 72 57 73 59 74 58 75 45 76 46 77 50 78
REMARK SMILES IDX 47 79 49 80 48 81
REMARK H PARENT 17 5 10 10 6 16 21 30 65 49 43 60
REMARK Flexibility Score: inf
ROOT
ATOM      1  C   UNL A   1      37.785  22.387  25.681  1.00  0.00     0.117 C 
ENDROOT
BRANCH   1   2
ATOM      2  N   UNL A   1      37.586  22.713  24.281  1.00  0.00    -0.356 N 
ATOM      3  C   UNL A   1      36.434  22.946  23.592  1.00  0.00     0.228 C 
ATOM      4  O   UNL A   1      36.501  22.949  22.361  1.00  0.00    -0.275 OA
ATOM      5  H   UNL A   1      38.410  22.776  23.746  1.00  0.00     0.163 HD
BRANCH   3   6
ATOM      6  C   UNL A   1      35.168  23.340  24.342  1.00  0.00     0.133 C 
ATOM      7  N   UNL A   1      32.882  24.232  23.685  1.00  0.00    -0.326 N 
ATOM      8  C   UNL A   1      32.241  23.049  24.269  1.00  0.00     0.262 C 
ATOM      9  C   UNL A   1      34.259  23.958  23.275  1.00  0.00     0.276 C 
ATOM     10  H   UNL A   1      32.926  24.935  24.422  1.00  0.00     0.348 HD
ATOM     11  C   UNL A   1      33.073  22.504  25.434  1.00  0.00     0.062 C 
ATOM     12  C   UNL A   1      34.483  22.132  24.981  1.00  0.00     0.025 C 
BRANCH   7  13
ATOM     13  C   UNL A   1      32.074  24.833  22.586  1.00  0.00     0.363 C 
BRANCH  13  14
ATOM     14  C   UNL A   1      32.791  25.895  21.732  1.00  0.00     0.279 C 
ATOM     15  N   UNL A   1      33.039  27.177  22.155  1.00  0.00    -0.321 N 
ATOM     16  H   UNL A   1      33.530  27.722  21.498  1.00  0.00     0.170 HD
ATOM     17  O   UNL A   1      33.250  25.584  20.624  1.00  0.00    -0.268 OA
BRANCH  15  18
ATOM     18  C   UNL A   1      32.732  27.862  23.342  1.00  0.00     0.042 A 
ATOM     19  C   UNL A   1      31.854  30.674  26.510  1.00  0.00     0.046 C 
ATOM     20  C   UNL A   1      32.133  29.620  25.477  1.00  0.00    -0.032 A 
ATOM     21  C   UNL A   1      31.249  29.473  24.399  1.00  0.00     0.007 A 
ATOM     22  C   UNL A   1      33.287  28.824  25.497  1.00  0.00     0.046 A 
ATOM     23  C   UNL A   1      31.535  28.587  23.355  1.00  0.00     0.026 A 
ATOM     24  C   UNL A   1      33.565  27.928  24.454  1.00  0.00     0.047 A 
ATOM     25  Cl  UNL A   1      34.458  28.959  26.762  1.00  0.00    -0.084 Cl
ENDBRANCH  15  18
ENDBRANCH  13  14
ENDBRANCH   7  13
ENDBRANCH   3   6
ENDBRANCH   1   2
BRANCH   1  26
ATOM     26  C   UNL A   1      38.986  21.461  25.850  1.00  0.00     0.042 C 
BRANCH  26  27
ATOM     27  C   UNL A   1      40.113  22.057  26.695  1.00  0.00     0.118 C 
BRANCH  27  28
ATOM     28  N   UNL A   1      41.334  22.298  25.935  1.00  0.00    -0.352 N 
ATOM     29  C   UNL A   1      42.076  23.447  25.802  1.00  0.00     0.251 C 
ATOM     30  H   UNL A   1      41.678  21.519  25.441  1.00  0.00     0.163 HD
ATOM     31  O   UNL A   1      43.008  23.488  25.004  1.00  0.00    -0.269 OA
BRANCH  29  32
ATOM     32  C   UNL A   1      41.730  24.649  26.591  1.00  0.00     0.039 A 
ATOM     33  C   UNL A   1      40.817  24.524  27.641  1.00  0.00     0.014 A 
ATOM     34  C   UNL A   1      42.318  25.885  26.314  1.00  0.00     0.014 A 
ATOM     35  C   UNL A   1      40.571  25.615  28.478  1.00  0.00     0.010 A 
ATOM     36  C   UNL A   1      42.129  26.949  27.191  1.00  0.00     0.010 A 
ATOM     37  C   UNL A   1      41.268  26.821  28.292  1.00  0.00    -0.014 A 
BRANCH  37  38
ATOM     38  C   UNL A   1      41.148  27.942  29.259  1.00  0.00     0.031 A 
ATOM     39  C   UNL A   1      42.084  28.041  30.430  1.00  0.00     0.074 A 
ATOM     40  C   UNL A   1      40.134  28.821  29.133  1.00  0.00     0.049 A 
ATOM     41  N   UNL A   1      42.065  28.881  31.434  1.00  0.00    -0.248 NA
ATOM     42  C   UNL A   1      43.170  27.049  30.495  1.00  0.00     0.031 C 
ATOM     43  C   UNL A   1      39.134  28.819  28.062  1.00  0.00     0.029 A 
ATOM     44  N   UNL A   1      39.768  29.882  29.925  1.00  0.00    -0.354 N 
ATOM     45  C   UNL A   1      43.119  28.509  32.257  1.00  0.00     0.074 A 
ATOM     46  C   UNL A   1      43.732  27.343  31.659  1.00  0.00     0.031 C 
ATOM     47  C   UNL A   1      38.282  29.839  28.253  1.00  0.00     0.029 A 
ATOM     48  C   UNL A   1      38.644  30.537  29.481  1.00  0.00     0.049 A 
ATOM     49  H   UNL A   1      40.264  30.148  30.732  1.00  0.00     0.167 HD
ATOM     50  C   UNL A   1      43.548  29.095  33.401  1.00  0.00     0.031 A 
ATOM     51  C   UNL A   1      37.967  31.573  30.012  1.00  0.00     0.031 A 
ATOM     52  C   UNL A   1      42.945  30.258  33.993  1.00  0.00     0.049 A 
ATOM     53  C   UNL A   1      38.445  32.183  31.299  1.00  0.00     0.074 A 
ATOM     54  C   UNL A   1      43.346  30.958  35.119  1.00  0.00     0.029 A 
ATOM     55  N   UNL A   1      41.809  30.890  33.513  1.00  0.00    -0.354 N 
ATOM     56  N   UNL A   1      39.483  31.860  32.031  1.00  0.00    -0.248 NA
ATOM     57  C   UNL A   1      37.658  33.306  31.831  1.00  0.00     0.031 C 
ATOM     58  C   UNL A   1      42.422  31.982  35.349  1.00  0.00     0.029 A 
ATOM     59  C   UNL A   1      41.478  31.953  34.336  1.00  0.00     0.049 A 
ATOM     60  H   UNL A   1      41.312  30.624  32.706  1.00  0.00     0.167 HD
ATOM     61  C   UNL A   1      39.487  32.752  33.095  1.00  0.00     0.074 A 
ATOM     62  C   UNL A   1      38.358  33.639  32.906  1.00  0.00     0.031 C 
ATOM     63  C   UNL A   1      40.350  32.826  34.138  1.00  0.00     0.031 A 
BRANCH  50  64
ATOM     64  C   UNL A   1      44.728  28.473  34.096  1.00  0.00    -0.014 A 
ATOM     65  C   UNL A   1      46.041  28.873  33.800  1.00  0.00     0.009 A 
ATOM     66  C   UNL A   1      44.521  27.499  35.086  1.00  0.00     0.009 A 
ATOM     67  C   UNL A   1      47.124  28.285  34.456  1.00  0.00     0.001 A 
ATOM     68  C   UNL A   1      45.605  26.934  35.761  1.00  0.00     0.001 A 
ATOM     69  C   UNL A   1      46.905  27.321  35.438  1.00  0.00     0.000 A 
ENDBRANCH  50  64
BRANCH  51  70
ATOM     70  C   UNL A   1      36.759  32.102  29.327  1.00  0.00    -0.014 A 
ATOM     71  C   UNL A   1      36.846  33.240  28.512  1.00  0.00     0.009 A 
ATOM     72  C   UNL A   1      35.511  31.478  29.491  1.00  0.00     0.009 A 
ATOM     73  C   UNL A   1      35.705  33.757  27.893  1.00  0.00     0.001 A 
ATOM     74  C   UNL A   1      34.378  31.980  28.849  1.00  0.00     0.001 A 
ATOM     75  C   UNL A   1      34.474  33.125  28.059  1.00  0.00     0.000 A 
ENDBRANCH  51  70
BRANCH  63  76
ATOM     76  C   UNL A   1      40.124  33.922  35.141  1.00  0.00    -0.014 A 
ATOM     77  C   UNL A   1      39.415  33.685  36.329  1.00  0.00     0.009 A 
ATOM     78  C   UNL A   1      40.668  35.196  34.913  1.00  0.00     0.009 A 
ATOM     79  C   UNL A   1      39.235  34.712  37.258  1.00  0.00     0.001 A 
ATOM     80  C   UNL A   1      40.509  36.212  35.856  1.00  0.00     0.001 A 
ATOM     81  C   UNL A   1      39.786  35.972  37.023  1.00  0.00     0.000 A 
ENDBRANCH  63  76
ENDBRANCH  37  38
ENDBRANCH  29  32
ENDBRANCH  27  28
ENDBRANCH  26  27
ENDBRANCH   1  26
TORSDOF 13
ENDMDL
