MODEL 1
REMARK VINA RESULT:     -11.2      0.000      0.000
REMARK SMILES C[C@H]1CCCCN1c1nc2nc(CC(=O)NCCCNC(=O)c3ccc(-c4c5nc(c(-c6ccccc6)c6ccc([nH]6)c(-c6ccccc6)c6nc(c(-c7ccccc7)c7ccc4[nH]7)C=C6)C=C5)cc3)cc(O)n2n1
REMARK SMILES IDX 18 1 17 2 16 3 14 4 15 5 13 7 12 8 8 9 9 10 75 11 10 12
REMARK SMILES IDX 74 13 11 14 72 15 71 16 7 17 1 18 2 19 3 20 4 21 6 22 5 23
REMARK SMILES IDX 73 24 19 26 20 27 21 28 22 30 23 31 24 32 70 33 25 34 69 35
REMARK SMILES IDX 26 36 27 37 28 38 63 39 29 40 68 41 62 42 64 43 30 44 67 45
REMARK SMILES IDX 61 46 60 47 31 49 53 50 38 51 52 52 39 53 42 54 51 55 65 56
REMARK SMILES IDX 40 57 41 58 50 60 66 61 43 62 32 63 33 64 37 65 34 66 36 67
REMARK SMILES IDX 35 68 54 69 55 70 59 71 56 72 58 73 57 74 44 75 45 76 49 77
REMARK SMILES IDX 46 78 48 79 47 80
REMARK H PARENT 16 6 73 25 20 29 64 48 42 59
REMARK Flexibility Score: inf
ROOT
ATOM      1  C   UNL A   1      34.506  35.483  28.498  1.00  0.00     0.042 C 
ENDROOT
BRANCH   1   2
ATOM      2  C   UNL A   1      33.228  35.632  29.329  1.00  0.00     0.117 C 
BRANCH   2   3
ATOM      3  N   UNL A   1      33.254  36.792  30.200  1.00  0.00    -0.356 N 
ATOM      4  C   UNL A   1      33.198  36.857  31.564  1.00  0.00     0.226 C 
ATOM      5  O   UNL A   1      33.320  37.957  32.103  1.00  0.00    -0.275 OA
ATOM      6  H   UNL A   1      33.323  37.661  29.742  1.00  0.00     0.163 HD
BRANCH   4   7
ATOM      7  C   UNL A   1      33.080  35.586  32.369  1.00  0.00     0.156 C 
BRANCH   7   8
ATOM      8  C   UNL A   1      34.354  34.774  32.429  1.00  0.00     0.059 A 
ATOM      9  C   UNL A   1      38.512  33.777  33.064  1.00  0.00     0.247 A 
ATOM     10  N   UNL A   1      37.783  34.914  33.269  1.00  0.00    -0.173 NA
ATOM     11  N   UNL A   1      37.797  32.720  32.690  1.00  0.00    -0.123 NA
ATOM     12  C   UNL A   1      36.569  34.584  32.896  1.00  0.00     0.257 A 
ATOM     13  N   UNL A   1      36.556  33.229  32.560  1.00  0.00    -0.161 N 
ATOM     14  N   UNL A   1      35.445  35.356  32.832  1.00  0.00    -0.215 NA
ATOM     15  C   UNL A   1      35.369  32.597  32.153  1.00  0.00     0.217 A 
ATOM     16  C   UNL A   1      34.251  33.328  32.033  1.00  0.00     0.092 A 
BRANCH   9  17
ATOM     17  N   UNL A   1      39.847  33.831  33.233  1.00  0.00    -0.337 N 
ATOM     18  C   UNL A   1      40.244  34.036  30.733  1.00  0.00     0.031 C 
ATOM     19  C   UNL A   1      40.823  33.822  32.136  1.00  0.00     0.082 C 
ATOM     20  C   UNL A   1      41.845  34.949  32.404  1.00  0.00     0.025 C 
ATOM     21  C   UNL A   1      42.485  34.817  33.783  1.00  0.00     0.004 C 
ATOM     22  C   UNL A   1      40.390  33.671  34.580  1.00  0.00     0.120 C 
ATOM     23  C   UNL A   1      41.419  34.757  34.872  1.00  0.00     0.022 C 
ENDBRANCH   9  17
BRANCH  15  24
ATOM     24  O   UNL A   1      35.387  31.237  31.892  1.00  0.00    -0.493 OA
ATOM     25  H   UNL A   1      35.840  30.911  31.139  1.00  0.00     0.295 HD
ENDBRANCH  15  24
ENDBRANCH   7   8
ENDBRANCH   4   7
ENDBRANCH   2   3
ENDBRANCH   1   2
BRANCH   1  26
ATOM     26  C   UNL A   1      35.139  34.115  28.672  1.00  0.00     0.118 C 
BRANCH  26  27
ATOM     27  N   UNL A   1      34.197  33.035  28.390  1.00  0.00    -0.352 N 
ATOM     28  C   UNL A   1      34.470  31.721  28.078  1.00  0.00     0.251 C 
ATOM     29  H   UNL A   1      33.243  33.276  28.430  1.00  0.00     0.163 HD
ATOM     30  O   UNL A   1      33.612  31.007  27.585  1.00  0.00    -0.269 OA
BRANCH  28  31
ATOM     31  C   UNL A   1      35.815  31.192  28.352  1.00  0.00     0.039 A 
ATOM     32  C   UNL A   1      36.822  32.033  28.837  1.00  0.00     0.014 A 
ATOM     33  C   UNL A   1      36.068  29.845  28.094  1.00  0.00     0.014 A 
ATOM     34  C   UNL A   1      38.076  31.494  29.107  1.00  0.00     0.010 A 
ATOM     35  C   UNL A   1      37.259  29.287  28.478  1.00  0.00     0.010 A 
ATOM     36  C   UNL A   1      38.280  30.121  28.925  1.00  0.00    -0.014 A 
BRANCH  36  37
ATOM     37  C   UNL A   1      39.565  29.511  29.213  1.00  0.00     0.031 A 
ATOM     38  C   UNL A   1      39.809  29.133  30.631  1.00  0.00     0.074 A 
ATOM     39  C   UNL A   1      40.362  29.076  28.218  1.00  0.00     0.049 A 
ATOM     40  N   UNL A   1      40.754  29.543  31.409  1.00  0.00    -0.248 NA
ATOM     41  C   UNL A   1      38.844  28.234  31.285  1.00  0.00     0.031 C 
ATOM     42  C   UNL A   1      40.093  29.044  26.775  1.00  0.00     0.029 A 
ATOM     43  N   UNL A   1      41.543  28.420  28.320  1.00  0.00    -0.354 N 
ATOM     44  C   UNL A   1      40.593  28.863  32.613  1.00  0.00     0.074 A 
ATOM     45  C   UNL A   1      39.335  28.164  32.523  1.00  0.00     0.031 C 
ATOM     46  C   UNL A   1      40.954  28.186  26.181  1.00  0.00     0.029 A 
ATOM     47  C   UNL A   1      41.923  27.746  27.167  1.00  0.00     0.049 A 
ATOM     48  H   UNL A   1      42.087  28.421  29.141  1.00  0.00     0.167 HD
ATOM     49  C   UNL A   1      41.586  28.777  33.543  1.00  0.00     0.031 A 
ATOM     50  C   UNL A   1      42.925  26.838  27.076  1.00  0.00     0.031 A 
ATOM     51  C   UNL A   1      42.661  29.689  33.274  1.00  0.00     0.049 A 
ATOM     52  C   UNL A   1      43.815  27.062  28.243  1.00  0.00     0.074 A 
ATOM     53  C   UNL A   1      42.765  31.064  33.203  1.00  0.00     0.029 A 
ATOM     54  N   UNL A   1      43.765  29.193  32.620  1.00  0.00    -0.354 N 
ATOM     55  N   UNL A   1      44.507  28.154  28.423  1.00  0.00    -0.248 NA
ATOM     56  C   UNL A   1      43.587  26.266  29.440  1.00  0.00     0.031 C 
ATOM     57  C   UNL A   1      43.622  31.303  32.089  1.00  0.00     0.029 A 
ATOM     58  C   UNL A   1      44.038  30.064  31.595  1.00  0.00     0.049 A 
ATOM     59  H   UNL A   1      44.262  28.373  32.844  1.00  0.00     0.167 HD
ATOM     60  C   UNL A   1      44.442  28.397  29.787  1.00  0.00     0.074 A 
ATOM     61  C   UNL A   1      43.947  27.153  30.373  1.00  0.00     0.031 C 
ATOM     62  C   UNL A   1      44.516  29.665  30.289  1.00  0.00     0.031 A 
BRANCH  49  63
ATOM     63  C   UNL A   1      41.730  27.647  34.521  1.00  0.00    -0.014 A 
ATOM     64  C   UNL A   1      41.687  27.916  35.900  1.00  0.00     0.009 A 
ATOM     65  C   UNL A   1      42.153  26.362  34.133  1.00  0.00     0.009 A 
ATOM     66  C   UNL A   1      42.075  26.953  36.840  1.00  0.00     0.001 A 
ATOM     67  C   UNL A   1      42.503  25.387  35.070  1.00  0.00     0.001 A 
ATOM     68  C   UNL A   1      42.483  25.689  36.424  1.00  0.00     0.000 A 
ENDBRANCH  49  63
BRANCH  50  69
ATOM     69  C   UNL A   1      42.970  25.604  26.257  1.00  0.00    -0.014 A 
ATOM     70  C   UNL A   1      44.030  25.390  25.361  1.00  0.00     0.009 A 
ATOM     71  C   UNL A   1      42.130  24.512  26.543  1.00  0.00     0.009 A 
ATOM     72  C   UNL A   1      44.275  24.119  24.822  1.00  0.00     0.001 A 
ATOM     73  C   UNL A   1      42.368  23.244  25.997  1.00  0.00     0.001 A 
ATOM     74  C   UNL A   1      43.454  23.044  25.153  1.00  0.00     0.000 A 
ENDBRANCH  50  69
BRANCH  62  75
ATOM     75  C   UNL A   1      44.829  30.797  29.340  1.00  0.00    -0.014 A 
ATOM     76  C   UNL A   1      43.834  31.438  28.578  1.00  0.00     0.009 A 
ATOM     77  C   UNL A   1      46.100  31.385  29.400  1.00  0.00     0.009 A 
ATOM     78  C   UNL A   1      44.104  32.633  27.903  1.00  0.00     0.001 A 
ATOM     79  C   UNL A   1      46.365  32.587  28.739  1.00  0.00     0.001 A 
ATOM     80  C   UNL A   1      45.368  33.213  27.995  1.00  0.00     0.000 A 
ENDBRANCH  62  75
ENDBRANCH  36  37
ENDBRANCH  28  31
ENDBRANCH  26  27
ENDBRANCH   1  26
TORSDOF 13
ENDMDL
MODEL 2
REMARK VINA RESULT:     -11.1      4.078     10.001
REMARK SMILES C[C@H]1CCCCN1c1nc2nc(CC(=O)NCCCNC(=O)c3ccc(-c4c5nc(c(-c6ccccc6)c6ccc([nH]6)c(-c6ccccc6)c6nc(c(-c7ccccc7)c7ccc4[nH]7)C=C6)C=C5)cc3)cc(O)n2n1
REMARK SMILES IDX 18 1 17 2 16 3 14 4 15 5 13 7 12 8 8 9 9 10 75 11 10 12
REMARK SMILES IDX 74 13 11 14 72 15 71 16 7 17 1 18 2 19 3 20 4 21 6 22 5 23
REMARK SMILES IDX 73 24 19 26 20 27 21 28 22 30 23 31 24 32 70 33 25 34 69 35
REMARK SMILES IDX 26 36 27 37 28 38 63 39 29 40 68 41 62 42 64 43 30 44 67 45
REMARK SMILES IDX 61 46 60 47 31 49 53 50 38 51 52 52 39 53 42 54 51 55 65 56
REMARK SMILES IDX 40 57 41 58 50 60 66 61 43 62 32 63 33 64 37 65 34 66 36 67
REMARK SMILES IDX 35 68 54 69 55 70 59 71 56 72 58 73 57 74 44 75 45 76 49 77
REMARK SMILES IDX 46 78 48 79 47 80
REMARK H PARENT 16 6 73 25 20 29 64 48 42 59
REMARK Flexibility Score: inf
ROOT
ATOM      1  C   UNL A   1      38.871  21.828  26.089  1.00  0.00     0.042 C 
ENDROOT
BRANCH   1   2
ATOM      2  C   UNL A   1      37.609  22.627  25.751  1.00  0.00     0.117 C 
BRANCH   2   3
ATOM      3  N   UNL A   1      37.415  22.797  24.323  1.00  0.00    -0.356 N 
ATOM      4  C   UNL A   1      36.278  22.660  23.577  1.00  0.00     0.226 C 
ATOM      5  O   UNL A   1      36.328  22.936  22.379  1.00  0.00    -0.275 OA
ATOM      6  H   UNL A   1      38.221  23.047  23.816  1.00  0.00     0.163 HD
BRANCH   4   7
ATOM      7  C   UNL A   1      34.984  22.270  24.250  1.00  0.00     0.156 C 
BRANCH   7   8
ATOM      8  C   UNL A   1      34.237  23.428  24.869  1.00  0.00     0.059 A 
ATOM      9  C   UNL A   1      33.018  27.486  25.726  1.00  0.00     0.247 A 
ATOM     10  N   UNL A   1      33.912  26.946  24.845  1.00  0.00    -0.173 NA
ATOM     11  N   UNL A   1      32.290  26.595  26.393  1.00  0.00    -0.123 NA
ATOM     12  C   UNL A   1      33.821  25.654  25.053  1.00  0.00     0.257 A 
ATOM     13  N   UNL A   1      32.808  25.419  25.986  1.00  0.00    -0.161 N 
ATOM     14  N   UNL A   1      34.534  24.635  24.489  1.00  0.00    -0.215 NA
ATOM     15  C   UNL A   1      32.471  24.112  26.373  1.00  0.00     0.217 A 
ATOM     16  C   UNL A   1      33.176  23.084  25.878  1.00  0.00     0.092 A 
BRANCH   9  17
ATOM     17  N   UNL A   1      32.968  28.826  25.851  1.00  0.00    -0.337 N 
ATOM     18  C   UNL A   1      31.024  28.996  24.225  1.00  0.00     0.031 C 
ATOM     19  C   UNL A   1      32.106  29.703  25.049  1.00  0.00     0.082 C 
ATOM     20  C   UNL A   1      31.403  30.684  26.013  1.00  0.00     0.025 C 
ATOM     21  C   UNL A   1      32.404  31.446  26.876  1.00  0.00     0.004 C 
ATOM     22  C   UNL A   1      33.977  29.490  26.674  1.00  0.00     0.120 C 
ATOM     23  C   UNL A   1      33.318  30.482  27.626  1.00  0.00     0.022 C 
ENDBRANCH   9  17
BRANCH  15  24
ATOM     24  O   UNL A   1      31.417  23.921  27.251  1.00  0.00    -0.493 OA
ATOM     25  H   UNL A   1      30.881  24.647  27.504  1.00  0.00     0.295 HD
ENDBRANCH  15  24
ENDBRANCH   7   8
ENDBRANCH   4   7
ENDBRANCH   2   3
ENDBRANCH   1   2
BRANCH   1  26
ATOM     26  C   UNL A   1      39.925  22.688  26.762  1.00  0.00     0.118 C 
BRANCH  26  27
ATOM     27  N   UNL A   1      41.228  22.561  26.117  1.00  0.00    -0.352 N 
ATOM     28  C   UNL A   1      42.121  23.558  25.788  1.00  0.00     0.251 C 
ATOM     29  H   UNL A   1      41.507  21.645  25.889  1.00  0.00     0.163 HD
ATOM     30  O   UNL A   1      43.028  23.347  25.000  1.00  0.00    -0.269 OA
BRANCH  28  31
ATOM     31  C   UNL A   1      41.963  24.884  26.408  1.00  0.00     0.039 A 
ATOM     32  C   UNL A   1      41.245  25.891  25.755  1.00  0.00     0.014 A 
ATOM     33  C   UNL A   1      42.564  25.118  27.644  1.00  0.00     0.014 A 
ATOM     34  C   UNL A   1      41.096  27.124  26.380  1.00  0.00     0.010 A 
ATOM     35  C   UNL A   1      42.313  26.285  28.317  1.00  0.00     0.010 A 
ATOM     36  C   UNL A   1      41.633  27.306  27.660  1.00  0.00    -0.014 A 
BRANCH  36  37
ATOM     37  C   UNL A   1      41.485  28.569  28.360  1.00  0.00     0.031 A 
ATOM     38  C   UNL A   1      42.543  29.585  28.113  1.00  0.00     0.074 A 
ATOM     39  C   UNL A   1      40.328  28.888  28.972  1.00  0.00     0.049 A 
ATOM     40  N   UNL A   1      43.327  30.139  28.978  1.00  0.00    -0.248 NA
ATOM     41  C   UNL A   1      42.807  29.988  26.723  1.00  0.00     0.031 C 
ATOM     42  C   UNL A   1      39.063  28.144  28.988  1.00  0.00     0.029 A 
ATOM     43  N   UNL A   1      40.003  30.048  29.595  1.00  0.00    -0.354 N 
ATOM     44  C   UNL A   1      44.098  31.059  28.275  1.00  0.00     0.074 A 
ATOM     45  C   UNL A   1      43.823  30.839  26.876  1.00  0.00     0.031 C 
ATOM     46  C   UNL A   1      38.062  28.974  29.361  1.00  0.00     0.029 A 
ATOM     47  C   UNL A   1      38.640  30.243  29.763  1.00  0.00     0.049 A 
ATOM     48  H   UNL A   1      40.678  30.696  29.903  1.00  0.00     0.167 HD
ATOM     49  C   UNL A   1      44.785  32.062  28.892  1.00  0.00     0.031 A 
ATOM     50  C   UNL A   1      38.048  31.403  30.138  1.00  0.00     0.031 A 
ATOM     51  C   UNL A   1      44.857  31.875  30.313  1.00  0.00     0.049 A 
ATOM     52  C   UNL A   1      39.096  32.229  30.790  1.00  0.00     0.074 A 
ATOM     53  C   UNL A   1      45.409  30.911  31.132  1.00  0.00     0.029 A 
ATOM     54  N   UNL A   1      43.944  32.551  31.089  1.00  0.00    -0.354 N 
ATOM     55  N   UNL A   1      39.684  31.897  31.906  1.00  0.00    -0.248 NA
ATOM     56  C   UNL A   1      39.815  33.193  29.970  1.00  0.00     0.031 C 
ATOM     57  C   UNL A   1      44.448  30.726  32.169  1.00  0.00     0.029 A 
ATOM     58  C   UNL A   1      43.407  31.632  31.954  1.00  0.00     0.049 A 
ATOM     59  H   UNL A   1      43.721  33.508  31.033  1.00  0.00     0.167 HD
ATOM     60  C   UNL A   1      41.008  32.273  31.738  1.00  0.00     0.074 A 
ATOM     61  C   UNL A   1      41.009  33.152  30.569  1.00  0.00     0.031 C 
ATOM     62  C   UNL A   1      42.023  31.617  32.374  1.00  0.00     0.031 A 
BRANCH  49  63
ATOM     63  C   UNL A   1      45.122  33.375  28.246  1.00  0.00    -0.014 A 
ATOM     64  C   UNL A   1      44.112  34.334  28.061  1.00  0.00     0.009 A 
ATOM     65  C   UNL A   1      46.347  33.601  27.591  1.00  0.00     0.009 A 
ATOM     66  C   UNL A   1      44.313  35.450  27.238  1.00  0.00     0.001 A 
ATOM     67  C   UNL A   1      46.563  34.733  26.802  1.00  0.00     0.001 A 
ATOM     68  C   UNL A   1      45.539  35.648  26.609  1.00  0.00     0.000 A 
ENDBRANCH  49  63
BRANCH  50  69
ATOM     69  C   UNL A   1      36.757  31.963  29.674  1.00  0.00    -0.014 A 
ATOM     70  C   UNL A   1      35.733  32.236  30.597  1.00  0.00     0.009 A 
ATOM     71  C   UNL A   1      36.617  32.487  28.376  1.00  0.00     0.009 A 
ATOM     72  C   UNL A   1      34.647  33.051  30.250  1.00  0.00     0.001 A 
ATOM     73  C   UNL A   1      35.526  33.293  28.026  1.00  0.00     0.001 A 
ATOM     74  C   UNL A   1      34.552  33.591  28.970  1.00  0.00     0.000 A 
ENDBRANCH  50  69
BRANCH  62  75
ATOM     75  C   UNL A   1      41.667  30.563  33.397  1.00  0.00    -0.014 A 
ATOM     76  C   UNL A   1      41.422  29.223  33.043  1.00  0.00     0.009 A 
ATOM     77  C   UNL A   1      41.823  30.873  34.755  1.00  0.00     0.009 A 
ATOM     78  C   UNL A   1      41.343  28.225  34.021  1.00  0.00     0.001 A 
ATOM     79  C   UNL A   1      41.759  29.874  35.730  1.00  0.00     0.001 A 
ATOM     80  C   UNL A   1      41.523  28.551  35.363  1.00  0.00     0.000 A 
ENDBRANCH  62  75
ENDBRANCH  36  37
ENDBRANCH  28  31
ENDBRANCH  26  27
ENDBRANCH   1  26
TORSDOF 13
ENDMDL
MODEL 3
REMARK VINA RESULT:     -10.9      4.344      9.028
REMARK SMILES C[C@H]1CCCCN1c1nc2nc(CC(=O)NCCCNC(=O)c3ccc(-c4c5nc(c(-c6ccccc6)c6ccc([nH]6)c(-c6ccccc6)c6nc(c(-c7ccccc7)c7ccc4[nH]7)C=C6)C=C5)cc3)cc(O)n2n1
REMARK SMILES IDX 18 1 17 2 16 3 14 4 15 5 13 7 12 8 8 9 9 10 75 11 10 12
REMARK SMILES IDX 74 13 11 14 72 15 71 16 7 17 1 18 2 19 3 20 4 21 6 22 5 23
REMARK SMILES IDX 73 24 19 26 20 27 21 28 22 30 23 31 24 32 70 33 25 34 69 35
REMARK SMILES IDX 26 36 27 37 28 38 63 39 29 40 68 41 62 42 64 43 30 44 67 45
REMARK SMILES IDX 61 46 60 47 31 49 53 50 38 51 52 52 39 53 42 54 51 55 65 56
REMARK SMILES IDX 40 57 41 58 50 60 66 61 43 62 32 63 33 64 37 65 34 66 36 67
REMARK SMILES IDX 35 68 54 69 55 70 59 71 56 72 58 73 57 74 44 75 45 76 49 77
REMARK SMILES IDX 46 78 48 79 47 80
REMARK H PARENT 16 6 73 25 20 29 64 48 42 59
REMARK Flexibility Score: inf
ROOT
ATOM      1  C   UNL A   1      31.070  31.505  26.087  1.00  0.00     0.042 C 
ENDROOT
BRANCH   1   2
ATOM      2  C   UNL A   1      31.409  30.182  25.393  1.00  0.00     0.117 C 
BRANCH   2   3
ATOM      3  N   UNL A   1      30.917  30.119  24.030  1.00  0.00    -0.356 N 
ATOM      4  C   UNL A   1      30.377  29.065  23.347  1.00  0.00     0.226 C 
ATOM      5  O   UNL A   1      29.947  29.262  22.211  1.00  0.00    -0.275 OA
ATOM      6  H   UNL A   1      30.981  30.959  23.520  1.00  0.00     0.163 HD
BRANCH   4   7
ATOM      7  C   UNL A   1      30.241  27.724  24.028  1.00  0.00     0.156 C 
BRANCH   7   8
ATOM      8  C   UNL A   1      31.395  26.782  23.771  1.00  0.00     0.059 A 
ATOM      9  C   UNL A   1      34.535  23.907  24.515  1.00  0.00     0.247 A 
ATOM     10  N   UNL A   1      33.586  24.480  25.313  1.00  0.00    -0.173 NA
ATOM     11  N   UNL A   1      34.424  24.201  23.222  1.00  0.00    -0.123 NA
ATOM     12  C   UNL A   1      32.918  25.262  24.499  1.00  0.00     0.257 A 
ATOM     13  N   UNL A   1      33.405  25.083  23.203  1.00  0.00    -0.161 N 
ATOM     14  N   UNL A   1      31.893  26.121  24.774  1.00  0.00    -0.215 NA
ATOM     15  C   UNL A   1      32.845  25.777  22.118  1.00  0.00     0.217 A 
ATOM     16  C   UNL A   1      31.867  26.665  22.349  1.00  0.00     0.092 A 
BRANCH   9  17
ATOM     17  N   UNL A   1      35.480  23.137  25.090  1.00  0.00    -0.337 N 
ATOM     18  C   UNL A   1      34.151  21.019  24.646  1.00  0.00     0.031 C 
ATOM     19  C   UNL A   1      35.338  21.697  25.337  1.00  0.00     0.082 C 
ATOM     20  C   UNL A   1      36.630  21.005  24.847  1.00  0.00     0.025 C 
ATOM     21  C   UNL A   1      37.875  21.610  25.489  1.00  0.00     0.004 C 
ATOM     22  C   UNL A   1      36.633  23.788  25.708  1.00  0.00     0.120 C 
ATOM     23  C   UNL A   1      37.927  23.116  25.261  1.00  0.00     0.022 C 
ENDBRANCH   9  17
BRANCH  15  24
ATOM     24  O   UNL A   1      33.315  25.522  20.841  1.00  0.00    -0.493 OA
ATOM     25  H   UNL A   1      32.993  24.783  20.362  1.00  0.00     0.295 HD
ENDBRANCH  15  24
ENDBRANCH   7   8
ENDBRANCH   4   7
ENDBRANCH   2   3
ENDBRANCH   1   2
BRANCH   1  26
ATOM     26  C   UNL A   1      32.234  32.031  26.906  1.00  0.00     0.118 C 
BRANCH  26  27
ATOM     27  N   UNL A   1      32.059  33.434  27.270  1.00  0.00    -0.352 N 
ATOM     28  C   UNL A   1      32.797  34.187  28.157  1.00  0.00     0.251 C 
ATOM     29  H   UNL A   1      31.318  33.904  26.823  1.00  0.00     0.163 HD
ATOM     30  O   UNL A   1      32.369  35.248  28.581  1.00  0.00    -0.269 OA
BRANCH  28  31
ATOM     31  C   UNL A   1      34.115  33.691  28.582  1.00  0.00     0.039 A 
ATOM     32  C   UNL A   1      34.280  33.103  29.841  1.00  0.00     0.014 A 
ATOM     33  C   UNL A   1      35.196  33.841  27.714  1.00  0.00     0.014 A 
ATOM     34  C   UNL A   1      35.535  32.624  30.201  1.00  0.00     0.010 A 
ATOM     35  C   UNL A   1      36.400  33.259  28.013  1.00  0.00     0.010 A 
ATOM     36  C   UNL A   1      36.584  32.707  29.278  1.00  0.00    -0.014 A 
BRANCH  36  37
ATOM     37  C   UNL A   1      37.905  32.201  29.601  1.00  0.00     0.031 A 
ATOM     38  C   UNL A   1      38.151  30.765  29.301  1.00  0.00     0.074 A 
ATOM     39  C   UNL A   1      38.914  33.044  29.898  1.00  0.00     0.049 A 
ATOM     40  N   UNL A   1      38.491  29.830  30.125  1.00  0.00    -0.248 NA
ATOM     41  C   UNL A   1      37.928  30.296  27.924  1.00  0.00     0.031 C 
ATOM     42  C   UNL A   1      38.921  34.511  29.872  1.00  0.00     0.029 A 
ATOM     43  N   UNL A   1      40.213  32.740  30.142  1.00  0.00    -0.354 N 
ATOM     44  C   UNL A   1      38.657  28.677  29.363  1.00  0.00     0.074 A 
ATOM     45  C   UNL A   1      38.181  28.991  28.038  1.00  0.00     0.031 C 
ATOM     46  C   UNL A   1      40.200  34.950  29.841  1.00  0.00     0.029 A 
ATOM     47  C   UNL A   1      41.084  33.812  30.009  1.00  0.00     0.049 A 
ATOM     48  H   UNL A   1      40.512  31.837  30.392  1.00  0.00     0.167 HD
ATOM     49  C   UNL A   1      39.336  27.589  29.821  1.00  0.00     0.031 A 
ATOM     50  C   UNL A   1      42.436  33.732  29.970  1.00  0.00     0.031 A 
ATOM     51  C   UNL A   1      39.583  27.659  31.234  1.00  0.00     0.049 A 
ATOM     52  C   UNL A   1      42.806  32.425  30.571  1.00  0.00     0.074 A 
ATOM     53  C   UNL A   1      38.777  27.702  32.353  1.00  0.00     0.029 A 
ATOM     54  N   UNL A   1      40.818  28.112  31.639  1.00  0.00    -0.354 N 
ATOM     55  N   UNL A   1      42.592  32.121  31.821  1.00  0.00    -0.248 NA
ATOM     56  C   UNL A   1      42.997  31.292  29.677  1.00  0.00     0.031 C 
ATOM     57  C   UNL A   1      39.408  28.647  33.214  1.00  0.00     0.029 A 
ATOM     58  C   UNL A   1      40.589  29.068  32.597  1.00  0.00     0.049 A 
ATOM     59  H   UNL A   1      41.693  27.810  31.307  1.00  0.00     0.167 HD
ATOM     60  C   UNL A   1      42.208  30.788  31.803  1.00  0.00     0.074 A 
ATOM     61  C   UNL A   1      42.570  30.305  30.471  1.00  0.00     0.031 C 
ATOM     62  C   UNL A   1      41.375  30.272  32.754  1.00  0.00     0.031 A 
BRANCH  49  63
ATOM     63  C   UNL A   1      40.052  26.607  28.939  1.00  0.00    -0.014 A 
ATOM     64  C   UNL A   1      39.356  25.495  28.434  1.00  0.00     0.009 A 
ATOM     65  C   UNL A   1      41.451  26.607  28.788  1.00  0.00     0.009 A 
ATOM     66  C   UNL A   1      40.033  24.426  27.834  1.00  0.00     0.001 A 
ATOM     67  C   UNL A   1      42.125  25.561  28.155  1.00  0.00     0.001 A 
ATOM     68  C   UNL A   1      41.417  24.460  27.695  1.00  0.00     0.000 A 
ENDBRANCH  49  63
BRANCH  50  69
ATOM     69  C   UNL A   1      43.377  34.538  29.158  1.00  0.00    -0.014 A 
ATOM     70  C   UNL A   1      44.473  35.171  29.768  1.00  0.00     0.009 A 
ATOM     71  C   UNL A   1      43.367  34.469  27.753  1.00  0.00     0.009 A 
ATOM     72  C   UNL A   1      45.543  35.659  29.004  1.00  0.00     0.001 A 
ATOM     73  C   UNL A   1      44.431  34.965  26.988  1.00  0.00     0.001 A 
ATOM     74  C   UNL A   1      45.528  35.541  27.617  1.00  0.00     0.000 A 
ENDBRANCH  50  69
BRANCH  62  75
ATOM     75  C   UNL A   1      40.997  31.145  33.927  1.00  0.00    -0.014 A 
ATOM     76  C   UNL A   1      41.740  31.164  35.122  1.00  0.00     0.009 A 
ATOM     77  C   UNL A   1      40.027  32.139  33.734  1.00  0.00     0.009 A 
ATOM     78  C   UNL A   1      41.522  32.151  36.089  1.00  0.00     0.001 A 
ATOM     79  C   UNL A   1      39.820  33.134  34.693  1.00  0.00     0.001 A 
ATOM     80  C   UNL A   1      40.569  33.142  35.867  1.00  0.00     0.000 A 
ENDBRANCH  62  75
ENDBRANCH  36  37
ENDBRANCH  28  31
ENDBRANCH  26  27
ENDBRANCH   1  26
TORSDOF 13
ENDMDL
