MODEL 1
REMARK VINA RESULT:     -12.3      0.000      0.000
REMARK SMILES CS(=O)(=O)c1ccc(N2N=C(C(=O)NCCCNC(=O)c3ccc(-c4c5nc(c(-c6ccccc6)c6ccc([nH]6)c(-c6ccccc6)c6nc(c(-c7ccccc7)c7ccc4[nH]7)C=C6)C=C5)cc3)C[C@H]2c2cccs2)cc1
REMARK SMILES IDX 16 1 15 2 14 3 12 4 13 5 11 7 9 8 10 9 70 10 69 11 8 12 5 13
REMARK SMILES IDX 6 14 77 15 7 16 76 17 2 18 1 19 3 20 4 21 71 22 72 23 75 24
REMARK SMILES IDX 73 25 74 26 17 27 18 28 19 29 20 31 21 32 22 33 68 34 23 35
REMARK SMILES IDX 67 36 24 37 25 38 26 39 61 40 27 41 66 42 60 43 62 44 28 45
REMARK SMILES IDX 65 46 59 47 58 48 29 50 51 51 36 52 50 53 37 54 40 55 49 56
REMARK SMILES IDX 63 57 38 58 39 59 48 61 64 62 41 63 30 64 31 65 35 66 32 67
REMARK SMILES IDX 34 68 33 69 52 70 53 71 57 72 54 73 56 74 55 75 42 76 43 77
REMARK SMILES IDX 47 78 44 79 46 80 45 81
REMARK H PARENT 14 6 18 30 62 49 40 60
REMARK Flexibility Score: inf
ROOT
ATOM      1  C   UNL A   1      32.112  28.175  27.220  1.00  0.00     0.042 C 
ENDROOT
BRANCH   1   2
ATOM      2  C   UNL A   1      31.913  27.118  26.143  1.00  0.00     0.118 C 
BRANCH   2   3
ATOM      3  N   UNL A   1      31.033  26.060  26.599  1.00  0.00    -0.351 N 
ATOM      4  C   UNL A   1      30.949  24.708  26.385  1.00  0.00     0.267 C 
ATOM      5  O   UNL A   1      29.983  24.124  26.871  1.00  0.00    -0.268 OA
ATOM      6  H   UNL A   1      30.331  26.389  27.206  1.00  0.00     0.163 HD
BRANCH   4   7
ATOM      7  C   UNL A   1      31.987  23.892  25.632  1.00  0.00     0.128 C 
ATOM      8  N   UNL A   1      33.097  22.176  25.039  1.00  0.00    -0.256 N 
ATOM      9  N   UNL A   1      31.996  22.594  25.709  1.00  0.00    -0.171 NA
ATOM     10  C   UNL A   1      33.865  23.245  24.405  1.00  0.00     0.154 C 
ATOM     11  C   UNL A   1      33.025  24.481  24.734  1.00  0.00     0.097 C 
BRANCH   8  12
ATOM     12  C   UNL A   1      33.318  20.831  24.787  1.00  0.00     0.060 A 
ATOM     13  C   UNL A   1      33.682  18.074  24.425  1.00  0.00     0.067 A 
ATOM     14  C   UNL A   1      34.782  18.884  24.717  1.00  0.00     0.022 A 
ATOM     15  C   UNL A   1      32.416  18.630  24.254  1.00  0.00     0.022 A 
ATOM     16  C   UNL A   1      34.594  20.261  24.891  1.00  0.00     0.029 A 
ATOM     17  C   UNL A   1      32.246  20.001  24.431  1.00  0.00     0.029 A 
BRANCH  13  18
ATOM     18  S   UNL A   1      33.887  16.322  24.219  1.00  0.00     0.175 S 
ATOM     19  C   UNL A   1      35.273  15.956  25.266  1.00  0.00     0.163 C 
ATOM     20  O   UNL A   1      34.280  16.078  22.847  1.00  0.00    -0.224 OA
ATOM     21  O   UNL A   1      32.720  15.674  24.790  1.00  0.00    -0.224 OA
ENDBRANCH  13  18
ENDBRANCH   8  12
BRANCH  10  22
ATOM     22  C   UNL A   1      35.334  23.359  24.805  1.00  0.00     0.030 A 
ATOM     23  C   UNL A   1      35.822  23.722  26.051  1.00  0.00     0.017 A 
ATOM     24  S   UNL A   1      36.634  23.108  23.706  1.00  0.00    -0.147 S 
ATOM     25  C   UNL A   1      37.244  23.771  26.098  1.00  0.00     0.012 A 
ATOM     26  C   UNL A   1      37.812  23.403  24.902  1.00  0.00     0.065 A 
ENDBRANCH  10  22
ENDBRANCH   4   7
ENDBRANCH   2   3
ENDBRANCH   1   2
BRANCH   1  27
ATOM     27  C   UNL A   1      33.542  28.693  27.262  1.00  0.00     0.118 C 
BRANCH  27  28
ATOM     28  N   UNL A   1      33.599  30.100  27.644  1.00  0.00    -0.352 N 
ATOM     29  C   UNL A   1      34.566  30.800  28.320  1.00  0.00     0.251 C 
ATOM     30  H   UNL A   1      32.817  30.633  27.374  1.00  0.00     0.163 HD
ATOM     31  O   UNL A   1      34.309  31.912  28.771  1.00  0.00    -0.269 OA
BRANCH  29  32
ATOM     32  C   UNL A   1      35.908  30.216  28.513  1.00  0.00     0.039 A 
ATOM     33  C   UNL A   1      36.823  30.251  27.458  1.00  0.00     0.014 A 
ATOM     34  C   UNL A   1      36.257  29.613  29.723  1.00  0.00     0.014 A 
ATOM     35  C   UNL A   1      38.110  29.745  27.644  1.00  0.00     0.010 A 
ATOM     36  C   UNL A   1      37.566  29.207  29.941  1.00  0.00     0.010 A 
ATOM     37  C   UNL A   1      38.503  29.257  28.900  1.00  0.00    -0.014 A 
BRANCH  37  38
ATOM     38  C   UNL A   1      39.887  28.785  29.148  1.00  0.00     0.031 A 
ATOM     39  C   UNL A   1      40.896  29.705  29.780  1.00  0.00     0.074 A 
ATOM     40  C   UNL A   1      40.252  27.554  28.740  1.00  0.00     0.049 A 
ATOM     41  N   UNL A   1      42.166  29.496  30.020  1.00  0.00    -0.248 NA
ATOM     42  C   UNL A   1      40.425  31.045  30.171  1.00  0.00     0.031 C 
ATOM     43  C   UNL A   1      39.377  26.584  28.078  1.00  0.00     0.029 A 
ATOM     44  N   UNL A   1      41.461  26.909  28.820  1.00  0.00    -0.354 N 
ATOM     45  C   UNL A   1      42.645  30.679  30.567  1.00  0.00     0.074 A 
ATOM     46  C   UNL A   1      41.548  31.620  30.572  1.00  0.00     0.031 C 
ATOM     47  C   UNL A   1      40.067  25.455  27.846  1.00  0.00     0.029 A 
ATOM     48  C   UNL A   1      41.443  25.640  28.296  1.00  0.00     0.049 A 
ATOM     49  H   UNL A   1      42.264  27.318  29.215  1.00  0.00     0.167 HD
ATOM     50  C   UNL A   1      43.883  30.953  31.041  1.00  0.00     0.031 A 
ATOM     51  C   UNL A   1      42.427  24.728  28.181  1.00  0.00     0.031 A 
ATOM     52  C   UNL A   1      44.971  30.013  31.042  1.00  0.00     0.049 A 
ATOM     53  C   UNL A   1      43.800  25.067  28.692  1.00  0.00     0.074 A 
ATOM     54  C   UNL A   1      46.247  30.172  31.553  1.00  0.00     0.029 A 
ATOM     55  N   UNL A   1      44.912  28.739  30.499  1.00  0.00    -0.354 N 
ATOM     56  N   UNL A   1      44.216  26.166  29.275  1.00  0.00    -0.248 NA
ATOM     57  C   UNL A   1      44.834  24.036  28.537  1.00  0.00     0.031 C 
ATOM     58  C   UNL A   1      46.980  29.018  31.262  1.00  0.00     0.029 A 
ATOM     59  C   UNL A   1      46.140  28.113  30.634  1.00  0.00     0.049 A 
ATOM     60  H   UNL A   1      44.117  28.339  30.080  1.00  0.00     0.167 HD
ATOM     61  C   UNL A   1      45.552  25.944  29.586  1.00  0.00     0.074 A 
ATOM     62  C   UNL A   1      45.868  24.602  29.143  1.00  0.00     0.031 C 
ATOM     63  C   UNL A   1      46.438  26.776  30.188  1.00  0.00     0.031 A 
BRANCH  50  64
ATOM     64  C   UNL A   1      44.129  32.333  31.589  1.00  0.00    -0.014 A 
ATOM     65  C   UNL A   1      43.930  32.628  32.947  1.00  0.00     0.009 A 
ATOM     66  C   UNL A   1      44.603  33.346  30.740  1.00  0.00     0.009 A 
ATOM     67  C   UNL A   1      44.163  33.915  33.436  1.00  0.00     0.001 A 
ATOM     68  C   UNL A   1      44.868  34.623  31.237  1.00  0.00     0.001 A 
ATOM     69  C   UNL A   1      44.637  34.909  32.582  1.00  0.00     0.000 A 
ENDBRANCH  50  64
BRANCH  51  70
ATOM     70  C   UNL A   1      42.152  23.401  27.568  1.00  0.00    -0.014 A 
ATOM     71  C   UNL A   1      42.471  23.158  26.223  1.00  0.00     0.009 A 
ATOM     72  C   UNL A   1      41.555  22.376  28.319  1.00  0.00     0.009 A 
ATOM     73  C   UNL A   1      42.168  21.929  25.634  1.00  0.00     0.001 A 
ATOM     74  C   UNL A   1      41.284  21.136  27.736  1.00  0.00     0.001 A 
ATOM     75  C   UNL A   1      41.579  20.918  26.391  1.00  0.00     0.000 A 
ENDBRANCH  51  70
BRANCH  63  76
ATOM     76  C   UNL A   1      47.821  26.244  30.439  1.00  0.00    -0.014 A 
ATOM     77  C   UNL A   1      48.208  25.772  31.703  1.00  0.00     0.009 A 
ATOM     78  C   UNL A   1      48.739  26.176  29.378  1.00  0.00     0.009 A 
ATOM     79  C   UNL A   1      49.498  25.280  31.909  1.00  0.00     0.001 A 
ATOM     80  C   UNL A   1      50.016  25.650  29.578  1.00  0.00     0.001 A 
ATOM     81  C   UNL A   1      50.398  25.214  30.844  1.00  0.00     0.000 A 
ENDBRANCH  63  76
ENDBRANCH  37  38
ENDBRANCH  29  32
ENDBRANCH  27  28
ENDBRANCH   1  27
TORSDOF 13
ENDMDL
MODEL 2
REMARK VINA RESULT:     -11.7      3.403      8.638
REMARK SMILES CS(=O)(=O)c1ccc(N2N=C(C(=O)NCCCNC(=O)c3ccc(-c4c5nc(c(-c6ccccc6)c6ccc([nH]6)c(-c6ccccc6)c6nc(c(-c7ccccc7)c7ccc4[nH]7)C=C6)C=C5)cc3)C[C@H]2c2cccs2)cc1
REMARK SMILES IDX 16 1 15 2 14 3 12 4 13 5 11 7 9 8 10 9 70 10 69 11 8 12 5 13
REMARK SMILES IDX 6 14 77 15 7 16 76 17 2 18 1 19 3 20 4 21 71 22 72 23 75 24
REMARK SMILES IDX 73 25 74 26 17 27 18 28 19 29 20 31 21 32 22 33 68 34 23 35
REMARK SMILES IDX 67 36 24 37 25 38 26 39 61 40 27 41 66 42 60 43 62 44 28 45
REMARK SMILES IDX 65 46 59 47 58 48 29 50 51 51 36 52 50 53 37 54 40 55 49 56
REMARK SMILES IDX 63 57 38 58 39 59 48 61 64 62 41 63 30 64 31 65 35 66 32 67
REMARK SMILES IDX 34 68 33 69 52 70 53 71 57 72 54 73 56 74 55 75 42 76 43 77
REMARK SMILES IDX 47 78 44 79 46 80 45 81
REMARK H PARENT 14 6 18 30 62 49 40 60
REMARK Flexibility Score: inf
ROOT
ATOM      1  C   UNL A   1      36.029  23.079  24.046  1.00  0.00     0.042 C 
ENDROOT
BRANCH   1   2
ATOM      2  C   UNL A   1      34.800  22.605  24.807  1.00  0.00     0.118 C 
BRANCH   2   3
ATOM      3  N   UNL A   1      33.729  22.236  23.901  1.00  0.00    -0.351 N 
ATOM      4  C   UNL A   1      32.482  22.732  23.620  1.00  0.00     0.267 C 
ATOM      5  O   UNL A   1      31.787  22.085  22.840  1.00  0.00    -0.268 OA
ATOM      6  H   UNL A   1      33.950  21.444  23.361  1.00  0.00     0.163 HD
BRANCH   4   7
ATOM      7  C   UNL A   1      31.933  24.038  24.171  1.00  0.00     0.128 C 
ATOM      8  N   UNL A   1      31.119  26.004  24.144  1.00  0.00    -0.256 N 
ATOM      9  N   UNL A   1      31.392  24.917  23.381  1.00  0.00    -0.171 NA
ATOM     10  C   UNL A   1      31.433  25.846  25.562  1.00  0.00     0.154 C 
ATOM     11  C   UNL A   1      31.925  24.397  25.621  1.00  0.00     0.097 C 
BRANCH   8  12
ATOM     12  C   UNL A   1      30.384  27.067  23.644  1.00  0.00     0.060 A 
ATOM     13  C   UNL A   1      28.934  29.306  22.779  1.00  0.00     0.067 A 
ATOM     14  C   UNL A   1      28.256  28.136  23.126  1.00  0.00     0.022 A 
ATOM     15  C   UNL A   1      30.326  29.354  22.802  1.00  0.00     0.022 A 
ATOM     16  C   UNL A   1      28.986  27.019  23.552  1.00  0.00     0.029 A 
ATOM     17  C   UNL A   1      31.037  28.235  23.228  1.00  0.00     0.029 A 
BRANCH  13  18
ATOM     18  S   UNL A   1      28.033  30.744  22.255  1.00  0.00     0.175 S 
ATOM     19  C   UNL A   1      29.218  32.051  22.446  1.00  0.00     0.163 C 
ATOM     20  O   UNL A   1      26.959  30.966  23.200  1.00  0.00    -0.224 OA
ATOM     21  O   UNL A   1      27.762  30.597  20.836  1.00  0.00    -0.224 OA
ENDBRANCH  13  18
ENDBRANCH   8  12
BRANCH  10  22
ATOM     22  C   UNL A   1      32.397  26.863  26.165  1.00  0.00     0.030 A 
ATOM     23  C   UNL A   1      33.756  26.964  25.904  1.00  0.00     0.017 A 
ATOM     24  S   UNL A   1      31.930  28.024  27.346  1.00  0.00    -0.147 S 
ATOM     25  C   UNL A   1      34.391  27.996  26.652  1.00  0.00     0.012 A 
ATOM     26  C   UNL A   1      33.497  28.688  27.434  1.00  0.00     0.065 A 
ENDBRANCH  10  22
ENDBRANCH   4   7
ENDBRANCH   2   3
ENDBRANCH   1   2
BRANCH   1  27
ATOM     27  C   UNL A   1      37.051  23.742  24.958  1.00  0.00     0.118 C 
BRANCH  27  28
ATOM     28  N   UNL A   1      38.058  22.796  25.425  1.00  0.00    -0.352 N 
ATOM     29  C   UNL A   1      39.222  23.005  26.121  1.00  0.00     0.251 C 
ATOM     30  H   UNL A   1      37.873  21.854  25.206  1.00  0.00     0.163 HD
ATOM     31  O   UNL A   1      40.059  22.110  26.190  1.00  0.00    -0.269 OA
BRANCH  29  32
ATOM     32  C   UNL A   1      39.471  24.303  26.777  1.00  0.00     0.039 A 
ATOM     33  C   UNL A   1      39.042  24.494  28.092  1.00  0.00     0.014 A 
ATOM     34  C   UNL A   1      40.108  25.339  26.090  1.00  0.00     0.014 A 
ATOM     35  C   UNL A   1      39.314  25.701  28.739  1.00  0.00     0.010 A 
ATOM     36  C   UNL A   1      40.471  26.496  26.766  1.00  0.00     0.010 A 
ATOM     37  C   UNL A   1      40.067  26.694  28.094  1.00  0.00    -0.014 A 
BRANCH  37  38
ATOM     38  C   UNL A   1      40.439  27.954  28.783  1.00  0.00     0.031 A 
ATOM     39  C   UNL A   1      41.800  28.099  29.408  1.00  0.00     0.074 A 
ATOM     40  C   UNL A   1      39.527  28.937  28.906  1.00  0.00     0.049 A 
ATOM     41  N   UNL A   1      42.285  29.095  30.104  1.00  0.00    -0.248 NA
ATOM     42  C   UNL A   1      42.729  26.966  29.253  1.00  0.00     0.031 C 
ATOM     43  C   UNL A   1      38.160  28.900  28.380  1.00  0.00     0.029 A 
ATOM     44  N   UNL A   1      39.612  30.162  29.520  1.00  0.00    -0.354 N 
ATOM     45  C   UNL A   1      43.561  28.701  30.486  1.00  0.00     0.074 A 
ATOM     46  C   UNL A   1      43.756  27.355  29.994  1.00  0.00     0.031 C 
ATOM     47  C   UNL A   1      37.549  30.062  28.659  1.00  0.00     0.029 A 
ATOM     48  C   UNL A   1      38.460  30.904  29.427  1.00  0.00     0.049 A 
ATOM     49  H   UNL A   1      40.422  30.478  29.980  1.00  0.00     0.167 HD
ATOM     50  C   UNL A   1      44.497  29.403  31.167  1.00  0.00     0.031 A 
ATOM     51  C   UNL A   1      38.166  32.124  29.915  1.00  0.00     0.031 A 
ATOM     52  C   UNL A   1      44.304  30.744  31.648  1.00  0.00     0.049 A 
ATOM     53  C   UNL A   1      39.214  32.872  30.691  1.00  0.00     0.074 A 
ATOM     54  C   UNL A   1      45.210  31.565  32.298  1.00  0.00     0.029 A 
ATOM     55  N   UNL A   1      43.122  31.459  31.538  1.00  0.00    -0.354 N 
ATOM     56  N   UNL A   1      40.443  32.514  30.978  1.00  0.00    -0.248 NA
ATOM     57  C   UNL A   1      38.837  34.197  31.202  1.00  0.00     0.031 C 
ATOM     58  C   UNL A   1      44.555  32.752  32.637  1.00  0.00     0.029 A 
ATOM     59  C   UNL A   1      43.265  32.700  32.135  1.00  0.00     0.049 A 
ATOM     60  H   UNL A   1      42.303  31.134  31.099  1.00  0.00     0.167 HD
ATOM     61  C   UNL A   1      40.995  33.583  31.674  1.00  0.00     0.074 A 
ATOM     62  C   UNL A   1      39.973  34.606  31.748  1.00  0.00     0.031 C 
ATOM     63  C   UNL A   1      42.238  33.707  32.201  1.00  0.00     0.031 A 
BRANCH  50  64
ATOM     64  C   UNL A   1      45.812  28.725  31.443  1.00  0.00    -0.014 A 
ATOM     65  C   UNL A   1      46.878  28.796  30.532  1.00  0.00     0.009 A 
ATOM     66  C   UNL A   1      46.001  28.035  32.651  1.00  0.00     0.009 A 
ATOM     67  C   UNL A   1      48.090  28.160  30.806  1.00  0.00     0.001 A 
ATOM     68  C   UNL A   1      47.224  27.428  32.939  1.00  0.00     0.001 A 
ATOM     69  C   UNL A   1      48.264  27.482  32.011  1.00  0.00     0.000 A 
ENDBRANCH  50  64
BRANCH  51  70
ATOM     70  C   UNL A   1      36.827  32.725  29.675  1.00  0.00    -0.014 A 
ATOM     71  C   UNL A   1      35.798  32.569  30.617  1.00  0.00     0.009 A 
ATOM     72  C   UNL A   1      36.565  33.444  28.498  1.00  0.00     0.009 A 
ATOM     73  C   UNL A   1      34.526  33.091  30.370  1.00  0.00     0.001 A 
ATOM     74  C   UNL A   1      35.301  33.994  28.270  1.00  0.00     0.001 A 
ATOM     75  C   UNL A   1      34.280  33.806  29.199  1.00  0.00     0.000 A 
ENDBRANCH  51  70
BRANCH  63  76
ATOM     76  C   UNL A   1      42.575  35.012  32.869  1.00  0.00    -0.014 A 
ATOM     77  C   UNL A   1      42.158  35.296  34.178  1.00  0.00     0.009 A 
ATOM     78  C   UNL A   1      43.360  35.955  32.185  1.00  0.00     0.009 A 
ATOM     79  C   UNL A   1      42.488  36.514  34.775  1.00  0.00     0.001 A 
ATOM     80  C   UNL A   1      43.718  37.156  32.797  1.00  0.00     0.001 A 
ATOM     81  C   UNL A   1      43.273  37.440  34.086  1.00  0.00     0.000 A 
ENDBRANCH  63  76
ENDBRANCH  37  38
ENDBRANCH  29  32
ENDBRANCH  27  28
ENDBRANCH   1  27
TORSDOF 13
ENDMDL
MODEL 3
REMARK VINA RESULT:     -11.5      3.533      8.739
REMARK SMILES CS(=O)(=O)c1ccc(N2N=C(C(=O)NCCCNC(=O)c3ccc(-c4c5nc(c(-c6ccccc6)c6ccc([nH]6)c(-c6ccccc6)c6nc(c(-c7ccccc7)c7ccc4[nH]7)C=C6)C=C5)cc3)C[C@H]2c2cccs2)cc1
REMARK SMILES IDX 16 1 15 2 14 3 12 4 13 5 11 7 9 8 10 9 70 10 69 11 8 12 5 13
REMARK SMILES IDX 6 14 77 15 7 16 76 17 2 18 1 19 3 20 4 21 71 22 72 23 75 24
REMARK SMILES IDX 73 25 74 26 17 27 18 28 19 29 20 31 21 32 22 33 68 34 23 35
REMARK SMILES IDX 67 36 24 37 25 38 26 39 61 40 27 41 66 42 60 43 62 44 28 45
REMARK SMILES IDX 65 46 59 47 58 48 29 50 51 51 36 52 50 53 37 54 40 55 49 56
REMARK SMILES IDX 63 57 38 58 39 59 48 61 64 62 41 63 30 64 31 65 35 66 32 67
REMARK SMILES IDX 34 68 33 69 52 70 53 71 57 72 54 73 56 74 55 75 42 76 43 77
REMARK SMILES IDX 47 78 44 79 46 80 45 81
REMARK H PARENT 14 6 18 30 62 49 40 60
REMARK Flexibility Score: inf
ROOT
ATOM      1  C   UNL A   1      36.664  23.222  24.203  1.00  0.00     0.042 C 
ENDROOT
BRANCH   1   2
ATOM      2  C   UNL A   1      35.144  23.187  24.264  1.00  0.00     0.118 C 
BRANCH   2   3
ATOM      3  N   UNL A   1      34.563  23.230  22.935  1.00  0.00    -0.351 N 
ATOM      4  C   UNL A   1      33.455  23.818  22.381  1.00  0.00     0.267 C 
ATOM      5  O   UNL A   1      33.210  23.551  21.206  1.00  0.00    -0.268 OA
ATOM      6  H   UNL A   1      35.087  22.720  22.278  1.00  0.00     0.163 HD
BRANCH   4   7
ATOM      7  C   UNL A   1      32.549  24.800  23.106  1.00  0.00     0.128 C 
ATOM      8  N   UNL A   1      31.363  26.542  23.401  1.00  0.00    -0.256 N 
ATOM      9  N   UNL A   1      31.999  25.791  22.469  1.00  0.00    -0.171 NA
ATOM     10  C   UNL A   1      31.423  26.005  24.758  1.00  0.00     0.154 C 
ATOM     11  C   UNL A   1      32.187  24.694  24.550  1.00  0.00     0.097 C 
BRANCH   8  12
ATOM     12  C   UNL A   1      30.533  27.590  23.036  1.00  0.00     0.060 A 
ATOM     13  C   UNL A   1      28.932  29.807  22.420  1.00  0.00     0.067 A 
ATOM     14  C   UNL A   1      28.361  28.695  23.043  1.00  0.00     0.022 A 
ATOM     15  C   UNL A   1      30.273  29.803  22.048  1.00  0.00     0.022 A 
ATOM     16  C   UNL A   1      29.165  27.589  23.343  1.00  0.00     0.029 A 
ATOM     17  C   UNL A   1      31.060  28.695  22.354  1.00  0.00     0.029 A 
BRANCH  13  18
ATOM     18  S   UNL A   1      27.940  31.232  22.046  1.00  0.00     0.175 S 
ATOM     19  C   UNL A   1      29.076  32.579  22.262  1.00  0.00     0.163 C 
ATOM     20  O   UNL A   1      26.913  31.340  23.061  1.00  0.00    -0.224 OA
ATOM     21  O   UNL A   1      27.595  31.168  20.636  1.00  0.00    -0.224 OA
ENDBRANCH  13  18
ENDBRANCH   8  12
BRANCH  10  22
ATOM     22  C   UNL A   1      32.019  26.917  25.827  1.00  0.00     0.030 A 
ATOM     23  C   UNL A   1      31.320  27.592  26.817  1.00  0.00     0.017 A 
ATOM     24  S   UNL A   1      33.695  27.300  25.915  1.00  0.00    -0.147 S 
ATOM     25  C   UNL A   1      32.158  28.394  27.642  1.00  0.00     0.012 A 
ATOM     26  C   UNL A   1      33.483  28.280  27.293  1.00  0.00     0.065 A 
ENDBRANCH  10  22
ENDBRANCH   4   7
ENDBRANCH   2   3
ENDBRANCH   1   2
BRANCH   1  27
ATOM     27  C   UNL A   1      37.291  23.398  25.578  1.00  0.00     0.118 C 
BRANCH  27  28
ATOM     28  N   UNL A   1      38.507  22.605  25.727  1.00  0.00    -0.352 N 
ATOM     29  C   UNL A   1      39.755  22.963  26.168  1.00  0.00     0.251 C 
ATOM     30  H   UNL A   1      38.416  21.659  25.469  1.00  0.00     0.163 HD
ATOM     31  O   UNL A   1      40.708  22.215  25.972  1.00  0.00    -0.269 OA
BRANCH  29  32
ATOM     32  C   UNL A   1      39.955  24.247  26.869  1.00  0.00     0.039 A 
ATOM     33  C   UNL A   1      39.383  24.430  28.130  1.00  0.00     0.014 A 
ATOM     34  C   UNL A   1      40.686  25.278  26.275  1.00  0.00     0.014 A 
ATOM     35  C   UNL A   1      39.604  25.621  28.822  1.00  0.00     0.010 A 
ATOM     36  C   UNL A   1      40.994  26.417  27.006  1.00  0.00     0.010 A 
ATOM     37  C   UNL A   1      40.446  26.607  28.282  1.00  0.00    -0.014 A 
BRANCH  37  38
ATOM     38  C   UNL A   1      40.762  27.848  29.029  1.00  0.00     0.031 A 
ATOM     39  C   UNL A   1      39.743  28.950  29.127  1.00  0.00     0.074 A 
ATOM     40  C   UNL A   1      41.991  28.010  29.556  1.00  0.00     0.049 A 
ATOM     41  N   UNL A   1      39.857  30.131  29.682  1.00  0.00    -0.248 NA
ATOM     42  C   UNL A   1      38.434  28.707  28.498  1.00  0.00     0.031 C 
ATOM     43  C   UNL A   1      43.079  27.031  29.493  1.00  0.00     0.029 A 
ATOM     44  N   UNL A   1      42.533  29.063  30.250  1.00  0.00    -0.354 N 
ATOM     45  C   UNL A   1      38.647  30.773  29.450  1.00  0.00     0.074 A 
ATOM     46  C   UNL A   1      37.835  29.877  28.658  1.00  0.00     0.031 C 
ATOM     47  C   UNL A   1      44.145  27.514  30.153  1.00  0.00     0.029 A 
ATOM     48  C   UNL A   1      43.833  28.853  30.641  1.00  0.00     0.049 A 
ATOM     49  H   UNL A   1      42.037  29.889  30.449  1.00  0.00     0.167 HD
ATOM     50  C   UNL A   1      38.240  31.992  29.875  1.00  0.00     0.031 A 
ATOM     51  C   UNL A   1      44.684  29.654  31.310  1.00  0.00     0.031 A 
ATOM     52  C   UNL A   1      39.046  32.878  30.670  1.00  0.00     0.049 A 
ATOM     53  C   UNL A   1      44.215  31.014  31.748  1.00  0.00     0.074 A 
ATOM     54  C   UNL A   1      38.705  34.109  31.202  1.00  0.00     0.029 A 
ATOM     55  N   UNL A   1      40.358  32.630  31.042  1.00  0.00    -0.354 N 
ATOM     56  N   UNL A   1      43.041  31.575  31.585  1.00  0.00    -0.248 NA
ATOM     57  C   UNL A   1      45.186  31.845  32.472  1.00  0.00     0.031 C 
ATOM     58  C   UNL A   1      39.832  34.634  31.841  1.00  0.00     0.029 A 
ATOM     59  C   UNL A   1      40.852  33.699  31.769  1.00  0.00     0.049 A 
ATOM     60  H   UNL A   1      40.864  31.815  30.821  1.00  0.00     0.167 HD
ATOM     61  C   UNL A   1      43.124  32.811  32.215  1.00  0.00     0.074 A 
ATOM     62  C   UNL A   1      44.455  32.907  32.776  1.00  0.00     0.031 C 
ATOM     63  C   UNL A   1      42.180  33.779  32.321  1.00  0.00     0.031 A 
BRANCH  50  64
ATOM     64  C   UNL A   1      36.860  32.443  29.477  1.00  0.00    -0.014 A 
ATOM     65  C   UNL A   1      36.631  33.120  28.268  1.00  0.00     0.009 A 
ATOM     66  C   UNL A   1      35.765  32.154  30.308  1.00  0.00     0.009 A 
ATOM     67  C   UNL A   1      35.344  33.530  27.917  1.00  0.00     0.001 A 
ATOM     68  C   UNL A   1      34.474  32.536  29.939  1.00  0.00     0.001 A 
ATOM     69  C   UNL A   1      34.266  33.233  28.749  1.00  0.00     0.000 A 
ENDBRANCH  50  64
BRANCH  51  70
ATOM     70  C   UNL A   1      46.062  29.190  31.620  1.00  0.00    -0.014 A 
ATOM     71  C   UNL A   1      46.366  28.653  32.881  1.00  0.00     0.009 A 
ATOM     72  C   UNL A   1      47.085  29.295  30.665  1.00  0.00     0.009 A 
ATOM     73  C   UNL A   1      47.671  28.263  33.190  1.00  0.00     0.001 A 
ATOM     74  C   UNL A   1      48.382  28.872  30.965  1.00  0.00     0.001 A 
ATOM     75  C   UNL A   1      48.676  28.369  32.230  1.00  0.00     0.000 A 
ENDBRANCH  51  70
BRANCH  63  76
ATOM     76  C   UNL A   1      42.541  35.008  33.108  1.00  0.00    -0.014 A 
ATOM     77  C   UNL A   1      43.189  36.099  32.510  1.00  0.00     0.009 A 
ATOM     78  C   UNL A   1      42.186  35.089  34.465  1.00  0.00     0.009 A 
ATOM     79  C   UNL A   1      43.510  37.230  33.264  1.00  0.00     0.001 A 
ATOM     80  C   UNL A   1      42.475  36.234  35.207  1.00  0.00     0.001 A 
ATOM     81  C   UNL A   1      43.147  37.298  34.610  1.00  0.00     0.000 A 
ENDBRANCH  63  76
ENDBRANCH  37  38
ENDBRANCH  29  32
ENDBRANCH  27  28
ENDBRANCH   1  27
TORSDOF 13
ENDMDL
