MODEL 1
REMARK VINA RESULT:     -11.1      0.000      0.000
REMARK SMILES CCC1(CC)CCN(C(=O)NC(CC)(CC)C(=O)NCCCNC(=O)c2ccc(-c3c4nc(c(-c5ccccc5)c5ccc([nH]5)c(-c5ccccc5)c5nc(c(-c6ccccc6)c6ccc3[nH]6)C=C5)C=C4)cc2)CC1
REMARK SMILES IDX 21 1 20 2 19 3 17 4 18 5 12 7 11 8 3 9 6 10 75 11 7 12 74 13
REMARK SMILES IDX 8 14 9 15 10 16 2 18 1 19 4 20 5 21 13 22 14 23 15 24 16 25
REMARK SMILES IDX 22 26 23 27 24 28 25 30 26 31 27 32 73 33 28 34 72 35 29 36
REMARK SMILES IDX 30 37 31 38 66 39 32 40 71 41 65 42 67 43 33 44 70 45 64 46
REMARK SMILES IDX 63 47 34 49 56 50 41 51 55 52 42 53 45 54 54 55 68 56 43 57
REMARK SMILES IDX 44 58 53 60 69 61 46 62 35 63 36 64 40 65 37 66 39 67 38 68
REMARK SMILES IDX 57 69 58 70 62 71 59 72 61 73 60 74 47 75 48 76 52 77 49 78
REMARK SMILES IDX 51 79 50 80
REMARK H PARENT 19 6 11 17 23 29 67 48 45 59
REMARK Flexibility Score: inf
ROOT
ATOM      1  C   UNL A   1      37.790  19.881  24.908  1.00  0.00     0.042 C 
ENDROOT
BRANCH   1   2
ATOM      2  C   UNL A   1      36.603  20.841  24.884  1.00  0.00     0.117 C 
BRANCH   2   3
ATOM      3  N   UNL A   1      35.357  20.202  25.263  1.00  0.00    -0.354 N 
ATOM      4  C   UNL A   1      34.306  20.981  25.698  1.00  0.00     0.245 C 
ATOM      5  O   UNL A   1      34.335  21.383  26.859  1.00  0.00    -0.272 OA
ATOM      6  H   UNL A   1      35.262  19.223  25.210  1.00  0.00     0.163 HD
BRANCH   4   7
ATOM      7  C   UNL A   1      33.161  21.288  24.678  1.00  0.00     0.120 C 
BRANCH   7   8
ATOM      8  N   UNL A   1      31.926  21.965  25.201  1.00  0.00    -0.323 N 
ATOM      9  C   UNL A   1      32.947  26.712  25.181  1.00  0.00    -0.027 C 
ATOM     10  C   UNL A   1      31.489  26.388  25.653  1.00  0.00     0.028 C 
ATOM     11  C   UNL A   1      33.683  25.351  24.969  1.00  0.00     0.028 C 
ATOM     12  C   UNL A   1      31.367  25.275  26.714  1.00  0.00     0.122 C 
ATOM     13  C   UNL A   1      33.522  24.386  26.146  1.00  0.00     0.122 C 
ATOM     14  N   UNL A   1      32.125  24.087  26.307  1.00  0.00    -0.325 N 
ATOM     15  C   UNL A   1      31.450  22.960  25.960  1.00  0.00     0.318 C 
ATOM     16  O   UNL A   1      30.257  22.817  26.261  1.00  0.00    -0.249 OA
ATOM     17  H   UNL A   1      31.150  21.478  24.837  1.00  0.00     0.166 HD
BRANCH   9  18
ATOM     18  C   UNL A   1      33.723  27.518  26.279  1.00  0.00     0.004 C 
ATOM     19  C   UNL A   1      32.969  28.578  27.074  1.00  0.00     0.004 C 
ENDBRANCH   9  18
BRANCH   9  20
ATOM     20  C   UNL A   1      32.891  27.396  23.774  1.00  0.00     0.004 C 
ATOM     21  C   UNL A   1      34.059  28.288  23.375  1.00  0.00     0.004 C 
ENDBRANCH   9  20
ENDBRANCH   7   8
BRANCH   7  22
ATOM     22  C   UNL A   1      32.735  20.004  23.886  1.00  0.00     0.035 C 
ATOM     23  C   UNL A   1      32.420  18.758  24.712  1.00  0.00     0.007 C 
ENDBRANCH   7  22
BRANCH   7  24
ATOM     24  C   UNL A   1      33.842  22.344  23.722  1.00  0.00     0.035 C 
ATOM     25  C   UNL A   1      33.010  22.778  22.507  1.00  0.00     0.007 C 
ENDBRANCH   7  24
ENDBRANCH   4   7
ENDBRANCH   2   3
ENDBRANCH   1   2
BRANCH   1  26
ATOM     26  C   UNL A   1      38.964  20.391  25.739  1.00  0.00     0.118 C 
BRANCH  26  27
ATOM     27  N   UNL A   1      40.017  19.392  25.865  1.00  0.00    -0.352 N 
ATOM     28  C   UNL A   1      41.353  19.566  26.132  1.00  0.00     0.251 C 
ATOM     29  H   UNL A   1      39.730  18.459  25.740  1.00  0.00     0.163 HD
ATOM     30  O   UNL A   1      42.144  18.651  25.944  1.00  0.00    -0.269 OA
BRANCH  28  31
ATOM     31  C   UNL A   1      41.830  20.874  26.625  1.00  0.00     0.039 A 
ATOM     32  C   UNL A   1      42.324  21.805  25.710  1.00  0.00     0.014 A 
ATOM     33  C   UNL A   1      41.782  21.178  27.987  1.00  0.00     0.014 A 
ATOM     34  C   UNL A   1      42.694  23.076  26.155  1.00  0.00     0.010 A 
ATOM     35  C   UNL A   1      42.070  22.468  28.417  1.00  0.00     0.010 A 
ATOM     36  C   UNL A   1      42.527  23.431  27.504  1.00  0.00    -0.014 A 
BRANCH  36  37
ATOM     37  C   UNL A   1      42.804  24.807  27.984  1.00  0.00     0.031 A 
ATOM     38  C   UNL A   1      44.200  25.208  28.370  1.00  0.00     0.074 A 
ATOM     39  C   UNL A   1      41.784  25.671  28.147  1.00  0.00     0.049 A 
ATOM     40  N   UNL A   1      44.625  26.336  28.880  1.00  0.00    -0.248 NA
ATOM     41  C   UNL A   1      45.256  24.199  28.180  1.00  0.00     0.031 C 
ATOM     42  C   UNL A   1      40.380  25.396  27.836  1.00  0.00     0.029 A 
ATOM     43  N   UNL A   1      41.772  26.958  28.622  1.00  0.00    -0.354 N 
ATOM     44  C   UNL A   1      45.988  26.167  29.086  1.00  0.00     0.074 A 
ATOM     45  C   UNL A   1      46.310  24.812  28.696  1.00  0.00     0.031 C 
ATOM     46  C   UNL A   1      39.649  26.491  28.097  1.00  0.00     0.029 A 
ATOM     47  C   UNL A   1      40.521  27.527  28.641  1.00  0.00     0.049 A 
ATOM     48  H   UNL A   1      42.583  27.431  28.921  1.00  0.00     0.167 HD
ATOM     49  C   UNL A   1      46.894  27.063  29.545  1.00  0.00     0.031 A 
ATOM     50  C   UNL A   1      40.119  28.740  29.061  1.00  0.00     0.031 A 
ATOM     51  C   UNL A   1      46.570  28.410  29.937  1.00  0.00     0.049 A 
ATOM     52  C   UNL A   1      41.136  29.698  29.617  1.00  0.00     0.074 A 
ATOM     53  C   UNL A   1      47.424  29.411  30.365  1.00  0.00     0.029 A 
ATOM     54  N   UNL A   1      45.289  28.938  29.963  1.00  0.00    -0.354 N 
ATOM     55  N   UNL A   1      42.433  29.549  29.739  1.00  0.00    -0.248 NA
ATOM     56  C   UNL A   1      40.630  30.994  30.091  1.00  0.00     0.031 C 
ATOM     57  C   UNL A   1      46.651  30.526  30.709  1.00  0.00     0.029 A 
ATOM     58  C   UNL A   1      45.324  30.240  30.434  1.00  0.00     0.049 A 
ATOM     59  H   UNL A   1      44.474  28.458  29.687  1.00  0.00     0.167 HD
ATOM     60  C   UNL A   1      42.902  30.741  30.274  1.00  0.00     0.074 A 
ATOM     61  C   UNL A   1      41.752  31.608  30.440  1.00  0.00     0.031 C 
ATOM     62  C   UNL A   1      44.172  31.090  30.596  1.00  0.00     0.031 A 
BRANCH  49  63
ATOM     63  C   UNL A   1      48.322  26.603  29.663  1.00  0.00    -0.014 A 
ATOM     64  C   UNL A   1      48.787  25.955  30.819  1.00  0.00     0.009 A 
ATOM     65  C   UNL A   1      49.210  26.804  28.596  1.00  0.00     0.009 A 
ATOM     66  C   UNL A   1      50.123  25.562  30.923  1.00  0.00     0.001 A 
ATOM     67  C   UNL A   1      50.537  26.380  28.688  1.00  0.00     0.001 A 
ATOM     68  C   UNL A   1      50.996  25.772  29.856  1.00  0.00     0.000 A 
ENDBRANCH  49  63
BRANCH  50  69
ATOM     69  C   UNL A   1      38.688  29.129  28.958  1.00  0.00    -0.014 A 
ATOM     70  C   UNL A   1      38.171  29.604  27.744  1.00  0.00     0.009 A 
ATOM     71  C   UNL A   1      37.834  29.033  30.067  1.00  0.00     0.009 A 
ATOM     72  C   UNL A   1      36.835  29.999  27.649  1.00  0.00     0.001 A 
ATOM     73  C   UNL A   1      36.491  29.400  29.961  1.00  0.00     0.001 A 
ATOM     74  C   UNL A   1      35.994  29.892  28.756  1.00  0.00     0.000 A 
ENDBRANCH  50  69
BRANCH  62  75
ATOM     75  C   UNL A   1      44.392  32.479  31.126  1.00  0.00    -0.014 A 
ATOM     76  C   UNL A   1      44.381  32.747  32.503  1.00  0.00     0.009 A 
ATOM     77  C   UNL A   1      44.662  33.527  30.231  1.00  0.00     0.009 A 
ATOM     78  C   UNL A   1      44.605  34.043  32.972  1.00  0.00     0.001 A 
ATOM     79  C   UNL A   1      44.917  34.815  30.704  1.00  0.00     0.001 A 
ATOM     80  C   UNL A   1      44.880  35.073  32.073  1.00  0.00     0.000 A 
ENDBRANCH  62  75
ENDBRANCH  36  37
ENDBRANCH  28  31
ENDBRANCH  26  27
ENDBRANCH   1  26
TORSDOF 15
ENDMDL
MODEL 2
REMARK VINA RESULT:     -11.0      0.719      5.966
REMARK SMILES CCC1(CC)CCN(C(=O)NC(CC)(CC)C(=O)NCCCNC(=O)c2ccc(-c3c4nc(c(-c5ccccc5)c5ccc([nH]5)c(-c5ccccc5)c5nc(c(-c6ccccc6)c6ccc3[nH]6)C=C5)C=C4)cc2)CC1
REMARK SMILES IDX 21 1 20 2 19 3 17 4 18 5 12 7 11 8 3 9 6 10 75 11 7 12 74 13
REMARK SMILES IDX 8 14 9 15 10 16 2 18 1 19 4 20 5 21 13 22 14 23 15 24 16 25
REMARK SMILES IDX 22 26 23 27 24 28 25 30 26 31 27 32 73 33 28 34 72 35 29 36
REMARK SMILES IDX 30 37 31 38 66 39 32 40 71 41 65 42 67 43 33 44 70 45 64 46
REMARK SMILES IDX 63 47 34 49 56 50 41 51 55 52 42 53 45 54 54 55 68 56 43 57
REMARK SMILES IDX 44 58 53 60 69 61 46 62 35 63 36 64 40 65 37 66 39 67 38 68
REMARK SMILES IDX 57 69 58 70 62 71 59 72 61 73 60 74 47 75 48 76 52 77 49 78
REMARK SMILES IDX 51 79 50 80
REMARK H PARENT 19 6 11 17 23 29 67 48 45 59
REMARK Flexibility Score: inf
ROOT
ATOM      1  C   UNL A   1      37.862  20.112  24.953  1.00  0.00     0.042 C 
ENDROOT
BRANCH   1   2
ATOM      2  C   UNL A   1      36.678  21.065  25.093  1.00  0.00     0.117 C 
BRANCH   2   3
ATOM      3  N   UNL A   1      35.431  20.375  25.365  1.00  0.00    -0.354 N 
ATOM      4  C   UNL A   1      34.328  21.106  25.755  1.00  0.00     0.245 C 
ATOM      5  O   UNL A   1      34.267  21.465  26.928  1.00  0.00    -0.272 OA
ATOM      6  H   UNL A   1      35.371  19.397  25.271  1.00  0.00     0.163 HD
BRANCH   4   7
ATOM      7  C   UNL A   1      33.245  21.416  24.671  1.00  0.00     0.120 C 
BRANCH   7   8
ATOM      8  N   UNL A   1      32.028  22.184  25.104  1.00  0.00    -0.323 N 
ATOM      9  C   UNL A   1      33.359  26.854  25.046  1.00  0.00    -0.027 C 
ATOM     10  C   UNL A   1      31.857  26.636  25.435  1.00  0.00     0.028 C 
ATOM     11  C   UNL A   1      34.015  25.443  24.908  1.00  0.00     0.028 C 
ATOM     12  C   UNL A   1      31.600  25.561  26.510  1.00  0.00     0.122 C 
ATOM     13  C   UNL A   1      33.721  24.520  26.093  1.00  0.00     0.122 C 
ATOM     14  N   UNL A   1      32.301  24.316  26.176  1.00  0.00    -0.325 N 
ATOM     15  C   UNL A   1      31.574  23.227  25.811  1.00  0.00     0.318 C 
ATOM     16  O   UNL A   1      30.359  23.169  26.043  1.00  0.00    -0.249 OA
ATOM     17  H   UNL A   1      31.245  21.740  24.704  1.00  0.00     0.166 HD
BRANCH   9  18
ATOM     18  C   UNL A   1      34.120  27.635  26.172  1.00  0.00     0.004 C 
ATOM     19  C   UNL A   1      33.481  28.896  26.743  1.00  0.00     0.004 C 
ENDBRANCH   9  18
BRANCH   9  20
ATOM     20  C   UNL A   1      33.432  27.504  23.624  1.00  0.00     0.004 C 
ATOM     21  C   UNL A   1      32.443  27.018  22.574  1.00  0.00     0.004 C 
ENDBRANCH   9  20
ENDBRANCH   7   8
BRANCH   7  22
ATOM     22  C   UNL A   1      32.782  20.115  23.930  1.00  0.00     0.035 C 
ATOM     23  C   UNL A   1      32.439  18.909  24.803  1.00  0.00     0.007 C 
ENDBRANCH   7  22
BRANCH   7  24
ATOM     24  C   UNL A   1      34.021  22.381  23.692  1.00  0.00     0.035 C 
ATOM     25  C   UNL A   1      33.225  22.881  22.478  1.00  0.00     0.007 C 
ENDBRANCH   7  24
ENDBRANCH   4   7
ENDBRANCH   2   3
ENDBRANCH   1   2
BRANCH   1  26
ATOM     26  C   UNL A   1      39.090  20.551  25.746  1.00  0.00     0.118 C 
BRANCH  26  27
ATOM     27  N   UNL A   1      40.072  19.481  25.866  1.00  0.00    -0.352 N 
ATOM     28  C   UNL A   1      41.421  19.562  26.110  1.00  0.00     0.251 C 
ATOM     29  H   UNL A   1      39.718  18.569  25.754  1.00  0.00     0.163 HD
ATOM     30  O   UNL A   1      42.143  18.592  25.919  1.00  0.00    -0.269 OA
BRANCH  28  31
ATOM     31  C   UNL A   1      41.997  20.837  26.583  1.00  0.00     0.039 A 
ATOM     32  C   UNL A   1      42.428  21.776  25.645  1.00  0.00     0.014 A 
ATOM     33  C   UNL A   1      42.102  21.104  27.949  1.00  0.00     0.014 A 
ATOM     34  C   UNL A   1      42.892  23.019  26.080  1.00  0.00     0.010 A 
ATOM     35  C   UNL A   1      42.482  22.369  28.378  1.00  0.00     0.010 A 
ATOM     36  C   UNL A   1      42.880  23.341  27.447  1.00  0.00    -0.014 A 
BRANCH  36  37
ATOM     37  C   UNL A   1      43.258  24.692  27.929  1.00  0.00     0.031 A 
ATOM     38  C   UNL A   1      42.200  25.728  28.187  1.00  0.00     0.074 A 
ATOM     39  C   UNL A   1      44.560  25.010  28.059  1.00  0.00     0.049 A 
ATOM     40  N   UNL A   1      42.339  26.981  28.538  1.00  0.00    -0.248 NA
ATOM     41  C   UNL A   1      40.801  25.306  28.004  1.00  0.00     0.031 C 
ATOM     42  C   UNL A   1      45.685  24.104  27.813  1.00  0.00     0.029 A 
ATOM     43  N   UNL A   1      45.159  26.189  28.425  1.00  0.00    -0.354 N 
ATOM     44  C   UNL A   1      41.052  27.499  28.601  1.00  0.00     0.074 A 
ATOM     45  C   UNL A   1      40.149  26.442  28.202  1.00  0.00     0.031 C 
ATOM     46  C   UNL A   1      46.833  24.751  28.067  1.00  0.00     0.029 A 
ATOM     47  C   UNL A   1      46.531  26.128  28.443  1.00  0.00     0.049 A 
ATOM     48  H   UNL A   1      44.653  27.003  28.655  1.00  0.00     0.167 HD
ATOM     49  C   UNL A   1      40.654  28.740  28.971  1.00  0.00     0.031 A 
ATOM     50  C   UNL A   1      47.445  27.078  28.719  1.00  0.00     0.031 A 
ATOM     51  C   UNL A   1      41.554  29.793  29.363  1.00  0.00     0.049 A 
ATOM     52  C   UNL A   1      46.979  28.461  29.074  1.00  0.00     0.074 A 
ATOM     53  C   UNL A   1      41.247  31.068  29.806  1.00  0.00     0.029 A 
ATOM     54  N   UNL A   1      42.937  29.697  29.344  1.00  0.00    -0.354 N 
ATOM     55  N   UNL A   1      45.757  28.917  29.199  1.00  0.00    -0.248 NA
ATOM     56  C   UNL A   1      48.025  29.463  29.331  1.00  0.00     0.031 C 
ATOM     57  C   UNL A   1      42.446  31.763  29.996  1.00  0.00     0.029 A 
ATOM     58  C   UNL A   1      43.499  30.901  29.734  1.00  0.00     0.049 A 
ATOM     59  H   UNL A   1      43.443  28.891  29.092  1.00  0.00     0.167 HD
ATOM     60  C   UNL A   1      45.885  30.247  29.577  1.00  0.00     0.074 A 
ATOM     61  C   UNL A   1      47.304  30.521  29.675  1.00  0.00     0.031 C 
ATOM     62  C   UNL A   1      44.913  31.160  29.825  1.00  0.00     0.031 A 
BRANCH  49  63
ATOM     63  C   UNL A   1      39.177  29.027  28.949  1.00  0.00    -0.014 A 
ATOM     64  C   UNL A   1      38.537  29.476  27.783  1.00  0.00     0.009 A 
ATOM     65  C   UNL A   1      38.411  28.828  30.108  1.00  0.00     0.009 A 
ATOM     66  C   UNL A   1      37.170  29.766  27.791  1.00  0.00     0.001 A 
ATOM     67  C   UNL A   1      37.038  29.086  30.105  1.00  0.00     0.001 A 
ATOM     68  C   UNL A   1      36.423  29.567  28.950  1.00  0.00     0.000 A 
ENDBRANCH  49  63
BRANCH  50  69
ATOM     69  C   UNL A   1      48.895  26.749  28.686  1.00  0.00    -0.014 A 
ATOM     70  C   UNL A   1      49.619  26.872  27.491  1.00  0.00     0.009 A 
ATOM     71  C   UNL A   1      49.559  26.307  29.840  1.00  0.00     0.009 A 
ATOM     72  C   UNL A   1      50.974  26.536  27.447  1.00  0.00     0.001 A 
ATOM     73  C   UNL A   1      50.921  26.000  29.800  1.00  0.00     0.001 A 
ATOM     74  C   UNL A   1      51.625  26.106  28.603  1.00  0.00     0.000 A 
ENDBRANCH  50  69
BRANCH  62  75
ATOM     75  C   UNL A   1      45.350  32.530  30.262  1.00  0.00    -0.014 A 
ATOM     76  C   UNL A   1      45.505  33.577  29.341  1.00  0.00     0.009 A 
ATOM     77  C   UNL A   1      45.566  32.786  31.626  1.00  0.00     0.009 A 
ATOM     78  C   UNL A   1      45.896  34.846  29.774  1.00  0.00     0.001 A 
ATOM     79  C   UNL A   1      45.925  34.063  32.058  1.00  0.00     0.001 A 
ATOM     80  C   UNL A   1      46.098  35.089  31.131  1.00  0.00     0.000 A 
ENDBRANCH  62  75
ENDBRANCH  36  37
ENDBRANCH  28  31
ENDBRANCH  26  27
ENDBRANCH   1  26
TORSDOF 15
ENDMDL
MODEL 3
REMARK VINA RESULT:     -10.9      1.219      6.266
REMARK SMILES CCC1(CC)CCN(C(=O)NC(CC)(CC)C(=O)NCCCNC(=O)c2ccc(-c3c4nc(c(-c5ccccc5)c5ccc([nH]5)c(-c5ccccc5)c5nc(c(-c6ccccc6)c6ccc3[nH]6)C=C5)C=C4)cc2)CC1
REMARK SMILES IDX 21 1 20 2 19 3 17 4 18 5 12 7 11 8 3 9 6 10 75 11 7 12 74 13
REMARK SMILES IDX 8 14 9 15 10 16 2 18 1 19 4 20 5 21 13 22 14 23 15 24 16 25
REMARK SMILES IDX 22 26 23 27 24 28 25 30 26 31 27 32 73 33 28 34 72 35 29 36
REMARK SMILES IDX 30 37 31 38 66 39 32 40 71 41 65 42 67 43 33 44 70 45 64 46
REMARK SMILES IDX 63 47 34 49 56 50 41 51 55 52 42 53 45 54 54 55 68 56 43 57
REMARK SMILES IDX 44 58 53 60 69 61 46 62 35 63 36 64 40 65 37 66 39 67 38 68
REMARK SMILES IDX 57 69 58 70 62 71 59 72 61 73 60 74 47 75 48 76 52 77 49 78
REMARK SMILES IDX 51 79 50 80
REMARK H PARENT 19 6 11 17 23 29 67 48 45 59
REMARK Flexibility Score: inf
ROOT
ATOM      1  C   UNL A   1      37.263  20.431  24.955  1.00  0.00     0.042 C 
ENDROOT
BRANCH   1   2
ATOM      2  C   UNL A   1      36.039  21.143  25.527  1.00  0.00     0.117 C 
BRANCH   2   3
ATOM      3  N   UNL A   1      34.897  21.102  24.633  1.00  0.00    -0.354 N 
ATOM      4  C   UNL A   1      33.643  21.387  25.130  1.00  0.00     0.245 C 
ATOM      5  O   UNL A   1      33.059  20.503  25.751  1.00  0.00    -0.272 OA
ATOM      6  H   UNL A   1      35.015  20.873  23.682  1.00  0.00     0.163 HD
BRANCH   4   7
ATOM      7  C   UNL A   1      33.064  22.814  24.859  1.00  0.00     0.120 C 
BRANCH   7   8
ATOM      8  N   UNL A   1      33.285  23.409  23.497  1.00  0.00    -0.323 N 
ATOM      9  C   UNL A   1      32.067  28.091  23.918  1.00  0.00    -0.027 C 
ATOM     10  C   UNL A   1      32.593  27.707  22.492  1.00  0.00     0.028 C 
ATOM     11  C   UNL A   1      31.984  26.775  24.755  1.00  0.00     0.028 C 
ATOM     12  C   UNL A   1      31.967  26.440  21.874  1.00  0.00     0.122 C 
ATOM     13  C   UNL A   1      31.269  25.636  24.024  1.00  0.00     0.122 C 
ATOM     14  N   UNL A   1      32.002  25.326  22.828  1.00  0.00    -0.325 N 
ATOM     15  C   UNL A   1      32.828  24.274  22.583  1.00  0.00     0.318 C 
ATOM     16  O   UNL A   1      33.308  24.094  21.456  1.00  0.00    -0.249 OA
ATOM     17  H   UNL A   1      34.097  22.992  23.125  1.00  0.00     0.166 HD
BRANCH   9  18
ATOM     18  C   UNL A   1      30.628  28.705  23.835  1.00  0.00     0.004 C 
ATOM     19  C   UNL A   1      30.170  29.314  22.514  1.00  0.00     0.004 C 
ENDBRANCH   9  18
BRANCH   9  20
ATOM     20  C   UNL A   1      33.131  28.990  24.632  1.00  0.00     0.004 C 
ATOM     21  C   UNL A   1      33.853  28.407  25.839  1.00  0.00     0.004 C 
ENDBRANCH   9  20
ENDBRANCH   7   8
BRANCH   7  22
ATOM     22  C   UNL A   1      33.541  23.844  25.941  1.00  0.00     0.035 C 
ATOM     23  C   UNL A   1      34.808  24.637  25.626  1.00  0.00     0.007 C 
ENDBRANCH   7  22
BRANCH   7  24
ATOM     24  C   UNL A   1      31.508  22.567  24.959  1.00  0.00     0.035 C 
ATOM     25  C   UNL A   1      30.853  22.968  26.289  1.00  0.00     0.007 C 
ENDBRANCH   7  24
ENDBRANCH   4   7
ENDBRANCH   2   3
ENDBRANCH   1   2
BRANCH   1  26
ATOM     26  C   UNL A   1      38.575  20.873  25.597  1.00  0.00     0.118 C 
BRANCH  26  27
ATOM     27  N   UNL A   1      39.543  19.786  25.663  1.00  0.00    -0.352 N 
ATOM     28  C   UNL A   1      40.884  19.832  25.956  1.00  0.00     0.251 C 
ATOM     29  H   UNL A   1      39.184  18.890  25.468  1.00  0.00     0.163 HD
ATOM     30  O   UNL A   1      41.602  18.872  25.712  1.00  0.00    -0.269 OA
BRANCH  28  31
ATOM     31  C   UNL A   1      41.455  21.060  26.545  1.00  0.00     0.039 A 
ATOM     32  C   UNL A   1      42.036  22.011  25.704  1.00  0.00     0.014 A 
ATOM     33  C   UNL A   1      41.410  21.271  27.925  1.00  0.00     0.014 A 
ATOM     34  C   UNL A   1      42.499  23.212  26.242  1.00  0.00     0.010 A 
ATOM     35  C   UNL A   1      41.793  22.500  28.448  1.00  0.00     0.010 A 
ATOM     36  C   UNL A   1      42.340  23.484  27.611  1.00  0.00    -0.014 A 
BRANCH  36  37
ATOM     37  C   UNL A   1      42.718  24.797  28.191  1.00  0.00     0.031 A 
ATOM     38  C   UNL A   1      41.679  25.864  28.389  1.00  0.00     0.074 A 
ATOM     39  C   UNL A   1      44.011  25.054  28.465  1.00  0.00     0.049 A 
ATOM     40  N   UNL A   1      41.828  27.095  28.808  1.00  0.00    -0.248 NA
ATOM     41  C   UNL A   1      40.291  25.510  28.046  1.00  0.00     0.031 C 
ATOM     42  C   UNL A   1      45.119  24.113  28.291  1.00  0.00     0.029 A 
ATOM     43  N   UNL A   1      44.613  26.190  28.943  1.00  0.00    -0.354 N 
ATOM     44  C   UNL A   1      40.562  27.664  28.766  1.00  0.00     0.074 A 
ATOM     45  C   UNL A   1      39.666  26.663  28.230  1.00  0.00     0.031 C 
ATOM     46  C   UNL A   1      46.259  24.699  28.689  1.00  0.00     0.029 A 
ATOM     47  C   UNL A   1      45.973  26.070  29.096  1.00  0.00     0.049 A 
ATOM     48  H   UNL A   1      44.117  27.014  29.158  1.00  0.00     0.167 HD
ATOM     49  C   UNL A   1      40.176  28.904  29.151  1.00  0.00     0.031 A 
ATOM     50  C   UNL A   1      46.889  26.968  29.505  1.00  0.00     0.031 A 
ATOM     51  C   UNL A   1      41.070  29.901  29.679  1.00  0.00     0.049 A 
ATOM     52  C   UNL A   1      46.442  28.354  29.875  1.00  0.00     0.074 A 
ATOM     53  C   UNL A   1      40.768  31.167  30.148  1.00  0.00     0.029 A 
ATOM     54  N   UNL A   1      42.443  29.747  29.795  1.00  0.00    -0.354 N 
ATOM     55  N   UNL A   1      45.231  28.855  29.897  1.00  0.00    -0.248 NA
ATOM     56  C   UNL A   1      47.494  29.299  30.281  1.00  0.00     0.031 C 
ATOM     57  C   UNL A   1      41.967  31.803  30.489  1.00  0.00     0.029 A 
ATOM     58  C   UNL A   1      43.008  30.909  30.294  1.00  0.00     0.049 A 
ATOM     59  H   UNL A   1      42.942  28.932  29.558  1.00  0.00     0.167 HD
ATOM     60  C   UNL A   1      45.370  30.161  30.348  1.00  0.00     0.074 A 
ATOM     61  C   UNL A   1      46.782  30.371  30.600  1.00  0.00     0.031 C 
ATOM     62  C   UNL A   1      44.414  31.103  30.539  1.00  0.00     0.031 A 
BRANCH  49  63
ATOM     63  C   UNL A   1      38.720  29.253  28.995  1.00  0.00    -0.014 A 
ATOM     64  C   UNL A   1      38.204  29.702  27.768  1.00  0.00     0.009 A 
ATOM     65  C   UNL A   1      37.849  29.116  30.086  1.00  0.00     0.009 A 
ATOM     66  C   UNL A   1      36.857  30.050  27.650  1.00  0.00     0.001 A 
ATOM     67  C   UNL A   1      36.495  29.432  29.957  1.00  0.00     0.001 A 
ATOM     68  C   UNL A   1      36.003  29.912  28.744  1.00  0.00     0.000 A 
ENDBRANCH  49  63
BRANCH  50  69
ATOM     69  C   UNL A   1      48.321  26.580  29.602  1.00  0.00    -0.014 A 
ATOM     70  C   UNL A   1      48.818  26.006  30.781  1.00  0.00     0.009 A 
ATOM     71  C   UNL A   1      49.197  26.785  28.526  1.00  0.00     0.009 A 
ATOM     72  C   UNL A   1      50.169  25.668  30.890  1.00  0.00     0.001 A 
ATOM     73  C   UNL A   1      50.541  26.418  28.626  1.00  0.00     0.001 A 
ATOM     74  C   UNL A   1      51.028  25.869  29.810  1.00  0.00     0.000 A 
ENDBRANCH  50  69
BRANCH  62  75
ATOM     75  C   UNL A   1      44.856  32.434  31.079  1.00  0.00    -0.014 A 
ATOM     76  C   UNL A   1      45.195  33.495  30.226  1.00  0.00     0.009 A 
ATOM     77  C   UNL A   1      44.887  32.642  32.469  1.00  0.00     0.009 A 
ATOM     78  C   UNL A   1      45.587  34.728  30.754  1.00  0.00     0.001 A 
ATOM     79  C   UNL A   1      45.247  33.884  32.991  1.00  0.00     0.001 A 
ATOM     80  C   UNL A   1      45.605  34.923  32.133  1.00  0.00     0.000 A 
ENDBRANCH  62  75
ENDBRANCH  36  37
ENDBRANCH  28  31
ENDBRANCH  26  27
ENDBRANCH   1  26
TORSDOF 15
ENDMDL
