MODEL 1
REMARK VINA RESULT:     -11.4      0.000      0.000
REMARK SMILES C[C@](C(=O)NCCCNC(=O)c1ccc(-c2c3nc(c(-c4ccccc4)c4ccc([nH]4)c(-c4ccccc4)c4nc(c(-c5ccccc5)c5ccc2[nH]5)C=C4)C=C3)cc1)(c1cc(F)cc(F)c1)[NH+]1CCCC1
REMARK SMILES IDX 7 1 6 2 5 3 3 4 4 5 2 7 1 8 60 9 61 10 67 11 62 12 65 13
REMARK SMILES IDX 63 14 64 15 66 16 68 17 69 18 72 19 70 21 71 22 8 23 9 24
REMARK SMILES IDX 10 25 11 27 12 28 13 29 59 30 14 31 58 32 15 33 16 34 17 35
REMARK SMILES IDX 52 36 18 37 57 38 51 39 53 40 19 41 56 42 50 43 49 44 20 46
REMARK SMILES IDX 42 47 27 48 41 49 28 50 31 51 40 52 54 53 29 54 30 55 39 57
REMARK SMILES IDX 55 58 32 59 21 60 22 61 26 62 23 63 25 64 24 65 43 66 44 67
REMARK SMILES IDX 48 68 45 69 47 70 46 71 33 72 34 73 38 74 35 75 37 76 36 77
REMARK H PARENT 5 6 68 20 9 26 53 45 31 56
REMARK Flexibility Score: inf
ROOT
ATOM      1  C   UNL A   1      32.387  27.990  27.657  1.00  0.00     0.042 C 
ENDROOT
BRANCH   1   2
ATOM      2  C   UNL A   1      31.416  27.636  26.544  1.00  0.00     0.118 C 
BRANCH   2   3
ATOM      3  N   UNL A   1      31.152  26.212  26.493  1.00  0.00    -0.350 N 
ATOM      4  C   UNL A   1      31.088  25.302  25.484  1.00  0.00     0.286 C 
ATOM      5  O   UNL A   1      30.990  24.137  25.905  1.00  0.00    -0.267 OA
ATOM      6  H   UNL A   1      30.979  25.820  27.380  1.00  0.00     0.163 HD
BRANCH   4   7
ATOM      7  C   UNL A   1      31.167  25.601  23.916  1.00  0.00     0.200 C 
ATOM      8  C   UNL A   1      30.619  24.268  23.289  1.00  0.00     0.096 C 
BRANCH   7   9
ATOM      9  C   UNL A   1      30.190  26.756  23.487  1.00  0.00     0.028 A 
ATOM     10  C   UNL A   1      30.616  27.817  22.665  1.00  0.00     0.050 A 
ATOM     11  C   UNL A   1      28.830  26.796  23.869  1.00  0.00     0.050 A 
ATOM     12  C   UNL A   1      29.784  28.901  22.368  1.00  0.00     0.126 A 
ATOM     13  C   UNL A   1      27.991  27.854  23.502  1.00  0.00     0.126 A 
ATOM     14  F   UNL A   1      30.280  29.938  21.678  1.00  0.00    -0.207 F 
ATOM     15  C   UNL A   1      28.466  28.932  22.782  1.00  0.00     0.078 A 
ATOM     16  F   UNL A   1      26.701  27.819  23.860  1.00  0.00    -0.207 F 
ENDBRANCH   7   9
BRANCH   7  17
ATOM     17  N   UNL A   1      32.561  25.925  23.434  1.00  0.00    -0.319 N 
ATOM     18  C   UNL A   1      33.142  25.068  22.388  1.00  0.00     0.263 C 
ATOM     19  C   UNL A   1      33.661  26.073  24.389  1.00  0.00     0.263 C 
ATOM     20  H   UNL A   1      32.267  26.840  23.089  1.00  0.00     0.349 HD
ATOM     21  C   UNL A   1      33.992  24.046  23.132  1.00  0.00     0.067 C 
ATOM     22  C   UNL A   1      34.476  24.790  24.360  1.00  0.00     0.067 C 
ENDBRANCH   7  17
ENDBRANCH   4   7
ENDBRANCH   2   3
ENDBRANCH   1   2
BRANCH   1  23
ATOM     23  C   UNL A   1      33.592  28.766  27.148  1.00  0.00     0.118 C 
BRANCH  23  24
ATOM     24  N   UNL A   1      33.588  30.146  27.620  1.00  0.00    -0.352 N 
ATOM     25  C   UNL A   1      34.540  30.832  28.327  1.00  0.00     0.251 C 
ATOM     26  H   UNL A   1      32.779  30.661  27.398  1.00  0.00     0.163 HD
ATOM     27  O   UNL A   1      34.252  31.915  28.839  1.00  0.00    -0.269 OA
BRANCH  25  28
ATOM     28  C   UNL A   1      35.907  30.290  28.485  1.00  0.00     0.039 A 
ATOM     29  C   UNL A   1      36.276  29.721  29.709  1.00  0.00     0.014 A 
ATOM     30  C   UNL A   1      36.847  30.388  27.455  1.00  0.00     0.014 A 
ATOM     31  C   UNL A   1      37.570  29.228  29.887  1.00  0.00     0.010 A 
ATOM     32  C   UNL A   1      38.104  29.811  27.599  1.00  0.00     0.010 A 
ATOM     33  C   UNL A   1      38.490  29.256  28.827  1.00  0.00    -0.014 A 
BRANCH  33  34
ATOM     34  C   UNL A   1      39.883  28.773  28.999  1.00  0.00     0.031 A 
ATOM     35  C   UNL A   1      40.932  29.701  29.556  1.00  0.00     0.074 A 
ATOM     36  C   UNL A   1      40.218  27.530  28.610  1.00  0.00     0.049 A 
ATOM     37  N   UNL A   1      42.212  29.493  29.728  1.00  0.00    -0.248 NA
ATOM     38  C   UNL A   1      40.488  31.051  29.939  1.00  0.00     0.031 C 
ATOM     39  C   UNL A   1      39.307  26.548  28.019  1.00  0.00     0.029 A 
ATOM     40  N   UNL A   1      41.425  26.878  28.654  1.00  0.00    -0.354 N 
ATOM     41  C   UNL A   1      42.729  30.692  30.203  1.00  0.00     0.074 A 
ATOM     42  C   UNL A   1      41.634  31.637  30.249  1.00  0.00     0.031 C 
ATOM     43  C   UNL A   1      39.978  25.408  27.788  1.00  0.00     0.029 A 
ATOM     44  C   UNL A   1      41.372  25.590  28.180  1.00  0.00     0.049 A 
ATOM     45  H   UNL A   1      42.250  27.295  28.992  1.00  0.00     0.167 HD
ATOM     46  C   UNL A   1      43.993  30.979  30.591  1.00  0.00     0.031 A 
ATOM     47  C   UNL A   1      42.339  24.659  28.078  1.00  0.00     0.031 A 
ATOM     48  C   UNL A   1      45.072  30.030  30.584  1.00  0.00     0.049 A 
ATOM     49  C   UNL A   1      43.731  24.993  28.538  1.00  0.00     0.074 A 
ATOM     50  C   UNL A   1      46.374  30.198  31.024  1.00  0.00     0.029 A 
ATOM     51  N   UNL A   1      44.970  28.729  30.118  1.00  0.00    -0.354 N 
ATOM     52  N   UNL A   1      44.188  26.112  29.046  1.00  0.00    -0.248 NA
ATOM     53  C   UNL A   1      44.736  23.927  28.423  1.00  0.00     0.031 C 
ATOM     54  C   UNL A   1      47.071  29.009  30.789  1.00  0.00     0.029 A 
ATOM     55  C   UNL A   1      46.190  28.086  30.245  1.00  0.00     0.049 A 
ATOM     56  H   UNL A   1      44.152  28.322  29.751  1.00  0.00     0.167 HD
ATOM     57  C   UNL A   1      45.525  25.878  29.336  1.00  0.00     0.074 A 
ATOM     58  C   UNL A   1      45.801  24.506  28.961  1.00  0.00     0.031 C 
ATOM     59  C   UNL A   1      46.443  26.721  29.868  1.00  0.00     0.031 A 
BRANCH  46  60
ATOM     60  C   UNL A   1      44.274  32.382  31.052  1.00  0.00    -0.014 A 
ATOM     61  C   UNL A   1      44.675  33.381  30.149  1.00  0.00     0.009 A 
ATOM     62  C   UNL A   1      44.118  32.716  32.406  1.00  0.00     0.009 A 
ATOM     63  C   UNL A   1      44.953  34.672  30.600  1.00  0.00     0.001 A 
ATOM     64  C   UNL A   1      44.369  34.017  32.849  1.00  0.00     0.001 A 
ATOM     65  C   UNL A   1      44.796  34.990  31.948  1.00  0.00     0.000 A 
ENDBRANCH  46  60
BRANCH  47  66
ATOM     66  C   UNL A   1      42.019  23.310  27.550  1.00  0.00    -0.014 A 
ATOM     67  C   UNL A   1      42.290  22.991  26.210  1.00  0.00     0.009 A 
ATOM     68  C   UNL A   1      41.443  22.333  28.377  1.00  0.00     0.009 A 
ATOM     69  C   UNL A   1      41.968  21.730  25.702  1.00  0.00     0.001 A 
ATOM     70  C   UNL A   1      41.146  21.064  27.873  1.00  0.00     0.001 A 
ATOM     71  C   UNL A   1      41.401  20.767  26.535  1.00  0.00     0.000 A 
ENDBRANCH  47  66
BRANCH  59  72
ATOM     72  C   UNL A   1      47.818  26.171  30.107  1.00  0.00    -0.014 A 
ATOM     73  C   UNL A   1      48.768  26.112  29.077  1.00  0.00     0.009 A 
ATOM     74  C   UNL A   1      48.178  25.737  31.393  1.00  0.00     0.009 A 
ATOM     75  C   UNL A   1      50.042  25.598  29.322  1.00  0.00     0.001 A 
ATOM     76  C   UNL A   1      49.461  25.250  31.642  1.00  0.00     0.001 A 
ATOM     77  C   UNL A   1      50.388  25.171  30.604  1.00  0.00     0.000 A 
ENDBRANCH  59  72
ENDBRANCH  33  34
ENDBRANCH  25  28
ENDBRANCH  23  24
ENDBRANCH   1  23
TORSDOF 12
ENDMDL
MODEL 2
REMARK VINA RESULT:     -11.3      3.355      7.786
REMARK SMILES C[C@](C(=O)NCCCNC(=O)c1ccc(-c2c3nc(c(-c4ccccc4)c4ccc([nH]4)c(-c4ccccc4)c4nc(c(-c5ccccc5)c5ccc2[nH]5)C=C4)C=C3)cc1)(c1cc(F)cc(F)c1)[NH+]1CCCC1
REMARK SMILES IDX 7 1 6 2 5 3 3 4 4 5 2 7 1 8 60 9 61 10 67 11 62 12 65 13
REMARK SMILES IDX 63 14 64 15 66 16 68 17 69 18 72 19 70 21 71 22 8 23 9 24
REMARK SMILES IDX 10 25 11 27 12 28 13 29 59 30 14 31 58 32 15 33 16 34 17 35
REMARK SMILES IDX 52 36 18 37 57 38 51 39 53 40 19 41 56 42 50 43 49 44 20 46
REMARK SMILES IDX 42 47 27 48 41 49 28 50 31 51 40 52 54 53 29 54 30 55 39 57
REMARK SMILES IDX 55 58 32 59 21 60 22 61 26 62 23 63 25 64 24 65 43 66 44 67
REMARK SMILES IDX 48 68 45 69 47 70 46 71 33 72 34 73 38 74 35 75 37 76 36 77
REMARK H PARENT 5 6 68 20 9 26 53 45 31 56
REMARK Flexibility Score: inf
ROOT
ATOM      1  C   UNL A   1      37.045  20.151  24.973  1.00  0.00     0.042 C 
ENDROOT
BRANCH   1   2
ATOM      2  C   UNL A   1      35.916  21.095  25.343  1.00  0.00     0.118 C 
BRANCH   2   3
ATOM      3  N   UNL A   1      35.602  22.009  24.263  1.00  0.00    -0.350 N 
ATOM      4  C   UNL A   1      34.443  22.524  23.772  1.00  0.00     0.286 C 
ATOM      5  O   UNL A   1      34.642  23.410  22.924  1.00  0.00    -0.267 OA
ATOM      6  H   UNL A   1      36.400  22.323  23.779  1.00  0.00     0.163 HD
BRANCH   4   7
ATOM      7  C   UNL A   1      32.957  22.127  24.207  1.00  0.00     0.200 C 
ATOM      8  C   UNL A   1      32.086  22.786  23.076  1.00  0.00     0.096 C 
BRANCH   7   9
ATOM      9  C   UNL A   1      32.717  20.575  24.138  1.00  0.00     0.028 A 
ATOM     10  C   UNL A   1      32.704  19.777  25.298  1.00  0.00     0.050 A 
ATOM     11  C   UNL A   1      32.478  19.886  22.927  1.00  0.00     0.050 A 
ATOM     12  C   UNL A   1      32.598  18.384  25.235  1.00  0.00     0.126 A 
ATOM     13  C   UNL A   1      32.301  18.498  22.890  1.00  0.00     0.126 A 
ATOM     14  F   UNL A   1      32.708  17.667  26.361  1.00  0.00    -0.207 F 
ATOM     15  C   UNL A   1      32.397  17.730  24.034  1.00  0.00     0.078 A 
ATOM     16  F   UNL A   1      32.038  17.904  21.719  1.00  0.00    -0.207 F 
ENDBRANCH   7   9
BRANCH   7  17
ATOM     17  N   UNL A   1      32.578  22.628  25.581  1.00  0.00    -0.319 N 
ATOM     18  C   UNL A   1      31.175  23.010  25.809  1.00  0.00     0.263 C 
ATOM     19  C   UNL A   1      33.324  23.723  26.204  1.00  0.00     0.263 C 
ATOM     20  H   UNL A   1      32.829  21.738  26.013  1.00  0.00     0.349 HD
ATOM     21  C   UNL A   1      31.131  24.519  25.607  1.00  0.00     0.067 C 
ATOM     22  C   UNL A   1      32.502  24.992  26.049  1.00  0.00     0.067 C 
ENDBRANCH   7  17
ENDBRANCH   4   7
ENDBRANCH   2   3
ENDBRANCH   1   2
BRANCH   1  23
ATOM     23  C   UNL A   1      38.414  20.743  25.270  1.00  0.00     0.118 C 
BRANCH  23  24
ATOM     24  N   UNL A   1      39.408  19.708  25.532  1.00  0.00    -0.352 N 
ATOM     25  C   UNL A   1      40.696  19.825  25.984  1.00  0.00     0.251 C 
ATOM     26  H   UNL A   1      39.109  18.787  25.354  1.00  0.00     0.163 HD
ATOM     27  O   UNL A   1      41.454  18.855  25.913  1.00  0.00    -0.269 OA
BRANCH  25  28
ATOM     28  C   UNL A   1      41.188  21.097  26.556  1.00  0.00     0.039 A 
ATOM     29  C   UNL A   1      41.085  21.307  27.935  1.00  0.00     0.014 A 
ATOM     30  C   UNL A   1      41.697  22.108  25.737  1.00  0.00     0.014 A 
ATOM     31  C   UNL A   1      41.518  22.512  28.491  1.00  0.00     0.010 A 
ATOM     32  C   UNL A   1      42.217  23.268  26.300  1.00  0.00     0.010 A 
ATOM     33  C   UNL A   1      42.102  23.497  27.679  1.00  0.00    -0.014 A 
BRANCH  33  34
ATOM     34  C   UNL A   1      42.537  24.802  28.236  1.00  0.00     0.031 A 
ATOM     35  C   UNL A   1      41.521  25.888  28.476  1.00  0.00     0.074 A 
ATOM     36  C   UNL A   1      43.841  25.031  28.477  1.00  0.00     0.049 A 
ATOM     37  N   UNL A   1      41.704  27.113  28.899  1.00  0.00    -0.248 NA
ATOM     38  C   UNL A   1      40.118  25.565  28.169  1.00  0.00     0.031 C 
ATOM     39  C   UNL A   1      44.929  24.077  28.249  1.00  0.00     0.029 A 
ATOM     40  N   UNL A   1      44.473  26.145  28.968  1.00  0.00    -0.354 N 
ATOM     41  C   UNL A   1      40.451  27.712  28.873  1.00  0.00     0.074 A 
ATOM     42  C   UNL A   1      39.523  26.733  28.350  1.00  0.00     0.031 C 
ATOM     43  C   UNL A   1      46.089  24.635  28.633  1.00  0.00     0.029 A 
ATOM     44  C   UNL A   1      45.832  25.994  29.098  1.00  0.00     0.049 A 
ATOM     45  H   UNL A   1      43.998  26.974  29.204  1.00  0.00     0.167 HD
ATOM     46  C   UNL A   1      40.094  28.956  29.271  1.00  0.00     0.031 A 
ATOM     47  C   UNL A   1      46.765  26.854  29.547  1.00  0.00     0.031 A 
ATOM     48  C   UNL A   1      41.008  29.915  29.827  1.00  0.00     0.049 A 
ATOM     49  C   UNL A   1      46.342  28.222  30.006  1.00  0.00     0.074 A 
ATOM     50  C   UNL A   1      40.737  31.177  30.328  1.00  0.00     0.029 A 
ATOM     51  N   UNL A   1      42.373  29.713  29.963  1.00  0.00    -0.354 N 
ATOM     52  N   UNL A   1      45.143  28.750  30.036  1.00  0.00    -0.248 NA
ATOM     53  C   UNL A   1      47.405  29.106  30.507  1.00  0.00     0.031 C 
ATOM     54  C   UNL A   1      41.945  31.754  30.733  1.00  0.00     0.029 A 
ATOM     55  C   UNL A   1      42.961  30.833  30.526  1.00  0.00     0.049 A 
ATOM     56  H   UNL A   1      42.852  28.895  29.700  1.00  0.00     0.167 HD
ATOM     57  C   UNL A   1      45.300  30.015  30.584  1.00  0.00     0.074 A 
ATOM     58  C   UNL A   1      46.709  30.170  30.884  1.00  0.00     0.031 C 
ATOM     59  C   UNL A   1      44.363  30.966  30.819  1.00  0.00     0.031 A 
BRANCH  46  60
ATOM     60  C   UNL A   1      38.652  29.347  29.111  1.00  0.00    -0.014 A 
ATOM     61  C   UNL A   1      37.752  29.270  30.187  1.00  0.00     0.009 A 
ATOM     62  C   UNL A   1      38.189  29.816  27.873  1.00  0.00     0.009 A 
ATOM     63  C   UNL A   1      36.410  29.616  30.014  1.00  0.00     0.001 A 
ATOM     64  C   UNL A   1      36.853  30.190  27.710  1.00  0.00     0.001 A 
ATOM     65  C   UNL A   1      35.964  30.079  28.777  1.00  0.00     0.000 A 
ENDBRANCH  46  60
BRANCH  47  66
ATOM     66  C   UNL A   1      48.188  26.437  29.618  1.00  0.00    -0.014 A 
ATOM     67  C   UNL A   1      49.046  26.658  28.529  1.00  0.00     0.009 A 
ATOM     68  C   UNL A   1      48.698  25.818  30.769  1.00  0.00     0.009 A 
ATOM     69  C   UNL A   1      50.380  26.246  28.582  1.00  0.00     0.001 A 
ATOM     70  C   UNL A   1      50.039  25.430  30.829  1.00  0.00     0.001 A 
ATOM     71  C   UNL A   1      50.875  25.636  29.733  1.00  0.00     0.000 A 
ENDBRANCH  47  66
BRANCH  59  72
ATOM     72  C   UNL A   1      44.828  32.239  31.463  1.00  0.00    -0.014 A 
ATOM     73  C   UNL A   1      44.875  32.374  32.858  1.00  0.00     0.009 A 
ATOM     74  C   UNL A   1      45.257  33.306  30.658  1.00  0.00     0.009 A 
ATOM     75  C   UNL A   1      45.313  33.567  33.436  1.00  0.00     0.001 A 
ATOM     76  C   UNL A   1      45.719  34.488  31.238  1.00  0.00     0.001 A 
ATOM     77  C   UNL A   1      45.737  34.620  32.626  1.00  0.00     0.000 A 
ENDBRANCH  59  72
ENDBRANCH  33  34
ENDBRANCH  25  28
ENDBRANCH  23  24
ENDBRANCH   1  23
TORSDOF 12
ENDMDL
MODEL 3
REMARK VINA RESULT:     -11.3      1.127      1.838
REMARK SMILES C[C@](C(=O)NCCCNC(=O)c1ccc(-c2c3nc(c(-c4ccccc4)c4ccc([nH]4)c(-c4ccccc4)c4nc(c(-c5ccccc5)c5ccc2[nH]5)C=C4)C=C3)cc1)(c1cc(F)cc(F)c1)[NH+]1CCCC1
REMARK SMILES IDX 7 1 6 2 5 3 3 4 4 5 2 7 1 8 60 9 61 10 67 11 62 12 65 13
REMARK SMILES IDX 63 14 64 15 66 16 68 17 69 18 72 19 70 21 71 22 8 23 9 24
REMARK SMILES IDX 10 25 11 27 12 28 13 29 59 30 14 31 58 32 15 33 16 34 17 35
REMARK SMILES IDX 52 36 18 37 57 38 51 39 53 40 19 41 56 42 50 43 49 44 20 46
REMARK SMILES IDX 42 47 27 48 41 49 28 50 31 51 40 52 54 53 29 54 30 55 39 57
REMARK SMILES IDX 55 58 32 59 21 60 22 61 26 62 23 63 25 64 24 65 43 66 44 67
REMARK SMILES IDX 48 68 45 69 47 70 46 71 33 72 34 73 38 74 35 75 37 76 36 77
REMARK H PARENT 5 6 68 20 9 26 53 45 31 56
REMARK Flexibility Score: inf
ROOT
ATOM      1  C   UNL A   1      33.159  27.867  26.891  1.00  0.00     0.042 C 
ENDROOT
BRANCH   1   2
ATOM      2  C   UNL A   1      31.742  27.614  26.410  1.00  0.00     0.118 C 
BRANCH   2   3
ATOM      3  N   UNL A   1      31.409  26.204  26.432  1.00  0.00    -0.350 N 
ATOM      4  C   UNL A   1      31.245  25.260  25.466  1.00  0.00     0.286 C 
ATOM      5  O   UNL A   1      31.117  24.118  25.940  1.00  0.00    -0.267 OA
ATOM      6  H   UNL A   1      31.269  25.854  27.342  1.00  0.00     0.163 HD
BRANCH   4   7
ATOM      7  C   UNL A   1      31.248  25.495  23.885  1.00  0.00     0.200 C 
ATOM      8  C   UNL A   1      30.524  24.206  23.350  1.00  0.00     0.096 C 
BRANCH   7   9
ATOM      9  C   UNL A   1      30.369  26.730  23.472  1.00  0.00     0.028 A 
ATOM     10  C   UNL A   1      29.016  26.834  23.848  1.00  0.00     0.050 A 
ATOM     11  C   UNL A   1      30.874  27.820  22.725  1.00  0.00     0.050 A 
ATOM     12  C   UNL A   1      28.201  27.877  23.394  1.00  0.00     0.126 A 
ATOM     13  C   UNL A   1      30.061  28.892  22.341  1.00  0.00     0.126 A 
ATOM     14  F   UNL A   1      26.894  27.861  23.688  1.00  0.00    -0.207 F 
ATOM     15  C   UNL A   1      28.712  28.914  22.637  1.00  0.00     0.078 A 
ATOM     16  F   UNL A   1      30.603  29.915  21.669  1.00  0.00    -0.207 F 
ENDBRANCH   7   9
BRANCH   7  17
ATOM     17  N   UNL A   1      32.632  25.653  23.302  1.00  0.00    -0.319 N 
ATOM     18  C   UNL A   1      32.997  24.799  22.161  1.00  0.00     0.263 C 
ATOM     19  C   UNL A   1      33.814  25.575  24.164  1.00  0.00     0.263 C 
ATOM     20  H   UNL A   1      32.449  26.622  23.039  1.00  0.00     0.349 HD
ATOM     21  C   UNL A   1      33.744  23.617  22.765  1.00  0.00     0.067 C 
ATOM     22  C   UNL A   1      34.428  24.196  23.988  1.00  0.00     0.067 C 
ENDBRANCH   7  17
ENDBRANCH   4   7
ENDBRANCH   2   3
ENDBRANCH   1   2
BRANCH   1  23
ATOM     23  C   UNL A   1      33.866  28.935  26.072  1.00  0.00     0.118 C 
BRANCH  23  24
ATOM     24  N   UNL A   1      33.727  30.258  26.669  1.00  0.00    -0.352 N 
ATOM     25  C   UNL A   1      34.470  30.857  27.653  1.00  0.00     0.251 C 
ATOM     26  H   UNL A   1      32.988  30.802  26.314  1.00  0.00     0.163 HD
ATOM     27  O   UNL A   1      34.050  31.884  28.189  1.00  0.00    -0.269 OA
BRANCH  25  28
ATOM     28  C   UNL A   1      35.767  30.287  28.079  1.00  0.00     0.039 A 
ATOM     29  C   UNL A   1      35.871  29.710  29.349  1.00  0.00     0.014 A 
ATOM     30  C   UNL A   1      36.896  30.368  27.259  1.00  0.00     0.014 A 
ATOM     31  C   UNL A   1      37.094  29.192  29.781  1.00  0.00     0.010 A 
ATOM     32  C   UNL A   1      38.087  29.766  27.650  1.00  0.00     0.010 A 
ATOM     33  C   UNL A   1      38.208  29.202  28.928  1.00  0.00    -0.014 A 
BRANCH  33  34
ATOM     34  C   UNL A   1      39.528  28.691  29.373  1.00  0.00     0.031 A 
ATOM     35  C   UNL A   1      40.371  29.516  30.310  1.00  0.00     0.074 A 
ATOM     36  C   UNL A   1      39.993  27.521  28.900  1.00  0.00     0.049 A 
ATOM     37  N   UNL A   1      41.573  29.278  30.769  1.00  0.00    -0.248 NA
ATOM     38  C   UNL A   1      39.799  30.794  30.767  1.00  0.00     0.031 C 
ATOM     39  C   UNL A   1      39.294  26.646  27.955  1.00  0.00     0.029 A 
ATOM     40  N   UNL A   1      41.171  26.864  29.150  1.00  0.00    -0.354 N 
ATOM     41  C   UNL A   1      41.912  30.387  31.534  1.00  0.00     0.074 A 
ATOM     42  C   UNL A   1      40.810  31.319  31.442  1.00  0.00     0.031 C 
ATOM     43  C   UNL A   1      40.040  25.552  27.735  1.00  0.00     0.029 A 
ATOM     44  C   UNL A   1      41.283  25.664  28.491  1.00  0.00     0.049 A 
ATOM     45  H   UNL A   1      41.870  27.219  29.746  1.00  0.00     0.167 HD
ATOM     46  C   UNL A   1      43.028  30.605  32.269  1.00  0.00     0.031 A 
ATOM     47  C   UNL A   1      42.276  24.756  28.499  1.00  0.00     0.031 A 
ATOM     48  C   UNL A   1      44.106  29.663  32.394  1.00  0.00     0.049 A 
ATOM     49  C   UNL A   1      43.495  25.008  29.342  1.00  0.00     0.074 A 
ATOM     50  C   UNL A   1      45.248  29.754  33.170  1.00  0.00     0.029 A 
ATOM     51  N   UNL A   1      44.169  28.449  31.727  1.00  0.00    -0.354 N 
ATOM     52  N   UNL A   1      43.771  26.032  30.111  1.00  0.00    -0.248 NA
ATOM     53  C   UNL A   1      44.533  23.966  29.327  1.00  0.00     0.031 C 
ATOM     54  C   UNL A   1      46.022  28.611  32.943  1.00  0.00     0.029 A 
ATOM     55  C   UNL A   1      45.338  27.788  32.062  1.00  0.00     0.049 A 
ATOM     56  H   UNL A   1      43.484  28.107  31.108  1.00  0.00     0.167 HD
ATOM     57  C   UNL A   1      44.999  25.749  30.693  1.00  0.00     0.074 A 
ATOM     58  C   UNL A   1      45.408  24.450  30.199  1.00  0.00     0.031 C 
ATOM     59  C   UNL A   1      45.724  26.496  31.561  1.00  0.00     0.031 A 
BRANCH  46  60
ATOM     60  C   UNL A   1      43.135  31.919  32.992  1.00  0.00    -0.014 A 
ATOM     61  C   UNL A   1      42.594  32.091  34.276  1.00  0.00     0.009 A 
ATOM     62  C   UNL A   1      43.804  32.994  32.388  1.00  0.00     0.009 A 
ATOM     63  C   UNL A   1      42.684  33.326  34.922  1.00  0.00     0.001 A 
ATOM     64  C   UNL A   1      43.918  34.219  33.049  1.00  0.00     0.001 A 
ATOM     65  C   UNL A   1      43.349  34.387  34.310  1.00  0.00     0.000 A 
ENDBRANCH  46  60
BRANCH  47  66
ATOM     66  C   UNL A   1      42.145  23.505  27.710  1.00  0.00    -0.014 A 
ATOM     67  C   UNL A   1      41.497  22.387  28.259  1.00  0.00     0.009 A 
ATOM     68  C   UNL A   1      42.664  23.418  26.409  1.00  0.00     0.009 A 
ATOM     69  C   UNL A   1      41.392  21.200  27.529  1.00  0.00     0.001 A 
ATOM     70  C   UNL A   1      42.535  22.238  25.673  1.00  0.00     0.001 A 
ATOM     71  C   UNL A   1      41.908  21.128  26.237  1.00  0.00     0.000 A 
ENDBRANCH  47  66
BRANCH  59  72
ATOM     72  C   UNL A   1      47.013  25.908  32.056  1.00  0.00    -0.014 A 
ATOM     73  C   UNL A   1      48.206  26.056  31.333  1.00  0.00     0.009 A 
ATOM     74  C   UNL A   1      47.038  25.226  33.283  1.00  0.00     0.009 A 
ATOM     75  C   UNL A   1      49.394  25.503  31.813  1.00  0.00     0.001 A 
ATOM     76  C   UNL A   1      48.232  24.698  33.774  1.00  0.00     0.001 A 
ATOM     77  C   UNL A   1      49.407  24.828  33.034  1.00  0.00     0.000 A 
ENDBRANCH  59  72
ENDBRANCH  33  34
ENDBRANCH  25  28
ENDBRANCH  23  24
ENDBRANCH   1  23
TORSDOF 12
ENDMDL
