MODEL 1
REMARK VINA RESULT:     -12.5      0.000      0.000
REMARK SMILES Cc1c(NCc2ccc(-c3ccc(Cl)cc3)o2)cccc1C(=O)NCCCNC(=O)c1ccc(-c2c3nc(c(-c4ccccc4)c4ccc([nH]4)c(-c4ccccc4)c4nc(c(-c5ccccc5)c5ccc2[nH]5)C=C4)C=C3)cc1
REMARK SMILES IDX 25 1 24 2 22 3 23 4 21 6 1 7 2 8 3 9 18 10 20 11 19 12 4 13
REMARK SMILES IDX 5 15 6 16 7 17 17 18 8 19 9 20 10 21 11 22 16 23 12 24 15 25
REMARK SMILES IDX 13 26 14 27 26 28 27 29 28 30 29 31 30 33 31 34 32 35 78 36
REMARK SMILES IDX 33 37 77 38 34 39 35 40 36 41 71 42 37 43 76 44 70 45 72 46
REMARK SMILES IDX 38 47 75 48 69 49 68 50 39 52 61 53 46 54 60 55 47 56 50 57
REMARK SMILES IDX 59 58 73 59 48 60 49 61 58 63 74 64 51 65 40 66 41 67 45 68
REMARK SMILES IDX 42 69 44 70 43 71 62 72 63 73 67 74 64 75 66 76 65 77 52 78
REMARK SMILES IDX 53 79 57 80 54 81 56 82 55 83
REMARK H PARENT 24 5 4 14 28 32 72 51 50 62
REMARK Flexibility Score: inf
ROOT
ATOM      1  C   UNL A   1      31.774  30.562  26.404  1.00  0.00     0.118 C 
ENDROOT
BRANCH   1   2
ATOM      2  N   UNL A   1      32.370  30.116  25.155  1.00  0.00    -0.352 N 
ATOM      3  C   UNL A   1      32.282  28.984  24.379  1.00  0.00     0.251 C 
ATOM      4  O   UNL A   1      32.963  29.000  23.348  1.00  0.00    -0.269 OA
ATOM      5  H   UNL A   1      32.984  30.784  24.773  1.00  0.00     0.163 HD
BRANCH   3   6
ATOM      6  C   UNL A   1      31.402  27.785  24.615  1.00  0.00     0.044 A 
ATOM      7  C   UNL A   1      32.953  26.440  26.116  1.00  0.00     0.047 C 
ATOM      8  C   UNL A   1      31.636  26.672  25.452  1.00  0.00    -0.015 A 
ATOM      9  C   UNL A   1      30.657  25.651  25.605  1.00  0.00     0.038 A 
ATOM     10  C   UNL A   1      29.570  25.635  24.730  1.00  0.00     0.026 A 
ATOM     11  C   UNL A   1      30.267  27.738  23.782  1.00  0.00     0.014 A 
ATOM     12  C   UNL A   1      29.384  26.660  23.809  1.00  0.00     0.003 A 
BRANCH   9  13
ATOM     13  N   UNL A   1      30.825  24.678  26.575  1.00  0.00    -0.378 N 
ATOM     14  H   UNL A   1      30.834  24.977  27.513  1.00  0.00     0.161 HD
BRANCH  13  15
ATOM     15  C   UNL A   1      30.991  23.254  26.332  1.00  0.00     0.188 C 
BRANCH  15  16
ATOM     16  C   UNL A   1      32.056  22.927  25.336  1.00  0.00     0.123 A 
ATOM     17  C   UNL A   1      32.049  22.602  23.995  1.00  0.00     0.048 A 
ATOM     18  O   UNL A   1      33.341  22.922  25.799  1.00  0.00    -0.459 OA
ATOM     19  C   UNL A   1      33.400  22.462  23.601  1.00  0.00     0.051 A 
ATOM     20  C   UNL A   1      34.152  22.622  24.744  1.00  0.00     0.134 A 
BRANCH  20  21
ATOM     21  C   UNL A   1      35.567  22.498  25.039  1.00  0.00     0.017 A 
ATOM     22  C   UNL A   1      36.251  21.297  24.804  1.00  0.00     0.013 A 
ATOM     23  C   UNL A   1      36.254  23.572  25.624  1.00  0.00     0.013 A 
ATOM     24  C   UNL A   1      37.598  21.173  25.154  1.00  0.00     0.021 A 
ATOM     25  C   UNL A   1      37.596  23.443  25.987  1.00  0.00     0.021 A 
ATOM     26  C   UNL A   1      38.262  22.244  25.751  1.00  0.00     0.041 A 
ATOM     27  Cl  UNL A   1      39.912  22.081  26.210  1.00  0.00    -0.084 Cl
ENDBRANCH  20  21
ENDBRANCH  15  16
ENDBRANCH  13  15
ENDBRANCH   9  13
ENDBRANCH   3   6
ENDBRANCH   1   2
BRANCH   1  28
ATOM     28  C   UNL A   1      32.747  31.443  27.200  1.00  0.00     0.042 C 
BRANCH  28  29
ATOM     29  C   UNL A   1      33.995  30.766  27.731  1.00  0.00     0.118 C 
BRANCH  29  30
ATOM     30  N   UNL A   1      34.643  31.543  28.798  1.00  0.00    -0.352 N 
ATOM     31  C   UNL A   1      35.857  31.296  29.418  1.00  0.00     0.251 C 
ATOM     32  H   UNL A   1      34.153  32.337  29.110  1.00  0.00     0.163 HD
ATOM     33  O   UNL A   1      36.356  32.085  30.199  1.00  0.00    -0.269 OA
BRANCH  31  34
ATOM     34  C   UNL A   1      36.583  30.084  28.987  1.00  0.00     0.039 A 
ATOM     35  C   UNL A   1      36.966  29.205  30.001  1.00  0.00     0.014 A 
ATOM     36  C   UNL A   1      37.230  30.109  27.755  1.00  0.00     0.014 A 
ATOM     37  C   UNL A   1      38.190  28.563  29.889  1.00  0.00     0.010 A 
ATOM     38  C   UNL A   1      38.487  29.537  27.680  1.00  0.00     0.010 A 
ATOM     39  C   UNL A   1      38.999  28.844  28.784  1.00  0.00    -0.014 A 
BRANCH  39  40
ATOM     40  C   UNL A   1      40.417  28.505  28.768  1.00  0.00     0.031 A 
ATOM     41  C   UNL A   1      40.822  27.183  28.270  1.00  0.00     0.074 A 
ATOM     42  C   UNL A   1      41.363  29.313  29.299  1.00  0.00     0.049 A 
ATOM     43  N   UNL A   1      41.741  26.458  28.816  1.00  0.00    -0.248 NA
ATOM     44  C   UNL A   1      40.161  26.550  27.139  1.00  0.00     0.031 C 
ATOM     45  C   UNL A   1      42.809  29.093  29.273  1.00  0.00     0.029 A 
ATOM     46  N   UNL A   1      41.202  30.365  30.198  1.00  0.00    -0.354 N 
ATOM     47  C   UNL A   1      42.007  25.436  27.939  1.00  0.00     0.074 A 
ATOM     48  C   UNL A   1      40.929  25.470  26.975  1.00  0.00     0.031 C 
ATOM     49  C   UNL A   1      43.352  29.714  30.331  1.00  0.00     0.029 A 
ATOM     50  C   UNL A   1      42.269  30.283  31.110  1.00  0.00     0.049 A 
ATOM     51  H   UNL A   1      40.481  31.036  30.194  1.00  0.00     0.167 HD
ATOM     52  C   UNL A   1      43.194  24.771  28.005  1.00  0.00     0.031 A 
ATOM     53  C   UNL A   1      42.106  30.182  32.460  1.00  0.00     0.031 A 
ATOM     54  C   UNL A   1      44.053  25.253  29.086  1.00  0.00     0.049 A 
ATOM     55  C   UNL A   1      42.735  28.941  33.060  1.00  0.00     0.074 A 
ATOM     56  C   UNL A   1      45.178  26.064  29.119  1.00  0.00     0.029 A 
ATOM     57  N   UNL A   1      43.630  25.135  30.402  1.00  0.00    -0.354 N 
ATOM     58  N   UNL A   1      43.352  28.017  32.377  1.00  0.00    -0.248 NA
ATOM     59  C   UNL A   1      42.595  28.581  34.469  1.00  0.00     0.031 C 
ATOM     60  C   UNL A   1      45.434  26.422  30.471  1.00  0.00     0.029 A 
ATOM     61  C   UNL A   1      44.470  25.824  31.260  1.00  0.00     0.049 A 
ATOM     62  H   UNL A   1      42.836  24.628  30.688  1.00  0.00     0.167 HD
ATOM     63  C   UNL A   1      43.632  26.944  33.190  1.00  0.00     0.074 A 
ATOM     64  C   UNL A   1      43.138  27.351  34.493  1.00  0.00     0.031 C 
ATOM     65  C   UNL A   1      44.203  25.801  32.695  1.00  0.00     0.031 A 
BRANCH  52  66
ATOM     66  C   UNL A   1      43.677  23.898  26.872  1.00  0.00    -0.014 A 
ATOM     67  C   UNL A   1      44.312  24.479  25.760  1.00  0.00     0.009 A 
ATOM     68  C   UNL A   1      43.485  22.507  26.814  1.00  0.00     0.009 A 
ATOM     69  C   UNL A   1      44.616  23.738  24.610  1.00  0.00     0.001 A 
ATOM     70  C   UNL A   1      43.739  21.768  25.650  1.00  0.00     0.001 A 
ATOM     71  C   UNL A   1      44.292  22.391  24.540  1.00  0.00     0.000 A 
ENDBRANCH  52  66
BRANCH  53  72
ATOM     72  C   UNL A   1      40.860  30.824  32.956  1.00  0.00    -0.014 A 
ATOM     73  C   UNL A   1      40.823  32.231  33.007  1.00  0.00     0.009 A 
ATOM     74  C   UNL A   1      39.650  30.116  32.965  1.00  0.00     0.009 A 
ATOM     75  C   UNL A   1      39.608  32.916  32.923  1.00  0.00     0.001 A 
ATOM     76  C   UNL A   1      38.436  30.808  32.894  1.00  0.00     0.001 A 
ATOM     77  C   UNL A   1      38.417  32.201  32.826  1.00  0.00     0.000 A 
ENDBRANCH  53  72
BRANCH  65  78
ATOM     78  C   UNL A   1      44.557  24.535  33.459  1.00  0.00    -0.014 A 
ATOM     79  C   UNL A   1      43.642  23.642  34.025  1.00  0.00     0.009 A 
ATOM     80  C   UNL A   1      45.924  24.230  33.683  1.00  0.00     0.009 A 
ATOM     81  C   UNL A   1      44.058  22.479  34.698  1.00  0.00     0.001 A 
ATOM     82  C   UNL A   1      46.348  23.083  34.360  1.00  0.00     0.001 A 
ATOM     83  C   UNL A   1      45.410  22.195  34.856  1.00  0.00     0.000 A 
ENDBRANCH  65  78
ENDBRANCH  39  40
ENDBRANCH  31  34
ENDBRANCH  29  30
ENDBRANCH  28  29
ENDBRANCH   1  28
TORSDOF 14
ENDMDL
MODEL 2
REMARK VINA RESULT:     -12.2      3.460      8.704
REMARK SMILES Cc1c(NCc2ccc(-c3ccc(Cl)cc3)o2)cccc1C(=O)NCCCNC(=O)c1ccc(-c2c3nc(c(-c4ccccc4)c4ccc([nH]4)c(-c4ccccc4)c4nc(c(-c5ccccc5)c5ccc2[nH]5)C=C4)C=C3)cc1
REMARK SMILES IDX 25 1 24 2 22 3 23 4 21 6 1 7 2 8 3 9 18 10 20 11 19 12 4 13
REMARK SMILES IDX 5 15 6 16 7 17 17 18 8 19 9 20 10 21 11 22 16 23 12 24 15 25
REMARK SMILES IDX 13 26 14 27 26 28 27 29 28 30 29 31 30 33 31 34 32 35 78 36
REMARK SMILES IDX 33 37 77 38 34 39 35 40 36 41 71 42 37 43 76 44 70 45 72 46
REMARK SMILES IDX 38 47 75 48 69 49 68 50 39 52 61 53 46 54 60 55 47 56 50 57
REMARK SMILES IDX 59 58 73 59 48 60 49 61 58 63 74 64 51 65 40 66 41 67 45 68
REMARK SMILES IDX 42 69 44 70 43 71 62 72 63 73 67 74 64 75 66 76 65 77 52 78
REMARK SMILES IDX 53 79 57 80 54 81 56 82 55 83
REMARK H PARENT 24 5 4 14 28 32 72 51 50 62
REMARK Flexibility Score: inf
ROOT
ATOM      1  C   UNL A   1      37.811  23.565  25.832  1.00  0.00     0.118 C 
ENDROOT
BRANCH   1   2
ATOM      2  N   UNL A   1      37.563  23.388  24.410  1.00  0.00    -0.352 N 
ATOM      3  C   UNL A   1      36.526  22.899  23.652  1.00  0.00     0.251 C 
ATOM      4  O   UNL A   1      36.706  22.933  22.430  1.00  0.00    -0.269 OA
ATOM      5  H   UNL A   1      38.319  23.691  23.858  1.00  0.00     0.163 HD
BRANCH   3   6
ATOM      6  C   UNL A   1      35.191  22.406  24.146  1.00  0.00     0.044 A 
ATOM      7  C   UNL A   1      33.777  24.441  23.576  1.00  0.00     0.047 C 
ATOM      8  C   UNL A   1      33.930  23.034  24.051  1.00  0.00    -0.015 A 
ATOM      9  C   UNL A   1      32.752  22.389  24.521  1.00  0.00     0.038 A 
ATOM     10  C   UNL A   1      32.889  21.240  25.300  1.00  0.00     0.026 A 
ATOM     11  C   UNL A   1      35.267  21.224  24.909  1.00  0.00     0.014 A 
ATOM     12  C   UNL A   1      34.139  20.669  25.512  1.00  0.00     0.003 A 
BRANCH   9  13
ATOM     13  N   UNL A   1      31.511  22.935  24.241  1.00  0.00    -0.378 N 
ATOM     14  H   UNL A   1      31.180  22.844  23.318  1.00  0.00     0.161 HD
BRANCH  13  15
ATOM     15  C   UNL A   1      30.654  23.631  25.187  1.00  0.00     0.188 C 
BRANCH  15  16
ATOM     16  C   UNL A   1      30.841  25.114  25.199  1.00  0.00     0.123 A 
ATOM     17  C   UNL A   1      31.526  25.988  26.019  1.00  0.00     0.048 A 
ATOM     18  O   UNL A   1      30.210  25.815  24.212  1.00  0.00    -0.459 OA
ATOM     19  C   UNL A   1      31.364  27.279  25.465  1.00  0.00     0.051 A 
ATOM     20  C   UNL A   1      30.518  27.133  24.389  1.00  0.00     0.134 A 
BRANCH  20  21
ATOM     21  C   UNL A   1      29.886  28.066  23.475  1.00  0.00     0.017 A 
ATOM     22  C   UNL A   1      30.649  28.977  22.732  1.00  0.00     0.013 A 
ATOM     23  C   UNL A   1      28.488  28.103  23.374  1.00  0.00     0.013 A 
ATOM     24  C   UNL A   1      30.021  29.913  21.905  1.00  0.00     0.021 A 
ATOM     25  C   UNL A   1      27.860  29.047  22.559  1.00  0.00     0.021 A 
ATOM     26  C   UNL A   1      28.629  29.949  21.829  1.00  0.00     0.041 A 
ATOM     27  Cl  UNL A   1      27.855  31.120  20.835  1.00  0.00    -0.084 Cl
ENDBRANCH  20  21
ENDBRANCH  15  16
ENDBRANCH  13  15
ENDBRANCH   9  13
ENDBRANCH   3   6
ENDBRANCH   1   2
BRANCH   1  28
ATOM     28  C   UNL A   1      38.748  22.476  26.373  1.00  0.00     0.042 C 
BRANCH  28  29
ATOM     29  C   UNL A   1      40.234  22.708  26.189  1.00  0.00     0.118 C 
BRANCH  29  30
ATOM     30  N   UNL A   1      40.917  21.540  25.614  1.00  0.00    -0.352 N 
ATOM     31  C   UNL A   1      42.204  21.091  25.866  1.00  0.00     0.251 C 
ATOM     32  H   UNL A   1      40.394  21.010  24.970  1.00  0.00     0.163 HD
ATOM     33  O   UNL A   1      42.616  20.032  25.430  1.00  0.00    -0.269 OA
BRANCH  31  34
ATOM     34  C   UNL A   1      43.013  21.901  26.799  1.00  0.00     0.039 A 
ATOM     35  C   UNL A   1      42.732  21.738  28.156  1.00  0.00     0.014 A 
ATOM     36  C   UNL A   1      43.624  23.053  26.309  1.00  0.00     0.014 A 
ATOM     37  C   UNL A   1      42.785  22.853  28.979  1.00  0.00     0.010 A 
ATOM     38  C   UNL A   1      43.596  24.181  27.109  1.00  0.00     0.010 A 
ATOM     39  C   UNL A   1      43.090  24.094  28.412  1.00  0.00    -0.014 A 
BRANCH  39  40
ATOM     40  C   UNL A   1      42.819  25.343  29.113  1.00  0.00     0.031 A 
ATOM     41  C   UNL A   1      41.646  26.135  28.718  1.00  0.00     0.074 A 
ATOM     42  C   UNL A   1      43.667  25.860  30.032  1.00  0.00     0.049 A 
ATOM     43  N   UNL A   1      41.645  27.423  28.619  1.00  0.00    -0.248 NA
ATOM     44  C   UNL A   1      40.387  25.511  28.340  1.00  0.00     0.031 C 
ATOM     45  C   UNL A   1      43.454  27.066  30.831  1.00  0.00     0.029 A 
ATOM     46  N   UNL A   1      45.008  25.550  30.246  1.00  0.00    -0.354 N 
ATOM     47  C   UNL A   1      40.334  27.805  28.484  1.00  0.00     0.074 A 
ATOM     48  C   UNL A   1      39.608  26.587  28.201  1.00  0.00     0.031 C 
ATOM     49  C   UNL A   1      44.651  27.578  31.156  1.00  0.00     0.029 A 
ATOM     50  C   UNL A   1      45.665  26.765  30.511  1.00  0.00     0.049 A 
ATOM     51  H   UNL A   1      45.417  24.655  30.217  1.00  0.00     0.167 HD
ATOM     52  C   UNL A   1      39.958  29.078  28.790  1.00  0.00     0.031 A 
ATOM     53  C   UNL A   1      46.730  27.223  29.794  1.00  0.00     0.031 A 
ATOM     54  C   UNL A   1      41.081  29.912  29.219  1.00  0.00     0.049 A 
ATOM     55  C   UNL A   1      46.498  28.576  29.151  1.00  0.00     0.074 A 
ATOM     56  C   UNL A   1      41.512  30.367  30.456  1.00  0.00     0.029 A 
ATOM     57  N   UNL A   1      42.121  30.167  28.337  1.00  0.00    -0.354 N 
ATOM     58  N   UNL A   1      45.386  29.253  29.226  1.00  0.00    -0.248 NA
ATOM     59  C   UNL A   1      47.465  29.208  28.257  1.00  0.00     0.031 C 
ATOM     60  C   UNL A   1      42.816  30.910  30.306  1.00  0.00     0.029 A 
ATOM     61  C   UNL A   1      43.177  30.791  28.978  1.00  0.00     0.049 A 
ATOM     62  H   UNL A   1      42.109  29.934  27.380  1.00  0.00     0.167 HD
ATOM     63  C   UNL A   1      45.440  30.337  28.382  1.00  0.00     0.074 A 
ATOM     64  C   UNL A   1      46.768  30.263  27.800  1.00  0.00     0.031 C 
ATOM     65  C   UNL A   1      44.362  31.164  28.210  1.00  0.00     0.031 A 
BRANCH  52  66
ATOM     66  C   UNL A   1      38.509  29.449  28.995  1.00  0.00    -0.014 A 
ATOM     67  C   UNL A   1      37.760  29.972  27.925  1.00  0.00     0.009 A 
ATOM     68  C   UNL A   1      37.842  29.361  30.228  1.00  0.00     0.009 A 
ATOM     69  C   UNL A   1      36.473  30.494  28.108  1.00  0.00     0.001 A 
ATOM     70  C   UNL A   1      36.576  29.928  30.432  1.00  0.00     0.001 A 
ATOM     71  C   UNL A   1      35.897  30.509  29.370  1.00  0.00     0.000 A 
ENDBRANCH  52  66
BRANCH  53  72
ATOM     72  C   UNL A   1      47.559  26.138  29.206  1.00  0.00    -0.014 A 
ATOM     73  C   UNL A   1      47.345  25.810  27.852  1.00  0.00     0.009 A 
ATOM     74  C   UNL A   1      48.765  25.756  29.811  1.00  0.00     0.009 A 
ATOM     75  C   UNL A   1      48.368  25.245  27.086  1.00  0.00     0.001 A 
ATOM     76  C   UNL A   1      49.780  25.179  29.040  1.00  0.00     0.001 A 
ATOM     77  C   UNL A   1      49.598  24.967  27.674  1.00  0.00     0.000 A 
ENDBRANCH  53  72
BRANCH  65  78
ATOM     78  C   UNL A   1      44.263  32.384  27.307  1.00  0.00    -0.014 A 
ATOM     79  C   UNL A   1      44.201  32.361  25.910  1.00  0.00     0.009 A 
ATOM     80  C   UNL A   1      44.289  33.673  27.896  1.00  0.00     0.009 A 
ATOM     81  C   UNL A   1      44.088  33.541  25.153  1.00  0.00     0.001 A 
ATOM     82  C   UNL A   1      44.189  34.853  27.151  1.00  0.00     0.001 A 
ATOM     83  C   UNL A   1      44.072  34.785  25.774  1.00  0.00     0.000 A 
ENDBRANCH  65  78
ENDBRANCH  39  40
ENDBRANCH  31  34
ENDBRANCH  29  30
ENDBRANCH  28  29
ENDBRANCH   1  28
TORSDOF 14
ENDMDL
MODEL 3
REMARK VINA RESULT:     -12.1      1.744      2.933
REMARK SMILES Cc1c(NCc2ccc(-c3ccc(Cl)cc3)o2)cccc1C(=O)NCCCNC(=O)c1ccc(-c2c3nc(c(-c4ccccc4)c4ccc([nH]4)c(-c4ccccc4)c4nc(c(-c5ccccc5)c5ccc2[nH]5)C=C4)C=C3)cc1
REMARK SMILES IDX 25 1 24 2 22 3 23 4 21 6 1 7 2 8 3 9 18 10 20 11 19 12 4 13
REMARK SMILES IDX 5 15 6 16 7 17 17 18 8 19 9 20 10 21 11 22 16 23 12 24 15 25
REMARK SMILES IDX 13 26 14 27 26 28 27 29 28 30 29 31 30 33 31 34 32 35 78 36
REMARK SMILES IDX 33 37 77 38 34 39 35 40 36 41 71 42 37 43 76 44 70 45 72 46
REMARK SMILES IDX 38 47 75 48 69 49 68 50 39 52 61 53 46 54 60 55 47 56 50 57
REMARK SMILES IDX 59 58 73 59 48 60 49 61 58 63 74 64 51 65 40 66 41 67 45 68
REMARK SMILES IDX 42 69 44 70 43 71 62 72 63 73 67 74 64 75 66 76 65 77 52 78
REMARK SMILES IDX 53 79 57 80 54 81 56 82 55 83
REMARK H PARENT 24 5 4 14 28 32 72 51 50 62
REMARK Flexibility Score: inf
ROOT
ATOM      1  C   UNL A   1      33.359  29.970  26.683  1.00  0.00     0.118 C 
ENDROOT
BRANCH   1   2
ATOM      2  N   UNL A   1      33.434  29.794  25.241  1.00  0.00    -0.352 N 
ATOM      3  C   UNL A   1      32.844  28.954  24.327  1.00  0.00     0.251 C 
ATOM      4  O   UNL A   1      33.175  29.141  23.151  1.00  0.00    -0.269 OA
ATOM      5  H   UNL A   1      34.055  30.430  24.818  1.00  0.00     0.163 HD
BRANCH   3   6
ATOM      6  C   UNL A   1      31.803  27.901  24.599  1.00  0.00     0.044 A 
ATOM      7  C   UNL A   1      33.207  26.296  25.984  1.00  0.00     0.047 C 
ATOM      8  C   UNL A   1      31.907  26.746  25.404  1.00  0.00    -0.015 A 
ATOM      9  C   UNL A   1      30.790  25.886  25.601  1.00  0.00     0.038 A 
ATOM     10  C   UNL A   1      29.666  26.059  24.793  1.00  0.00     0.026 A 
ATOM     11  C   UNL A   1      30.628  28.051  23.835  1.00  0.00     0.014 A 
ATOM     12  C   UNL A   1      29.590  27.123  23.900  1.00  0.00     0.003 A 
BRANCH   9  13
ATOM     13  N   UNL A   1      30.860  24.876  26.546  1.00  0.00    -0.378 N 
ATOM     14  H   UNL A   1      30.979  25.148  27.484  1.00  0.00     0.161 HD
BRANCH  13  15
ATOM     15  C   UNL A   1      30.772  23.450  26.274  1.00  0.00     0.188 C 
BRANCH  15  16
ATOM     16  C   UNL A   1      31.780  22.956  25.287  1.00  0.00     0.123 A 
ATOM     17  C   UNL A   1      31.705  22.501  23.986  1.00  0.00     0.048 A 
ATOM     18  O   UNL A   1      33.077  22.913  25.712  1.00  0.00    -0.459 OA
ATOM     19  C   UNL A   1      33.031  22.233  23.571  1.00  0.00     0.051 A 
ATOM     20  C   UNL A   1      33.831  22.457  24.670  1.00  0.00     0.134 A 
BRANCH  20  21
ATOM     21  C   UNL A   1      35.245  22.270  24.936  1.00  0.00     0.017 A 
ATOM     22  C   UNL A   1      35.839  21.005  24.824  1.00  0.00     0.013 A 
ATOM     23  C   UNL A   1      36.021  23.353  25.372  1.00  0.00     0.013 A 
ATOM     24  C   UNL A   1      37.188  20.829  25.146  1.00  0.00     0.021 A 
ATOM     25  C   UNL A   1      37.364  23.175  25.708  1.00  0.00     0.021 A 
ATOM     26  C   UNL A   1      37.941  21.913  25.595  1.00  0.00     0.041 A 
ATOM     27  Cl  UNL A   1      39.593  21.690  26.021  1.00  0.00    -0.084 Cl
ENDBRANCH  20  21
ENDBRANCH  15  16
ENDBRANCH  13  15
ENDBRANCH   9  13
ENDBRANCH   3   6
ENDBRANCH   1   2
BRANCH   1  28
ATOM     28  C   UNL A   1      34.730  29.757  27.340  1.00  0.00     0.042 C 
BRANCH  28  29
ATOM     29  C   UNL A   1      35.174  30.807  28.339  1.00  0.00     0.118 C 
BRANCH  29  30
ATOM     30  N   UNL A   1      34.146  31.833  28.567  1.00  0.00    -0.352 N 
ATOM     31  C   UNL A   1      34.261  33.015  29.281  1.00  0.00     0.251 C 
ATOM     32  H   UNL A   1      33.266  31.659  28.161  1.00  0.00     0.163 HD
ATOM     33  O   UNL A   1      33.378  33.853  29.291  1.00  0.00    -0.269 OA
BRANCH  31  34
ATOM     34  C   UNL A   1      35.563  33.268  29.931  1.00  0.00     0.039 A 
ATOM     35  C   UNL A   1      36.513  33.939  29.160  1.00  0.00     0.014 A 
ATOM     36  C   UNL A   1      35.927  32.465  31.008  1.00  0.00     0.014 A 
ATOM     37  C   UNL A   1      37.843  33.565  29.279  1.00  0.00     0.010 A 
ATOM     38  C   UNL A   1      37.239  32.031  31.068  1.00  0.00     0.010 A 
ATOM     39  C   UNL A   1      38.172  32.516  30.142  1.00  0.00    -0.014 A 
BRANCH  39  40
ATOM     40  C   UNL A   1      39.456  31.832  30.061  1.00  0.00     0.031 A 
ATOM     41  C   UNL A   1      39.506  30.490  29.463  1.00  0.00     0.074 A 
ATOM     42  C   UNL A   1      40.583  32.332  30.618  1.00  0.00     0.049 A 
ATOM     43  N   UNL A   1      40.216  29.518  29.931  1.00  0.00    -0.248 NA
ATOM     44  C   UNL A   1      38.693  30.130  28.311  1.00  0.00     0.031 C 
ATOM     45  C   UNL A   1      41.924  31.756  30.534  1.00  0.00     0.029 A 
ATOM     46  N   UNL A   1      40.704  33.322  31.591  1.00  0.00    -0.354 N 
ATOM     47  C   UNL A   1      40.204  28.530  28.978  1.00  0.00     0.074 A 
ATOM     48  C   UNL A   1      39.160  28.906  28.050  1.00  0.00     0.031 C 
ATOM     49  C   UNL A   1      42.620  32.140  31.616  1.00  0.00     0.029 A 
ATOM     50  C   UNL A   1      41.726  32.905  32.464  1.00  0.00     0.049 A 
ATOM     51  H   UNL A   1      40.178  34.151  31.654  1.00  0.00     0.167 HD
ATOM     52  C   UNL A   1      41.183  27.582  28.963  1.00  0.00     0.031 A 
ATOM     53  C   UNL A   1      41.557  32.750  33.808  1.00  0.00     0.031 A 
ATOM     54  C   UNL A   1      42.149  27.751  30.049  1.00  0.00     0.049 A 
ATOM     55  C   UNL A   1      41.856  31.349  34.303  1.00  0.00     0.074 A 
ATOM     56  C   UNL A   1      43.443  28.246  30.104  1.00  0.00     0.029 A 
ATOM     57  N   UNL A   1      41.724  27.647  31.366  1.00  0.00    -0.354 N 
ATOM     58  N   UNL A   1      42.211  30.352  33.541  1.00  0.00    -0.248 NA
ATOM     59  C   UNL A   1      41.646  30.934  35.688  1.00  0.00     0.031 C 
ATOM     60  C   UNL A   1      43.797  28.427  31.469  1.00  0.00     0.029 A 
ATOM     61  C   UNL A   1      42.721  28.036  32.243  1.00  0.00     0.049 A 
ATOM     62  H   UNL A   1      40.831  27.338  31.640  1.00  0.00     0.167 HD
ATOM     63  C   UNL A   1      42.218  29.186  34.269  1.00  0.00     0.074 A 
ATOM     64  C   UNL A   1      41.858  29.608  35.611  1.00  0.00     0.031 C 
ATOM     65  C   UNL A   1      42.474  27.976  33.681  1.00  0.00     0.031 A 
BRANCH  52  66
ATOM     66  C   UNL A   1      41.415  26.702  27.759  1.00  0.00    -0.014 A 
ATOM     67  C   UNL A   1      41.257  25.309  27.867  1.00  0.00     0.009 A 
ATOM     68  C   UNL A   1      41.847  27.178  26.509  1.00  0.00     0.009 A 
ATOM     69  C   UNL A   1      41.630  24.439  26.835  1.00  0.00     0.001 A 
ATOM     70  C   UNL A   1      42.272  26.313  25.491  1.00  0.00     0.001 A 
ATOM     71  C   UNL A   1      42.177  24.939  25.662  1.00  0.00     0.000 A 
ENDBRANCH  52  66
BRANCH  53  72
ATOM     72  C   UNL A   1      40.521  33.648  34.383  1.00  0.00    -0.014 A 
ATOM     73  C   UNL A   1      39.216  33.135  34.525  1.00  0.00     0.009 A 
ATOM     74  C   UNL A   1      40.891  34.773  35.133  1.00  0.00     0.009 A 
ATOM     75  C   UNL A   1      38.354  33.645  35.499  1.00  0.00     0.001 A 
ATOM     76  C   UNL A   1      40.017  35.286  36.097  1.00  0.00     0.001 A 
ATOM     77  C   UNL A   1      38.772  34.695  36.311  1.00  0.00     0.000 A 
ENDBRANCH  53  72
BRANCH  65  78
ATOM     78  C   UNL A   1      42.502  26.609  34.346  1.00  0.00    -0.014 A 
ATOM     79  C   UNL A   1      41.601  26.155  35.315  1.00  0.00     0.009 A 
ATOM     80  C   UNL A   1      43.550  25.711  34.020  1.00  0.00     0.009 A 
ATOM     81  C   UNL A   1      41.689  24.862  35.862  1.00  0.00     0.001 A 
ATOM     82  C   UNL A   1      43.653  24.428  34.566  1.00  0.00     0.001 A 
ATOM     83  C   UNL A   1      42.708  23.996  35.480  1.00  0.00     0.000 A 
ENDBRANCH  65  78
ENDBRANCH  39  40
ENDBRANCH  31  34
ENDBRANCH  29  30
ENDBRANCH  28  29
ENDBRANCH   1  28
TORSDOF 14
ENDMDL
