MODEL 1
REMARK VINA RESULT:     -12.4      0.000      0.000
REMARK SMILES C[C@@H]1CC[C@H](C)c2nc3cc(F)c(Cl)cc3c(C(=O)NCCCNC(=O)c3ccc(-c4c5nc(c(-c6ccccc6)c6ccc([nH]6)c(-c6ccccc6)c6nc(c(-c7ccccc7)c7ccc4[nH]7)C=C6)C=C5)cc3)c21
REMARK SMILES IDX 23 1 22 2 21 3 20 4 18 5 19 6 17 8 1 9 2 10 3 11 75 12 4 13
REMARK SMILES IDX 7 14 5 15 8 16 16 17 6 18 9 19 15 20 10 21 13 22 11 23 14 24
REMARK SMILES IDX 12 25 24 26 25 27 26 29 27 30 28 31 74 32 29 33 73 34 30 35
REMARK SMILES IDX 31 36 32 37 67 38 33 39 72 40 66 41 68 42 34 43 71 44 65 45
REMARK SMILES IDX 64 46 35 48 57 49 42 50 56 51 43 52 46 53 55 54 69 55 44 56
REMARK SMILES IDX 45 57 54 59 70 60 47 61 36 62 37 63 41 64 38 65 40 66 39 67
REMARK SMILES IDX 58 68 59 69 63 70 60 71 62 72 61 73 48 74 49 75 53 76 50 77
REMARK SMILES IDX 52 78 51 79
REMARK H PARENT 20 7 24 28 68 47 46 58
REMARK Flexibility Score: inf
ROOT
ATOM      1  C   UNL A   1      33.796  29.141  26.087  1.00  0.00     0.118 C 
ENDROOT
BRANCH   1   2
ATOM      2  C   UNL A   1      33.424  29.282  24.621  1.00  0.00     0.042 C 
BRANCH   2   3
ATOM      3  C   UNL A   1      34.466  28.713  23.650  1.00  0.00     0.118 C 
BRANCH   3   4
ATOM      4  N   UNL A   1      33.791  28.144  22.491  1.00  0.00    -0.352 N 
ATOM      5  C   UNL A   1      33.197  26.907  22.349  1.00  0.00     0.252 C 
ATOM      6  O   UNL A   1      33.429  26.285  21.315  1.00  0.00    -0.269 OA
ATOM      7  H   UNL A   1      33.753  28.726  21.697  1.00  0.00     0.163 HD
BRANCH   5   8
ATOM      8  C   UNL A   1      32.158  26.400  23.304  1.00  0.00     0.054 A 
ATOM      9  C   UNL A   1      34.175  23.791  23.093  1.00  0.00     0.013 C 
ATOM     10  C   UNL A   1      33.943  24.768  24.254  1.00  0.00     0.019 C 
ATOM     11  C   UNL A   1      34.270  24.075  25.591  1.00  0.00     0.009 C 
ATOM     12  C   UNL A   1      32.541  25.369  24.209  1.00  0.00    -0.010 A 
ATOM     13  C   UNL A   1      33.131  23.187  26.066  1.00  0.00     0.010 C 
ATOM     14  C   UNL A   1      31.554  24.905  25.086  1.00  0.00     0.048 A 
ATOM     15  C   UNL A   1      31.885  24.040  26.290  1.00  0.00     0.035 C 
ATOM     16  N   UNL A   1      30.266  25.312  25.015  1.00  0.00    -0.252 NA
ATOM     17  C   UNL A   1      30.844  26.951  23.365  1.00  0.00     0.015 A 
ATOM     18  C   UNL A   1      30.714  23.162  26.740  1.00  0.00     0.014 C 
ATOM     19  C   UNL A   1      29.915  26.282  24.178  1.00  0.00     0.074 A 
ATOM     20  C   UNL A   1      30.388  28.124  22.721  1.00  0.00     0.034 A 
ATOM     21  C   UNL A   1      28.577  26.647  24.161  1.00  0.00     0.069 A 
ATOM     22  C   UNL A   1      29.040  28.475  22.685  1.00  0.00     0.077 A 
ATOM     23  C   UNL A   1      28.131  27.709  23.388  1.00  0.00     0.143 A 
ATOM     24  Cl  UNL A   1      28.538  29.832  21.758  1.00  0.00    -0.081 Cl
ATOM     25  F   UNL A   1      26.822  27.998  23.368  1.00  0.00    -0.205 F 
ENDBRANCH   5   8
ENDBRANCH   3   4
ENDBRANCH   2   3
ENDBRANCH   1   2
BRANCH   1  26
ATOM     26  N   UNL A   1      33.692  30.402  26.803  1.00  0.00    -0.352 N 
ATOM     27  C   UNL A   1      34.476  30.930  27.801  1.00  0.00     0.251 C 
ATOM     28  H   UNL A   1      32.936  30.971  26.527  1.00  0.00     0.163 HD
ATOM     29  O   UNL A   1      34.071  31.913  28.423  1.00  0.00    -0.269 OA
BRANCH  27  30
ATOM     30  C   UNL A   1      35.780  30.323  28.163  1.00  0.00     0.039 A 
ATOM     31  C   UNL A   1      35.949  29.621  29.356  1.00  0.00     0.014 A 
ATOM     32  C   UNL A   1      36.856  30.428  27.275  1.00  0.00     0.014 A 
ATOM     33  C   UNL A   1      37.219  29.219  29.754  1.00  0.00     0.010 A 
ATOM     34  C   UNL A   1      38.107  29.905  27.620  1.00  0.00     0.010 A 
ATOM     35  C   UNL A   1      38.315  29.339  28.886  1.00  0.00    -0.014 A 
BRANCH  35  36
ATOM     36  C   UNL A   1      39.649  28.838  29.317  1.00  0.00     0.031 A 
ATOM     37  C   UNL A   1      40.494  29.619  30.288  1.00  0.00     0.074 A 
ATOM     38  C   UNL A   1      40.082  27.645  28.861  1.00  0.00     0.049 A 
ATOM     39  N   UNL A   1      41.674  29.319  30.774  1.00  0.00    -0.248 NA
ATOM     40  C   UNL A   1      39.957  30.900  30.776  1.00  0.00     0.031 C 
ATOM     41  C   UNL A   1      39.347  26.785  27.929  1.00  0.00     0.029 A 
ATOM     42  N   UNL A   1      41.222  26.932  29.136  1.00  0.00    -0.354 N 
ATOM     43  C   UNL A   1      42.028  30.381  31.599  1.00  0.00     0.074 A 
ATOM     44  C   UNL A   1      40.955  31.347  31.527  1.00  0.00     0.031 C 
ATOM     45  C   UNL A   1      40.017  25.637  27.767  1.00  0.00     0.029 A 
ATOM     46  C   UNL A   1      41.273  25.712  28.505  1.00  0.00     0.049 A 
ATOM     47  H   UNL A   1      41.935  27.263  29.729  1.00  0.00     0.167 HD
ATOM     48  C   UNL A   1      43.143  30.529  32.353  1.00  0.00     0.031 A 
ATOM     49  C   UNL A   1      42.225  24.758  28.497  1.00  0.00     0.031 A 
ATOM     50  C   UNL A   1      44.197  29.552  32.434  1.00  0.00     0.049 A 
ATOM     51  C   UNL A   1      43.473  24.968  29.303  1.00  0.00     0.074 A 
ATOM     52  C   UNL A   1      45.348  29.599  33.203  1.00  0.00     0.029 A 
ATOM     53  N   UNL A   1      44.236  28.359  31.728  1.00  0.00    -0.354 N 
ATOM     54  N   UNL A   1      43.781  25.969  30.092  1.00  0.00    -0.248 NA
ATOM     55  C   UNL A   1      44.504  23.925  29.223  1.00  0.00     0.031 C 
ATOM     56  C   UNL A   1      46.121  28.478  32.899  1.00  0.00     0.029 A 
ATOM     57  C   UNL A   1      45.410  27.683  32.014  1.00  0.00     0.049 A 
ATOM     58  H   UNL A   1      43.533  28.040  31.117  1.00  0.00     0.167 HD
ATOM     59  C   UNL A   1      45.032  25.671  30.614  1.00  0.00     0.074 A 
ATOM     60  C   UNL A   1      45.416  24.384  30.070  1.00  0.00     0.031 C 
ATOM     61  C   UNL A   1      45.790  26.403  31.466  1.00  0.00     0.031 A 
BRANCH  48  62
ATOM     62  C   UNL A   1      43.309  31.798  33.148  1.00  0.00    -0.014 A 
ATOM     63  C   UNL A   1      42.761  31.882  34.439  1.00  0.00     0.009 A 
ATOM     64  C   UNL A   1      43.898  32.943  32.590  1.00  0.00     0.009 A 
ATOM     65  C   UNL A   1      42.776  33.088  35.144  1.00  0.00     0.001 A 
ATOM     66  C   UNL A   1      43.944  34.140  33.311  1.00  0.00     0.001 A 
ATOM     67  C   UNL A   1      43.372  34.214  34.580  1.00  0.00     0.000 A 
ENDBRANCH  48  62
BRANCH  49  68
ATOM     68  C   UNL A   1      42.008  23.526  27.691  1.00  0.00    -0.014 A 
ATOM     69  C   UNL A   1      41.397  22.397  28.265  1.00  0.00     0.009 A 
ATOM     70  C   UNL A   1      42.491  23.436  26.377  1.00  0.00     0.009 A 
ATOM     71  C   UNL A   1      41.318  21.194  27.561  1.00  0.00     0.001 A 
ATOM     72  C   UNL A   1      42.374  22.241  25.661  1.00  0.00     0.001 A 
ATOM     73  C   UNL A   1      41.804  21.117  26.258  1.00  0.00     0.000 A 
ENDBRANCH  49  68
BRANCH  61  74
ATOM     74  C   UNL A   1      47.122  25.845  31.889  1.00  0.00    -0.014 A 
ATOM     75  C   UNL A   1      47.244  25.206  33.135  1.00  0.00     0.009 A 
ATOM     76  C   UNL A   1      48.276  26.062  31.122  1.00  0.00     0.009 A 
ATOM     77  C   UNL A   1      48.496  24.824  33.617  1.00  0.00     0.001 A 
ATOM     78  C   UNL A   1      49.524  25.644  31.591  1.00  0.00     0.001 A 
ATOM     79  C   UNL A   1      49.634  25.039  32.843  1.00  0.00     0.000 A 
ENDBRANCH  61  74
ENDBRANCH  35  36
ENDBRANCH  27  30
ENDBRANCH   1  26
TORSDOF 10
ENDMDL
MODEL 2
REMARK VINA RESULT:     -12.3      1.236      6.020
REMARK SMILES C[C@@H]1CC[C@H](C)c2nc3cc(F)c(Cl)cc3c(C(=O)NCCCNC(=O)c3ccc(-c4c5nc(c(-c6ccccc6)c6ccc([nH]6)c(-c6ccccc6)c6nc(c(-c7ccccc7)c7ccc4[nH]7)C=C6)C=C5)cc3)c21
REMARK SMILES IDX 23 1 22 2 21 3 20 4 18 5 19 6 17 8 1 9 2 10 3 11 75 12 4 13
REMARK SMILES IDX 7 14 5 15 8 16 16 17 6 18 9 19 15 20 10 21 13 22 11 23 14 24
REMARK SMILES IDX 12 25 24 26 25 27 26 29 27 30 28 31 74 32 29 33 73 34 30 35
REMARK SMILES IDX 31 36 32 37 67 38 33 39 72 40 66 41 68 42 34 43 71 44 65 45
REMARK SMILES IDX 64 46 35 48 57 49 42 50 56 51 43 52 46 53 55 54 69 55 44 56
REMARK SMILES IDX 45 57 54 59 70 60 47 61 36 62 37 63 41 64 38 65 40 66 39 67
REMARK SMILES IDX 58 68 59 69 63 70 60 71 62 72 61 73 48 74 49 75 53 76 50 77
REMARK SMILES IDX 52 78 51 79
REMARK H PARENT 20 7 24 28 68 47 46 58
REMARK Flexibility Score: inf
ROOT
ATOM      1  C   UNL A   1      33.619  29.061  27.238  1.00  0.00     0.118 C 
ENDROOT
BRANCH   1   2
ATOM      2  C   UNL A   1      33.259  29.134  25.765  1.00  0.00     0.042 C 
BRANCH   2   3
ATOM      3  C   UNL A   1      34.417  28.798  24.816  1.00  0.00     0.118 C 
BRANCH   3   4
ATOM      4  N   UNL A   1      33.889  28.504  23.491  1.00  0.00    -0.352 N 
ATOM      5  C   UNL A   1      33.283  27.354  23.029  1.00  0.00     0.252 C 
ATOM      6  O   UNL A   1      33.635  26.933  21.930  1.00  0.00    -0.269 OA
ATOM      7  H   UNL A   1      33.977  29.230  22.831  1.00  0.00     0.163 HD
BRANCH   5   8
ATOM      8  C   UNL A   1      32.109  26.730  23.722  1.00  0.00     0.054 A 
ATOM      9  C   UNL A   1      34.231  24.198  23.632  1.00  0.00     0.013 C 
ATOM     10  C   UNL A   1      33.755  25.046  24.821  1.00  0.00     0.019 C 
ATOM     11  C   UNL A   1      33.861  24.226  26.121  1.00  0.00     0.009 C 
ATOM     12  C   UNL A   1      32.361  25.620  24.577  1.00  0.00    -0.010 A 
ATOM     13  C   UNL A   1      32.690  23.270  26.289  1.00  0.00     0.010 C 
ATOM     14  C   UNL A   1      31.251  25.047  25.208  1.00  0.00     0.048 A 
ATOM     15  C   UNL A   1      31.392  24.070  26.362  1.00  0.00     0.035 C 
ATOM     16  N   UNL A   1      29.982  25.433  24.941  1.00  0.00    -0.252 NA
ATOM     17  C   UNL A   1      30.785  27.244  23.594  1.00  0.00     0.015 A 
ATOM     18  C   UNL A   1      30.194  23.126  26.501  1.00  0.00     0.014 C 
ATOM     19  C   UNL A   1      29.751  26.477  24.152  1.00  0.00     0.074 A 
ATOM     20  C   UNL A   1      30.408  28.469  22.994  1.00  0.00     0.034 A 
ATOM     21  C   UNL A   1      28.425  26.814  23.925  1.00  0.00     0.069 A 
ATOM     22  C   UNL A   1      29.075  28.793  22.745  1.00  0.00     0.077 A 
ATOM     23  C   UNL A   1      28.085  27.940  23.191  1.00  0.00     0.143 A 
ATOM     24  Cl  UNL A   1      28.698  30.228  21.878  1.00  0.00    -0.081 Cl
ATOM     25  F   UNL A   1      26.791  28.203  22.958  1.00  0.00    -0.205 F 
ENDBRANCH   5   8
ENDBRANCH   3   4
ENDBRANCH   2   3
ENDBRANCH   1   2
BRANCH   1  26
ATOM     26  N   UNL A   1      33.674  30.375  27.856  1.00  0.00    -0.352 N 
ATOM     27  C   UNL A   1      34.660  30.969  28.608  1.00  0.00     0.251 C 
ATOM     28  H   UNL A   1      32.875  30.932  27.711  1.00  0.00     0.163 HD
ATOM     29  O   UNL A   1      34.403  32.004  29.223  1.00  0.00    -0.269 OA
BRANCH  27  30
ATOM     30  C   UNL A   1      36.014  30.373  28.717  1.00  0.00     0.039 A 
ATOM     31  C   UNL A   1      36.426  29.707  29.871  1.00  0.00     0.014 A 
ATOM     32  C   UNL A   1      36.888  30.450  27.626  1.00  0.00     0.014 A 
ATOM     33  C   UNL A   1      37.752  29.317  30.016  1.00  0.00     0.010 A 
ATOM     34  C   UNL A   1      38.186  29.936  27.726  1.00  0.00     0.010 A 
ATOM     35  C   UNL A   1      38.649  29.409  28.941  1.00  0.00    -0.014 A 
BRANCH  35  36
ATOM     36  C   UNL A   1      40.045  28.921  29.107  1.00  0.00     0.031 A 
ATOM     37  C   UNL A   1      40.438  27.532  28.679  1.00  0.00     0.074 A 
ATOM     38  C   UNL A   1      40.979  29.756  29.609  1.00  0.00     0.049 A 
ATOM     39  N   UNL A   1      41.612  26.954  28.744  1.00  0.00    -0.248 NA
ATOM     40  C   UNL A   1      39.383  26.676  28.110  1.00  0.00     0.031 C 
ATOM     41  C   UNL A   1      40.727  31.132  30.044  1.00  0.00     0.029 A 
ATOM     42  N   UNL A   1      42.326  29.588  29.811  1.00  0.00    -0.354 N 
ATOM     43  C   UNL A   1      41.431  25.666  28.252  1.00  0.00     0.074 A 
ATOM     44  C   UNL A   1      40.031  25.534  27.919  1.00  0.00     0.031 C 
ATOM     45  C   UNL A   1      41.888  31.703  30.393  1.00  0.00     0.029 A 
ATOM     46  C   UNL A   1      42.953  30.711  30.297  1.00  0.00     0.049 A 
ATOM     47  H   UNL A   1      42.798  28.744  29.625  1.00  0.00     0.167 HD
ATOM     48  C   UNL A   1      42.354  24.689  28.086  1.00  0.00     0.031 A 
ATOM     49  C   UNL A   1      44.235  30.927  30.649  1.00  0.00     0.031 A 
ATOM     50  C   UNL A   1      43.752  24.837  28.401  1.00  0.00     0.049 A 
ATOM     51  C   UNL A   1      45.229  29.812  30.499  1.00  0.00     0.074 A 
ATOM     52  C   UNL A   1      44.768  23.913  28.229  1.00  0.00     0.029 A 
ATOM     53  N   UNL A   1      44.329  25.971  28.950  1.00  0.00    -0.354 N 
ATOM     54  N   UNL A   1      45.044  28.608  30.014  1.00  0.00    -0.248 NA
ATOM     55  C   UNL A   1      46.604  30.078  30.943  1.00  0.00     0.031 C 
ATOM     56  C   UNL A   1      45.943  24.456  28.751  1.00  0.00     0.029 A 
ATOM     57  C   UNL A   1      45.681  25.754  29.161  1.00  0.00     0.049 A 
ATOM     58  H   UNL A   1      43.852  26.806  29.158  1.00  0.00     0.167 HD
ATOM     59  C   UNL A   1      46.279  27.979  30.078  1.00  0.00     0.074 A 
ATOM     60  C   UNL A   1      47.211  28.941  30.629  1.00  0.00     0.031 C 
ATOM     61  C   UNL A   1      46.605  26.715  29.713  1.00  0.00     0.031 A 
BRANCH  48  62
ATOM     62  C   UNL A   1      41.900  23.355  27.553  1.00  0.00    -0.014 A 
ATOM     63  C   UNL A   1      41.447  22.370  28.448  1.00  0.00     0.009 A 
ATOM     64  C   UNL A   1      42.026  23.025  26.195  1.00  0.00     0.009 A 
ATOM     65  C   UNL A   1      41.153  21.081  28.001  1.00  0.00     0.001 A 
ATOM     66  C   UNL A   1      41.698  21.743  25.744  1.00  0.00     0.001 A 
ATOM     67  C   UNL A   1      41.275  20.770  26.648  1.00  0.00     0.000 A 
ENDBRANCH  48  62
BRANCH  49  68
ATOM     68  C   UNL A   1      44.627  32.264  31.171  1.00  0.00    -0.014 A 
ATOM     69  C   UNL A   1      45.117  33.254  30.301  1.00  0.00     0.009 A 
ATOM     70  C   UNL A   1      44.603  32.529  32.548  1.00  0.00     0.009 A 
ATOM     71  C   UNL A   1      45.618  34.458  30.800  1.00  0.00     0.001 A 
ATOM     72  C   UNL A   1      45.068  33.752  33.041  1.00  0.00     0.001 A 
ATOM     73  C   UNL A   1      45.591  34.707  32.170  1.00  0.00     0.000 A 
ENDBRANCH  49  68
BRANCH  61  74
ATOM     74  C   UNL A   1      48.033  26.274  29.881  1.00  0.00    -0.014 A 
ATOM     75  C   UNL A   1      48.897  26.279  28.773  1.00  0.00     0.009 A 
ATOM     76  C   UNL A   1      48.488  25.734  31.093  1.00  0.00     0.009 A 
ATOM     77  C   UNL A   1      50.175  25.727  28.865  1.00  0.00     0.001 A 
ATOM     78  C   UNL A   1      49.782  25.216  31.193  1.00  0.00     0.001 A 
ATOM     79  C   UNL A   1      50.618  25.200  30.076  1.00  0.00     0.000 A 
ENDBRANCH  61  74
ENDBRANCH  35  36
ENDBRANCH  27  30
ENDBRANCH   1  26
TORSDOF 10
ENDMDL
MODEL 3
REMARK VINA RESULT:     -12.3      1.137      1.445
REMARK SMILES C[C@@H]1CC[C@H](C)c2nc3cc(F)c(Cl)cc3c(C(=O)NCCCNC(=O)c3ccc(-c4c5nc(c(-c6ccccc6)c6ccc([nH]6)c(-c6ccccc6)c6nc(c(-c7ccccc7)c7ccc4[nH]7)C=C6)C=C5)cc3)c21
REMARK SMILES IDX 23 1 22 2 21 3 20 4 18 5 19 6 17 8 1 9 2 10 3 11 75 12 4 13
REMARK SMILES IDX 7 14 5 15 8 16 16 17 6 18 9 19 15 20 10 21 13 22 11 23 14 24
REMARK SMILES IDX 12 25 24 26 25 27 26 29 27 30 28 31 74 32 29 33 73 34 30 35
REMARK SMILES IDX 31 36 32 37 67 38 33 39 72 40 66 41 68 42 34 43 71 44 65 45
REMARK SMILES IDX 64 46 35 48 57 49 42 50 56 51 43 52 46 53 55 54 69 55 44 56
REMARK SMILES IDX 45 57 54 59 70 60 47 61 36 62 37 63 41 64 38 65 40 66 39 67
REMARK SMILES IDX 58 68 59 69 63 70 60 71 62 72 61 73 48 74 49 75 53 76 50 77
REMARK SMILES IDX 52 78 51 79
REMARK H PARENT 20 7 24 28 68 47 46 58
REMARK Flexibility Score: inf
ROOT
ATOM      1  C   UNL A   1      33.631  29.120  27.246  1.00  0.00     0.118 C 
ENDROOT
BRANCH   1   2
ATOM      2  C   UNL A   1      33.289  29.255  25.773  1.00  0.00     0.042 C 
BRANCH   2   3
ATOM      3  C   UNL A   1      34.446  28.920  24.824  1.00  0.00     0.118 C 
BRANCH   3   4
ATOM      4  N   UNL A   1      33.919  28.633  23.497  1.00  0.00    -0.352 N 
ATOM      5  C   UNL A   1      33.334  27.477  23.023  1.00  0.00     0.252 C 
ATOM      6  O   UNL A   1      33.690  27.077  21.917  1.00  0.00    -0.269 OA
ATOM      7  H   UNL A   1      33.990  29.369  22.847  1.00  0.00     0.163 HD
BRANCH   5   8
ATOM      8  C   UNL A   1      32.176  26.820  23.713  1.00  0.00     0.054 A 
ATOM      9  C   UNL A   1      34.360  24.343  23.611  1.00  0.00     0.013 C 
ATOM     10  C   UNL A   1      33.863  25.172  24.804  1.00  0.00     0.019 C 
ATOM     11  C   UNL A   1      33.989  24.350  26.101  1.00  0.00     0.009 C 
ATOM     12  C   UNL A   1      32.455  25.713  24.563  1.00  0.00    -0.010 A 
ATOM     13  C   UNL A   1      32.842  23.364  26.264  1.00  0.00     0.010 C 
ATOM     14  C   UNL A   1      31.360  25.110  25.191  1.00  0.00     0.048 A 
ATOM     15  C   UNL A   1      31.525  24.131  26.340  1.00  0.00     0.035 C 
ATOM     16  N   UNL A   1      30.081  25.465  24.925  1.00  0.00    -0.252 NA
ATOM     17  C   UNL A   1      30.840  27.302  23.587  1.00  0.00     0.015 A 
ATOM     18  C   UNL A   1      30.350  23.157  26.474  1.00  0.00     0.014 C 
ATOM     19  C   UNL A   1      29.824  26.507  24.141  1.00  0.00     0.074 A 
ATOM     20  C   UNL A   1      30.432  28.520  22.993  1.00  0.00     0.034 A 
ATOM     21  C   UNL A   1      28.491  26.812  23.915  1.00  0.00     0.069 A 
ATOM     22  C   UNL A   1      29.092  28.812  22.745  1.00  0.00     0.077 A 
ATOM     23  C   UNL A   1      28.123  27.933  23.186  1.00  0.00     0.143 A 
ATOM     24  Cl  UNL A   1      28.679  30.242  21.884  1.00  0.00    -0.081 Cl
ATOM     25  F   UNL A   1      26.823  28.165  22.954  1.00  0.00    -0.205 F 
ENDBRANCH   5   8
ENDBRANCH   3   4
ENDBRANCH   2   3
ENDBRANCH   1   2
BRANCH   1  26
ATOM     26  N   UNL A   1      33.675  30.407  27.920  1.00  0.00    -0.352 N 
ATOM     27  C   UNL A   1      34.658  30.977  28.694  1.00  0.00     0.251 C 
ATOM     28  H   UNL A   1      32.869  30.961  27.802  1.00  0.00     0.163 HD
ATOM     29  O   UNL A   1      34.391  31.982  29.355  1.00  0.00    -0.269 OA
BRANCH  27  30
ATOM     30  C   UNL A   1      36.018  30.391  28.773  1.00  0.00     0.039 A 
ATOM     31  C   UNL A   1      36.455  29.718  29.913  1.00  0.00     0.014 A 
ATOM     32  C   UNL A   1      36.872  30.487  27.668  1.00  0.00     0.014 A 
ATOM     33  C   UNL A   1      37.787  29.337  30.031  1.00  0.00     0.010 A 
ATOM     34  C   UNL A   1      38.176  29.983  27.740  1.00  0.00     0.010 A 
ATOM     35  C   UNL A   1      38.664  29.448  28.941  1.00  0.00    -0.014 A 
BRANCH  35  36
ATOM     36  C   UNL A   1      40.067  28.970  29.078  1.00  0.00     0.031 A 
ATOM     37  C   UNL A   1      41.127  29.840  29.700  1.00  0.00     0.074 A 
ATOM     38  C   UNL A   1      40.378  27.720  28.677  1.00  0.00     0.049 A 
ATOM     39  N   UNL A   1      42.392  29.572  29.905  1.00  0.00    -0.248 NA
ATOM     40  C   UNL A   1      40.722  31.184  30.147  1.00  0.00     0.031 C 
ATOM     41  C   UNL A   1      39.436  26.773  28.075  1.00  0.00     0.029 A 
ATOM     42  N   UNL A   1      41.555  27.017  28.740  1.00  0.00    -0.354 N 
ATOM     43  C   UNL A   1      42.938  30.717  30.476  1.00  0.00     0.074 A 
ATOM     44  C   UNL A   1      41.876  31.693  30.560  1.00  0.00     0.031 C 
ATOM     45  C   UNL A   1      40.051  25.597  27.891  1.00  0.00     0.029 A 
ATOM     46  C   UNL A   1      41.452  25.729  28.272  1.00  0.00     0.049 A 
ATOM     47  H   UNL A   1      42.393  27.400  29.088  1.00  0.00     0.167 HD
ATOM     48  C   UNL A   1      44.207  30.927  30.899  1.00  0.00     0.031 A 
ATOM     49  C   UNL A   1      42.377  24.758  28.140  1.00  0.00     0.031 A 
ATOM     50  C   UNL A   1      45.254  29.941  30.830  1.00  0.00     0.049 A 
ATOM     51  C   UNL A   1      43.788  25.032  28.572  1.00  0.00     0.074 A 
ATOM     52  C   UNL A   1      46.561  30.051  31.270  1.00  0.00     0.029 A 
ATOM     53  N   UNL A   1      45.119  28.671  30.289  1.00  0.00    -0.354 N 
ATOM     54  N   UNL A   1      44.279  26.114  29.128  1.00  0.00    -0.248 NA
ATOM     55  C   UNL A   1      44.772  23.962  28.362  1.00  0.00     0.031 C 
ATOM     56  C   UNL A   1      47.239  28.883  30.921  1.00  0.00     0.029 A 
ATOM     57  C   UNL A   1      46.332  28.005  30.349  1.00  0.00     0.049 A 
ATOM     58  H   UNL A   1      44.287  28.299  29.920  1.00  0.00     0.167 HD
ATOM     59  C   UNL A   1      45.624  25.849  29.348  1.00  0.00     0.074 A 
ATOM     60  C   UNL A   1      45.866  24.497  28.887  1.00  0.00     0.031 C 
ATOM     61  C   UNL A   1      46.569  26.659  29.885  1.00  0.00     0.031 A 
BRANCH  48  62
ATOM     62  C   UNL A   1      44.562  32.278  31.464  1.00  0.00    -0.014 A 
ATOM     63  C   UNL A   1      45.030  33.286  30.605  1.00  0.00     0.009 A 
ATOM     64  C   UNL A   1      44.547  32.522  32.846  1.00  0.00     0.009 A 
ATOM     65  C   UNL A   1      45.499  34.499  31.116  1.00  0.00     0.001 A 
ATOM     66  C   UNL A   1      44.983  33.750  33.353  1.00  0.00     0.001 A 
ATOM     67  C   UNL A   1      45.470  34.731  32.490  1.00  0.00     0.000 A 
ENDBRANCH  48  62
BRANCH  49  68
ATOM     68  C   UNL A   1      41.971  23.444  27.572  1.00  0.00    -0.014 A 
ATOM     69  C   UNL A   1      41.453  22.436  28.406  1.00  0.00     0.009 A 
ATOM     70  C   UNL A   1      42.182  23.153  26.217  1.00  0.00     0.009 A 
ATOM     71  C   UNL A   1      41.203  21.157  27.908  1.00  0.00     0.001 A 
ATOM     72  C   UNL A   1      41.893  21.882  25.712  1.00  0.00     0.001 A 
ATOM     73  C   UNL A   1      41.420  20.881  26.560  1.00  0.00     0.000 A 
ENDBRANCH  49  68
BRANCH  61  74
ATOM     74  C   UNL A   1      47.968  26.124  30.021  1.00  0.00    -0.014 A 
ATOM     75  C   UNL A   1      48.406  25.633  31.263  1.00  0.00     0.009 A 
ATOM     76  C   UNL A   1      48.889  26.222  28.968  1.00  0.00     0.009 A 
ATOM     77  C   UNL A   1      49.742  25.281  31.457  1.00  0.00     0.001 A 
ATOM     78  C   UNL A   1      50.218  25.833  29.153  1.00  0.00     0.001 A 
ATOM     79  C   UNL A   1      50.645  25.377  30.401  1.00  0.00     0.000 A 
ENDBRANCH  61  74
ENDBRANCH  35  36
ENDBRANCH  27  30
ENDBRANCH   1  26
TORSDOF 10
ENDMDL
