MODEL 1
REMARK VINA RESULT:     -12.3      0.000      0.000
REMARK SMILES C[C@@H](C(=O)NCCCNC(=O)c1ccc(-c2c3nc(c(-c4ccccc4)c4ccc([nH]4)c(-c4ccccc4)c4nc(c(-c5ccccc5)c5ccc2[nH]5)C=C4)C=C3)cc1)c1ccc(C[C@H]2CCCC2=O)cc1-c1ccc(F)cc1
REMARK SMILES IDX 6 1 5 2 3 3 4 4 2 6 1 7 60 8 61 9 72 10 62 11 71 12 63 13
REMARK SMILES IDX 73 14 74 15 79 16 75 17 78 18 76 19 77 20 64 21 65 22 66 23
REMARK SMILES IDX 69 24 67 25 68 26 70 27 7 28 8 29 9 30 10 31 11 33 12 34
REMARK SMILES IDX 13 35 59 36 14 37 58 38 15 39 16 40 17 41 52 42 18 43 57 44
REMARK SMILES IDX 51 45 53 46 19 47 56 48 50 49 49 50 20 52 42 53 27 54 41 55
REMARK SMILES IDX 28 56 31 57 40 58 54 59 29 60 30 61 39 63 55 64 32 65 21 66
REMARK SMILES IDX 22 67 26 68 23 69 25 70 24 71 43 72 44 73 48 74 45 75 47 76
REMARK SMILES IDX 46 77 33 78 34 79 38 80 35 81 37 82 36 83
REMARK H PARENT 5 5 9 32 53 51 31 62
REMARK Flexibility Score: inf
ROOT
ATOM      1  C   UNL A   1      31.004  31.096  25.375  1.00  0.00     0.117 C 
ENDROOT
BRANCH   1   2
ATOM      2  N   UNL A   1      32.229  30.327  25.321  1.00  0.00    -0.356 N 
ATOM      3  C   UNL A   1      32.469  29.007  25.563  1.00  0.00     0.227 C 
ATOM      4  O   UNL A   1      33.567  28.590  25.188  1.00  0.00    -0.274 OA
ATOM      5  H   UNL A   1      33.026  30.847  25.066  1.00  0.00     0.163 HD
BRANCH   3   6
ATOM      6  C   UNL A   1      31.376  28.098  26.151  1.00  0.00     0.106 C 
ATOM      7  C   UNL A   1      31.445  27.858  27.663  1.00  0.00     0.023 C 
BRANCH   6   8
ATOM      8  C   UNL A   1      31.237  26.756  25.418  1.00  0.00    -0.028 A 
ATOM      9  C   UNL A   1      31.800  25.633  26.060  1.00  0.00     0.005 A 
ATOM     10  C   UNL A   1      30.605  26.576  24.160  1.00  0.00    -0.014 A 
ATOM     11  C   UNL A   1      31.767  24.368  25.478  1.00  0.00     0.004 A 
ATOM     12  C   UNL A   1      30.624  25.291  23.575  1.00  0.00     0.012 A 
ATOM     13  C   UNL A   1      31.210  24.188  24.212  1.00  0.00    -0.047 A 
BRANCH  10  14
ATOM     14  C   UNL A   1      29.853  27.633  23.456  1.00  0.00    -0.018 A 
ATOM     15  C   UNL A   1      28.451  27.689  23.584  1.00  0.00     0.012 A 
ATOM     16  C   UNL A   1      30.480  28.583  22.637  1.00  0.00     0.012 A 
ATOM     17  C   UNL A   1      27.708  28.697  22.969  1.00  0.00     0.040 A 
ATOM     18  C   UNL A   1      29.740  29.606  22.034  1.00  0.00     0.040 A 
ATOM     19  C   UNL A   1      28.363  29.657  22.212  1.00  0.00     0.123 A 
ATOM     20  F   UNL A   1      27.659  30.647  21.646  1.00  0.00    -0.207 F 
ENDBRANCH  10  14
BRANCH  13  21
ATOM     21  C   UNL A   1      31.224  22.828  23.555  1.00  0.00     0.047 C 
BRANCH  21  22
ATOM     22  C   UNL A   1      32.535  22.413  22.873  1.00  0.00     0.060 C 
ATOM     23  C   UNL A   1      33.311  23.527  22.165  1.00  0.00     0.012 C 
ATOM     24  C   UNL A   1      33.562  21.885  23.849  1.00  0.00     0.136 C 
ATOM     25  C   UNL A   1      34.382  23.988  23.146  1.00  0.00     0.009 C 
ATOM     26  C   UNL A   1      34.806  22.734  23.898  1.00  0.00     0.076 C 
ATOM     27  O   UNL A   1      33.412  20.868  24.515  1.00  0.00    -0.299 OA
ENDBRANCH  21  22
ENDBRANCH  13  21
ENDBRANCH   6   8
ENDBRANCH   3   6
ENDBRANCH   1   2
BRANCH   1  28
ATOM     28  C   UNL A   1      30.988  32.095  26.529  1.00  0.00     0.042 C 
BRANCH  28  29
ATOM     29  C   UNL A   1      32.370  32.589  26.958  1.00  0.00     0.118 C 
BRANCH  29  30
ATOM     30  N   UNL A   1      32.323  33.888  27.610  1.00  0.00    -0.352 N 
ATOM     31  C   UNL A   1      33.129  34.445  28.567  1.00  0.00     0.251 C 
ATOM     32  H   UNL A   1      31.585  34.468  27.310  1.00  0.00     0.163 HD
ATOM     33  O   UNL A   1      32.779  35.491  29.105  1.00  0.00    -0.269 OA
BRANCH  31  34
ATOM     34  C   UNL A   1      34.403  33.808  28.972  1.00  0.00     0.039 A 
ATOM     35  C   UNL A   1      35.534  34.037  28.180  1.00  0.00     0.014 A 
ATOM     36  C   UNL A   1      34.485  32.939  30.064  1.00  0.00     0.014 A 
ATOM     37  C   UNL A   1      36.749  33.435  28.508  1.00  0.00     0.010 A 
ATOM     38  C   UNL A   1      35.715  32.387  30.427  1.00  0.00     0.010 A 
ATOM     39  C   UNL A   1      36.857  32.625  29.649  1.00  0.00    -0.014 A 
BRANCH  39  40
ATOM     40  C   UNL A   1      38.166  32.042  30.035  1.00  0.00     0.031 A 
ATOM     41  C   UNL A   1      39.084  32.763  30.982  1.00  0.00     0.074 A 
ATOM     42  C   UNL A   1      38.539  30.860  29.508  1.00  0.00     0.049 A 
ATOM     43  N   UNL A   1      40.248  32.384  31.448  1.00  0.00    -0.248 NA
ATOM     44  C   UNL A   1      38.649  34.086  31.455  1.00  0.00     0.031 C 
ATOM     45  C   UNL A   1      37.762  30.081  28.542  1.00  0.00     0.029 A 
ATOM     46  N   UNL A   1      39.665  30.104  29.715  1.00  0.00    -0.354 N 
ATOM     47  C   UNL A   1      40.687  33.422  32.261  1.00  0.00     0.074 A 
ATOM     48  C   UNL A   1      39.686  34.465  32.188  1.00  0.00     0.031 C 
ATOM     49  C   UNL A   1      38.419  28.943  28.265  1.00  0.00     0.029 A 
ATOM     50  C   UNL A   1      39.672  28.925  29.013  1.00  0.00     0.049 A 
ATOM     51  H   UNL A   1      40.399  30.381  30.311  1.00  0.00     0.167 HD
ATOM     52  C   UNL A   1      41.812  33.496  33.013  1.00  0.00     0.031 A 
ATOM     53  C   UNL A   1      40.580  27.933  28.979  1.00  0.00     0.031 A 
ATOM     54  C   UNL A   1      42.808  32.461  33.089  1.00  0.00     0.049 A 
ATOM     55  C   UNL A   1      41.813  28.033  29.829  1.00  0.00     0.074 A 
ATOM     56  C   UNL A   1      43.958  32.423  33.861  1.00  0.00     0.029 A 
ATOM     57  N   UNL A   1      42.776  31.279  32.366  1.00  0.00    -0.354 N 
ATOM     58  N   UNL A   1      42.179  28.992  30.643  1.00  0.00    -0.248 NA
ATOM     59  C   UNL A   1      42.751  26.903  29.764  1.00  0.00     0.031 C 
ATOM     60  C   UNL A   1      44.641  31.236  33.573  1.00  0.00     0.029 A 
ATOM     61  C   UNL A   1      43.894  30.514  32.657  1.00  0.00     0.049 A 
ATOM     62  H   UNL A   1      42.063  31.021  31.736  1.00  0.00     0.167 HD
ATOM     63  C   UNL A   1      43.380  28.577  31.200  1.00  0.00     0.074 A 
ATOM     64  C   UNL A   1      43.668  27.269  30.649  1.00  0.00     0.031 C 
ATOM     65  C   UNL A   1      44.175  29.223  32.088  1.00  0.00     0.031 A 
BRANCH  52  66
ATOM     66  C   UNL A   1      42.022  34.748  33.816  1.00  0.00    -0.014 A 
ATOM     67  C   UNL A   1      41.559  34.847  35.138  1.00  0.00     0.009 A 
ATOM     68  C   UNL A   1      42.722  35.829  33.259  1.00  0.00     0.009 A 
ATOM     69  C   UNL A   1      41.762  36.016  35.874  1.00  0.00     0.001 A 
ATOM     70  C   UNL A   1      42.946  36.988  34.006  1.00  0.00     0.001 A 
ATOM     71  C   UNL A   1      42.457  37.084  35.308  1.00  0.00     0.000 A 
ENDBRANCH  52  66
BRANCH  53  72
ATOM     72  C   UNL A   1      40.343  26.742  28.124  1.00  0.00    -0.014 A 
ATOM     73  C   UNL A   1      40.884  26.675  26.832  1.00  0.00     0.009 A 
ATOM     74  C   UNL A   1      39.579  25.665  28.599  1.00  0.00     0.009 A 
ATOM     75  C   UNL A   1      40.644  25.563  26.022  1.00  0.00     0.001 A 
ATOM     76  C   UNL A   1      39.363  24.543  27.797  1.00  0.00     0.001 A 
ATOM     77  C   UNL A   1      39.888  24.496  26.507  1.00  0.00     0.000 A 
ENDBRANCH  53  72
BRANCH  65  78
ATOM     78  C   UNL A   1      45.425  28.511  32.521  1.00  0.00    -0.014 A 
ATOM     79  C   UNL A   1      46.636  28.691  31.833  1.00  0.00     0.009 A 
ATOM     80  C   UNL A   1      45.393  27.661  33.636  1.00  0.00     0.009 A 
ATOM     81  C   UNL A   1      47.782  28.002  32.233  1.00  0.00     0.001 A 
ATOM     82  C   UNL A   1      46.548  26.993  34.048  1.00  0.00     0.001 A 
ATOM     83  C   UNL A   1      47.738  27.156  33.340  1.00  0.00     0.000 A 
ENDBRANCH  65  78
ENDBRANCH  39  40
ENDBRANCH  31  34
ENDBRANCH  29  30
ENDBRANCH  28  29
ENDBRANCH   1  28
TORSDOF 14
ENDMDL
MODEL 2
REMARK VINA RESULT:     -12.2      4.175      9.403
REMARK SMILES C[C@@H](C(=O)NCCCNC(=O)c1ccc(-c2c3nc(c(-c4ccccc4)c4ccc([nH]4)c(-c4ccccc4)c4nc(c(-c5ccccc5)c5ccc2[nH]5)C=C4)C=C3)cc1)c1ccc(C[C@H]2CCCC2=O)cc1-c1ccc(F)cc1
REMARK SMILES IDX 6 1 5 2 3 3 4 4 2 6 1 7 60 8 61 9 72 10 62 11 71 12 63 13
REMARK SMILES IDX 73 14 74 15 79 16 75 17 78 18 76 19 77 20 64 21 65 22 66 23
REMARK SMILES IDX 69 24 67 25 68 26 70 27 7 28 8 29 9 30 10 31 11 33 12 34
REMARK SMILES IDX 13 35 59 36 14 37 58 38 15 39 16 40 17 41 52 42 18 43 57 44
REMARK SMILES IDX 51 45 53 46 19 47 56 48 50 49 49 50 20 52 42 53 27 54 41 55
REMARK SMILES IDX 28 56 31 57 40 58 54 59 29 60 30 61 39 63 55 64 32 65 21 66
REMARK SMILES IDX 22 67 26 68 23 69 25 70 24 71 43 72 44 73 48 74 45 75 47 76
REMARK SMILES IDX 46 77 33 78 34 79 38 80 35 81 37 82 36 83
REMARK H PARENT 5 5 9 32 53 51 31 62
REMARK Flexibility Score: inf
ROOT
ATOM      1  C   UNL A   1      36.479  19.603  25.012  1.00  0.00     0.117 C 
ENDROOT
BRANCH   1   2
ATOM      2  N   UNL A   1      36.242  20.815  25.768  1.00  0.00    -0.356 N 
ATOM      3  C   UNL A   1      35.690  22.006  25.399  1.00  0.00     0.227 C 
ATOM      4  O   UNL A   1      35.389  22.760  26.326  1.00  0.00    -0.274 OA
ATOM      5  H   UNL A   1      36.530  20.773  26.708  1.00  0.00     0.163 HD
BRANCH   3   6
ATOM      6  C   UNL A   1      35.361  22.304  23.926  1.00  0.00     0.106 C 
ATOM      7  C   UNL A   1      36.410  23.114  23.156  1.00  0.00     0.023 C 
BRANCH   6   8
ATOM      8  C   UNL A   1      33.973  22.928  23.723  1.00  0.00    -0.028 A 
ATOM      9  C   UNL A   1      33.947  24.292  23.363  1.00  0.00     0.005 A 
ATOM     10  C   UNL A   1      32.741  22.242  23.882  1.00  0.00    -0.014 A 
ATOM     11  C   UNL A   1      32.748  24.976  23.185  1.00  0.00     0.004 A 
ATOM     12  C   UNL A   1      31.540  22.972  23.736  1.00  0.00     0.012 A 
ATOM     13  C   UNL A   1      31.529  24.334  23.403  1.00  0.00    -0.047 A 
BRANCH  10  14
ATOM     14  C   UNL A   1      32.629  20.789  24.110  1.00  0.00    -0.018 A 
ATOM     15  C   UNL A   1      32.432  19.927  23.013  1.00  0.00     0.012 A 
ATOM     16  C   UNL A   1      32.690  20.222  25.392  1.00  0.00     0.012 A 
ATOM     17  C   UNL A   1      32.364  18.543  23.182  1.00  0.00     0.040 A 
ATOM     18  C   UNL A   1      32.640  18.835  25.563  1.00  0.00     0.040 A 
ATOM     19  C   UNL A   1      32.485  18.009  24.456  1.00  0.00     0.123 A 
ATOM     20  F   UNL A   1      32.454  16.680  24.622  1.00  0.00    -0.207 F 
ENDBRANCH  10  14
BRANCH  13  21
ATOM     21  C   UNL A   1      30.228  25.090  23.266  1.00  0.00     0.047 C 
BRANCH  21  22
ATOM     22  C   UNL A   1      29.827  25.979  24.450  1.00  0.00     0.060 C 
ATOM     23  C   UNL A   1      30.132  25.425  25.846  1.00  0.00     0.012 C 
ATOM     24  C   UNL A   1      30.563  27.300  24.469  1.00  0.00     0.136 C 
ATOM     25  C   UNL A   1      31.450  26.059  26.275  1.00  0.00     0.009 C 
ATOM     26  C   UNL A   1      31.430  27.464  25.690  1.00  0.00     0.076 C 
ATOM     27  O   UNL A   1      30.453  28.154  23.598  1.00  0.00    -0.299 OA
ENDBRANCH  21  22
ENDBRANCH  13  21
ENDBRANCH   6   8
ENDBRANCH   3   6
ENDBRANCH   1   2
BRANCH   1  28
ATOM     28  C   UNL A   1      37.954  19.402  24.673  1.00  0.00     0.042 C 
BRANCH  28  29
ATOM     29  C   UNL A   1      38.921  19.816  25.783  1.00  0.00     0.118 C 
BRANCH  29  30
ATOM     30  N   UNL A   1      40.102  18.968  25.840  1.00  0.00    -0.352 N 
ATOM     31  C   UNL A   1      41.417  19.272  26.076  1.00  0.00     0.251 C 
ATOM     32  H   UNL A   1      39.925  18.012  25.685  1.00  0.00     0.163 HD
ATOM     33  O   UNL A   1      42.270  18.410  25.887  1.00  0.00    -0.269 OA
BRANCH  31  34
ATOM     34  C   UNL A   1      41.829  20.615  26.542  1.00  0.00     0.039 A 
ATOM     35  C   UNL A   1      42.178  21.568  25.578  1.00  0.00     0.014 A 
ATOM     36  C   UNL A   1      41.950  20.927  27.900  1.00  0.00     0.014 A 
ATOM     37  C   UNL A   1      42.600  22.838  25.972  1.00  0.00     0.010 A 
ATOM     38  C   UNL A   1      42.312  22.217  28.292  1.00  0.00     0.010 A 
ATOM     39  C   UNL A   1      42.647  23.183  27.332  1.00  0.00    -0.014 A 
BRANCH  39  40
ATOM     40  C   UNL A   1      43.028  24.556  27.746  1.00  0.00     0.031 A 
ATOM     41  C   UNL A   1      44.469  24.985  27.765  1.00  0.00     0.074 A 
ATOM     42  C   UNL A   1      42.066  25.417  28.128  1.00  0.00     0.049 A 
ATOM     43  N   UNL A   1      44.975  26.154  28.070  1.00  0.00    -0.248 NA
ATOM     44  C   UNL A   1      45.472  23.969  27.413  1.00  0.00     0.031 C 
ATOM     45  C   UNL A   1      40.636  25.111  28.199  1.00  0.00     0.029 A 
ATOM     46  N   UNL A   1      42.146  26.728  28.524  1.00  0.00    -0.354 N 
ATOM     47  C   UNL A   1      46.352  26.013  27.955  1.00  0.00     0.074 A 
ATOM     48  C   UNL A   1      46.604  24.633  27.596  1.00  0.00     0.031 C 
ATOM     49  C   UNL A   1      39.970  26.212  28.583  1.00  0.00     0.029 A 
ATOM     50  C   UNL A   1      40.926  27.290  28.809  1.00  0.00     0.049 A 
ATOM     51  H   UNL A   1      42.996  27.219  28.598  1.00  0.00     0.167 HD
ATOM     52  C   UNL A   1      47.319  26.948  28.115  1.00  0.00     0.031 A 
ATOM     53  C   UNL A   1      40.609  28.539  29.199  1.00  0.00     0.031 A 
ATOM     54  C   UNL A   1      47.073  28.320  28.470  1.00  0.00     0.049 A 
ATOM     55  C   UNL A   1      41.697  29.559  29.360  1.00  0.00     0.074 A 
ATOM     56  C   UNL A   1      47.984  29.354  28.608  1.00  0.00     0.029 A 
ATOM     57  N   UNL A   1      45.823  28.852  28.745  1.00  0.00    -0.354 N 
ATOM     58  N   UNL A   1      42.989  29.425  29.181  1.00  0.00    -0.248 NA
ATOM     59  C   UNL A   1      41.279  30.909  29.764  1.00  0.00     0.031 C 
ATOM     60  C   UNL A   1      47.288  30.501  29.006  1.00  0.00     0.029 A 
ATOM     61  C   UNL A   1      45.939  30.194  29.071  1.00  0.00     0.049 A 
ATOM     62  H   UNL A   1      44.976  28.350  28.714  1.00  0.00     0.167 HD
ATOM     63  C   UNL A   1      43.536  30.674  29.434  1.00  0.00     0.074 A 
ATOM     64  C   UNL A   1      42.435  31.559  29.755  1.00  0.00     0.031 C 
ATOM     65  C   UNL A   1      44.837  31.055  29.405  1.00  0.00     0.031 A 
BRANCH  52  66
ATOM     66  C   UNL A   1      48.742  26.510  27.908  1.00  0.00    -0.014 A 
ATOM     67  C   UNL A   1      49.336  26.559  26.636  1.00  0.00     0.009 A 
ATOM     68  C   UNL A   1      49.508  26.076  29.000  1.00  0.00     0.009 A 
ATOM     69  C   UNL A   1      50.660  26.151  26.458  1.00  0.00     0.001 A 
ATOM     70  C   UNL A   1      50.840  25.692  28.823  1.00  0.00     0.001 A 
ATOM     71  C   UNL A   1      51.410  25.720  27.550  1.00  0.00     0.000 A 
ENDBRANCH  52  66
BRANCH  53  72
ATOM     72  C   UNL A   1      39.189  28.899  29.441  1.00  0.00    -0.014 A 
ATOM     73  C   UNL A   1      38.400  29.414  28.401  1.00  0.00     0.009 A 
ATOM     74  C   UNL A   1      38.615  28.724  30.709  1.00  0.00     0.009 A 
ATOM     75  C   UNL A   1      37.070  29.770  28.634  1.00  0.00     0.001 A 
ATOM     76  C   UNL A   1      37.278  29.057  30.932  1.00  0.00     0.001 A 
ATOM     77  C   UNL A   1      36.509  29.587  29.898  1.00  0.00     0.000 A 
ENDBRANCH  53  72
BRANCH  65  78
ATOM     78  C   UNL A   1      45.129  32.494  29.719  1.00  0.00    -0.014 A 
ATOM     79  C   UNL A   1      45.131  33.471  28.710  1.00  0.00     0.009 A 
ATOM     80  C   UNL A   1      45.392  32.880  31.042  1.00  0.00     0.009 A 
ATOM     81  C   UNL A   1      45.430  34.800  29.016  1.00  0.00     0.001 A 
ATOM     82  C   UNL A   1      45.666  34.215  31.348  1.00  0.00     0.001 A 
ATOM     83  C   UNL A   1      45.694  35.171  30.333  1.00  0.00     0.000 A 
ENDBRANCH  65  78
ENDBRANCH  39  40
ENDBRANCH  31  34
ENDBRANCH  29  30
ENDBRANCH  28  29
ENDBRANCH   1  28
TORSDOF 14
ENDMDL
MODEL 3
REMARK VINA RESULT:     -12.1      3.809      9.057
REMARK SMILES C[C@@H](C(=O)NCCCNC(=O)c1ccc(-c2c3nc(c(-c4ccccc4)c4ccc([nH]4)c(-c4ccccc4)c4nc(c(-c5ccccc5)c5ccc2[nH]5)C=C4)C=C3)cc1)c1ccc(C[C@H]2CCCC2=O)cc1-c1ccc(F)cc1
REMARK SMILES IDX 6 1 5 2 3 3 4 4 2 6 1 7 60 8 61 9 72 10 62 11 71 12 63 13
REMARK SMILES IDX 73 14 74 15 79 16 75 17 78 18 76 19 77 20 64 21 65 22 66 23
REMARK SMILES IDX 69 24 67 25 68 26 70 27 7 28 8 29 9 30 10 31 11 33 12 34
REMARK SMILES IDX 13 35 59 36 14 37 58 38 15 39 16 40 17 41 52 42 18 43 57 44
REMARK SMILES IDX 51 45 53 46 19 47 56 48 50 49 49 50 20 52 42 53 27 54 41 55
REMARK SMILES IDX 28 56 31 57 40 58 54 59 29 60 30 61 39 63 55 64 32 65 21 66
REMARK SMILES IDX 22 67 26 68 23 69 25 70 24 71 43 72 44 73 48 74 45 75 47 76
REMARK SMILES IDX 46 77 33 78 34 79 38 80 35 81 37 82 36 83
REMARK H PARENT 5 5 9 32 53 51 31 62
REMARK Flexibility Score: inf
ROOT
ATOM      1  C   UNL A   1      36.378  19.807  25.090  1.00  0.00     0.117 C 
ENDROOT
BRANCH   1   2
ATOM      2  N   UNL A   1      36.213  21.064  25.788  1.00  0.00    -0.356 N 
ATOM      3  C   UNL A   1      35.694  22.256  25.375  1.00  0.00     0.227 C 
ATOM      4  O   UNL A   1      35.453  23.067  26.272  1.00  0.00    -0.274 OA
ATOM      5  H   UNL A   1      36.531  21.058  26.720  1.00  0.00     0.163 HD
BRANCH   3   6
ATOM      6  C   UNL A   1      35.327  22.491  23.900  1.00  0.00     0.106 C 
ATOM      7  C   UNL A   1      36.354  23.268  23.070  1.00  0.00     0.023 C 
BRANCH   6   8
ATOM      8  C   UNL A   1      33.932  23.104  23.707  1.00  0.00    -0.028 A 
ATOM      9  C   UNL A   1      33.894  24.472  23.364  1.00  0.00     0.005 A 
ATOM     10  C   UNL A   1      32.707  22.405  23.859  1.00  0.00    -0.014 A 
ATOM     11  C   UNL A   1      32.688  25.147  23.196  1.00  0.00     0.004 A 
ATOM     12  C   UNL A   1      31.499  23.125  23.724  1.00  0.00     0.012 A 
ATOM     13  C   UNL A   1      31.476  24.491  23.409  1.00  0.00    -0.047 A 
BRANCH  10  14
ATOM     14  C   UNL A   1      32.609  20.948  24.069  1.00  0.00    -0.018 A 
ATOM     15  C   UNL A   1      32.370  20.102  22.968  1.00  0.00     0.012 A 
ATOM     16  C   UNL A   1      32.724  20.362  25.339  1.00  0.00     0.012 A 
ATOM     17  C   UNL A   1      32.313  18.716  23.118  1.00  0.00     0.040 A 
ATOM     18  C   UNL A   1      32.685  18.971  25.490  1.00  0.00     0.040 A 
ATOM     19  C   UNL A   1      32.488  18.162  24.378  1.00  0.00     0.123 A 
ATOM     20  F   UNL A   1      32.467  16.831  24.524  1.00  0.00    -0.207 F 
ENDBRANCH  10  14
BRANCH  13  21
ATOM     21  C   UNL A   1      30.167  25.237  23.283  1.00  0.00     0.047 C 
BRANCH  21  22
ATOM     22  C   UNL A   1      29.785  26.147  24.457  1.00  0.00     0.060 C 
ATOM     23  C   UNL A   1      30.068  25.598  25.859  1.00  0.00     0.012 C 
ATOM     24  C   UNL A   1      30.555  27.448  24.467  1.00  0.00     0.136 C 
ATOM     25  C   UNL A   1      31.400  26.201  26.289  1.00  0.00     0.009 C 
ATOM     26  C   UNL A   1      31.420  27.600  25.691  1.00  0.00     0.076 C 
ATOM     27  O   UNL A   1      30.473  28.297  23.588  1.00  0.00    -0.299 OA
ENDBRANCH  21  22
ENDBRANCH  13  21
ENDBRANCH   6   8
ENDBRANCH   3   6
ENDBRANCH   1   2
BRANCH   1  28
ATOM     28  C   UNL A   1      37.824  19.556  24.667  1.00  0.00     0.042 C 
BRANCH  28  29
ATOM     29  C   UNL A   1      38.871  20.126  25.623  1.00  0.00     0.118 C 
BRANCH  29  30
ATOM     30  N   UNL A   1      40.034  19.262  25.759  1.00  0.00    -0.352 N 
ATOM     31  C   UNL A   1      41.328  19.544  26.110  1.00  0.00     0.251 C 
ATOM     32  H   UNL A   1      39.860  18.312  25.566  1.00  0.00     0.163 HD
ATOM     33  O   UNL A   1      42.184  18.675  25.973  1.00  0.00    -0.269 OA
BRANCH  31  34
ATOM     34  C   UNL A   1      41.715  20.870  26.640  1.00  0.00     0.039 A 
ATOM     35  C   UNL A   1      42.210  21.820  25.738  1.00  0.00     0.014 A 
ATOM     36  C   UNL A   1      41.671  21.168  28.005  1.00  0.00     0.014 A 
ATOM     37  C   UNL A   1      42.614  23.075  26.197  1.00  0.00     0.010 A 
ATOM     38  C   UNL A   1      42.016  22.444  28.455  1.00  0.00     0.010 A 
ATOM     39  C   UNL A   1      42.497  23.407  27.556  1.00  0.00    -0.014 A 
BRANCH  39  40
ATOM     40  C   UNL A   1      42.861  24.765  28.031  1.00  0.00     0.031 A 
ATOM     41  C   UNL A   1      41.809  25.819  28.240  1.00  0.00     0.074 A 
ATOM     42  C   UNL A   1      44.157  25.056  28.255  1.00  0.00     0.049 A 
ATOM     43  N   UNL A   1      41.949  27.045  28.679  1.00  0.00    -0.248 NA
ATOM     44  C   UNL A   1      40.425  25.456  27.898  1.00  0.00     0.031 C 
ATOM     45  C   UNL A   1      45.278  24.139  28.045  1.00  0.00     0.029 A 
ATOM     46  N   UNL A   1      44.748  26.206  28.713  1.00  0.00    -0.354 N 
ATOM     47  C   UNL A   1      40.676  27.602  28.658  1.00  0.00     0.074 A 
ATOM     48  C   UNL A   1      39.785  26.595  28.122  1.00  0.00     0.031 C 
ATOM     49  C   UNL A   1      46.418  24.750  28.405  1.00  0.00     0.029 A 
ATOM     50  C   UNL A   1      46.111  26.107  28.844  1.00  0.00     0.049 A 
ATOM     51  H   UNL A   1      44.244  27.024  28.928  1.00  0.00     0.167 HD
ATOM     52  C   UNL A   1      40.280  28.832  29.065  1.00  0.00     0.031 A 
ATOM     53  C   UNL A   1      47.014  27.005  29.278  1.00  0.00     0.031 A 
ATOM     54  C   UNL A   1      41.162  29.835  29.600  1.00  0.00     0.049 A 
ATOM     55  C   UNL A   1      46.550  28.358  29.733  1.00  0.00     0.074 A 
ATOM     56  C   UNL A   1      40.846  31.094  30.084  1.00  0.00     0.029 A 
ATOM     57  N   UNL A   1      42.535  29.694  29.721  1.00  0.00    -0.354 N 
ATOM     58  N   UNL A   1      45.333  28.843  29.770  1.00  0.00    -0.248 NA
ATOM     59  C   UNL A   1      47.585  29.281  30.218  1.00  0.00     0.031 C 
ATOM     60  C   UNL A   1      42.036  31.729  30.460  1.00  0.00     0.029 A 
ATOM     61  C   UNL A   1      43.086  30.850  30.253  1.00  0.00     0.049 A 
ATOM     62  H   UNL A   1      43.046  28.892  29.465  1.00  0.00     0.167 HD
ATOM     63  C   UNL A   1      45.453  30.121  30.297  1.00  0.00     0.074 A 
ATOM     64  C   UNL A   1      46.857  30.326  30.587  1.00  0.00     0.031 C 
ATOM     65  C   UNL A   1      44.485  31.044  30.520  1.00  0.00     0.031 A 
BRANCH  52  66
ATOM     66  C   UNL A   1      38.819  29.161  28.942  1.00  0.00    -0.014 A 
ATOM     67  C   UNL A   1      38.277  29.608  27.726  1.00  0.00     0.009 A 
ATOM     68  C   UNL A   1      37.967  28.991  30.044  1.00  0.00     0.009 A 
ATOM     69  C   UNL A   1      36.917  29.909  27.626  1.00  0.00     0.001 A 
ATOM     70  C   UNL A   1      36.602  29.269  29.934  1.00  0.00     0.001 A 
ATOM     71  C   UNL A   1      36.081  29.737  28.728  1.00  0.00     0.000 A 
ENDBRANCH  52  66
BRANCH  53  72
ATOM     72  C   UNL A   1      48.453  26.641  29.328  1.00  0.00    -0.014 A 
ATOM     73  C   UNL A   1      48.983  25.991  30.452  1.00  0.00     0.009 A 
ATOM     74  C   UNL A   1      49.301  26.937  28.249  1.00  0.00     0.009 A 
ATOM     75  C   UNL A   1      50.340  25.665  30.505  1.00  0.00     0.001 A 
ATOM     76  C   UNL A   1      50.651  26.587  28.295  1.00  0.00     0.001 A 
ATOM     77  C   UNL A   1      51.172  25.960  29.425  1.00  0.00     0.000 A 
ENDBRANCH  53  72
BRANCH  65  78
ATOM     78  C   UNL A   1      44.921  32.352  31.116  1.00  0.00    -0.014 A 
ATOM     79  C   UNL A   1      44.975  32.532  32.507  1.00  0.00     0.009 A 
ATOM     80  C   UNL A   1      45.294  33.412  30.276  1.00  0.00     0.009 A 
ATOM     81  C   UNL A   1      45.358  33.762  33.044  1.00  0.00     0.001 A 
ATOM     82  C   UNL A   1      45.700  34.633  30.817  1.00  0.00     0.001 A 
ATOM     83  C   UNL A   1      45.722  34.810  32.200  1.00  0.00     0.000 A 
ENDBRANCH  65  78
ENDBRANCH  39  40
ENDBRANCH  31  34
ENDBRANCH  29  30
ENDBRANCH  28  29
ENDBRANCH   1  28
TORSDOF 14
ENDMDL
