MODEL 1
REMARK VINA RESULT:     -12.6      0.000      0.000
REMARK SMILES C[C@@H](Oc1ccc(/C=C2\C(=O)[NH+]=C(NCCCNC(=O)c3ccc(-c4c5nc(c(-c6ccccc6)c6ccc([nH]6)c(-c6ccccc6)c6nc(c(-c7ccccc7)c7ccc4[nH]7)C=C6)C=C5)cc3)N(c3ccc4c(c3)OCO4)C2=O)cc1)C(=O)[O-]
REMARK SMILES IDX 15 1 14 2 8 3 9 4 10 5 79 6 11 7 12 8 69 9 80 10 13 11 7 14
REMARK SMILES IDX 4 15 5 16 82 17 6 18 81 19 3 20 2 21 1 22 83 23 84 24 85 25
REMARK SMILES IDX 70 26 71 27 75 28 72 29 74 30 73 31 76 32 78 33 77 34 16 35
REMARK SMILES IDX 17 36 18 37 19 38 20 40 21 41 22 42 68 43 23 44 67 45 24 46
REMARK SMILES IDX 25 47 26 48 61 49 27 50 66 51 60 52 62 53 28 54 65 55 59 56
REMARK SMILES IDX 58 57 29 59 51 60 36 61 50 62 37 63 40 64 49 65 63 66 38 67
REMARK SMILES IDX 39 68 48 70 64 71 41 72 30 73 31 74 35 75 32 76 34 77 33 78
REMARK SMILES IDX 52 79 53 80 57 81 54 82 56 83 55 84 42 85 43 86 47 87 44 88
REMARK SMILES IDX 46 89 45 90
REMARK H PARENT 12 12 14 13 18 39 62 58 40 69
REMARK Flexibility Score: inf
ROOT
ATOM      1  C   UNL A   1      37.197  20.725  24.734  1.00  0.00     0.199 C 
ENDROOT
BRANCH   1   2
ATOM      2  N   UNL A   1      35.810  20.309  24.810  1.00  0.00    -0.277 N 
ATOM      3  C   UNL A   1      31.793  23.822  25.077  1.00  0.00     0.031 C 
ATOM      4  C   UNL A   1      32.735  22.921  25.417  1.00  0.00     0.138 C 
ATOM      5  C   UNL A   1      34.070  23.207  25.970  1.00  0.00     0.321 C 
ATOM      6  C   UNL A   1      32.382  21.502  25.220  1.00  0.00     0.328 C 
ATOM      7  O   UNL A   1      34.287  24.164  26.698  1.00  0.00    -0.250 OA
ATOM      8  N   UNL A   1      35.048  22.333  25.591  1.00  0.00    -0.210 N 
ATOM      9  N   UNL A   1      33.476  20.654  25.119  1.00  0.00    -0.162 N 
ATOM     10  O   UNL A   1      31.205  21.144  25.139  1.00  0.00    -0.249 OA
ATOM     11  C   UNL A   1      34.779  21.128  25.199  1.00  0.00     0.366 C 
ATOM     12  H   UNL A   1      35.987  22.627  25.617  1.00  0.00     0.270 HD
ATOM     13  H   UNL A   1      35.594  19.379  24.569  1.00  0.00     0.260 HD
BRANCH   3  14
ATOM     14  C   UNL A   1      31.821  25.290  25.104  1.00  0.00    -0.024 A 
ATOM     15  C   UNL A   1      32.100  28.086  25.093  1.00  0.00     0.120 A 
ATOM     16  C   UNL A   1      31.391  27.458  26.114  1.00  0.00     0.047 A 
ATOM     17  C   UNL A   1      32.716  27.320  24.110  1.00  0.00     0.047 A 
ATOM     18  C   UNL A   1      31.261  26.065  26.125  1.00  0.00     0.012 A 
ATOM     19  C   UNL A   1      32.565  25.934  24.108  1.00  0.00     0.012 A 
BRANCH  15  20
ATOM     20  O   UNL A   1      32.287  29.436  25.179  1.00  0.00    -0.485 OA
BRANCH  20  21
ATOM     21  C   UNL A   1      32.152  29.970  26.504  1.00  0.00     0.216 C 
ATOM     22  C   UNL A   1      31.557  31.375  26.503  1.00  0.00     0.059 C 
BRANCH  21  23
ATOM     23  C   UNL A   1      33.543  30.064  27.120  1.00  0.00     0.082 C 
ATOM     24  O   UNL A   1      34.203  29.127  27.546  1.00  0.00    -0.546 OA
ATOM     25  O   UNL A   1      34.001  31.327  27.259  1.00  0.00    -0.546 OA
ENDBRANCH  21  23
ENDBRANCH  20  21
ENDBRANCH  15  20
ENDBRANCH   3  14
BRANCH   9  26
ATOM     26  C   UNL A   1      33.190  19.296  24.818  1.00  0.00     0.115 A 
ATOM     27  C   UNL A   1      33.367  18.814  23.503  1.00  0.00     0.048 A 
ATOM     28  C   UNL A   1      32.874  18.423  25.867  1.00  0.00     0.094 A 
ATOM     29  C   UNL A   1      33.278  17.442  23.241  1.00  0.00     0.054 A 
ATOM     30  C   UNL A   1      32.806  17.082  25.576  1.00  0.00     0.169 A 
ATOM     31  C   UNL A   1      33.017  16.602  24.304  1.00  0.00     0.166 A 
ATOM     32  O   UNL A   1      32.587  16.090  26.479  1.00  0.00    -0.453 OA
ATOM     33  O   UNL A   1      32.977  15.242  24.262  1.00  0.00    -0.454 OA
ATOM     34  C   UNL A   1      32.895  14.936  25.671  1.00  0.00     0.468 C 
ENDBRANCH   9  26
ENDBRANCH   1   2
BRANCH   1  35
ATOM     35  C   UNL A   1      38.129  19.553  25.004  1.00  0.00     0.059 C 
BRANCH  35  36
ATOM     36  C   UNL A   1      39.173  19.830  26.080  1.00  0.00     0.119 C 
BRANCH  36  37
ATOM     37  N   UNL A   1      40.300  18.909  26.028  1.00  0.00    -0.352 N 
ATOM     38  C   UNL A   1      41.649  19.149  26.039  1.00  0.00     0.251 C 
ATOM     39  H   UNL A   1      40.051  17.957  25.977  1.00  0.00     0.163 HD
ATOM     40  O   UNL A   1      42.422  18.222  25.809  1.00  0.00    -0.269 OA
BRANCH  38  41
ATOM     41  C   UNL A   1      42.186  20.498  26.318  1.00  0.00     0.039 A 
ATOM     42  C   UNL A   1      42.278  20.917  27.649  1.00  0.00     0.014 A 
ATOM     43  C   UNL A   1      42.531  21.378  25.289  1.00  0.00     0.014 A 
ATOM     44  C   UNL A   1      42.737  22.201  27.946  1.00  0.00     0.010 A 
ATOM     45  C   UNL A   1      43.074  22.626  25.589  1.00  0.00     0.010 A 
ATOM     46  C   UNL A   1      43.152  23.063  26.919  1.00  0.00    -0.014 A 
BRANCH  46  47
ATOM     47  C   UNL A   1      43.611  24.444  27.221  1.00  0.00     0.031 A 
ATOM     48  C   UNL A   1      42.622  25.483  27.681  1.00  0.00     0.074 A 
ATOM     49  C   UNL A   1      44.907  24.771  27.062  1.00  0.00     0.049 A 
ATOM     50  N   UNL A   1      42.827  26.739  27.992  1.00  0.00    -0.248 NA
ATOM     51  C   UNL A   1      41.213  25.065  27.784  1.00  0.00     0.031 C 
ATOM     52  C   UNL A   1      45.958  23.869  26.590  1.00  0.00     0.029 A 
ATOM     53  N   UNL A   1      45.562  25.956  27.288  1.00  0.00    -0.354 N 
ATOM     54  C   UNL A   1      41.578  27.259  28.308  1.00  0.00     0.074 A 
ATOM     55  C   UNL A   1      40.613  26.204  28.095  1.00  0.00     0.031 C 
ATOM     56  C   UNL A   1      47.132  24.522  26.596  1.00  0.00     0.029 A 
ATOM     57  C   UNL A   1      46.910  25.896  27.036  1.00  0.00     0.049 A 
ATOM     58  H   UNL A   1      45.107  26.772  27.600  1.00  0.00     0.167 HD
ATOM     59  C   UNL A   1      41.261  28.495  28.762  1.00  0.00     0.031 A 
ATOM     60  C   UNL A   1      47.863  26.841  27.152  1.00  0.00     0.031 A 
ATOM     61  C   UNL A   1      42.219  29.543  28.987  1.00  0.00     0.049 A 
ATOM     62  C   UNL A   1      47.485  28.209  27.650  1.00  0.00     0.074 A 
ATOM     63  C   UNL A   1      42.005  30.815  29.489  1.00  0.00     0.029 A 
ATOM     64  N   UNL A   1      43.576  29.439  28.724  1.00  0.00    -0.354 N 
ATOM     65  N   UNL A   1      46.308  28.664  28.007  1.00  0.00    -0.248 NA
ATOM     66  C   UNL A   1      48.574  29.186  27.780  1.00  0.00     0.031 C 
ATOM     67  C   UNL A   1      43.226  31.499  29.479  1.00  0.00     0.029 A 
ATOM     68  C   UNL A   1      44.210  30.630  29.037  1.00  0.00     0.049 A 
ATOM     69  H   UNL A   1      44.023  28.637  28.369  1.00  0.00     0.167 HD
ATOM     70  C   UNL A   1      46.522  29.966  28.444  1.00  0.00     0.074 A 
ATOM     71  C   UNL A   1      47.943  30.221  28.317  1.00  0.00     0.031 C 
ATOM     72  C   UNL A   1      45.625  30.866  28.912  1.00  0.00     0.031 A 
BRANCH  59  73
ATOM     73  C   UNL A   1      39.808  28.779  29.038  1.00  0.00    -0.014 A 
ATOM     74  C   UNL A   1      39.239  28.522  30.296  1.00  0.00     0.009 A 
ATOM     75  C   UNL A   1      39.003  29.336  28.032  1.00  0.00     0.009 A 
ATOM     76  C   UNL A   1      37.886  28.776  30.528  1.00  0.00     0.001 A 
ATOM     77  C   UNL A   1      37.657  29.621  28.278  1.00  0.00     0.001 A 
ATOM     78  C   UNL A   1      37.098  29.330  29.521  1.00  0.00     0.000 A 
ENDBRANCH  59  73
BRANCH  60  79
ATOM     79  C   UNL A   1      49.276  26.519  26.817  1.00  0.00    -0.014 A 
ATOM     80  C   UNL A   1      49.753  26.681  25.508  1.00  0.00     0.009 A 
ATOM     81  C   UNL A   1      50.150  26.034  27.802  1.00  0.00     0.009 A 
ATOM     82  C   UNL A   1      51.066  26.331  25.183  1.00  0.00     0.001 A 
ATOM     83  C   UNL A   1      51.472  25.715  27.482  1.00  0.00     0.001 A 
ATOM     84  C   UNL A   1      51.925  25.852  26.172  1.00  0.00     0.000 A 
ENDBRANCH  60  79
BRANCH  72  85
ATOM     85  C   UNL A   1      46.161  32.192  29.380  1.00  0.00    -0.014 A 
ATOM     86  C   UNL A   1      46.595  32.389  30.700  1.00  0.00     0.009 A 
ATOM     87  C   UNL A   1      46.258  33.255  28.468  1.00  0.00     0.009 A 
ATOM     88  C   UNL A   1      47.074  33.636  31.107  1.00  0.00     0.001 A 
ATOM     89  C   UNL A   1      46.769  34.491  28.868  1.00  0.00     0.001 A 
ATOM     90  C   UNL A   1      47.164  34.684  30.191  1.00  0.00     0.000 A 
ENDBRANCH  72  85
ENDBRANCH  46  47
ENDBRANCH  38  41
ENDBRANCH  36  37
ENDBRANCH  35  36
ENDBRANCH   1  35
TORSDOF 14
ENDMDL
MODEL 2
REMARK VINA RESULT:     -12.6      0.935      5.604
REMARK SMILES C[C@@H](Oc1ccc(/C=C2\C(=O)[NH+]=C(NCCCNC(=O)c3ccc(-c4c5nc(c(-c6ccccc6)c6ccc([nH]6)c(-c6ccccc6)c6nc(c(-c7ccccc7)c7ccc4[nH]7)C=C6)C=C5)cc3)N(c3ccc4c(c3)OCO4)C2=O)cc1)C(=O)[O-]
REMARK SMILES IDX 15 1 14 2 8 3 9 4 10 5 79 6 11 7 12 8 69 9 80 10 13 11 7 14
REMARK SMILES IDX 4 15 5 16 82 17 6 18 81 19 3 20 2 21 1 22 83 23 84 24 85 25
REMARK SMILES IDX 70 26 71 27 75 28 72 29 74 30 73 31 76 32 78 33 77 34 16 35
REMARK SMILES IDX 17 36 18 37 19 38 20 40 21 41 22 42 68 43 23 44 67 45 24 46
REMARK SMILES IDX 25 47 26 48 61 49 27 50 66 51 60 52 62 53 28 54 65 55 59 56
REMARK SMILES IDX 58 57 29 59 51 60 36 61 50 62 37 63 40 64 49 65 63 66 38 67
REMARK SMILES IDX 39 68 48 70 64 71 41 72 30 73 31 74 35 75 32 76 34 77 33 78
REMARK SMILES IDX 52 79 53 80 57 81 54 82 56 83 55 84 42 85 43 86 47 87 44 88
REMARK SMILES IDX 46 89 45 90
REMARK H PARENT 12 12 14 13 18 39 62 58 40 69
REMARK Flexibility Score: inf
ROOT
ATOM      1  C   UNL A   1      37.106  20.847  24.597  1.00  0.00     0.199 C 
ENDROOT
BRANCH   1   2
ATOM      2  N   UNL A   1      35.719  20.438  24.705  1.00  0.00    -0.277 N 
ATOM      3  C   UNL A   1      31.728  23.972  25.075  1.00  0.00     0.031 C 
ATOM      4  C   UNL A   1      32.673  23.065  25.389  1.00  0.00     0.138 C 
ATOM      5  C   UNL A   1      34.022  23.343  25.913  1.00  0.00     0.321 C 
ATOM      6  C   UNL A   1      32.308  21.649  25.198  1.00  0.00     0.328 C 
ATOM      7  O   UNL A   1      34.261  24.297  26.638  1.00  0.00    -0.250 OA
ATOM      8  N   UNL A   1      34.987  22.465  25.509  1.00  0.00    -0.210 N 
ATOM      9  N   UNL A   1      33.395  20.795  25.069  1.00  0.00    -0.162 N 
ATOM     10  O   UNL A   1      31.128  21.297  25.143  1.00  0.00    -0.249 OA
ATOM     11  C   UNL A   1      34.702  21.262  25.120  1.00  0.00     0.366 C 
ATOM     12  H   UNL A   1      35.928  22.754  25.513  1.00  0.00     0.270 HD
ATOM     13  H   UNL A   1      35.493  19.511  24.466  1.00  0.00     0.260 HD
BRANCH   3  14
ATOM     14  C   UNL A   1      31.764  25.440  25.105  1.00  0.00    -0.024 A 
ATOM     15  C   UNL A   1      32.061  28.234  25.103  1.00  0.00     0.120 A 
ATOM     16  C   UNL A   1      31.332  27.609  26.111  1.00  0.00     0.047 A 
ATOM     17  C   UNL A   1      32.688  27.466  24.128  1.00  0.00     0.047 A 
ATOM     18  C   UNL A   1      31.193  26.216  26.118  1.00  0.00     0.012 A 
ATOM     19  C   UNL A   1      32.529  26.081  24.122  1.00  0.00     0.012 A 
BRANCH  15  20
ATOM     20  O   UNL A   1      32.255  29.583  25.194  1.00  0.00    -0.485 OA
BRANCH  20  21
ATOM     21  C   UNL A   1      32.052  30.123  26.508  1.00  0.00     0.216 C 
ATOM     22  C   UNL A   1      31.368  31.487  26.473  1.00  0.00     0.059 C 
BRANCH  21  23
ATOM     23  C   UNL A   1      33.418  30.315  27.157  1.00  0.00     0.082 C 
ATOM     24  O   UNL A   1      34.000  31.380  27.299  1.00  0.00    -0.546 OA
ATOM     25  O   UNL A   1      34.027  29.163  27.511  1.00  0.00    -0.546 OA
ENDBRANCH  21  23
ENDBRANCH  20  21
ENDBRANCH  15  20
ENDBRANCH   3  14
BRANCH   9  26
ATOM     26  C   UNL A   1      33.095  19.440  24.771  1.00  0.00     0.115 A 
ATOM     27  C   UNL A   1      33.119  18.990  23.433  1.00  0.00     0.048 A 
ATOM     28  C   UNL A   1      32.920  18.538  25.829  1.00  0.00     0.094 A 
ATOM     29  C   UNL A   1      33.020  17.623  23.150  1.00  0.00     0.054 A 
ATOM     30  C   UNL A   1      32.837  17.203  25.516  1.00  0.00     0.169 A 
ATOM     31  C   UNL A   1      32.900  16.755  24.217  1.00  0.00     0.166 A 
ATOM     32  O   UNL A   1      32.742  16.187  26.414  1.00  0.00    -0.453 OA
ATOM     33  O   UNL A   1      32.875  15.396  24.146  1.00  0.00    -0.454 OA
ATOM     34  C   UNL A   1      32.967  15.057  25.547  1.00  0.00     0.468 C 
ENDBRANCH   9  26
ENDBRANCH   1   2
BRANCH   1  35
ATOM     35  C   UNL A   1      38.039  19.699  24.954  1.00  0.00     0.059 C 
BRANCH  35  36
ATOM     36  C   UNL A   1      39.098  20.063  25.988  1.00  0.00     0.119 C 
BRANCH  36  37
ATOM     37  N   UNL A   1      40.301  19.249  25.879  1.00  0.00    -0.352 N 
ATOM     38  C   UNL A   1      41.623  19.592  25.989  1.00  0.00     0.251 C 
ATOM     39  H   UNL A   1      40.136  18.295  25.694  1.00  0.00     0.163 HD
ATOM     40  O   UNL A   1      42.481  18.768  25.684  1.00  0.00    -0.269 OA
BRANCH  38  41
ATOM     41  C   UNL A   1      42.030  20.932  26.463  1.00  0.00     0.039 A 
ATOM     42  C   UNL A   1      42.109  21.155  27.842  1.00  0.00     0.014 A 
ATOM     43  C   UNL A   1      42.266  21.984  25.576  1.00  0.00     0.014 A 
ATOM     44  C   UNL A   1      42.446  22.421  28.325  1.00  0.00     0.010 A 
ATOM     45  C   UNL A   1      42.690  23.222  26.056  1.00  0.00     0.010 A 
ATOM     46  C   UNL A   1      42.753  23.463  27.435  1.00  0.00    -0.014 A 
BRANCH  46  47
ATOM     47  C   UNL A   1      43.080  24.822  27.937  1.00  0.00     0.031 A 
ATOM     48  C   UNL A   1      44.519  25.245  28.086  1.00  0.00     0.074 A 
ATOM     49  C   UNL A   1      42.091  25.669  28.279  1.00  0.00     0.049 A 
ATOM     50  N   UNL A   1      45.007  26.386  28.506  1.00  0.00    -0.248 NA
ATOM     51  C   UNL A   1      45.546  24.248  27.739  1.00  0.00     0.031 C 
ATOM     52  C   UNL A   1      40.660  25.372  28.216  1.00  0.00     0.029 A 
ATOM     53  N   UNL A   1      42.143  26.960  28.744  1.00  0.00    -0.354 N 
ATOM     54  C   UNL A   1      46.388  26.235  28.490  1.00  0.00     0.074 A 
ATOM     55  C   UNL A   1      46.661  24.877  28.077  1.00  0.00     0.031 C 
ATOM     56  C   UNL A   1      39.969  26.461  28.592  1.00  0.00     0.029 A 
ATOM     57  C   UNL A   1      40.906  27.518  28.957  1.00  0.00     0.049 A 
ATOM     58  H   UNL A   1      42.987  27.439  28.911  1.00  0.00     0.167 HD
ATOM     59  C   UNL A   1      47.347  27.150  28.767  1.00  0.00     0.031 A 
ATOM     60  C   UNL A   1      40.566  28.746  29.393  1.00  0.00     0.031 A 
ATOM     61  C   UNL A   1      47.078  28.505  29.167  1.00  0.00     0.049 A 
ATOM     62  C   UNL A   1      41.650  29.742  29.702  1.00  0.00     0.074 A 
ATOM     63  C   UNL A   1      47.980  29.523  29.425  1.00  0.00     0.029 A 
ATOM     64  N   UNL A   1      45.812  29.032  29.365  1.00  0.00    -0.354 N 
ATOM     65  N   UNL A   1      42.950  29.604  29.618  1.00  0.00    -0.248 NA
ATOM     66  C   UNL A   1      41.212  31.073  30.146  1.00  0.00     0.031 C 
ATOM     67  C   UNL A   1      47.259  30.651  29.832  1.00  0.00     0.029 A 
ATOM     68  C   UNL A   1      45.907  30.355  29.759  1.00  0.00     0.049 A 
ATOM     69  H   UNL A   1      44.969  28.538  29.242  1.00  0.00     0.167 HD
ATOM     70  C   UNL A   1      43.486  30.841  29.958  1.00  0.00     0.074 A 
ATOM     71  C   UNL A   1      42.367  31.718  30.237  1.00  0.00     0.031 C 
ATOM     72  C   UNL A   1      44.785  31.217  30.027  1.00  0.00     0.031 A 
BRANCH  59  73
ATOM     73  C   UNL A   1      48.781  26.706  28.652  1.00  0.00    -0.014 A 
ATOM     74  C   UNL A   1      49.473  26.179  29.755  1.00  0.00     0.009 A 
ATOM     75  C   UNL A   1      49.441  26.790  27.416  1.00  0.00     0.009 A 
ATOM     76  C   UNL A   1      50.808  25.788  29.634  1.00  0.00     0.001 A 
ATOM     77  C   UNL A   1      50.766  26.366  27.290  1.00  0.00     0.001 A 
ATOM     78  C   UNL A   1      51.452  25.877  28.401  1.00  0.00     0.000 A 
ENDBRANCH  59  73
BRANCH  60  79
ATOM     79  C   UNL A   1      39.133  29.115  29.536  1.00  0.00    -0.014 A 
ATOM     80  C   UNL A   1      38.452  29.749  28.485  1.00  0.00     0.009 A 
ATOM     81  C   UNL A   1      38.442  28.851  30.729  1.00  0.00     0.009 A 
ATOM     82  C   UNL A   1      37.120  30.142  28.638  1.00  0.00     0.001 A 
ATOM     83  C   UNL A   1      37.101  29.216  30.868  1.00  0.00     0.001 A 
ATOM     84  C   UNL A   1      36.445  29.871  29.828  1.00  0.00     0.000 A 
ENDBRANCH  60  79
BRANCH  72  85
ATOM     85  C   UNL A   1      45.068  32.657  30.361  1.00  0.00    -0.014 A 
ATOM     86  C   UNL A   1      45.262  33.084  31.684  1.00  0.00     0.009 A 
ATOM     87  C   UNL A   1      45.170  33.597  29.323  1.00  0.00     0.009 A 
ATOM     88  C   UNL A   1      45.509  34.430  31.962  1.00  0.00     0.001 A 
ATOM     89  C   UNL A   1      45.451  34.935  29.600  1.00  0.00     0.001 A 
ATOM     90  C   UNL A   1      45.607  35.353  30.921  1.00  0.00     0.000 A 
ENDBRANCH  72  85
ENDBRANCH  46  47
ENDBRANCH  38  41
ENDBRANCH  36  37
ENDBRANCH  35  36
ENDBRANCH   1  35
TORSDOF 14
ENDMDL
MODEL 3
REMARK VINA RESULT:     -12.5      4.924     10.519
REMARK SMILES C[C@@H](Oc1ccc(/C=C2\C(=O)[NH+]=C(NCCCNC(=O)c3ccc(-c4c5nc(c(-c6ccccc6)c6ccc([nH]6)c(-c6ccccc6)c6nc(c(-c7ccccc7)c7ccc4[nH]7)C=C6)C=C5)cc3)N(c3ccc4c(c3)OCO4)C2=O)cc1)C(=O)[O-]
REMARK SMILES IDX 15 1 14 2 8 3 9 4 10 5 79 6 11 7 12 8 69 9 80 10 13 11 7 14
REMARK SMILES IDX 4 15 5 16 82 17 6 18 81 19 3 20 2 21 1 22 83 23 84 24 85 25
REMARK SMILES IDX 70 26 71 27 75 28 72 29 74 30 73 31 76 32 78 33 77 34 16 35
REMARK SMILES IDX 17 36 18 37 19 38 20 40 21 41 22 42 68 43 23 44 67 45 24 46
REMARK SMILES IDX 25 47 26 48 61 49 27 50 66 51 60 52 62 53 28 54 65 55 59 56
REMARK SMILES IDX 58 57 29 59 51 60 36 61 50 62 37 63 40 64 49 65 63 66 38 67
REMARK SMILES IDX 39 68 48 70 64 71 41 72 30 73 31 74 35 75 32 76 34 77 33 78
REMARK SMILES IDX 52 79 53 80 57 81 54 82 56 83 55 84 42 85 43 86 47 87 44 88
REMARK SMILES IDX 46 89 45 90
REMARK H PARENT 12 12 14 13 18 39 62 58 40 69
REMARK Flexibility Score: inf
ROOT
ATOM      1  C   UNL A   1      32.175  30.733  26.556  1.00  0.00     0.199 C 
ENDROOT
BRANCH   1   2
ATOM      2  N   UNL A   1      31.334  30.461  25.406  1.00  0.00    -0.277 N 
ATOM      3  C   UNL A   1      30.452  25.497  23.635  1.00  0.00     0.031 C 
ATOM      4  C   UNL A   1      30.943  26.745  23.768  1.00  0.00     0.138 C 
ATOM      5  C   UNL A   1      32.199  27.132  24.436  1.00  0.00     0.321 C 
ATOM      6  C   UNL A   1      30.140  27.829  23.172  1.00  0.00     0.328 C 
ATOM      7  O   UNL A   1      33.186  26.413  24.443  1.00  0.00    -0.250 OA
ATOM      8  N   UNL A   1      32.166  28.345  25.061  1.00  0.00    -0.210 N 
ATOM      9  N   UNL A   1      30.394  29.084  23.709  1.00  0.00    -0.162 N 
ATOM     10  O   UNL A   1      29.314  27.597  22.288  1.00  0.00    -0.249 OA
ATOM     11  C   UNL A   1      31.328  29.272  24.720  1.00  0.00     0.366 C 
ATOM     12  H   UNL A   1      32.799  28.521  25.795  1.00  0.00     0.270 HD
ATOM     13  H   UNL A   1      30.730  31.174  25.098  1.00  0.00     0.260 HD
BRANCH   3  14
ATOM     14  C   UNL A   1      30.961  24.212  24.130  1.00  0.00    -0.024 A 
ATOM     15  C   UNL A   1      31.880  21.662  24.870  1.00  0.00     0.120 A 
ATOM     16  C   UNL A   1      31.137  22.424  25.767  1.00  0.00     0.047 A 
ATOM     17  C   UNL A   1      32.118  22.143  23.587  1.00  0.00     0.047 A 
ATOM     18  C   UNL A   1      30.671  23.691  25.395  1.00  0.00     0.012 A 
ATOM     19  C   UNL A   1      31.674  23.414  23.226  1.00  0.00     0.012 A 
BRANCH  15  20
ATOM     20  O   UNL A   1      32.226  20.394  25.240  1.00  0.00    -0.485 OA
BRANCH  20  21
ATOM     21  C   UNL A   1      32.888  19.638  24.215  1.00  0.00     0.216 C 
ATOM     22  C   UNL A   1      32.257  18.264  24.011  1.00  0.00     0.059 C 
BRANCH  21  23
ATOM     23  C   UNL A   1      34.333  19.417  24.649  1.00  0.00     0.082 C 
ATOM     24  O   UNL A   1      35.119  20.287  24.993  1.00  0.00    -0.546 OA
ATOM     25  O   UNL A   1      34.750  18.137  24.544  1.00  0.00    -0.546 OA
ENDBRANCH  21  23
ENDBRANCH  20  21
ENDBRANCH  15  20
ENDBRANCH   3  14
BRANCH   9  26
ATOM     26  C   UNL A   1      29.568  30.142  23.246  1.00  0.00     0.115 A 
ATOM     27  C   UNL A   1      29.393  31.297  24.039  1.00  0.00     0.048 A 
ATOM     28  C   UNL A   1      29.055  30.080  21.944  1.00  0.00     0.094 A 
ATOM     29  C   UNL A   1      28.745  32.419  23.510  1.00  0.00     0.054 A 
ATOM     30  C   UNL A   1      28.435  31.203  21.453  1.00  0.00     0.169 A 
ATOM     31  C   UNL A   1      28.297  32.346  22.207  1.00  0.00     0.166 A 
ATOM     32  O   UNL A   1      27.948  31.347  20.192  1.00  0.00    -0.453 OA
ATOM     33  O   UNL A   1      27.723  33.356  21.497  1.00  0.00    -0.454 OA
ATOM     34  C   UNL A   1      27.687  32.765  20.180  1.00  0.00     0.468 C 
ENDBRANCH   9  26
ENDBRANCH   1   2
BRANCH   1  35
ATOM     35  C   UNL A   1      31.835  32.084  27.168  1.00  0.00     0.059 C 
BRANCH  35  36
ATOM     36  C   UNL A   1      32.991  33.078  27.151  1.00  0.00     0.119 C 
BRANCH  36  37
ATOM     37  N   UNL A   1      32.751  34.241  27.994  1.00  0.00    -0.352 N 
ATOM     38  C   UNL A   1      33.338  34.626  29.171  1.00  0.00     0.251 C 
ATOM     39  H   UNL A   1      32.052  34.851  27.664  1.00  0.00     0.163 HD
ATOM     40  O   UNL A   1      32.853  35.561  29.803  1.00  0.00    -0.269 OA
BRANCH  38  41
ATOM     41  C   UNL A   1      34.537  33.935  29.692  1.00  0.00     0.039 A 
ATOM     42  C   UNL A   1      35.792  34.329  29.217  1.00  0.00     0.014 A 
ATOM     43  C   UNL A   1      34.438  32.864  30.584  1.00  0.00     0.014 A 
ATOM     44  C   UNL A   1      36.942  33.667  29.652  1.00  0.00     0.010 A 
ATOM     45  C   UNL A   1      35.591  32.264  31.087  1.00  0.00     0.010 A 
ATOM     46  C   UNL A   1      36.853  32.637  30.602  1.00  0.00    -0.014 A 
BRANCH  46  47
ATOM     47  C   UNL A   1      38.066  31.904  31.048  1.00  0.00     0.031 A 
ATOM     48  C   UNL A   1      38.700  32.234  32.375  1.00  0.00     0.074 A 
ATOM     49  C   UNL A   1      38.609  30.960  30.258  1.00  0.00     0.049 A 
ATOM     50  N   UNL A   1      39.760  31.707  32.938  1.00  0.00    -0.248 NA
ATOM     51  C   UNL A   1      38.079  33.312  33.163  1.00  0.00     0.031 C 
ATOM     52  C   UNL A   1      38.114  30.571  28.937  1.00  0.00     0.029 A 
ATOM     53  N   UNL A   1      39.700  30.151  30.456  1.00  0.00    -0.354 N 
ATOM     54  C   UNL A   1      39.937  32.400  34.130  1.00  0.00     0.074 A 
ATOM     55  C   UNL A   1      38.916  33.422  34.182  1.00  0.00     0.031 C 
ATOM     56  C   UNL A   1      38.876  29.573  28.459  1.00  0.00     0.029 A 
ATOM     57  C   UNL A   1      39.933  29.278  29.421  1.00  0.00     0.049 A 
ATOM     58  H   UNL A   1      40.263  30.193  31.263  1.00  0.00     0.167 HD
ATOM     59  C   UNL A   1      40.850  32.189  35.108  1.00  0.00     0.031 A 
ATOM     60  C   UNL A   1      40.889  28.342  29.267  1.00  0.00     0.031 A 
ATOM     61  C   UNL A   1      41.859  31.166  35.064  1.00  0.00     0.049 A 
ATOM     62  C   UNL A   1      41.896  28.133  30.364  1.00  0.00     0.074 A 
ATOM     63  C   UNL A   1      42.801  30.841  36.025  1.00  0.00     0.029 A 
ATOM     64  N   UNL A   1      42.056  30.300  34.000  1.00  0.00    -0.354 N 
ATOM     65  N   UNL A   1      42.010  28.752  31.514  1.00  0.00    -0.248 NA
ATOM     66  C   UNL A   1      42.896  27.077  30.147  1.00  0.00     0.031 C 
ATOM     67  C   UNL A   1      43.603  29.813  35.519  1.00  0.00     0.029 A 
ATOM     68  C   UNL A   1      43.117  29.452  34.273  1.00  0.00     0.049 A 
ATOM     69  H   UNL A   1      41.522  30.288  33.173  1.00  0.00     0.167 HD
ATOM     70  C   UNL A   1      43.064  28.134  32.175  1.00  0.00     0.074 A 
ATOM     71  C   UNL A   1      43.548  27.085  31.301  1.00  0.00     0.031 C 
ATOM     72  C   UNL A   1      43.582  28.408  33.397  1.00  0.00     0.031 A 
BRANCH  59  73
ATOM     73  C   UNL A   1      40.798  33.096  36.309  1.00  0.00    -0.014 A 
ATOM     74  C   UNL A   1      39.959  32.815  37.400  1.00  0.00     0.009 A 
ATOM     75  C   UNL A   1      41.619  34.233  36.361  1.00  0.00     0.009 A 
ATOM     76  C   UNL A   1      39.912  33.677  38.498  1.00  0.00     0.001 A 
ATOM     77  C   UNL A   1      41.595  35.075  37.476  1.00  0.00     0.001 A 
ATOM     78  C   UNL A   1      40.733  34.802  38.537  1.00  0.00     0.000 A 
ENDBRANCH  59  73
BRANCH  60  79
ATOM     79  C   UNL A   1      40.923  27.508  28.036  1.00  0.00    -0.014 A 
ATOM     80  C   UNL A   1      40.241  26.283  27.986  1.00  0.00     0.009 A 
ATOM     81  C   UNL A   1      41.652  27.923  26.912  1.00  0.00     0.009 A 
ATOM     82  C   UNL A   1      40.315  25.475  26.849  1.00  0.00     0.001 A 
ATOM     83  C   UNL A   1      41.698  27.129  25.763  1.00  0.00     0.001 A 
ATOM     84  C   UNL A   1      41.040  25.901  25.737  1.00  0.00     0.000 A 
ENDBRANCH  60  79
BRANCH  72  85
ATOM     85  C   UNL A   1      44.693  27.520  33.888  1.00  0.00    -0.014 A 
ATOM     86  C   UNL A   1      44.433  26.310  34.550  1.00  0.00     0.009 A 
ATOM     87  C   UNL A   1      46.026  27.893  33.654  1.00  0.00     0.009 A 
ATOM     88  C   UNL A   1      45.487  25.515  35.007  1.00  0.00     0.001 A 
ATOM     89  C   UNL A   1      47.077  27.080  34.081  1.00  0.00     0.001 A 
ATOM     90  C   UNL A   1      46.806  25.898  34.769  1.00  0.00     0.000 A 
ENDBRANCH  72  85
ENDBRANCH  46  47
ENDBRANCH  38  41
ENDBRANCH  36  37
ENDBRANCH  35  36
ENDBRANCH   1  35
TORSDOF 14
ENDMDL
