MODEL 1
REMARK VINA RESULT:     -12.4      0.000      0.000
REMARK SMILES COc1ccc(-n2ccnc2C[N@@H+]2Cc3[nH]cnc3C[C@H]2C(=O)NCCCNC(=O)c2ccc(-c3c4nc(c(-c5ccccc5)c5ccc([nH]5)c(-c5ccccc5)c5nc(c(-c6ccccc6)c6ccc3[nH]6)C=C5)C=C4)cc2)cc1
REMARK SMILES IDX 25 1 24 2 22 3 23 4 21 6 13 7 14 8 15 10 20 11 16 12 19 13
REMARK SMILES IDX 17 14 18 16 12 17 11 18 7 19 8 20 9 21 10 22 6 23 3 24 4 25
REMARK SMILES IDX 80 26 5 27 79 28 2 29 1 30 26 31 27 32 28 33 29 34 30 36
REMARK SMILES IDX 31 37 32 38 78 39 33 40 77 41 34 42 35 43 36 44 71 45 37 46
REMARK SMILES IDX 76 47 70 48 72 49 38 50 75 51 69 52 68 53 39 55 61 56 46 57
REMARK SMILES IDX 60 58 47 59 50 60 59 61 73 62 48 63 49 64 58 66 74 67 51 68
REMARK SMILES IDX 40 69 41 70 45 71 42 72 44 73 43 74 62 75 63 76 67 77 64 78
REMARK SMILES IDX 66 79 65 80 52 81 53 82 57 83 54 84 56 85 55 86
REMARK H PARENT 24 5 13 9 16 15 28 35 72 54 50 65
REMARK Flexibility Score: inf
ROOT
ATOM      1  C   UNL A   1      38.160  21.940  25.820  1.00  0.00     0.118 C 
ENDROOT
BRANCH   1   2
ATOM      2  N   UNL A   1      37.802  22.364  24.473  1.00  0.00    -0.351 N 
ATOM      3  C   UNL A   1      36.600  22.547  23.856  1.00  0.00     0.278 C 
ATOM      4  O   UNL A   1      36.626  22.770  22.640  1.00  0.00    -0.268 OA
ATOM      5  H   UNL A   1      38.577  22.555  23.896  1.00  0.00     0.163 HD
BRANCH   3   6
ATOM      6  C   UNL A   1      35.267  22.518  24.603  1.00  0.00     0.280 C 
ATOM      7  N   UNL A   1      34.128  23.235  23.834  1.00  0.00    -0.313 N 
ATOM      8  C   UNL A   1      32.849  22.592  24.165  1.00  0.00     0.320 C 
ATOM      9  H   UNL A   1      34.325  23.145  22.838  1.00  0.00     0.349 HD
ATOM     10  C   UNL A   1      32.858  22.199  25.601  1.00  0.00     0.093 A 
ATOM     11  C   UNL A   1      34.941  21.088  25.218  1.00  0.00     0.134 C 
ATOM     12  N   UNL A   1      32.714  22.995  26.702  1.00  0.00    -0.344 N 
ATOM     13  C   UNL A   1      33.767  21.287  26.083  1.00  0.00     0.074 A 
ATOM     14  C   UNL A   1      33.194  22.332  27.794  1.00  0.00     0.197 A 
ATOM     15  H   UNL A   1      32.327  23.900  26.706  1.00  0.00     0.167 HD
ATOM     16  N   UNL A   1      33.816  21.237  27.439  1.00  0.00    -0.241 NA
BRANCH   7  17
ATOM     17  C   UNL A   1      34.064  24.717  24.114  1.00  0.00     0.340 C 
BRANCH  17  18
ATOM     18  C   UNL A   1      33.364  25.553  23.024  1.00  0.00     0.168 A 
ATOM     19  N   UNL A   1      32.682  26.779  23.187  1.00  0.00    -0.299 N 
ATOM     20  C   UNL A   1      31.836  26.883  22.102  1.00  0.00     0.113 A 
ATOM     21  C   UNL A   1      32.225  25.905  21.225  1.00  0.00     0.132 A 
ATOM     22  N   UNL A   1      33.183  25.111  21.786  1.00  0.00    -0.236 NA
BRANCH  19  23
ATOM     23  C   UNL A   1      32.606  27.646  24.312  1.00  0.00     0.047 A 
ATOM     24  C   UNL A   1      32.349  29.694  26.217  1.00  0.00     0.119 A 
ATOM     25  C   UNL A   1      31.388  28.670  26.133  1.00  0.00     0.048 A 
ATOM     26  C   UNL A   1      33.507  29.601  25.451  1.00  0.00     0.048 A 
ATOM     27  C   UNL A   1      31.491  27.662  25.152  1.00  0.00     0.030 A 
ATOM     28  C   UNL A   1      33.658  28.554  24.534  1.00  0.00     0.030 A 
BRANCH  24  29
ATOM     29  O   UNL A   1      32.051  30.746  27.041  1.00  0.00    -0.497 OA
ATOM     30  C   UNL A   1      31.281  31.807  26.458  1.00  0.00     0.278 C 
ENDBRANCH  24  29
ENDBRANCH  19  23
ENDBRANCH  17  18
ENDBRANCH   7  17
ENDBRANCH   3   6
ENDBRANCH   1   2
BRANCH   1  31
ATOM     31  C   UNL A   1      39.345  20.977  25.810  1.00  0.00     0.042 C 
BRANCH  31  32
ATOM     32  C   UNL A   1      40.485  21.345  26.745  1.00  0.00     0.118 C 
BRANCH  32  33
ATOM     33  N   UNL A   1      41.710  21.828  26.102  1.00  0.00    -0.352 N 
ATOM     34  C   UNL A   1      42.135  23.157  26.007  1.00  0.00     0.251 C 
ATOM     35  H   UNL A   1      42.293  21.148  25.695  1.00  0.00     0.163 HD
ATOM     36  O   UNL A   1      42.897  23.538  25.154  1.00  0.00    -0.269 OA
BRANCH  34  37
ATOM     37  C   UNL A   1      41.602  24.084  27.027  1.00  0.00     0.039 A 
ATOM     38  C   UNL A   1      42.310  24.365  28.196  1.00  0.00     0.014 A 
ATOM     39  C   UNL A   1      40.520  24.857  26.623  1.00  0.00     0.014 A 
ATOM     40  C   UNL A   1      42.013  25.545  28.876  1.00  0.00     0.010 A 
ATOM     41  C   UNL A   1      40.381  26.104  27.176  1.00  0.00     0.010 A 
ATOM     42  C   UNL A   1      41.097  26.455  28.316  1.00  0.00    -0.014 A 
BRANCH  42  43
ATOM     43  C   UNL A   1      41.022  27.839  28.792  1.00  0.00     0.031 A 
ATOM     44  C   UNL A   1      42.018  28.759  28.169  1.00  0.00     0.074 A 
ATOM     45  C   UNL A   1      40.026  28.330  29.566  1.00  0.00     0.049 A 
ATOM     46  N   UNL A   1      43.094  29.219  28.714  1.00  0.00    -0.248 NA
ATOM     47  C   UNL A   1      41.901  29.074  26.733  1.00  0.00     0.031 C 
ATOM     48  C   UNL A   1      38.796  27.665  30.014  1.00  0.00     0.029 A 
ATOM     49  N   UNL A   1      39.859  29.594  30.045  1.00  0.00    -0.354 N 
ATOM     50  C   UNL A   1      43.665  30.075  27.778  1.00  0.00     0.074 A 
ATOM     51  C   UNL A   1      43.015  29.782  26.525  1.00  0.00     0.031 C 
ATOM     52  C   UNL A   1      37.915  28.583  30.471  1.00  0.00     0.029 A 
ATOM     53  C   UNL A   1      38.590  29.861  30.551  1.00  0.00     0.049 A 
ATOM     54  H   UNL A   1      40.578  30.265  30.033  1.00  0.00     0.167 HD
ATOM     55  C   UNL A   1      44.406  31.148  28.176  1.00  0.00     0.031 A 
ATOM     56  C   UNL A   1      38.128  31.043  31.023  1.00  0.00     0.031 A 
ATOM     57  C   UNL A   1      44.770  31.043  29.571  1.00  0.00     0.049 A 
ATOM     58  C   UNL A   1      39.307  31.866  31.363  1.00  0.00     0.074 A 
ATOM     59  C   UNL A   1      45.445  30.112  30.338  1.00  0.00     0.029 A 
ATOM     60  N   UNL A   1      44.040  31.799  30.457  1.00  0.00    -0.354 N 
ATOM     61  N   UNL A   1      40.114  31.588  32.344  1.00  0.00    -0.248 NA
ATOM     62  C   UNL A   1      39.842  32.746  30.339  1.00  0.00     0.031 C 
ATOM     63  C   UNL A   1      44.710  30.043  31.560  1.00  0.00     0.029 A 
ATOM     64  C   UNL A   1      43.694  31.000  31.514  1.00  0.00     0.049 A 
ATOM     65  H   UNL A   1      43.805  32.749  30.351  1.00  0.00     0.167 HD
ATOM     66  C   UNL A   1      41.377  31.854  31.838  1.00  0.00     0.074 A 
ATOM     67  C   UNL A   1      41.140  32.671  30.648  1.00  0.00     0.031 C 
ATOM     68  C   UNL A   1      42.465  31.147  32.266  1.00  0.00     0.031 A 
BRANCH  55  69
ATOM     69  C   UNL A   1      44.386  32.485  27.465  1.00  0.00    -0.014 A 
ATOM     70  C   UNL A   1      43.718  33.563  28.079  1.00  0.00     0.009 A 
ATOM     71  C   UNL A   1      44.731  32.654  26.111  1.00  0.00     0.009 A 
ATOM     72  C   UNL A   1      43.331  34.695  27.349  1.00  0.00     0.001 A 
ATOM     73  C   UNL A   1      44.383  33.800  25.390  1.00  0.00     0.001 A 
ATOM     74  C   UNL A   1      43.652  34.807  26.002  1.00  0.00     0.000 A 
ENDBRANCH  55  69
BRANCH  56  75
ATOM     75  C   UNL A   1      36.765  31.615  31.022  1.00  0.00    -0.014 A 
ATOM     76  C   UNL A   1      36.384  32.543  32.006  1.00  0.00     0.009 A 
ATOM     77  C   UNL A   1      35.950  31.496  29.882  1.00  0.00     0.009 A 
ATOM     78  C   UNL A   1      35.269  33.369  31.825  1.00  0.00     0.001 A 
ATOM     79  C   UNL A   1      34.832  32.319  29.704  1.00  0.00     0.001 A 
ATOM     80  C   UNL A   1      34.506  33.271  30.665  1.00  0.00     0.000 A 
ENDBRANCH  56  75
BRANCH  68  81
ATOM     81  C   UNL A   1      42.310  30.282  33.496  1.00  0.00    -0.014 A 
ATOM     82  C   UNL A   1      42.521  30.737  34.810  1.00  0.00     0.009 A 
ATOM     83  C   UNL A   1      41.819  28.979  33.320  1.00  0.00     0.009 A 
ATOM     84  C   UNL A   1      42.290  29.897  35.907  1.00  0.00     0.001 A 
ATOM     85  C   UNL A   1      41.564  28.150  34.413  1.00  0.00     0.001 A 
ATOM     86  C   UNL A   1      41.809  28.606  35.707  1.00  0.00     0.000 A 
ENDBRANCH  68  81
ENDBRANCH  42  43
ENDBRANCH  34  37
ENDBRANCH  32  33
ENDBRANCH  31  32
ENDBRANCH   1  31
TORSDOF 14
ENDMDL
MODEL 2
REMARK VINA RESULT:     -12.0      2.555      7.305
REMARK SMILES COc1ccc(-n2ccnc2C[N@@H+]2Cc3[nH]cnc3C[C@H]2C(=O)NCCCNC(=O)c2ccc(-c3c4nc(c(-c5ccccc5)c5ccc([nH]5)c(-c5ccccc5)c5nc(c(-c6ccccc6)c6ccc3[nH]6)C=C5)C=C4)cc2)cc1
REMARK SMILES IDX 25 1 24 2 22 3 23 4 21 6 13 7 14 8 15 10 20 11 16 12 19 13
REMARK SMILES IDX 17 14 18 16 12 17 11 18 7 19 8 20 9 21 10 22 6 23 3 24 4 25
REMARK SMILES IDX 80 26 5 27 79 28 2 29 1 30 26 31 27 32 28 33 29 34 30 36
REMARK SMILES IDX 31 37 32 38 78 39 33 40 77 41 34 42 35 43 36 44 71 45 37 46
REMARK SMILES IDX 76 47 70 48 72 49 38 50 75 51 69 52 68 53 39 55 61 56 46 57
REMARK SMILES IDX 60 58 47 59 50 60 59 61 73 62 48 63 49 64 58 66 74 67 51 68
REMARK SMILES IDX 40 69 41 70 45 71 42 72 44 73 43 74 62 75 63 76 67 77 64 78
REMARK SMILES IDX 66 79 65 80 52 81 53 82 57 83 54 84 56 85 55 86
REMARK H PARENT 24 5 13 9 16 15 28 35 72 54 50 65
REMARK Flexibility Score: inf
ROOT
ATOM      1  C   UNL A   1      33.278  27.294  26.431  1.00  0.00     0.118 C 
ENDROOT
BRANCH   1   2
ATOM      2  N   UNL A   1      33.333  27.634  25.015  1.00  0.00    -0.351 N 
ATOM      3  C   UNL A   1      33.505  26.876  23.895  1.00  0.00     0.278 C 
ATOM      4  O   UNL A   1      33.661  27.484  22.830  1.00  0.00    -0.268 OA
ATOM      5  H   UNL A   1      33.227  28.595  24.832  1.00  0.00     0.163 HD
BRANCH   3   6
ATOM      6  C   UNL A   1      33.479  25.348  23.909  1.00  0.00     0.280 C 
ATOM      7  N   UNL A   1      32.870  24.742  22.621  1.00  0.00    -0.313 N 
ATOM      8  C   UNL A   1      33.498  23.439  22.361  1.00  0.00     0.320 C 
ATOM      9  H   UNL A   1      33.061  25.388  21.856  1.00  0.00     0.349 HD
ATOM     10  C   UNL A   1      33.737  22.746  23.657  1.00  0.00     0.093 A 
ATOM     11  C   UNL A   1      34.842  24.719  24.435  1.00  0.00     0.134 C 
ATOM     12  N   UNL A   1      32.831  22.120  24.466  1.00  0.00    -0.344 N 
ATOM     13  C   UNL A   1      34.575  23.281  24.606  1.00  0.00     0.074 A 
ATOM     14  C   UNL A   1      33.365  21.995  25.716  1.00  0.00     0.197 A 
ATOM     15  H   UNL A   1      31.938  21.810  24.192  1.00  0.00     0.167 HD
ATOM     16  N   UNL A   1      34.480  22.674  25.817  1.00  0.00    -0.241 NA
BRANCH   7  17
ATOM     17  C   UNL A   1      31.368  24.602  22.682  1.00  0.00     0.340 C 
BRANCH  17  18
ATOM     18  C   UNL A   1      30.746  24.892  24.063  1.00  0.00     0.168 A 
ATOM     19  N   UNL A   1      30.002  26.028  24.449  1.00  0.00    -0.299 N 
ATOM     20  C   UNL A   1      30.087  26.081  25.825  1.00  0.00     0.113 A 
ATOM     21  C   UNL A   1      30.612  24.878  26.217  1.00  0.00     0.132 A 
ATOM     22  N   UNL A   1      30.986  24.141  25.131  1.00  0.00    -0.236 NA
BRANCH  19  23
ATOM     23  C   UNL A   1      29.481  27.096  23.666  1.00  0.00     0.047 A 
ATOM     24  C   UNL A   1      28.391  29.423  22.534  1.00  0.00     0.119 A 
ATOM     25  C   UNL A   1      29.756  29.125  22.380  1.00  0.00     0.048 A 
ATOM     26  C   UNL A   1      27.552  28.481  23.123  1.00  0.00     0.048 A 
ATOM     27  C   UNL A   1      30.317  27.978  22.979  1.00  0.00     0.030 A 
ATOM     28  C   UNL A   1      28.088  27.297  23.646  1.00  0.00     0.030 A 
BRANCH  24  29
ATOM     29  O   UNL A   1      27.983  30.662  22.114  1.00  0.00    -0.497 OA
ATOM     30  C   UNL A   1      27.691  31.614  23.146  1.00  0.00     0.278 C 
ENDBRANCH  24  29
ENDBRANCH  19  23
ENDBRANCH  17  18
ENDBRANCH   7  17
ENDBRANCH   3   6
ENDBRANCH   1   2
BRANCH   1  31
ATOM     31  C   UNL A   1      33.534  28.514  27.313  1.00  0.00     0.042 C 
BRANCH  31  32
ATOM     32  C   UNL A   1      34.773  29.318  26.960  1.00  0.00     0.118 C 
BRANCH  32  33
ATOM     33  N   UNL A   1      34.626  30.776  27.006  1.00  0.00    -0.352 N 
ATOM     34  C   UNL A   1      35.028  31.623  28.042  1.00  0.00     0.251 C 
ATOM     35  H   UNL A   1      34.200  31.201  26.227  1.00  0.00     0.163 HD
ATOM     36  O   UNL A   1      34.540  32.712  28.220  1.00  0.00    -0.269 OA
BRANCH  34  37
ATOM     37  C   UNL A   1      36.103  31.114  28.918  1.00  0.00     0.039 A 
ATOM     38  C   UNL A   1      35.990  29.887  29.572  1.00  0.00     0.014 A 
ATOM     39  C   UNL A   1      37.318  31.782  28.821  1.00  0.00     0.014 A 
ATOM     40  C   UNL A   1      37.160  29.254  29.990  1.00  0.00     0.010 A 
ATOM     41  C   UNL A   1      38.464  31.063  29.044  1.00  0.00     0.010 A 
ATOM     42  C   UNL A   1      38.407  29.812  29.652  1.00  0.00    -0.014 A 
BRANCH  42  43
ATOM     43  C   UNL A   1      39.637  29.022  29.746  1.00  0.00     0.031 A 
ATOM     44  C   UNL A   1      40.028  28.655  31.138  1.00  0.00     0.074 A 
ATOM     45  C   UNL A   1      40.280  28.476  28.687  1.00  0.00     0.049 A 
ATOM     46  N   UNL A   1      40.975  29.180  31.842  1.00  0.00    -0.248 NA
ATOM     47  C   UNL A   1      39.177  27.720  31.897  1.00  0.00     0.031 C 
ATOM     48  C   UNL A   1      39.875  28.457  27.275  1.00  0.00     0.029 A 
ATOM     49  N   UNL A   1      41.412  27.720  28.671  1.00  0.00    -0.354 N 
ATOM     50  C   UNL A   1      40.999  28.479  33.042  1.00  0.00     0.074 A 
ATOM     51  C   UNL A   1      39.754  27.754  33.102  1.00  0.00     0.031 C 
ATOM     52  C   UNL A   1      40.597  27.534  26.601  1.00  0.00     0.029 A 
ATOM     53  C   UNL A   1      41.651  27.057  27.471  1.00  0.00     0.049 A 
ATOM     54  H   UNL A   1      42.014  27.648  29.446  1.00  0.00     0.167 HD
ATOM     55  C   UNL A   1      42.162  28.324  33.736  1.00  0.00     0.031 A 
ATOM     56  C   UNL A   1      42.656  26.190  27.199  1.00  0.00     0.031 A 
ATOM     57  C   UNL A   1      43.180  29.232  33.257  1.00  0.00     0.049 A 
ATOM     58  C   UNL A   1      43.717  26.427  28.199  1.00  0.00     0.074 A 
ATOM     59  C   UNL A   1      43.280  30.603  33.116  1.00  0.00     0.029 A 
ATOM     60  N   UNL A   1      44.139  28.700  32.428  1.00  0.00    -0.354 N 
ATOM     61  N   UNL A   1      44.429  27.515  28.241  1.00  0.00    -0.248 NA
ATOM     62  C   UNL A   1      43.685  25.649  29.425  1.00  0.00     0.031 C 
ATOM     63  C   UNL A   1      43.938  30.795  31.863  1.00  0.00     0.029 A 
ATOM     64  C   UNL A   1      44.292  29.543  31.359  1.00  0.00     0.049 A 
ATOM     65  H   UNL A   1      44.630  27.860  32.575  1.00  0.00     0.167 HD
ATOM     66  C   UNL A   1      44.538  27.805  29.593  1.00  0.00     0.074 A 
ATOM     67  C   UNL A   1      44.164  26.564  30.273  1.00  0.00     0.031 C 
ATOM     68  C   UNL A   1      44.638  29.096  30.026  1.00  0.00     0.031 A 
BRANCH  55  69
ATOM     69  C   UNL A   1      42.524  27.061  34.488  1.00  0.00    -0.014 A 
ATOM     70  C   UNL A   1      43.387  26.135  33.871  1.00  0.00     0.009 A 
ATOM     71  C   UNL A   1      41.834  26.607  35.628  1.00  0.00     0.009 A 
ATOM     72  C   UNL A   1      43.472  24.807  34.311  1.00  0.00     0.001 A 
ATOM     73  C   UNL A   1      41.948  25.294  36.096  1.00  0.00     0.001 A 
ATOM     74  C   UNL A   1      42.743  24.384  35.416  1.00  0.00     0.000 A 
ENDBRANCH  55  69
BRANCH  56  75
ATOM     75  C   UNL A   1      42.709  25.032  26.282  1.00  0.00    -0.014 A 
ATOM     76  C   UNL A   1      43.716  24.944  25.307  1.00  0.00     0.009 A 
ATOM     77  C   UNL A   1      41.970  23.871  26.568  1.00  0.00     0.009 A 
ATOM     78  C   UNL A   1      44.021  23.724  24.692  1.00  0.00     0.001 A 
ATOM     79  C   UNL A   1      42.271  22.652  25.949  1.00  0.00     0.001 A 
ATOM     80  C   UNL A   1      43.311  22.574  25.028  1.00  0.00     0.000 A 
ENDBRANCH  56  75
BRANCH  68  81
ATOM     81  C   UNL A   1      44.918  30.169  28.998  1.00  0.00    -0.014 A 
ATOM     82  C   UNL A   1      46.205  30.636  28.677  1.00  0.00     0.009 A 
ATOM     83  C   UNL A   1      43.836  30.646  28.242  1.00  0.00     0.009 A 
ATOM     84  C   UNL A   1      46.394  31.583  27.662  1.00  0.00     0.001 A 
ATOM     85  C   UNL A   1      44.026  31.571  27.214  1.00  0.00     0.001 A 
ATOM     86  C   UNL A   1      45.303  32.047  26.931  1.00  0.00     0.000 A 
ENDBRANCH  68  81
ENDBRANCH  42  43
ENDBRANCH  34  37
ENDBRANCH  32  33
ENDBRANCH  31  32
ENDBRANCH   1  31
TORSDOF 14
ENDMDL
MODEL 3
REMARK VINA RESULT:     -11.8      2.825      7.811
REMARK SMILES COc1ccc(-n2ccnc2C[N@@H+]2Cc3[nH]cnc3C[C@H]2C(=O)NCCCNC(=O)c2ccc(-c3c4nc(c(-c5ccccc5)c5ccc([nH]5)c(-c5ccccc5)c5nc(c(-c6ccccc6)c6ccc3[nH]6)C=C5)C=C4)cc2)cc1
REMARK SMILES IDX 25 1 24 2 22 3 23 4 21 6 13 7 14 8 15 10 20 11 16 12 19 13
REMARK SMILES IDX 17 14 18 16 12 17 11 18 7 19 8 20 9 21 10 22 6 23 3 24 4 25
REMARK SMILES IDX 80 26 5 27 79 28 2 29 1 30 26 31 27 32 28 33 29 34 30 36
REMARK SMILES IDX 31 37 32 38 78 39 33 40 77 41 34 42 35 43 36 44 71 45 37 46
REMARK SMILES IDX 76 47 70 48 72 49 38 50 75 51 69 52 68 53 39 55 61 56 46 57
REMARK SMILES IDX 60 58 47 59 50 60 59 61 73 62 48 63 49 64 58 66 74 67 51 68
REMARK SMILES IDX 40 69 41 70 45 71 42 72 44 73 43 74 62 75 63 76 67 77 64 78
REMARK SMILES IDX 66 79 65 80 52 81 53 82 57 83 54 84 56 85 55 86
REMARK H PARENT 24 5 13 9 16 15 28 35 72 54 50 65
REMARK Flexibility Score: inf
ROOT
ATOM      1  C   UNL A   1      34.159  28.700  26.814  1.00  0.00     0.118 C 
ENDROOT
BRANCH   1   2
ATOM      2  N   UNL A   1      34.343  28.796  25.372  1.00  0.00    -0.351 N 
ATOM      3  C   UNL A   1      33.782  28.123  24.328  1.00  0.00     0.278 C 
ATOM      4  O   UNL A   1      34.264  28.331  23.208  1.00  0.00    -0.268 OA
ATOM      5  H   UNL A   1      34.999  29.478  25.099  1.00  0.00     0.163 HD
BRANCH   3   6
ATOM      6  C   UNL A   1      32.594  27.176  24.488  1.00  0.00     0.280 C 
ATOM      7  N   UNL A   1      32.997  25.789  25.049  1.00  0.00    -0.313 N 
ATOM      8  C   UNL A   1      31.878  25.245  25.830  1.00  0.00     0.320 C 
ATOM      9  H   UNL A   1      33.815  25.923  25.643  1.00  0.00     0.349 HD
ATOM     10  C   UNL A   1      30.597  25.609  25.164  1.00  0.00     0.093 A 
ATOM     11  C   UNL A   1      31.330  27.885  25.142  1.00  0.00     0.134 C 
ATOM     12  N   UNL A   1      30.040  25.071  24.039  1.00  0.00    -0.344 N 
ATOM     13  C   UNL A   1      30.223  26.923  25.012  1.00  0.00     0.074 A 
ATOM     14  C   UNL A   1      29.115  25.943  23.542  1.00  0.00     0.197 A 
ATOM     15  H   UNL A   1      30.270  24.197  23.649  1.00  0.00     0.167 HD
ATOM     16  N   UNL A   1      29.176  27.093  24.164  1.00  0.00    -0.241 NA
BRANCH   7  17
ATOM     17  C   UNL A   1      33.418  24.814  23.977  1.00  0.00     0.340 C 
BRANCH  17  18
ATOM     18  C   UNL A   1      33.220  23.328  24.337  1.00  0.00     0.168 A 
ATOM     19  N   UNL A   1      34.214  22.386  24.679  1.00  0.00    -0.299 N 
ATOM     20  C   UNL A   1      33.657  21.148  24.433  1.00  0.00     0.113 A 
ATOM     21  C   UNL A   1      32.320  21.369  24.233  1.00  0.00     0.132 A 
ATOM     22  N   UNL A   1      32.054  22.707  24.205  1.00  0.00    -0.236 NA
BRANCH  19  23
ATOM     23  C   UNL A   1      35.598  22.570  24.956  1.00  0.00     0.047 A 
ATOM     24  C   UNL A   1      38.216  22.800  25.945  1.00  0.00     0.119 A 
ATOM     25  C   UNL A   1      37.874  21.761  25.060  1.00  0.00     0.048 A 
ATOM     26  C   UNL A   1      37.286  23.801  26.208  1.00  0.00     0.048 A 
ATOM     27  C   UNL A   1      36.551  21.618  24.592  1.00  0.00     0.030 A 
ATOM     28  C   UNL A   1      35.993  23.712  25.677  1.00  0.00     0.030 A 
BRANCH  24  29
ATOM     29  O   UNL A   1      39.457  22.730  26.521  1.00  0.00    -0.497 OA
ATOM     30  C   UNL A   1      40.087  21.441  26.509  1.00  0.00     0.278 C 
ENDBRANCH  24  29
ENDBRANCH  19  23
ENDBRANCH  17  18
ENDBRANCH   7  17
ENDBRANCH   3   6
ENDBRANCH   1   2
BRANCH   1  31
ATOM     31  C   UNL A   1      34.235  30.070  27.484  1.00  0.00     0.042 C 
BRANCH  31  32
ATOM     32  C   UNL A   1      35.628  30.511  27.897  1.00  0.00     0.118 C 
BRANCH  32  33
ATOM     33  N   UNL A   1      35.916  30.461  29.333  1.00  0.00    -0.352 N 
ATOM     34  C   UNL A   1      36.745  29.544  29.987  1.00  0.00     0.251 C 
ATOM     35  H   UNL A   1      35.481  31.141  29.896  1.00  0.00     0.163 HD
ATOM     36  O   UNL A   1      36.635  29.288  31.160  1.00  0.00    -0.269 OA
BRANCH  34  37
ATOM     37  C   UNL A   1      37.785  28.901  29.157  1.00  0.00     0.039 A 
ATOM     38  C   UNL A   1      38.444  29.600  28.145  1.00  0.00     0.014 A 
ATOM     39  C   UNL A   1      38.253  27.681  29.628  1.00  0.00     0.014 A 
ATOM     40  C   UNL A   1      39.685  29.127  27.721  1.00  0.00     0.010 A 
ATOM     41  C   UNL A   1      39.555  27.346  29.357  1.00  0.00     0.010 A 
ATOM     42  C   UNL A   1      40.276  28.038  28.388  1.00  0.00    -0.014 A 
BRANCH  42  43
ATOM     43  C   UNL A   1      41.701  27.738  28.228  1.00  0.00     0.031 A 
ATOM     44  C   UNL A   1      41.984  26.456  27.519  1.00  0.00     0.074 A 
ATOM     45  C   UNL A   1      42.702  28.609  28.495  1.00  0.00     0.049 A 
ATOM     46  N   UNL A   1      42.383  25.349  28.050  1.00  0.00    -0.248 NA
ATOM     47  C   UNL A   1      41.632  26.335  26.092  1.00  0.00     0.031 C 
ATOM     48  C   UNL A   1      42.612  30.020  28.894  1.00  0.00     0.029 A 
ATOM     49  N   UNL A   1      44.046  28.433  28.366  1.00  0.00    -0.354 N 
ATOM     50  C   UNL A   1      42.567  24.460  26.996  1.00  0.00     0.074 A 
ATOM     51  C   UNL A   1      41.894  25.044  25.863  1.00  0.00     0.031 C 
ATOM     52  C   UNL A   1      43.811  30.623  28.731  1.00  0.00     0.029 A 
ATOM     53  C   UNL A   1      44.794  29.606  28.428  1.00  0.00     0.049 A 
ATOM     54  H   UNL A   1      44.456  27.548  28.240  1.00  0.00     0.167 HD
ATOM     55  C   UNL A   1      43.503  23.473  27.073  1.00  0.00     0.031 A 
ATOM     56  C   UNL A   1      46.133  29.734  28.262  1.00  0.00     0.031 A 
ATOM     57  C   UNL A   1      43.962  23.293  28.432  1.00  0.00     0.049 A 
ATOM     58  C   UNL A   1      46.727  28.400  28.485  1.00  0.00     0.074 A 
ATOM     59  C   UNL A   1      43.355  23.006  29.639  1.00  0.00     0.029 A 
ATOM     60  N   UNL A   1      45.182  23.843  28.748  1.00  0.00    -0.354 N 
ATOM     61  N   UNL A   1      46.749  27.812  29.645  1.00  0.00    -0.248 NA
ATOM     62  C   UNL A   1      46.900  27.529  27.336  1.00  0.00     0.031 C 
ATOM     63  C   UNL A   1      44.017  23.842  30.589  1.00  0.00     0.029 A 
ATOM     64  C   UNL A   1      45.051  24.513  29.935  1.00  0.00     0.049 A 
ATOM     65  H   UNL A   1      46.006  23.769  28.215  1.00  0.00     0.167 HD
ATOM     66  C   UNL A   1      46.461  26.485  29.366  1.00  0.00     0.074 A 
ATOM     67  C   UNL A   1      46.680  26.350  27.925  1.00  0.00     0.031 C 
ATOM     68  C   UNL A   1      45.798  25.706  30.272  1.00  0.00     0.031 A 
BRANCH  55  69
ATOM     69  C   UNL A   1      44.338  23.020  25.893  1.00  0.00    -0.014 A 
ATOM     70  C   UNL A   1      44.417  21.641  25.615  1.00  0.00     0.009 A 
ATOM     71  C   UNL A   1      45.270  23.844  25.235  1.00  0.00     0.009 A 
ATOM     72  C   UNL A   1      45.434  21.114  24.808  1.00  0.00     0.001 A 
ATOM     73  C   UNL A   1      46.261  23.326  24.395  1.00  0.00     0.001 A 
ATOM     74  C   UNL A   1      46.363  21.956  24.208  1.00  0.00     0.000 A 
ENDBRANCH  55  69
BRANCH  56  75
ATOM     75  C   UNL A   1      46.935  30.854  27.728  1.00  0.00    -0.014 A 
ATOM     76  C   UNL A   1      46.377  31.745  26.797  1.00  0.00     0.009 A 
ATOM     77  C   UNL A   1      48.130  31.234  28.365  1.00  0.00     0.009 A 
ATOM     78  C   UNL A   1      46.953  32.999  26.562  1.00  0.00     0.001 A 
ATOM     79  C   UNL A   1      48.709  32.486  28.126  1.00  0.00     0.001 A 
ATOM     80  C   UNL A   1      48.108  33.377  27.243  1.00  0.00     0.000 A 
ENDBRANCH  56  75
BRANCH  68  81
ATOM     81  C   UNL A   1      45.646  26.232  31.681  1.00  0.00    -0.014 A 
ATOM     82  C   UNL A   1      44.578  27.042  32.109  1.00  0.00     0.009 A 
ATOM     83  C   UNL A   1      46.568  25.793  32.644  1.00  0.00     0.009 A 
ATOM     84  C   UNL A   1      44.465  27.434  33.448  1.00  0.00     0.001 A 
ATOM     85  C   UNL A   1      46.442  26.163  33.984  1.00  0.00     0.001 A 
ATOM     86  C   UNL A   1      45.397  26.992  34.384  1.00  0.00     0.000 A 
ENDBRANCH  68  81
ENDBRANCH  42  43
ENDBRANCH  34  37
ENDBRANCH  32  33
ENDBRANCH  31  32
ENDBRANCH   1  31
TORSDOF 14
ENDMDL
