MODEL 1
REMARK VINA RESULT:     -11.4      0.000      0.000
REMARK SMILES O=C(NCCCNC(=O)c1ccc(-c2c3nc(c(-c4ccccc4)c4ccc([nH]4)c(-c4ccccc4)c4nc(c(-c5ccccc5)c5ccc2[nH]5)C=C4)C=C3)cc1)C1=Cc2cc(Cl)ccc2O[C@@H]1C(F)(F)F
REMARK SMILES IDX 5 1 4 2 3 3 1 4 2 5 58 7 59 8 68 9 60 10 67 11 61 12 66 13
REMARK SMILES IDX 62 14 65 15 63 16 64 17 69 18 70 19 71 20 72 21 6 22 7 23
REMARK SMILES IDX 8 24 9 26 10 27 11 28 57 29 12 30 56 31 13 32 14 33 15 34
REMARK SMILES IDX 50 35 16 36 55 37 49 38 51 39 17 40 54 41 48 42 47 43 18 45
REMARK SMILES IDX 40 46 25 47 39 48 26 49 29 50 38 51 52 52 27 53 28 54 37 56
REMARK SMILES IDX 53 57 30 58 19 59 20 60 24 61 21 62 23 63 22 64 41 65 42 66
REMARK SMILES IDX 46 67 43 68 45 69 44 70 31 71 32 72 36 73 33 74 35 75 34 76
REMARK H PARENT 3 6 7 25 51 44 29 55
REMARK Flexibility Score: inf
ROOT
ATOM      1  C   UNL A   1      32.253  28.390  27.496  1.00  0.00     0.042 C 
ENDROOT
BRANCH   1   2
ATOM      2  C   UNL A   1      31.586  27.619  26.363  1.00  0.00     0.118 C 
BRANCH   2   3
ATOM      3  N   UNL A   1      31.389  26.201  26.679  1.00  0.00    -0.352 N 
ATOM      4  O   UNL A   1      31.952  24.009  26.831  1.00  0.00    -0.270 OA
ATOM      5  C   UNL A   1      32.131  25.103  26.316  1.00  0.00     0.251 C 
ATOM      6  H   UNL A   1      30.602  26.005  27.237  1.00  0.00     0.163 HD
BRANCH   5   7
ATOM      7  C   UNL A   1      33.189  25.317  25.316  1.00  0.00     0.067 C 
ATOM      8  C   UNL A   1      34.446  25.329  25.778  1.00  0.00     0.025 C 
ATOM      9  C   UNL A   1      32.836  25.086  23.880  1.00  0.00     0.314 C 
ATOM     10  C   UNL A   1      35.361  24.501  24.987  1.00  0.00     0.019 A 
ATOM     11  O   UNL A   1      33.672  24.079  23.256  1.00  0.00    -0.475 OA
ATOM     12  C   UNL A   1      36.535  24.067  25.611  1.00  0.00     0.032 A 
ATOM     13  C   UNL A   1      34.882  23.822  23.851  1.00  0.00     0.128 A 
ATOM     14  C   UNL A   1      37.157  22.901  25.168  1.00  0.00     0.041 A 
ATOM     15  C   UNL A   1      35.541  22.683  23.387  1.00  0.00     0.048 A 
ATOM     16  Cl  UNL A   1      38.471  22.253  26.071  1.00  0.00    -0.084 Cl
ATOM     17  C   UNL A   1      36.659  22.202  24.070  1.00  0.00     0.024 A 
BRANCH   9  18
ATOM     18  C   UNL A   1      32.866  26.393  23.073  1.00  0.00     0.429 C 
ATOM     19  F   UNL A   1      31.647  26.668  22.549  1.00  0.00    -0.167 F 
ATOM     20  F   UNL A   1      33.208  27.454  23.842  1.00  0.00    -0.167 F 
ATOM     21  F   UNL A   1      33.742  26.342  22.043  1.00  0.00    -0.167 F 
ENDBRANCH   9  18
ENDBRANCH   5   7
ENDBRANCH   2   3
ENDBRANCH   1   2
BRANCH   1  22
ATOM     22  C   UNL A   1      33.418  29.241  27.006  1.00  0.00     0.118 C 
BRANCH  22  23
ATOM     23  N   UNL A   1      33.591  30.499  27.728  1.00  0.00    -0.352 N 
ATOM     24  C   UNL A   1      34.673  30.965  28.454  1.00  0.00     0.251 C 
ATOM     25  H   UNL A   1      32.819  31.108  27.694  1.00  0.00     0.163 HD
ATOM     26  O   UNL A   1      34.602  32.024  29.054  1.00  0.00    -0.269 OA
BRANCH  24  27
ATOM     27  C   UNL A   1      35.903  30.144  28.538  1.00  0.00     0.039 A 
ATOM     28  C   UNL A   1      36.810  30.156  27.474  1.00  0.00     0.014 A 
ATOM     29  C   UNL A   1      36.199  29.433  29.698  1.00  0.00     0.014 A 
ATOM     30  C   UNL A   1      38.070  29.569  27.632  1.00  0.00     0.010 A 
ATOM     31  C   UNL A   1      37.489  28.966  29.899  1.00  0.00     0.010 A 
ATOM     32  C   UNL A   1      38.449  29.039  28.875  1.00  0.00    -0.014 A 
BRANCH  32  33
ATOM     33  C   UNL A   1      39.827  28.558  29.168  1.00  0.00     0.031 A 
ATOM     34  C   UNL A   1      40.824  29.507  29.780  1.00  0.00     0.074 A 
ATOM     35  C   UNL A   1      40.230  27.340  28.757  1.00  0.00     0.049 A 
ATOM     36  N   UNL A   1      42.125  29.404  29.865  1.00  0.00    -0.248 NA
ATOM     37  C   UNL A   1      40.284  30.769  30.312  1.00  0.00     0.031 C 
ATOM     38  C   UNL A   1      39.387  26.325  28.119  1.00  0.00     0.029 A 
ATOM     39  N   UNL A   1      41.472  26.753  28.799  1.00  0.00    -0.354 N 
ATOM     40  C   UNL A   1      42.561  30.611  30.396  1.00  0.00     0.074 A 
ATOM     41  C   UNL A   1      41.392  31.447  30.568  1.00  0.00     0.031 C 
ATOM     42  C   UNL A   1      40.127  25.232  27.864  1.00  0.00     0.029 A 
ATOM     43  C   UNL A   1      41.506  25.490  28.259  1.00  0.00     0.049 A 
ATOM     44  H   UNL A   1      42.265  27.197  29.179  1.00  0.00     0.167 HD
ATOM     45  C   UNL A   1      43.818  30.990  30.729  1.00  0.00     0.031 A 
ATOM     46  C   UNL A   1      42.535  24.639  28.086  1.00  0.00     0.031 A 
ATOM     47  C   UNL A   1      44.969  30.138  30.619  1.00  0.00     0.049 A 
ATOM     48  C   UNL A   1      43.918  25.064  28.493  1.00  0.00     0.074 A 
ATOM     49  C   UNL A   1      46.276  30.398  30.995  1.00  0.00     0.029 A 
ATOM     50  N   UNL A   1      44.945  28.848  30.113  1.00  0.00    -0.354 N 
ATOM     51  N   UNL A   1      44.313  26.203  29.009  1.00  0.00    -0.248 NA
ATOM     52  C   UNL A   1      44.998  24.086  28.293  1.00  0.00     0.031 C 
ATOM     53  C   UNL A   1      47.048  29.271  30.693  1.00  0.00     0.029 A 
ATOM     54  C   UNL A   1      46.214  28.297  30.167  1.00  0.00     0.049 A 
ATOM     55  H   UNL A   1      44.145  28.391  29.767  1.00  0.00     0.167 HD
ATOM     56  C   UNL A   1      45.677  26.066  29.227  1.00  0.00     0.074 A 
ATOM     57  C   UNL A   1      46.041  24.733  28.791  1.00  0.00     0.031 C 
ATOM     58  C   UNL A   1      46.551  26.963  29.745  1.00  0.00     0.031 A 
BRANCH  45  59
ATOM     59  C   UNL A   1      43.998  32.390  31.248  1.00  0.00    -0.014 A 
ATOM     60  C   UNL A   1      44.258  33.462  30.380  1.00  0.00     0.009 A 
ATOM     61  C   UNL A   1      43.911  32.639  32.626  1.00  0.00     0.009 A 
ATOM     62  C   UNL A   1      44.484  34.745  30.886  1.00  0.00     0.001 A 
ATOM     63  C   UNL A   1      44.103  33.928  33.127  1.00  0.00     0.001 A 
ATOM     64  C   UNL A   1      44.404  34.976  32.258  1.00  0.00     0.000 A 
ENDBRANCH  45  59
BRANCH  46  65
ATOM     65  C   UNL A   1      42.297  23.283  27.525  1.00  0.00    -0.014 A 
ATOM     66  C   UNL A   1      42.565  23.030  26.171  1.00  0.00     0.009 A 
ATOM     67  C   UNL A   1      41.805  22.242  28.326  1.00  0.00     0.009 A 
ATOM     68  C   UNL A   1      42.325  21.767  25.624  1.00  0.00     0.001 A 
ATOM     69  C   UNL A   1      41.590  20.972  27.782  1.00  0.00     0.001 A 
ATOM     70  C   UNL A   1      41.843  20.738  26.431  1.00  0.00     0.000 A 
ENDBRANCH  46  65
BRANCH  58  71
ATOM     71  C   UNL A   1      47.971  26.516  29.927  1.00  0.00    -0.014 A 
ATOM     72  C   UNL A   1      48.935  26.731  28.931  1.00  0.00     0.009 A 
ATOM     73  C   UNL A   1      48.358  25.924  31.139  1.00  0.00     0.009 A 
ATOM     74  C   UNL A   1      50.260  26.341  29.141  1.00  0.00     0.001 A 
ATOM     75  C   UNL A   1      49.686  25.558  31.354  1.00  0.00     0.001 A 
ATOM     76  C   UNL A   1      50.635  25.761  30.353  1.00  0.00     0.000 A 
ENDBRANCH  58  71
ENDBRANCH  32  33
ENDBRANCH  24  27
ENDBRANCH  22  23
ENDBRANCH   1  22
TORSDOF 11
ENDMDL
MODEL 2
REMARK VINA RESULT:     -11.2      2.838      4.036
REMARK SMILES O=C(NCCCNC(=O)c1ccc(-c2c3nc(c(-c4ccccc4)c4ccc([nH]4)c(-c4ccccc4)c4nc(c(-c5ccccc5)c5ccc2[nH]5)C=C4)C=C3)cc1)C1=Cc2cc(Cl)ccc2O[C@@H]1C(F)(F)F
REMARK SMILES IDX 5 1 4 2 3 3 1 4 2 5 58 7 59 8 68 9 60 10 67 11 61 12 66 13
REMARK SMILES IDX 62 14 65 15 63 16 64 17 69 18 70 19 71 20 72 21 6 22 7 23
REMARK SMILES IDX 8 24 9 26 10 27 11 28 57 29 12 30 56 31 13 32 14 33 15 34
REMARK SMILES IDX 50 35 16 36 55 37 49 38 51 39 17 40 54 41 48 42 47 43 18 45
REMARK SMILES IDX 40 46 25 47 39 48 26 49 29 50 38 51 52 52 27 53 28 54 37 56
REMARK SMILES IDX 53 57 30 58 19 59 20 60 24 61 21 62 23 63 22 64 41 65 42 66
REMARK SMILES IDX 46 67 43 68 45 69 44 70 31 71 32 72 36 73 33 74 35 75 34 76
REMARK H PARENT 3 6 7 25 51 44 29 55
REMARK Flexibility Score: inf
ROOT
ATOM      1  C   UNL A   1      33.068  28.559  27.458  1.00  0.00     0.042 C 
ENDROOT
BRANCH   1   2
ATOM      2  C   UNL A   1      33.045  27.459  26.403  1.00  0.00     0.118 C 
BRANCH   2   3
ATOM      3  N   UNL A   1      33.594  27.893  25.115  1.00  0.00    -0.352 N 
ATOM      4  O   UNL A   1      33.593  28.939  23.102  1.00  0.00    -0.270 OA
ATOM      5  C   UNL A   1      32.963  28.439  24.024  1.00  0.00     0.251 C 
ATOM      6  H   UNL A   1      34.566  27.773  25.016  1.00  0.00     0.163 HD
BRANCH   5   7
ATOM      7  C   UNL A   1      31.491  28.444  24.041  1.00  0.00     0.067 C 
ATOM      8  C   UNL A   1      30.910  29.521  24.583  1.00  0.00     0.025 C 
ATOM      9  C   UNL A   1      30.790  27.501  23.114  1.00  0.00     0.314 C 
ATOM     10  C   UNL A   1      29.828  30.069  23.761  1.00  0.00     0.019 A 
ATOM     11  O   UNL A   1      29.903  28.183  22.192  1.00  0.00    -0.475 OA
ATOM     12  C   UNL A   1      29.477  31.407  23.972  1.00  0.00     0.032 A 
ATOM     13  C   UNL A   1      29.482  29.440  22.551  1.00  0.00     0.128 A 
ATOM     14  C   UNL A   1      28.889  32.133  22.939  1.00  0.00     0.041 A 
ATOM     15  C   UNL A   1      28.850  30.165  21.540  1.00  0.00     0.048 A 
ATOM     16  Cl  UNL A   1      28.660  33.828  23.126  1.00  0.00    -0.084 Cl
ATOM     17  C   UNL A   1      28.587  31.523  21.722  1.00  0.00     0.024 A 
BRANCH   9  18
ATOM     18  C   UNL A   1      30.035  26.408  23.886  1.00  0.00     0.429 C 
ATOM     19  F   UNL A   1      28.694  26.570  23.768  1.00  0.00    -0.167 F 
ATOM     20  F   UNL A   1      30.320  25.170  23.418  1.00  0.00    -0.167 F 
ATOM     21  F   UNL A   1      30.325  26.416  25.207  1.00  0.00    -0.167 F 
ENDBRANCH   9  18
ENDBRANCH   5   7
ENDBRANCH   2   3
ENDBRANCH   1   2
BRANCH   1  22
ATOM     22  C   UNL A   1      33.765  29.820  26.960  1.00  0.00     0.118 C 
BRANCH  22  23
ATOM     23  N   UNL A   1      33.925  30.859  27.973  1.00  0.00    -0.352 N 
ATOM     24  C   UNL A   1      34.981  31.109  28.832  1.00  0.00     0.251 C 
ATOM     25  H   UNL A   1      33.163  31.477  28.059  1.00  0.00     0.163 HD
ATOM     26  O   UNL A   1      34.899  31.991  29.669  1.00  0.00    -0.269 OA
BRANCH  24  27
ATOM     27  C   UNL A   1      36.194  30.261  28.761  1.00  0.00     0.039 A 
ATOM     28  C   UNL A   1      37.008  30.322  27.626  1.00  0.00     0.014 A 
ATOM     29  C   UNL A   1      36.569  29.474  29.847  1.00  0.00     0.014 A 
ATOM     30  C   UNL A   1      38.263  29.703  27.640  1.00  0.00     0.010 A 
ATOM     31  C   UNL A   1      37.861  28.972  29.908  1.00  0.00     0.010 A 
ATOM     32  C   UNL A   1      38.732  29.090  28.812  1.00  0.00    -0.014 A 
BRANCH  32  33
ATOM     33  C   UNL A   1      40.118  28.567  28.957  1.00  0.00     0.031 A 
ATOM     34  C   UNL A   1      41.226  29.512  29.345  1.00  0.00     0.074 A 
ATOM     35  C   UNL A   1      40.414  27.301  28.602  1.00  0.00     0.049 A 
ATOM     36  N   UNL A   1      42.521  29.352  29.262  1.00  0.00    -0.248 NA
ATOM     37  C   UNL A   1      40.813  30.838  29.833  1.00  0.00     0.031 C 
ATOM     38  C   UNL A   1      39.453  26.282  28.174  1.00  0.00     0.029 A 
ATOM     39  N   UNL A   1      41.627  26.659  28.526  1.00  0.00    -0.354 N 
ATOM     40  C   UNL A   1      43.072  30.575  29.622  1.00  0.00     0.074 A 
ATOM     41  C   UNL A   1      41.971  31.478  29.877  1.00  0.00     0.031 C 
ATOM     42  C   UNL A   1      40.108  25.137  27.918  1.00  0.00     0.029 A 
ATOM     43  C   UNL A   1      41.537  25.356  28.098  1.00  0.00     0.049 A 
ATOM     44  H   UNL A   1      42.481  27.093  28.756  1.00  0.00     0.167 HD
ATOM     45  C   UNL A   1      44.377  30.916  29.749  1.00  0.00     0.031 A 
ATOM     46  C   UNL A   1      42.499  24.445  27.862  1.00  0.00     0.031 A 
ATOM     47  C   UNL A   1      45.468  30.002  29.558  1.00  0.00     0.049 A 
ATOM     48  C   UNL A   1      43.941  24.833  28.040  1.00  0.00     0.074 A 
ATOM     49  C   UNL A   1      46.823  30.227  29.731  1.00  0.00     0.029 A 
ATOM     50  N   UNL A   1      45.325  28.679  29.174  1.00  0.00    -0.354 N 
ATOM     51  N   UNL A   1      44.446  25.988  28.398  1.00  0.00    -0.248 NA
ATOM     52  C   UNL A   1      44.944  23.789  27.782  1.00  0.00     0.031 C 
ATOM     53  C   UNL A   1      47.503  29.042  29.426  1.00  0.00     0.029 A 
ATOM     54  C   UNL A   1      46.567  28.072  29.104  1.00  0.00     0.049 A 
ATOM     55  H   UNL A   1      44.468  28.235  28.980  1.00  0.00     0.167 HD
ATOM     56  C   UNL A   1      45.821  25.802  28.441  1.00  0.00     0.074 A 
ATOM     57  C   UNL A   1      46.071  24.421  28.077  1.00  0.00     0.031 C 
ATOM     58  C   UNL A   1      46.792  26.693  28.757  1.00  0.00     0.031 A 
BRANCH  45  59
ATOM     59  C   UNL A   1      44.680  32.343  30.116  1.00  0.00    -0.014 A 
ATOM     60  C   UNL A   1      44.801  32.742  31.456  1.00  0.00     0.009 A 
ATOM     61  C   UNL A   1      44.843  33.304  29.106  1.00  0.00     0.009 A 
ATOM     62  C   UNL A   1      45.021  34.083  31.780  1.00  0.00     0.001 A 
ATOM     63  C   UNL A   1      45.097  34.637  29.430  1.00  0.00     0.001 A 
ATOM     64  C   UNL A   1      45.171  35.028  30.767  1.00  0.00     0.000 A 
ENDBRANCH  45  59
BRANCH  46  65
ATOM     65  C   UNL A   1      42.134  23.061  27.458  1.00  0.00    -0.014 A 
ATOM     66  C   UNL A   1      42.245  22.674  26.114  1.00  0.00     0.009 A 
ATOM     67  C   UNL A   1      41.677  22.127  28.398  1.00  0.00     0.009 A 
ATOM     68  C   UNL A   1      41.884  21.384  25.715  1.00  0.00     0.001 A 
ATOM     69  C   UNL A   1      41.341  20.829  28.001  1.00  0.00     0.001 A 
ATOM     70  C   UNL A   1      41.438  20.462  26.659  1.00  0.00     0.000 A 
ENDBRANCH  46  65
BRANCH  58  71
ATOM     71  C   UNL A   1      48.206  26.192  28.783  1.00  0.00    -0.014 A 
ATOM     72  C   UNL A   1      49.007  26.214  27.632  1.00  0.00     0.009 A 
ATOM     73  C   UNL A   1      48.757  25.749  29.994  1.00  0.00     0.009 A 
ATOM     74  C   UNL A   1      50.333  25.779  27.692  1.00  0.00     0.001 A 
ATOM     75  C   UNL A   1      50.089  25.338  30.056  1.00  0.00     0.001 A 
ATOM     76  C   UNL A   1      50.874  25.347  28.904  1.00  0.00     0.000 A 
ENDBRANCH  58  71
ENDBRANCH  32  33
ENDBRANCH  24  27
ENDBRANCH  22  23
ENDBRANCH   1  22
TORSDOF 11
ENDMDL
MODEL 3
REMARK VINA RESULT:     -11.1      3.130      8.017
REMARK SMILES O=C(NCCCNC(=O)c1ccc(-c2c3nc(c(-c4ccccc4)c4ccc([nH]4)c(-c4ccccc4)c4nc(c(-c5ccccc5)c5ccc2[nH]5)C=C4)C=C3)cc1)C1=Cc2cc(Cl)ccc2O[C@@H]1C(F)(F)F
REMARK SMILES IDX 5 1 4 2 3 3 1 4 2 5 58 7 59 8 68 9 60 10 67 11 61 12 66 13
REMARK SMILES IDX 62 14 65 15 63 16 64 17 69 18 70 19 71 20 72 21 6 22 7 23
REMARK SMILES IDX 8 24 9 26 10 27 11 28 57 29 12 30 56 31 13 32 14 33 15 34
REMARK SMILES IDX 50 35 16 36 55 37 49 38 51 39 17 40 54 41 48 42 47 43 18 45
REMARK SMILES IDX 40 46 25 47 39 48 26 49 29 50 38 51 52 52 27 53 28 54 37 56
REMARK SMILES IDX 53 57 30 58 19 59 20 60 24 61 21 62 23 63 22 64 41 65 42 66
REMARK SMILES IDX 46 67 43 68 45 69 44 70 31 71 32 72 36 73 33 74 35 75 34 76
REMARK H PARENT 3 6 7 25 51 44 29 55
REMARK Flexibility Score: inf
ROOT
ATOM      1  C   UNL A   1      37.026  23.083  24.345  1.00  0.00     0.042 C 
ENDROOT
BRANCH   1   2
ATOM      2  C   UNL A   1      35.633  22.556  24.019  1.00  0.00     0.118 C 
BRANCH   2   3
ATOM      3  N   UNL A   1      34.898  23.423  23.094  1.00  0.00    -0.352 N 
ATOM      4  O   UNL A   1      33.686  25.234  22.463  1.00  0.00    -0.270 OA
ATOM      5  C   UNL A   1      34.060  24.481  23.351  1.00  0.00     0.251 C 
ATOM      6  H   UNL A   1      35.024  23.215  22.140  1.00  0.00     0.163 HD
BRANCH   5   7
ATOM      7  C   UNL A   1      33.676  24.698  24.756  1.00  0.00     0.067 C 
ATOM      8  C   UNL A   1      34.358  25.642  25.416  1.00  0.00     0.025 C 
ATOM      9  C   UNL A   1      32.339  24.184  25.190  1.00  0.00     0.314 C 
ATOM     10  C   UNL A   1      33.497  26.561  26.165  1.00  0.00     0.019 A 
ATOM     11  O   UNL A   1      31.484  25.231  25.715  1.00  0.00    -0.475 OA
ATOM     12  C   UNL A   1      34.027  27.814  26.490  1.00  0.00     0.032 A 
ATOM     13  C   UNL A   1      32.102  26.374  26.157  1.00  0.00     0.128 A 
ATOM     14  C   UNL A   1      33.167  28.891  26.695  1.00  0.00     0.041 A 
ATOM     15  C   UNL A   1      31.250  27.449  26.411  1.00  0.00     0.048 A 
ATOM     16  Cl  UNL A   1      33.824  30.470  26.879  1.00  0.00    -0.084 Cl
ATOM     17  C   UNL A   1      31.785  28.717  26.643  1.00  0.00     0.024 A 
BRANCH   9  18
ATOM     18  C   UNL A   1      32.477  23.037  26.202  1.00  0.00     0.429 C 
ATOM     19  F   UNL A   1      32.661  21.852  25.570  1.00  0.00    -0.167 F 
ATOM     20  F   UNL A   1      33.541  23.210  27.021  1.00  0.00    -0.167 F 
ATOM     21  F   UNL A   1      31.382  22.907  26.986  1.00  0.00    -0.167 F 
ENDBRANCH   9  18
ENDBRANCH   5   7
ENDBRANCH   2   3
ENDBRANCH   1   2
BRANCH   1  22
ATOM     22  C   UNL A   1      37.518  22.608  25.707  1.00  0.00     0.118 C 
BRANCH  22  23
ATOM     23  N   UNL A   1      38.920  22.200  25.732  1.00  0.00    -0.352 N 
ATOM     24  C   UNL A   1      40.036  22.884  26.182  1.00  0.00     0.251 C 
ATOM     25  H   UNL A   1      39.099  21.301  25.373  1.00  0.00     0.163 HD
ATOM     26  O   UNL A   1      41.148  22.400  26.053  1.00  0.00    -0.269 OA
BRANCH  24  27
ATOM     27  C   UNL A   1      39.875  24.231  26.777  1.00  0.00     0.039 A 
ATOM     28  C   UNL A   1      39.228  24.364  28.010  1.00  0.00     0.014 A 
ATOM     29  C   UNL A   1      40.436  25.346  26.160  1.00  0.00     0.014 A 
ATOM     30  C   UNL A   1      39.269  25.589  28.684  1.00  0.00     0.010 A 
ATOM     31  C   UNL A   1      40.585  26.520  26.884  1.00  0.00     0.010 A 
ATOM     32  C   UNL A   1      40.016  26.655  28.162  1.00  0.00    -0.014 A 
BRANCH  32  33
ATOM     33  C   UNL A   1      40.248  27.925  28.903  1.00  0.00     0.031 A 
ATOM     34  C   UNL A   1      41.472  28.058  29.772  1.00  0.00     0.074 A 
ATOM     35  C   UNL A   1      39.308  28.890  28.922  1.00  0.00     0.049 A 
ATOM     36  N   UNL A   1      41.736  28.936  30.705  1.00  0.00    -0.248 NA
ATOM     37  C   UNL A   1      42.507  27.024  29.607  1.00  0.00     0.031 C 
ATOM     38  C   UNL A   1      38.058  28.887  28.158  1.00  0.00     0.029 A 
ATOM     39  N   UNL A   1      39.252  30.064  29.634  1.00  0.00    -0.354 N 
ATOM     40  C   UNL A   1      42.930  28.521  31.280  1.00  0.00     0.074 A 
ATOM     41  C   UNL A   1      43.312  27.289  30.624  1.00  0.00     0.031 C 
ATOM     42  C   UNL A   1      37.379  30.018  28.415  1.00  0.00     0.029 A 
ATOM     43  C   UNL A   1      38.111  30.795  29.407  1.00  0.00     0.049 A 
ATOM     44  H   UNL A   1      39.963  30.354  30.250  1.00  0.00     0.167 HD
ATOM     45  C   UNL A   1      43.658  29.117  32.255  1.00  0.00     0.031 A 
ATOM     46  C   UNL A   1      37.692  31.955  29.949  1.00  0.00     0.031 A 
ATOM     47  C   UNL A   1      43.312  30.372  32.862  1.00  0.00     0.049 A 
ATOM     48  C   UNL A   1      38.529  32.618  31.006  1.00  0.00     0.074 A 
ATOM     49  C   UNL A   1      44.017  31.098  33.807  1.00  0.00     0.029 A 
ATOM     50  N   UNL A   1      42.171  31.100  32.563  1.00  0.00    -0.354 N 
ATOM     51  N   UNL A   1      39.665  32.223  31.528  1.00  0.00    -0.248 NA
ATOM     52  C   UNL A   1      38.027  33.889  31.548  1.00  0.00     0.031 C 
ATOM     53  C   UNL A   1      43.287  32.256  34.098  1.00  0.00     0.029 A 
ATOM     54  C   UNL A   1      42.151  32.268  33.304  1.00  0.00     0.049 A 
ATOM     55  H   UNL A   1      41.479  30.828  31.919  1.00  0.00     0.167 HD
ATOM     56  C   UNL A   1      40.030  33.210  32.433  1.00  0.00     0.074 A 
ATOM     57  C   UNL A   1      38.996  34.226  32.386  1.00  0.00     0.031 C 
ATOM     58  C   UNL A   1      41.123  33.274  33.229  1.00  0.00     0.031 A 
BRANCH  45  59
ATOM     59  C   UNL A   1      44.902  28.407  32.714  1.00  0.00    -0.014 A 
ATOM     60  C   UNL A   1      46.145  28.648  32.107  1.00  0.00     0.009 A 
ATOM     61  C   UNL A   1      44.829  27.480  33.765  1.00  0.00     0.009 A 
ATOM     62  C   UNL A   1      47.278  27.934  32.505  1.00  0.00     0.001 A 
ATOM     63  C   UNL A   1      45.969  26.792  34.184  1.00  0.00     0.001 A 
ATOM     64  C   UNL A   1      47.189  27.009  33.544  1.00  0.00     0.000 A 
ENDBRANCH  45  59
BRANCH  46  65
ATOM     65  C   UNL A   1      36.428  32.583  29.483  1.00  0.00    -0.014 A 
ATOM     66  C   UNL A   1      36.443  33.449  28.379  1.00  0.00     0.009 A 
ATOM     67  C   UNL A   1      35.209  32.327  30.128  1.00  0.00     0.009 A 
ATOM     68  C   UNL A   1      35.266  34.065  27.944  1.00  0.00     0.001 A 
ATOM     69  C   UNL A   1      34.029  32.924  29.674  1.00  0.00     0.001 A 
ATOM     70  C   UNL A   1      34.060  33.798  28.588  1.00  0.00     0.000 A 
ENDBRANCH  46  65
BRANCH  58  71
ATOM     71  C   UNL A   1      41.293  34.504  34.071  1.00  0.00    -0.014 A 
ATOM     72  C   UNL A   1      42.172  35.529  33.692  1.00  0.00     0.009 A 
ATOM     73  C   UNL A   1      40.516  34.660  35.228  1.00  0.00     0.009 A 
ATOM     74  C   UNL A   1      42.283  36.682  34.472  1.00  0.00     0.001 A 
ATOM     75  C   UNL A   1      40.612  35.823  35.992  1.00  0.00     0.001 A 
ATOM     76  C   UNL A   1      41.499  36.831  35.617  1.00  0.00     0.000 A 
ENDBRANCH  58  71
ENDBRANCH  32  33
ENDBRANCH  24  27
ENDBRANCH  22  23
ENDBRANCH   1  22
TORSDOF 11
ENDMDL
