MODEL 1
REMARK VINA RESULT:     -12.2      0.000      0.000
REMARK SMILES Cc1nsc(NC(=O)[C@H]2Cc3[nH]cnc3C[NH2+]2)c1C(=O)NCCCNC(=O)c1ccc(-c2c3nc(c(-c4ccccc4)c4ccc([nH]4)c(-c4ccccc4)c4nc(c(-c5ccccc5)c5ccc2[nH]5)C=C4)C=C3)cc1
REMARK SMILES IDX 23 1 22 2 21 3 19 4 20 5 18 7 1 8 2 9 3 10 4 11 5 12 6 13
REMARK SMILES IDX 7 14 8 16 9 17 10 18 17 19 11 20 16 21 12 24 15 25 13 26
REMARK SMILES IDX 14 28 24 29 25 30 26 31 27 33 28 34 29 35 75 36 30 37 74 38
REMARK SMILES IDX 31 39 32 40 33 41 68 42 34 43 73 44 67 45 69 46 35 47 72 48
REMARK SMILES IDX 66 49 65 50 36 52 58 53 43 54 57 55 44 56 47 57 56 58 70 59
REMARK SMILES IDX 45 60 46 61 55 63 71 64 48 65 37 66 38 67 42 68 39 69 41 70
REMARK SMILES IDX 40 71 59 72 60 73 64 74 61 75 63 76 62 77 49 78 50 79 54 80
REMARK SMILES IDX 51 81 53 82 52 83
REMARK H PARENT 21 6 6 15 17 22 17 23 12 27 25 32 69 51 47 62
REMARK Flexibility Score: inf
ROOT
ATOM      1  C   UNL A   1      33.965  28.825  27.230  1.00  0.00     0.042 C 
ENDROOT
BRANCH   1   2
ATOM      2  C   UNL A   1      33.293  29.564  26.071  1.00  0.00     0.118 C 
BRANCH   2   3
ATOM      3  N   UNL A   1      33.821  29.230  24.773  1.00  0.00    -0.352 N 
ATOM      4  C   UNL A   1      33.226  28.954  23.577  1.00  0.00     0.256 C 
ATOM      5  O   UNL A   1      33.992  28.993  22.607  1.00  0.00    -0.269 OA
ATOM      6  H   UNL A   1      34.805  29.192  24.744  1.00  0.00     0.163 HD
BRANCH   4   7
ATOM      7  C   UNL A   1      31.846  28.492  23.406  1.00  0.00     0.097 A 
ATOM      8  C   UNL A   1      29.978  30.344  23.883  1.00  0.00     0.069 C 
ATOM      9  C   UNL A   1      30.508  28.954  23.742  1.00  0.00     0.066 A 
ATOM     10  N   UNL A   1      29.566  27.995  23.768  1.00  0.00    -0.195 NA
ATOM     11  S   UNL A   1      30.193  26.625  23.066  1.00  0.00    -0.017 S 
ATOM     12  C   UNL A   1      31.613  27.409  22.558  1.00  0.00     0.129 A 
BRANCH  12  13
ATOM     13  N   UNL A   1      32.426  26.882  21.582  1.00  0.00    -0.311 N 
ATOM     14  C   UNL A   1      32.923  25.597  21.566  1.00  0.00     0.283 C 
ATOM     15  H   UNL A   1      32.675  27.471  20.834  1.00  0.00     0.171 HD
ATOM     16  O   UNL A   1      33.278  25.167  20.461  1.00  0.00    -0.268 OA
BRANCH  14  17
ATOM     17  C   UNL A   1      33.105  24.747  22.848  1.00  0.00     0.279 C 
ATOM     18  C   UNL A   1      33.531  23.252  22.712  1.00  0.00     0.131 C 
ATOM     19  N   UNL A   1      34.064  25.420  23.810  1.00  0.00    -0.331 N 
ATOM     20  C   UNL A   1      33.164  22.710  24.046  1.00  0.00     0.050 A 
ATOM     21  C   UNL A   1      34.286  24.689  25.099  1.00  0.00     0.320 C 
ATOM     22  H   UNL A   1      33.693  26.345  24.031  1.00  0.00     0.347 HD
ATOM     23  H   UNL A   1      34.968  25.450  23.338  1.00  0.00     0.347 HD
ATOM     24  N   UNL A   1      32.132  21.886  24.385  1.00  0.00    -0.348 N 
ATOM     25  C   UNL A   1      33.463  23.439  25.176  1.00  0.00     0.116 A 
ATOM     26  C   UNL A   1      31.809  22.197  25.685  1.00  0.00     0.197 A 
ATOM     27  H   UNL A   1      31.705  21.206  23.816  1.00  0.00     0.167 HD
ATOM     28  N   UNL A   1      32.628  23.090  26.201  1.00  0.00    -0.236 NA
ENDBRANCH  14  17
ENDBRANCH  12  13
ENDBRANCH   4   7
ENDBRANCH   2   3
ENDBRANCH   1   2
BRANCH   1  29
ATOM     29  C   UNL A   1      35.367  29.315  27.491  1.00  0.00     0.118 C 
BRANCH  29  30
ATOM     30  N   UNL A   1      35.535  29.742  28.882  1.00  0.00    -0.352 N 
ATOM     31  C   UNL A   1      36.566  29.446  29.752  1.00  0.00     0.251 C 
ATOM     32  H   UNL A   1      34.818  30.313  29.244  1.00  0.00     0.163 HD
ATOM     33  O   UNL A   1      36.440  29.595  30.952  1.00  0.00    -0.269 OA
BRANCH  31  34
ATOM     34  C   UNL A   1      37.813  28.923  29.174  1.00  0.00     0.039 A 
ATOM     35  C   UNL A   1      38.421  29.554  28.092  1.00  0.00     0.014 A 
ATOM     36  C   UNL A   1      38.418  27.843  29.810  1.00  0.00     0.014 A 
ATOM     37  C   UNL A   1      39.695  29.140  27.724  1.00  0.00     0.010 A 
ATOM     38  C   UNL A   1      39.745  27.588  29.588  1.00  0.00     0.010 A 
ATOM     39  C   UNL A   1      40.373  28.184  28.508  1.00  0.00    -0.014 A 
BRANCH  39  40
ATOM     40  C   UNL A   1      41.777  27.889  28.264  1.00  0.00     0.031 A 
ATOM     41  C   UNL A   1      42.004  26.625  27.520  1.00  0.00     0.074 A 
ATOM     42  C   UNL A   1      42.805  28.715  28.558  1.00  0.00     0.049 A 
ATOM     43  N   UNL A   1      42.411  25.510  28.022  1.00  0.00    -0.248 NA
ATOM     44  C   UNL A   1      41.572  26.530  26.117  1.00  0.00     0.031 C 
ATOM     45  C   UNL A   1      42.790  30.106  29.023  1.00  0.00     0.029 A 
ATOM     46  N   UNL A   1      44.135  28.471  28.421  1.00  0.00    -0.354 N 
ATOM     47  C   UNL A   1      42.488  24.614  26.965  1.00  0.00     0.074 A 
ATOM     48  C   UNL A   1      41.807  25.240  25.858  1.00  0.00     0.031 C 
ATOM     49  C   UNL A   1      44.026  30.644  28.898  1.00  0.00     0.029 A 
ATOM     50  C   UNL A   1      44.951  29.588  28.538  1.00  0.00     0.049 A 
ATOM     51  H   UNL A   1      44.493  27.569  28.252  1.00  0.00     0.167 HD
ATOM     52  C   UNL A   1      43.322  23.541  27.030  1.00  0.00     0.031 A 
ATOM     53  C   UNL A   1      46.294  29.632  28.354  1.00  0.00     0.031 A 
ATOM     54  C   UNL A   1      43.762  23.294  28.383  1.00  0.00     0.049 A 
ATOM     55  C   UNL A   1      46.801  28.251  28.533  1.00  0.00     0.074 A 
ATOM     56  C   UNL A   1      43.120  23.025  29.576  1.00  0.00     0.029 A 
ATOM     57  N   UNL A   1      45.014  23.745  28.729  1.00  0.00    -0.354 N 
ATOM     58  N   UNL A   1      46.783  27.631  29.678  1.00  0.00    -0.248 NA
ATOM     59  C   UNL A   1      46.878  27.399  27.358  1.00  0.00     0.031 C 
ATOM     60  C   UNL A   1      43.816  23.804  30.549  1.00  0.00     0.029 A 
ATOM     61  C   UNL A   1      44.892  24.426  29.914  1.00  0.00     0.049 A 
ATOM     62  H   UNL A   1      45.846  23.606  28.220  1.00  0.00     0.167 HD
ATOM     63  C   UNL A   1      46.383  26.340  29.368  1.00  0.00     0.074 A 
ATOM     64  C   UNL A   1      46.539  26.234  27.917  1.00  0.00     0.031 C 
ATOM     65  C   UNL A   1      45.694  25.576  30.268  1.00  0.00     0.031 A 
BRANCH  52  66
ATOM     66  C   UNL A   1      44.076  23.011  25.838  1.00  0.00    -0.014 A 
ATOM     67  C   UNL A   1      44.043  21.628  25.584  1.00  0.00     0.009 A 
ATOM     68  C   UNL A   1      45.046  23.759  25.144  1.00  0.00     0.009 A 
ATOM     69  C   UNL A   1      44.990  21.017  24.753  1.00  0.00     0.001 A 
ATOM     70  C   UNL A   1      45.968  23.159  24.283  1.00  0.00     0.001 A 
ATOM     71  C   UNL A   1      45.959  21.783  24.113  1.00  0.00     0.000 A 
ENDBRANCH  52  66
BRANCH  53  72
ATOM     72  C   UNL A   1      47.130  30.696  27.760  1.00  0.00    -0.014 A 
ATOM     73  C   UNL A   1      46.565  31.651  26.897  1.00  0.00     0.009 A 
ATOM     74  C   UNL A   1      48.408  30.963  28.283  1.00  0.00     0.009 A 
ATOM     75  C   UNL A   1      47.230  32.852  26.614  1.00  0.00     0.001 A 
ATOM     76  C   UNL A   1      49.073  32.162  27.999  1.00  0.00     0.001 A 
ATOM     77  C   UNL A   1      48.476  33.115  27.179  1.00  0.00     0.000 A 
ENDBRANCH  53  72
BRANCH  65  78
ATOM     78  C   UNL A   1      45.567  26.081  31.688  1.00  0.00    -0.014 A 
ATOM     79  C   UNL A   1      44.601  27.019  32.098  1.00  0.00     0.009 A 
ATOM     80  C   UNL A   1      46.361  25.477  32.673  1.00  0.00     0.009 A 
ATOM     81  C   UNL A   1      44.462  27.361  33.450  1.00  0.00     0.001 A 
ATOM     82  C   UNL A   1      46.208  25.802  34.023  1.00  0.00     0.001 A 
ATOM     83  C   UNL A   1      45.264  26.749  34.411  1.00  0.00     0.000 A 
ENDBRANCH  65  78
ENDBRANCH  39  40
ENDBRANCH  31  34
ENDBRANCH  29  30
ENDBRANCH   1  29
TORSDOF 12
ENDMDL
MODEL 2
REMARK VINA RESULT:     -12.2      2.920      7.452
REMARK SMILES Cc1nsc(NC(=O)[C@H]2Cc3[nH]cnc3C[NH2+]2)c1C(=O)NCCCNC(=O)c1ccc(-c2c3nc(c(-c4ccccc4)c4ccc([nH]4)c(-c4ccccc4)c4nc(c(-c5ccccc5)c5ccc2[nH]5)C=C4)C=C3)cc1
REMARK SMILES IDX 23 1 22 2 21 3 19 4 20 5 18 7 1 8 2 9 3 10 4 11 5 12 6 13
REMARK SMILES IDX 7 14 8 16 9 17 10 18 17 19 11 20 16 21 12 24 15 25 13 26
REMARK SMILES IDX 14 28 24 29 25 30 26 31 27 33 28 34 29 35 75 36 30 37 74 38
REMARK SMILES IDX 31 39 32 40 33 41 68 42 34 43 73 44 67 45 69 46 35 47 72 48
REMARK SMILES IDX 66 49 65 50 36 52 58 53 43 54 57 55 44 56 47 57 56 58 70 59
REMARK SMILES IDX 45 60 46 61 55 63 71 64 48 65 37 66 38 67 42 68 39 69 41 70
REMARK SMILES IDX 40 71 59 72 60 73 64 74 61 75 63 76 62 77 49 78 50 79 54 80
REMARK SMILES IDX 51 81 53 82 52 83
REMARK H PARENT 21 6 6 15 17 22 17 23 12 27 25 32 69 51 47 62
REMARK Flexibility Score: inf
ROOT
ATOM      1  C   UNL A   1      37.946  20.228  25.027  1.00  0.00     0.042 C 
ENDROOT
BRANCH   1   2
ATOM      2  C   UNL A   1      37.091  21.481  24.831  1.00  0.00     0.118 C 
BRANCH   2   3
ATOM      3  N   UNL A   1      36.301  21.842  25.980  1.00  0.00    -0.352 N 
ATOM      4  C   UNL A   1      35.017  21.558  26.345  1.00  0.00     0.256 C 
ATOM      5  O   UNL A   1      34.763  21.793  27.533  1.00  0.00    -0.269 OA
ATOM      6  H   UNL A   1      36.782  22.405  26.629  1.00  0.00     0.163 HD
BRANCH   4   7
ATOM      7  C   UNL A   1      33.946  21.159  25.429  1.00  0.00     0.097 A 
ATOM      8  C   UNL A   1      34.064  18.618  24.608  1.00  0.00     0.069 C 
ATOM      9  C   UNL A   1      33.658  20.053  24.528  1.00  0.00     0.066 A 
ATOM     10  N   UNL A   1      32.756  20.323  23.569  1.00  0.00    -0.195 NA
ATOM     11  S   UNL A   1      32.006  21.759  23.943  1.00  0.00    -0.017 S 
ATOM     12  C   UNL A   1      32.745  21.867  25.469  1.00  0.00     0.129 A 
BRANCH  12  13
ATOM     13  N   UNL A   1      32.258  22.691  26.457  1.00  0.00    -0.311 N 
ATOM     14  C   UNL A   1      31.762  23.961  26.263  1.00  0.00     0.283 C 
ATOM     15  H   UNL A   1      32.264  22.345  27.378  1.00  0.00     0.171 HD
ATOM     16  O   UNL A   1      31.010  24.391  27.148  1.00  0.00    -0.268 OA
BRANCH  14  17
ATOM     17  C   UNL A   1      32.163  24.849  25.058  1.00  0.00     0.279 C 
ATOM     18  C   UNL A   1      31.046  25.578  24.250  1.00  0.00     0.131 C 
ATOM     19  N   UNL A   1      33.193  25.882  25.468  1.00  0.00    -0.331 N 
ATOM     20  C   UNL A   1      31.756  25.917  22.990  1.00  0.00     0.050 A 
ATOM     21  C   UNL A   1      33.670  26.775  24.363  1.00  0.00     0.320 C 
ATOM     22  H   UNL A   1      34.002  25.389  25.848  1.00  0.00     0.347 HD
ATOM     23  H   UNL A   1      32.734  26.489  26.148  1.00  0.00     0.347 HD
ATOM     24  N   UNL A   1      31.623  25.363  21.751  1.00  0.00    -0.348 N 
ATOM     25  C   UNL A   1      33.037  26.419  23.051  1.00  0.00     0.116 A 
ATOM     26  C   UNL A   1      32.848  25.496  21.142  1.00  0.00     0.197 A 
ATOM     27  H   UNL A   1      30.814  24.952  21.370  1.00  0.00     0.167 HD
ATOM     28  N   UNL A   1      33.701  26.175  21.882  1.00  0.00    -0.236 NA
ENDBRANCH  14  17
ENDBRANCH  12  13
ENDBRANCH   4   7
ENDBRANCH   2   3
ENDBRANCH   1   2
BRANCH   1  29
ATOM     29  C   UNL A   1      39.117  20.467  25.946  1.00  0.00     0.118 C 
BRANCH  29  30
ATOM     30  N   UNL A   1      40.192  19.503  25.706  1.00  0.00    -0.352 N 
ATOM     31  C   UNL A   1      41.557  19.711  25.747  1.00  0.00     0.251 C 
ATOM     32  H   UNL A   1      39.904  18.586  25.486  1.00  0.00     0.163 HD
ATOM     33  O   UNL A   1      42.330  18.926  25.231  1.00  0.00    -0.269 OA
BRANCH  31  34
ATOM     34  C   UNL A   1      42.038  20.929  26.417  1.00  0.00     0.039 A 
ATOM     35  C   UNL A   1      42.316  22.083  25.691  1.00  0.00     0.014 A 
ATOM     36  C   UNL A   1      42.104  20.920  27.807  1.00  0.00     0.014 A 
ATOM     37  C   UNL A   1      42.565  23.255  26.395  1.00  0.00     0.010 A 
ATOM     38  C   UNL A   1      42.132  22.108  28.488  1.00  0.00     0.010 A 
ATOM     39  C   UNL A   1      42.426  23.270  27.798  1.00  0.00    -0.014 A 
BRANCH  39  40
ATOM     40  C   UNL A   1      42.479  24.526  28.532  1.00  0.00     0.031 A 
ATOM     41  C   UNL A   1      41.383  25.467  28.188  1.00  0.00     0.074 A 
ATOM     42  C   UNL A   1      43.348  24.807  29.527  1.00  0.00     0.049 A 
ATOM     43  N   UNL A   1      41.487  26.517  27.446  1.00  0.00    -0.248 NA
ATOM     44  C   UNL A   1      40.000  25.124  28.554  1.00  0.00     0.031 C 
ATOM     45  C   UNL A   1      44.307  23.933  30.211  1.00  0.00     0.029 A 
ATOM     46  N   UNL A   1      43.494  25.979  30.199  1.00  0.00    -0.354 N 
ATOM     47  C   UNL A   1      40.226  27.092  27.410  1.00  0.00     0.074 A 
ATOM     48  C   UNL A   1      39.322  26.114  27.963  1.00  0.00     0.031 C 
ATOM     49  C   UNL A   1      44.752  24.536  31.339  1.00  0.00     0.029 A 
ATOM     50  C   UNL A   1      44.267  25.902  31.351  1.00  0.00     0.049 A 
ATOM     51  H   UNL A   1      43.083  26.820  29.894  1.00  0.00     0.167 HD
ATOM     52  C   UNL A   1      40.080  28.420  27.153  1.00  0.00     0.031 A 
ATOM     53  C   UNL A   1      44.491  26.898  32.243  1.00  0.00     0.031 A 
ATOM     54  C   UNL A   1      41.284  28.985  26.591  1.00  0.00     0.049 A 
ATOM     55  C   UNL A   1      44.233  28.176  31.538  1.00  0.00     0.074 A 
ATOM     56  C   UNL A   1      42.044  28.722  25.467  1.00  0.00     0.029 A 
ATOM     57  N   UNL A   1      42.110  29.679  27.444  1.00  0.00    -0.354 N 
ATOM     58  N   UNL A   1      44.981  28.615  30.567  1.00  0.00    -0.248 NA
ATOM     59  C   UNL A   1      42.885  28.718  31.588  1.00  0.00     0.031 C 
ATOM     60  C   UNL A   1      43.398  28.811  25.913  1.00  0.00     0.029 A 
ATOM     61  C   UNL A   1      43.386  29.212  27.250  1.00  0.00     0.049 A 
ATOM     62  H   UNL A   1      41.837  30.381  28.078  1.00  0.00     0.167 HD
ATOM     63  C   UNL A   1      44.084  29.113  29.635  1.00  0.00     0.074 A 
ATOM     64  C   UNL A   1      42.815  29.227  30.355  1.00  0.00     0.031 C 
ATOM     65  C   UNL A   1      44.376  29.115  28.300  1.00  0.00     0.031 A 
BRANCH  52  66
ATOM     66  C   UNL A   1      39.032  29.278  27.813  1.00  0.00    -0.014 A 
ATOM     67  C   UNL A   1      39.153  29.545  29.188  1.00  0.00     0.009 A 
ATOM     68  C   UNL A   1      37.792  29.577  27.218  1.00  0.00     0.009 A 
ATOM     69  C   UNL A   1      38.064  29.998  29.941  1.00  0.00     0.001 A 
ATOM     70  C   UNL A   1      36.714  30.066  27.957  1.00  0.00     0.001 A 
ATOM     71  C   UNL A   1      36.841  30.246  29.326  1.00  0.00     0.000 A 
ENDBRANCH  52  66
BRANCH  53  72
ATOM     72  C   UNL A   1      44.627  26.833  33.713  1.00  0.00    -0.014 A 
ATOM     73  C   UNL A   1      43.544  26.437  34.515  1.00  0.00     0.009 A 
ATOM     74  C   UNL A   1      45.903  26.857  34.304  1.00  0.00     0.009 A 
ATOM     75  C   UNL A   1      43.738  26.026  35.841  1.00  0.00     0.001 A 
ATOM     76  C   UNL A   1      46.098  26.448  35.628  1.00  0.00     0.001 A 
ATOM     77  C   UNL A   1      45.017  26.015  36.392  1.00  0.00     0.000 A 
ENDBRANCH  53  72
BRANCH  65  78
ATOM     78  C   UNL A   1      45.785  28.768  27.875  1.00  0.00    -0.014 A 
ATOM     79  C   UNL A   1      46.236  27.450  27.672  1.00  0.00     0.009 A 
ATOM     80  C   UNL A   1      46.644  29.820  27.527  1.00  0.00     0.009 A 
ATOM     81  C   UNL A   1      47.520  27.201  27.169  1.00  0.00     0.001 A 
ATOM     82  C   UNL A   1      47.915  29.572  27.005  1.00  0.00     0.001 A 
ATOM     83  C   UNL A   1      48.357  28.262  26.832  1.00  0.00     0.000 A 
ENDBRANCH  65  78
ENDBRANCH  39  40
ENDBRANCH  31  34
ENDBRANCH  29  30
ENDBRANCH   1  29
TORSDOF 12
ENDMDL
MODEL 3
REMARK VINA RESULT:     -12.2      2.689      7.169
REMARK SMILES Cc1nsc(NC(=O)[C@H]2Cc3[nH]cnc3C[NH2+]2)c1C(=O)NCCCNC(=O)c1ccc(-c2c3nc(c(-c4ccccc4)c4ccc([nH]4)c(-c4ccccc4)c4nc(c(-c5ccccc5)c5ccc2[nH]5)C=C4)C=C3)cc1
REMARK SMILES IDX 23 1 22 2 21 3 19 4 20 5 18 7 1 8 2 9 3 10 4 11 5 12 6 13
REMARK SMILES IDX 7 14 8 16 9 17 10 18 17 19 11 20 16 21 12 24 15 25 13 26
REMARK SMILES IDX 14 28 24 29 25 30 26 31 27 33 28 34 29 35 75 36 30 37 74 38
REMARK SMILES IDX 31 39 32 40 33 41 68 42 34 43 73 44 67 45 69 46 35 47 72 48
REMARK SMILES IDX 66 49 65 50 36 52 58 53 43 54 57 55 44 56 47 57 56 58 70 59
REMARK SMILES IDX 45 60 46 61 55 63 71 64 48 65 37 66 38 67 42 68 39 69 41 70
REMARK SMILES IDX 40 71 59 72 60 73 64 74 61 75 63 76 62 77 49 78 50 79 54 80
REMARK SMILES IDX 51 81 53 82 52 83
REMARK H PARENT 21 6 6 15 17 22 17 23 12 27 25 32 69 51 47 62
REMARK Flexibility Score: inf
ROOT
ATOM      1  C   UNL A   1      37.288  20.886  24.681  1.00  0.00     0.042 C 
ENDROOT
BRANCH   1   2
ATOM      2  C   UNL A   1      36.065  21.160  25.557  1.00  0.00     0.118 C 
BRANCH   2   3
ATOM      3  N   UNL A   1      34.982  20.229  25.366  1.00  0.00    -0.352 N 
ATOM      4  C   UNL A   1      33.630  20.389  25.280  1.00  0.00     0.256 C 
ATOM      5  O   UNL A   1      33.029  19.408  24.826  1.00  0.00    -0.269 OA
ATOM      6  H   UNL A   1      35.276  19.293  25.282  1.00  0.00     0.163 HD
BRANCH   4   7
ATOM      7  C   UNL A   1      32.879  21.532  25.806  1.00  0.00     0.097 A 
ATOM      8  C   UNL A   1      33.896  22.612  28.030  1.00  0.00     0.069 C 
ATOM      9  C   UNL A   1      32.823  22.308  27.036  1.00  0.00     0.066 A 
ATOM     10  N   UNL A   1      31.682  22.993  27.223  1.00  0.00    -0.195 NA
ATOM     11  S   UNL A   1      30.828  22.989  25.797  1.00  0.00    -0.017 S 
ATOM     12  C   UNL A   1      32.093  22.269  24.920  1.00  0.00     0.129 A 
BRANCH  12  13
ATOM     13  N   UNL A   1      32.142  22.309  23.547  1.00  0.00    -0.311 N 
ATOM     14  C   UNL A   1      32.799  23.263  22.800  1.00  0.00     0.283 C 
ATOM     15  H   UNL A   1      31.668  21.600  23.056  1.00  0.00     0.171 HD
ATOM     16  O   UNL A   1      33.087  22.939  21.640  1.00  0.00    -0.268 OA
BRANCH  14  17
ATOM     17  C   UNL A   1      33.104  24.686  23.329  1.00  0.00     0.279 C 
ATOM     18  C   UNL A   1      34.298  24.889  24.313  1.00  0.00     0.131 C 
ATOM     19  N   UNL A   1      33.272  25.663  22.184  1.00  0.00    -0.331 N 
ATOM     20  C   UNL A   1      33.983  26.214  24.904  1.00  0.00     0.050 A 
ATOM     21  C   UNL A   1      33.543  27.079  22.592  1.00  0.00     0.320 C 
ATOM     22  H   UNL A   1      32.415  25.652  21.630  1.00  0.00     0.347 HD
ATOM     23  H   UNL A   1      34.093  25.354  21.663  1.00  0.00     0.347 HD
ATOM     24  N   UNL A   1      33.527  26.513  26.154  1.00  0.00    -0.348 N 
ATOM     25  C   UNL A   1      33.551  27.233  24.083  1.00  0.00     0.116 A 
ATOM     26  C   UNL A   1      32.786  27.663  26.024  1.00  0.00     0.197 A 
ATOM     27  H   UNL A   1      33.695  26.008  26.982  1.00  0.00     0.167 HD
ATOM     28  N   UNL A   1      32.829  28.147  24.799  1.00  0.00    -0.236 NA
ENDBRANCH  14  17
ENDBRANCH  12  13
ENDBRANCH   4   7
ENDBRANCH   2   3
ENDBRANCH   1   2
BRANCH   1  29
ATOM     29  C   UNL A   1      38.586  21.132  25.409  1.00  0.00     0.118 C 
BRANCH  29  30
ATOM     30  N   UNL A   1      39.378  19.906  25.521  1.00  0.00    -0.352 N 
ATOM     31  C   UNL A   1      40.702  19.770  25.890  1.00  0.00     0.251 C 
ATOM     32  H   UNL A   1      38.905  19.069  25.305  1.00  0.00     0.163 HD
ATOM     33  O   UNL A   1      41.323  18.753  25.647  1.00  0.00    -0.269 OA
BRANCH  31  34
ATOM     34  C   UNL A   1      41.339  20.911  26.566  1.00  0.00     0.039 A 
ATOM     35  C   UNL A   1      41.942  21.930  25.835  1.00  0.00     0.014 A 
ATOM     36  C   UNL A   1      41.225  20.988  27.951  1.00  0.00     0.014 A 
ATOM     37  C   UNL A   1      42.340  23.075  26.514  1.00  0.00     0.010 A 
ATOM     38  C   UNL A   1      41.416  22.192  28.576  1.00  0.00     0.010 A 
ATOM     39  C   UNL A   1      42.031  23.219  27.882  1.00  0.00    -0.014 A 
BRANCH  39  40
ATOM     40  C   UNL A   1      42.253  24.488  28.561  1.00  0.00     0.031 A 
ATOM     41  C   UNL A   1      41.237  25.522  28.243  1.00  0.00     0.074 A 
ATOM     42  C   UNL A   1      43.205  24.713  29.493  1.00  0.00     0.049 A 
ATOM     43  N   UNL A   1      41.399  26.529  27.454  1.00  0.00    -0.248 NA
ATOM     44  C   UNL A   1      39.851  25.333  28.700  1.00  0.00     0.031 C 
ATOM     45  C   UNL A   1      44.113  23.771  30.156  1.00  0.00     0.029 A 
ATOM     46  N   UNL A   1      43.507  25.887  30.107  1.00  0.00    -0.354 N 
ATOM     47  C   UNL A   1      40.200  27.228  27.467  1.00  0.00     0.074 A 
ATOM     48  C   UNL A   1      39.240  26.366  28.110  1.00  0.00     0.031 C 
ATOM     49  C   UNL A   1      44.683  24.364  31.231  1.00  0.00     0.029 A 
ATOM     50  C   UNL A   1      44.337  25.772  31.214  1.00  0.00     0.049 A 
ATOM     51  H   UNL A   1      43.163  26.754  29.792  1.00  0.00     0.167 HD
ATOM     52  C   UNL A   1      40.171  28.554  27.164  1.00  0.00     0.031 A 
ATOM     53  C   UNL A   1      44.712  26.771  32.051  1.00  0.00     0.031 A 
ATOM     54  C   UNL A   1      41.389  28.974  26.512  1.00  0.00     0.049 A 
ATOM     55  C   UNL A   1      44.540  28.043  31.312  1.00  0.00     0.074 A 
ATOM     56  C   UNL A   1      42.050  28.597  25.358  1.00  0.00     0.029 A 
ATOM     57  N   UNL A   1      42.330  29.610  27.288  1.00  0.00    -0.354 N 
ATOM     58  N   UNL A   1      45.267  28.370  30.282  1.00  0.00    -0.248 NA
ATOM     59  C   UNL A   1      43.258  28.720  31.416  1.00  0.00     0.031 C 
ATOM     60  C   UNL A   1      43.430  28.564  25.722  1.00  0.00     0.029 A 
ATOM     61  C   UNL A   1      43.540  29.010  27.040  1.00  0.00     0.049 A 
ATOM     62  H   UNL A   1      42.167  30.358  27.907  1.00  0.00     0.167 HD
ATOM     63  C   UNL A   1      44.368  28.924  29.384  1.00  0.00     0.074 A 
ATOM     64  C   UNL A   1      43.163  29.191  30.170  1.00  0.00     0.031 C 
ATOM     65  C   UNL A   1      44.577  28.850  28.035  1.00  0.00     0.031 A 
BRANCH  52  66
ATOM     66  C   UNL A   1      39.255  29.536  27.849  1.00  0.00    -0.014 A 
ATOM     67  C   UNL A   1      39.597  29.986  29.136  1.00  0.00     0.009 A 
ATOM     68  C   UNL A   1      37.943  29.798  27.414  1.00  0.00     0.009 A 
ATOM     69  C   UNL A   1      38.648  30.582  29.975  1.00  0.00     0.001 A 
ATOM     70  C   UNL A   1      37.003  30.427  28.233  1.00  0.00     0.001 A 
ATOM     71  C   UNL A   1      37.348  30.790  29.525  1.00  0.00     0.000 A 
ENDBRANCH  52  66
BRANCH  53  72
ATOM     72  C   UNL A   1      44.931  26.743  33.513  1.00  0.00    -0.014 A 
ATOM     73  C   UNL A   1      45.814  27.650  34.121  1.00  0.00     0.009 A 
ATOM     74  C   UNL A   1      44.042  26.039  34.345  1.00  0.00     0.009 A 
ATOM     75  C   UNL A   1      45.771  27.886  35.503  1.00  0.00     0.001 A 
ATOM     76  C   UNL A   1      43.999  26.272  35.724  1.00  0.00     0.001 A 
ATOM     77  C   UNL A   1      44.852  27.209  36.301  1.00  0.00     0.000 A 
ENDBRANCH  53  72
BRANCH  65  78
ATOM     78  C   UNL A   1      45.916  28.347  27.544  1.00  0.00    -0.014 A 
ATOM     79  C   UNL A   1      47.011  29.188  27.265  1.00  0.00     0.009 A 
ATOM     80  C   UNL A   1      46.120  26.961  27.500  1.00  0.00     0.009 A 
ATOM     81  C   UNL A   1      48.258  28.650  26.923  1.00  0.00     0.001 A 
ATOM     82  C   UNL A   1      47.370  26.425  27.180  1.00  0.00     0.001 A 
ATOM     83  C   UNL A   1      48.437  27.269  26.884  1.00  0.00     0.000 A 
ENDBRANCH  65  78
ENDBRANCH  39  40
ENDBRANCH  31  34
ENDBRANCH  29  30
ENDBRANCH   1  29
TORSDOF 12
ENDMDL
