MODEL 1
REMARK VINA RESULT:     -10.8      0.000      0.000
REMARK SMILES O=C(COc1ccccc1/C=N/NC(=O)C1CC1)NCCCNC(=O)c1ccc(-c2c3nc(c(-c4ccccc4)c4ccc([nH]4)c(-c4ccccc4)c4nc(c(-c5ccccc5)c5ccc2[nH]5)C=C4)C=C3)cc1
REMARK SMILES IDX 1 1 2 2 19 3 3 5 4 6 5 7 6 8 10 9 7 10 9 11 8 12 11 13 12 14
REMARK SMILES IDX 13 15 14 16 15 18 16 19 17 20 18 21 20 22 21 23 22 24 23 25
REMARK SMILES IDX 24 26 25 28 26 29 27 30 73 31 28 32 72 33 29 34 30 35 31 36
REMARK SMILES IDX 66 37 32 38 71 39 65 40 67 41 33 42 70 43 64 44 63 45 34 47
REMARK SMILES IDX 56 48 41 49 55 50 42 51 45 52 54 53 68 54 43 55 44 56 53 58
REMARK SMILES IDX 69 59 46 60 35 61 36 62 40 63 37 64 39 65 38 66 57 67 58 68
REMARK SMILES IDX 62 69 59 70 61 71 60 72 47 73 48 74 52 75 49 76 51 77 50 78
REMARK H PARENT 19 4 13 17 23 27 67 46 45 57
REMARK Flexibility Score: inf
ROOT
ATOM      1  O   UNL A   1      35.635  22.933  22.790  1.00  0.00    -0.271 OA
ATOM      2  C   UNL A   1      36.185  22.896  23.866  1.00  0.00     0.257 C 
ATOM      3  N   UNL A   1      36.992  21.909  24.468  1.00  0.00    -0.353 N 
ATOM      4  H   UNL A   1      37.851  22.238  24.821  1.00  0.00     0.163 HD
ENDROOT
BRANCH   2   5
ATOM      5  C   UNL A   1      35.992  24.120  24.708  1.00  0.00     0.329 C 
BRANCH   5   6
ATOM      6  O   UNL A   1      35.118  23.677  25.724  1.00  0.00    -0.483 OA
BRANCH   6   7
ATOM      7  C   UNL A   1      33.881  24.259  25.649  1.00  0.00     0.128 A 
ATOM      8  C   UNL A   1      34.026  25.653  25.561  1.00  0.00     0.047 A 
ATOM      9  C   UNL A   1      32.652  23.654  25.990  1.00  0.00     0.037 A 
ATOM     10  C   UNL A   1      32.996  26.489  25.948  1.00  0.00     0.004 A 
ATOM     11  C   UNL A   1      31.649  24.527  26.450  1.00  0.00     0.013 A 
ATOM     12  C   UNL A   1      31.827  25.923  26.443  1.00  0.00     0.001 A 
BRANCH   9  13
ATOM     13  C   UNL A   1      32.289  22.182  26.056  1.00  0.00     0.145 C 
ATOM     14  N   UNL A   1      32.930  21.177  25.508  1.00  0.00    -0.181 NA
BRANCH  14  15
ATOM     15  N   UNL A   1      32.454  19.892  25.819  1.00  0.00    -0.247 N 
ATOM     16  C   UNL A   1      32.805  18.630  25.282  1.00  0.00     0.243 C 
ATOM     17  H   UNL A   1      31.767  19.866  26.523  1.00  0.00     0.193 HD
ATOM     18  O   UNL A   1      32.415  17.647  25.925  1.00  0.00    -0.273 OA
BRANCH  16  19
ATOM     19  C   UNL A   1      33.565  18.357  23.996  1.00  0.00     0.080 C 
ATOM     20  C   UNL A   1      33.782  17.010  23.282  1.00  0.00     0.014 C 
ATOM     21  C   UNL A   1      32.768  17.927  22.741  1.00  0.00     0.014 C 
ENDBRANCH  16  19
ENDBRANCH  14  15
ENDBRANCH   9  13
ENDBRANCH   6   7
ENDBRANCH   5   6
ENDBRANCH   2   5
BRANCH   3  22
ATOM     22  C   UNL A   1      36.758  20.463  24.656  1.00  0.00     0.117 C 
BRANCH  22  23
ATOM     23  C   UNL A   1      37.903  19.504  24.938  1.00  0.00     0.042 C 
BRANCH  23  24
ATOM     24  C   UNL A   1      38.991  20.112  25.790  1.00  0.00     0.118 C 
BRANCH  24  25
ATOM     25  N   UNL A   1      40.155  19.238  25.845  1.00  0.00    -0.352 N 
ATOM     26  C   UNL A   1      41.472  19.556  26.060  1.00  0.00     0.251 C 
ATOM     27  H   UNL A   1      39.970  18.281  25.707  1.00  0.00     0.163 HD
ATOM     28  O   UNL A   1      42.343  18.728  25.808  1.00  0.00    -0.269 OA
BRANCH  26  29
ATOM     29  C   UNL A   1      41.847  20.889  26.583  1.00  0.00     0.039 A 
ATOM     30  C   UNL A   1      42.328  21.851  25.689  1.00  0.00     0.014 A 
ATOM     31  C   UNL A   1      41.761  21.187  27.945  1.00  0.00     0.014 A 
ATOM     32  C   UNL A   1      42.671  23.122  26.155  1.00  0.00     0.010 A 
ATOM     33  C   UNL A   1      42.019  22.479  28.394  1.00  0.00     0.010 A 
ATOM     34  C   UNL A   1      42.488  23.458  27.506  1.00  0.00    -0.014 A 
BRANCH  34  35
ATOM     35  C   UNL A   1      42.782  24.823  28.009  1.00  0.00     0.031 A 
ATOM     36  C   UNL A   1      44.184  25.200  28.403  1.00  0.00     0.074 A 
ATOM     37  C   UNL A   1      41.777  25.706  28.163  1.00  0.00     0.049 A 
ATOM     38  N   UNL A   1      44.624  26.322  28.915  1.00  0.00    -0.248 NA
ATOM     39  C   UNL A   1      45.226  24.176  28.217  1.00  0.00     0.031 C 
ATOM     40  C   UNL A   1      40.369  25.453  27.846  1.00  0.00     0.029 A 
ATOM     41  N   UNL A   1      41.786  26.995  28.633  1.00  0.00    -0.354 N 
ATOM     42  C   UNL A   1      45.985  26.133  29.125  1.00  0.00     0.074 A 
ATOM     43  C   UNL A   1      46.289  24.775  28.733  1.00  0.00     0.031 C 
ATOM     44  C   UNL A   1      39.656  26.560  28.105  1.00  0.00     0.029 A 
ATOM     45  C   UNL A   1      40.543  27.581  28.652  1.00  0.00     0.049 A 
ATOM     46  H   UNL A   1      42.603  27.456  28.930  1.00  0.00     0.167 HD
ATOM     47  C   UNL A   1      46.901  27.016  29.587  1.00  0.00     0.031 A 
ATOM     48  C   UNL A   1      40.157  28.799  29.075  1.00  0.00     0.031 A 
ATOM     49  C   UNL A   1      46.598  28.367  29.978  1.00  0.00     0.049 A 
ATOM     50  C   UNL A   1      41.189  29.746  29.625  1.00  0.00     0.074 A 
ATOM     51  C   UNL A   1      47.465  29.355  30.411  1.00  0.00     0.029 A 
ATOM     52  N   UNL A   1      45.325  28.917  29.994  1.00  0.00    -0.354 N 
ATOM     53  N   UNL A   1      42.483  29.577  29.750  1.00  0.00    -0.248 NA
ATOM     54  C   UNL A   1      40.704  31.055  30.087  1.00  0.00     0.031 C 
ATOM     55  C   UNL A   1      46.711  30.482  30.750  1.00  0.00     0.029 A 
ATOM     56  C   UNL A   1      45.380  30.219  30.464  1.00  0.00     0.049 A 
ATOM     57  H   UNL A   1      44.505  28.452  29.713  1.00  0.00     0.167 HD
ATOM     58  C   UNL A   1      42.969  30.765  30.281  1.00  0.00     0.074 A 
ATOM     59  C   UNL A   1      41.836  31.652  30.434  1.00  0.00     0.031 C 
ATOM     60  C   UNL A   1      44.242  31.089  30.614  1.00  0.00     0.031 A 
BRANCH  47  61
ATOM     61  C   UNL A   1      48.325  26.540  29.710  1.00  0.00    -0.014 A 
ATOM     62  C   UNL A   1      49.248  26.726  28.668  1.00  0.00     0.009 A 
ATOM     63  C   UNL A   1      48.757  25.933  30.899  1.00  0.00     0.009 A 
ATOM     64  C   UNL A   1      50.565  26.277  28.802  1.00  0.00     0.001 A 
ATOM     65  C   UNL A   1      50.081  25.515  31.042  1.00  0.00     0.001 A 
ATOM     66  C   UNL A   1      50.981  25.677  29.990  1.00  0.00     0.000 A 
ENDBRANCH  47  61
BRANCH  48  67
ATOM     67  C   UNL A   1      38.726  29.198  29.001  1.00  0.00    -0.014 A 
ATOM     68  C   UNL A   1      38.199  29.749  27.824  1.00  0.00     0.009 A 
ATOM     69  C   UNL A   1      37.881  29.037  30.111  1.00  0.00     0.009 A 
ATOM     70  C   UNL A   1      36.864  30.159  27.770  1.00  0.00     0.001 A 
ATOM     71  C   UNL A   1      36.539  29.416  30.043  1.00  0.00     0.001 A 
ATOM     72  C   UNL A   1      36.035  29.987  28.876  1.00  0.00     0.000 A 
ENDBRANCH  48  67
BRANCH  60  73
ATOM     73  C   UNL A   1      44.482  32.474  31.151  1.00  0.00    -0.014 A 
ATOM     74  C   UNL A   1      44.733  33.557  30.294  1.00  0.00     0.009 A 
ATOM     75  C   UNL A   1      44.411  32.705  32.535  1.00  0.00     0.009 A 
ATOM     76  C   UNL A   1      44.940  34.836  30.814  1.00  0.00     0.001 A 
ATOM     77  C   UNL A   1      44.585  33.990  33.049  1.00  0.00     0.001 A 
ATOM     78  C   UNL A   1      44.860  35.052  32.190  1.00  0.00     0.000 A 
ENDBRANCH  60  73
ENDBRANCH  34  35
ENDBRANCH  26  29
ENDBRANCH  24  25
ENDBRANCH  23  24
ENDBRANCH  22  23
ENDBRANCH   3  22
TORSDOF 15
ENDMDL
MODEL 2
REMARK VINA RESULT:     -10.7      1.206      6.123
REMARK SMILES O=C(COc1ccccc1/C=N/NC(=O)C1CC1)NCCCNC(=O)c1ccc(-c2c3nc(c(-c4ccccc4)c4ccc([nH]4)c(-c4ccccc4)c4nc(c(-c5ccccc5)c5ccc2[nH]5)C=C4)C=C3)cc1
REMARK SMILES IDX 1 1 2 2 19 3 3 5 4 6 5 7 6 8 10 9 7 10 9 11 8 12 11 13 12 14
REMARK SMILES IDX 13 15 14 16 15 18 16 19 17 20 18 21 20 22 21 23 22 24 23 25
REMARK SMILES IDX 24 26 25 28 26 29 27 30 73 31 28 32 72 33 29 34 30 35 31 36
REMARK SMILES IDX 66 37 32 38 71 39 65 40 67 41 33 42 70 43 64 44 63 45 34 47
REMARK SMILES IDX 56 48 41 49 55 50 42 51 45 52 54 53 68 54 43 55 44 56 53 58
REMARK SMILES IDX 69 59 46 60 35 61 36 62 40 63 37 64 39 65 38 66 57 67 58 68
REMARK SMILES IDX 62 69 59 70 61 71 60 72 47 73 48 74 52 75 49 76 51 77 50 78
REMARK H PARENT 19 4 13 17 23 27 67 46 45 57
REMARK Flexibility Score: inf
ROOT
ATOM      1  O   UNL A   1      36.676  23.541  23.664  1.00  0.00    -0.271 OA
ATOM      2  C   UNL A   1      36.377  23.139  24.764  1.00  0.00     0.257 C 
ATOM      3  N   UNL A   1      36.694  21.943  25.439  1.00  0.00    -0.353 N 
ATOM      4  H   UNL A   1      37.057  22.065  26.347  1.00  0.00     0.163 HD
ENDROOT
BRANCH   2   5
ATOM      5  C   UNL A   1      35.529  24.081  25.563  1.00  0.00     0.329 C 
BRANCH   5   6
ATOM      6  O   UNL A   1      34.560  23.233  26.139  1.00  0.00    -0.483 OA
BRANCH   6   7
ATOM      7  C   UNL A   1      33.290  23.512  25.708  1.00  0.00     0.128 A 
ATOM      8  C   UNL A   1      33.134  24.902  25.586  1.00  0.00     0.047 A 
ATOM      9  C   UNL A   1      32.185  22.634  25.746  1.00  0.00     0.037 A 
ATOM     10  C   UNL A   1      31.876  25.472  25.640  1.00  0.00     0.004 A 
ATOM     11  C   UNL A   1      30.924  23.247  25.875  1.00  0.00     0.013 A 
ATOM     12  C   UNL A   1      30.777  24.646  25.839  1.00  0.00     0.001 A 
BRANCH   9  13
ATOM     13  C   UNL A   1      32.160  21.118  25.793  1.00  0.00     0.145 C 
ATOM     14  N   UNL A   1      33.145  20.314  26.116  1.00  0.00    -0.181 NA
BRANCH  14  15
ATOM     15  N   UNL A   1      32.830  18.948  26.200  1.00  0.00    -0.247 N 
ATOM     16  C   UNL A   1      33.230  17.863  25.382  1.00  0.00     0.243 C 
ATOM     17  H   UNL A   1      32.236  18.706  26.947  1.00  0.00     0.193 HD
ATOM     18  O   UNL A   1      33.011  16.735  25.842  1.00  0.00    -0.273 OA
BRANCH  16  19
ATOM     19  C   UNL A   1      33.854  17.935  24.000  1.00  0.00     0.080 C 
ATOM     20  C   UNL A   1      34.055  16.798  22.982  1.00  0.00     0.014 C 
ATOM     21  C   UNL A   1      32.944  17.735  22.764  1.00  0.00     0.014 C 
ENDBRANCH  16  19
ENDBRANCH  14  15
ENDBRANCH   9  13
ENDBRANCH   6   7
ENDBRANCH   5   6
ENDBRANCH   2   5
BRANCH   3  22
ATOM     22  C   UNL A   1      36.570  20.536  25.006  1.00  0.00     0.117 C 
BRANCH  22  23
ATOM     23  C   UNL A   1      37.772  19.604  24.983  1.00  0.00     0.042 C 
BRANCH  23  24
ATOM     24  C   UNL A   1      38.981  20.177  25.682  1.00  0.00     0.118 C 
BRANCH  24  25
ATOM     25  N   UNL A   1      40.023  19.170  25.825  1.00  0.00    -0.352 N 
ATOM     26  C   UNL A   1      41.368  19.332  26.039  1.00  0.00     0.251 C 
ATOM     27  H   UNL A   1      39.718  18.236  25.756  1.00  0.00     0.163 HD
ATOM     28  O   UNL A   1      42.127  18.383  25.866  1.00  0.00    -0.269 OA
BRANCH  26  29
ATOM     29  C   UNL A   1      41.907  20.644  26.465  1.00  0.00     0.039 A 
ATOM     30  C   UNL A   1      42.319  21.553  25.486  1.00  0.00     0.014 A 
ATOM     31  C   UNL A   1      42.041  20.970  27.817  1.00  0.00     0.014 A 
ATOM     32  C   UNL A   1      42.813  22.803  25.863  1.00  0.00     0.010 A 
ATOM     33  C   UNL A   1      42.450  22.247  28.190  1.00  0.00     0.010 A 
ATOM     34  C   UNL A   1      42.852  23.174  27.217  1.00  0.00    -0.014 A 
BRANCH  34  35
ATOM     35  C   UNL A   1      43.310  24.523  27.634  1.00  0.00     0.031 A 
ATOM     36  C   UNL A   1      42.309  25.577  28.021  1.00  0.00     0.074 A 
ATOM     37  C   UNL A   1      44.625  24.816  27.611  1.00  0.00     0.049 A 
ATOM     38  N   UNL A   1      42.514  26.826  28.358  1.00  0.00    -0.248 NA
ATOM     39  C   UNL A   1      40.891  25.184  28.009  1.00  0.00     0.031 C 
ATOM     40  C   UNL A   1      45.693  23.891  27.226  1.00  0.00     0.029 A 
ATOM     41  N   UNL A   1      45.285  25.980  27.913  1.00  0.00    -0.354 N 
ATOM     42  C   UNL A   1      41.254  27.369  28.581  1.00  0.00     0.074 A 
ATOM     43  C   UNL A   1      40.289  26.330  28.295  1.00  0.00     0.031 C 
ATOM     44  C   UNL A   1      46.876  24.516  27.341  1.00  0.00     0.029 A 
ATOM     45  C   UNL A   1      46.647  25.895  27.758  1.00  0.00     0.049 A 
ATOM     46  H   UNL A   1      44.827  26.799  28.211  1.00  0.00     0.167 HD
ATOM     47  C   UNL A   1      40.931  28.614  29.004  1.00  0.00     0.031 A 
ATOM     48  C   UNL A   1      47.606  26.826  27.919  1.00  0.00     0.031 A 
ATOM     49  C   UNL A   1      41.892  29.647  29.288  1.00  0.00     0.049 A 
ATOM     50  C   UNL A   1      47.216  28.215  28.347  1.00  0.00     0.074 A 
ATOM     51  C   UNL A   1      41.666  30.924  29.769  1.00  0.00     0.029 A 
ATOM     52  N   UNL A   1      43.260  29.523  29.106  1.00  0.00    -0.354 N 
ATOM     53  N   UNL A   1      46.026  28.691  28.623  1.00  0.00    -0.248 NA
ATOM     54  C   UNL A   1      48.304  29.192  28.489  1.00  0.00     0.031 C 
ATOM     55  C   UNL A   1      42.891  31.596  29.818  1.00  0.00     0.029 A 
ATOM     56  C   UNL A   1      43.889  30.715  29.431  1.00  0.00     0.049 A 
ATOM     57  H   UNL A   1      43.718  28.710  28.793  1.00  0.00     0.167 HD
ATOM     58  C   UNL A   1      46.226  30.014  28.995  1.00  0.00     0.074 A 
ATOM     59  C   UNL A   1      47.651  30.258  28.930  1.00  0.00     0.031 C 
ATOM     60  C   UNL A   1      45.308  30.944  29.357  1.00  0.00     0.031 A 
BRANCH  47  61
ATOM     61  C   UNL A   1      39.469  28.933  29.170  1.00  0.00    -0.014 A 
ATOM     62  C   UNL A   1      38.807  28.710  30.388  1.00  0.00     0.009 A 
ATOM     63  C   UNL A   1      38.754  29.502  28.104  1.00  0.00     0.009 A 
ATOM     64  C   UNL A   1      37.450  29.013  30.522  1.00  0.00     0.001 A 
ATOM     65  C   UNL A   1      37.406  29.834  28.251  1.00  0.00     0.001 A 
ATOM     66  C   UNL A   1      36.752  29.580  29.456  1.00  0.00     0.000 A 
ENDBRANCH  47  61
BRANCH  48  67
ATOM     67  C   UNL A   1      49.032  26.482  27.672  1.00  0.00    -0.014 A 
ATOM     68  C   UNL A   1      49.856  26.056  28.725  1.00  0.00     0.009 A 
ATOM     69  C   UNL A   1      49.579  26.586  26.383  1.00  0.00     0.009 A 
ATOM     70  C   UNL A   1      51.205  25.771  28.497  1.00  0.00     0.001 A 
ATOM     71  C   UNL A   1      50.919  26.268  26.153  1.00  0.00     0.001 A 
ATOM     72  C   UNL A   1      51.733  25.872  27.212  1.00  0.00     0.000 A 
ENDBRANCH  48  67
BRANCH  60  73
ATOM     73  C   UNL A   1      45.822  32.305  29.738  1.00  0.00    -0.014 A 
ATOM     74  C   UNL A   1      46.303  32.570  31.030  1.00  0.00     0.009 A 
ATOM     75  C   UNL A   1      45.864  33.327  28.775  1.00  0.00     0.009 A 
ATOM     76  C   UNL A   1      46.786  33.838  31.358  1.00  0.00     0.001 A 
ATOM     77  C   UNL A   1      46.378  34.583  29.096  1.00  0.00     0.001 A 
ATOM     78  C   UNL A   1      46.829  34.841  30.390  1.00  0.00     0.000 A 
ENDBRANCH  60  73
ENDBRANCH  34  35
ENDBRANCH  26  29
ENDBRANCH  24  25
ENDBRANCH  23  24
ENDBRANCH  22  23
ENDBRANCH   3  22
TORSDOF 15
ENDMDL
MODEL 3
REMARK VINA RESULT:     -10.6      1.892      7.184
REMARK SMILES O=C(COc1ccccc1/C=N/NC(=O)C1CC1)NCCCNC(=O)c1ccc(-c2c3nc(c(-c4ccccc4)c4ccc([nH]4)c(-c4ccccc4)c4nc(c(-c5ccccc5)c5ccc2[nH]5)C=C4)C=C3)cc1
REMARK SMILES IDX 1 1 2 2 19 3 3 5 4 6 5 7 6 8 10 9 7 10 9 11 8 12 11 13 12 14
REMARK SMILES IDX 13 15 14 16 15 18 16 19 17 20 18 21 20 22 21 23 22 24 23 25
REMARK SMILES IDX 24 26 25 28 26 29 27 30 73 31 28 32 72 33 29 34 30 35 31 36
REMARK SMILES IDX 66 37 32 38 71 39 65 40 67 41 33 42 70 43 64 44 63 45 34 47
REMARK SMILES IDX 56 48 41 49 55 50 42 51 45 52 54 53 68 54 43 55 44 56 53 58
REMARK SMILES IDX 69 59 46 60 35 61 36 62 40 63 37 64 39 65 38 66 57 67 58 68
REMARK SMILES IDX 62 69 59 70 61 71 60 72 47 73 48 74 52 75 49 76 51 77 50 78
REMARK H PARENT 19 4 13 17 23 27 67 46 45 57
REMARK Flexibility Score: inf
ROOT
ATOM      1  O   UNL A   1      32.500  25.173  23.402  1.00  0.00    -0.271 OA
ATOM      2  C   UNL A   1      32.562  25.300  24.602  1.00  0.00     0.257 C 
ATOM      3  N   UNL A   1      32.092  26.317  25.459  1.00  0.00    -0.353 N 
ATOM      4  H   UNL A   1      31.555  25.999  26.221  1.00  0.00     0.163 HD
ENDROOT
BRANCH   2   5
ATOM      5  C   UNL A   1      33.245  24.172  25.315  1.00  0.00     0.329 C 
BRANCH   5   6
ATOM      6  O   UNL A   1      34.407  23.962  24.545  1.00  0.00    -0.483 OA
BRANCH   6   7
ATOM      7  C   UNL A   1      35.385  23.295  25.234  1.00  0.00     0.128 A 
ATOM      8  C   UNL A   1      36.462  24.165  25.474  1.00  0.00     0.047 A 
ATOM      9  C   UNL A   1      35.512  21.894  25.357  1.00  0.00     0.037 A 
ATOM     10  C   UNL A   1      37.728  23.663  25.704  1.00  0.00     0.004 A 
ATOM     11  C   UNL A   1      36.825  21.413  25.518  1.00  0.00     0.013 A 
ATOM     12  C   UNL A   1      37.917  22.287  25.673  1.00  0.00     0.001 A 
BRANCH   9  13
ATOM     13  C   UNL A   1      34.454  20.815  25.217  1.00  0.00     0.145 C 
ATOM     14  N   UNL A   1      33.532  20.485  26.090  1.00  0.00    -0.181 NA
BRANCH  14  15
ATOM     15  N   UNL A   1      32.593  19.529  25.669  1.00  0.00    -0.247 N 
ATOM     16  C   UNL A   1      32.782  18.227  25.145  1.00  0.00     0.243 C 
ATOM     17  H   UNL A   1      31.653  19.809  25.751  1.00  0.00     0.193 HD
ATOM     18  O   UNL A   1      31.772  17.514  25.103  1.00  0.00    -0.273 OA
BRANCH  16  19
ATOM     19  C   UNL A   1      34.069  17.635  24.598  1.00  0.00     0.080 C 
ATOM     20  C   UNL A   1      34.365  16.170  24.229  1.00  0.00     0.014 C 
ATOM     21  C   UNL A   1      34.085  17.116  23.139  1.00  0.00     0.014 C 
ENDBRANCH  16  19
ENDBRANCH  14  15
ENDBRANCH   9  13
ENDBRANCH   6   7
ENDBRANCH   5   6
ENDBRANCH   2   5
BRANCH   3  22
ATOM     22  C   UNL A   1      32.278  27.781  25.400  1.00  0.00     0.117 C 
BRANCH  22  23
ATOM     23  C   UNL A   1      33.556  28.439  25.894  1.00  0.00     0.042 C 
BRANCH  23  24
ATOM     24  C   UNL A   1      33.567  28.669  27.386  1.00  0.00     0.118 C 
BRANCH  24  25
ATOM     25  N   UNL A   1      33.603  30.092  27.691  1.00  0.00    -0.352 N 
ATOM     26  C   UNL A   1      34.577  30.823  28.323  1.00  0.00     0.251 C 
ATOM     27  H   UNL A   1      32.813  30.604  27.403  1.00  0.00     0.163 HD
ATOM     28  O   UNL A   1      34.318  31.954  28.727  1.00  0.00    -0.269 OA
BRANCH  26  29
ATOM     29  C   UNL A   1      35.928  30.254  28.528  1.00  0.00     0.039 A 
ATOM     30  C   UNL A   1      36.842  30.291  27.470  1.00  0.00     0.014 A 
ATOM     31  C   UNL A   1      36.289  29.658  29.739  1.00  0.00     0.014 A 
ATOM     32  C   UNL A   1      38.128  29.777  27.646  1.00  0.00     0.010 A 
ATOM     33  C   UNL A   1      37.597  29.227  29.941  1.00  0.00     0.010 A 
ATOM     34  C   UNL A   1      38.528  29.271  28.893  1.00  0.00    -0.014 A 
BRANCH  34  35
ATOM     35  C   UNL A   1      39.911  28.782  29.120  1.00  0.00     0.031 A 
ATOM     36  C   UNL A   1      40.951  29.697  29.708  1.00  0.00     0.074 A 
ATOM     37  C   UNL A   1      40.246  27.533  28.746  1.00  0.00     0.049 A 
ATOM     38  N   UNL A   1      42.221  29.470  29.926  1.00  0.00    -0.248 NA
ATOM     39  C   UNL A   1      40.511  31.052  30.079  1.00  0.00     0.031 C 
ATOM     40  C   UNL A   1      39.337  26.558  28.137  1.00  0.00     0.029 A 
ATOM     41  N   UNL A   1      41.445  26.870  28.817  1.00  0.00    -0.354 N 
ATOM     42  C   UNL A   1      42.733  30.653  30.445  1.00  0.00     0.074 A 
ATOM     43  C   UNL A   1      41.650  31.611  30.462  1.00  0.00     0.031 C 
ATOM     44  C   UNL A   1      40.005  25.415  27.916  1.00  0.00     0.029 A 
ATOM     45  C   UNL A   1      41.396  25.591  28.318  1.00  0.00     0.049 A 
ATOM     46  H   UNL A   1      42.263  27.273  29.188  1.00  0.00     0.167 HD
ATOM     47  C   UNL A   1      43.988  30.913  30.883  1.00  0.00     0.031 A 
ATOM     48  C   UNL A   1      42.366  24.666  28.186  1.00  0.00     0.031 A 
ATOM     49  C   UNL A   1      45.065  29.960  30.865  1.00  0.00     0.049 A 
ATOM     50  C   UNL A   1      43.761  24.997  28.641  1.00  0.00     0.074 A 
ATOM     51  C   UNL A   1      46.359  30.112  31.334  1.00  0.00     0.029 A 
ATOM     52  N   UNL A   1      44.978  28.680  30.340  1.00  0.00    -0.354 N 
ATOM     53  N   UNL A   1      44.213  26.096  29.195  1.00  0.00    -0.248 NA
ATOM     54  C   UNL A   1      44.781  23.953  28.455  1.00  0.00     0.031 C 
ATOM     55  C   UNL A   1      47.072  28.948  31.035  1.00  0.00     0.029 A 
ATOM     56  C   UNL A   1      46.204  28.044  30.441  1.00  0.00     0.049 A 
ATOM     57  H   UNL A   1      44.165  28.281  29.954  1.00  0.00     0.167 HD
ATOM     58  C   UNL A   1      45.559  25.867  29.446  1.00  0.00     0.074 A 
ATOM     59  C   UNL A   1      45.846  24.519  29.004  1.00  0.00     0.031 C 
ATOM     60  C   UNL A   1      46.476  26.703  29.993  1.00  0.00     0.031 A 
BRANCH  47  61
ATOM     61  C   UNL A   1      44.267  32.297  31.408  1.00  0.00    -0.014 A 
ATOM     62  C   UNL A   1      44.699  33.327  30.558  1.00  0.00     0.009 A 
ATOM     63  C   UNL A   1      44.058  32.583  32.767  1.00  0.00     0.009 A 
ATOM     64  C   UNL A   1      44.952  34.604  31.065  1.00  0.00     0.001 A 
ATOM     65  C   UNL A   1      44.281  33.867  33.264  1.00  0.00     0.001 A 
ATOM     66  C   UNL A   1      44.738  34.874  32.416  1.00  0.00     0.000 A 
ENDBRANCH  47  61
BRANCH  48  67
ATOM     67  C   UNL A   1      42.056  23.338  27.594  1.00  0.00    -0.014 A 
ATOM     68  C   UNL A   1      42.303  23.086  26.236  1.00  0.00     0.009 A 
ATOM     69  C   UNL A   1      41.503  22.316  28.382  1.00  0.00     0.009 A 
ATOM     70  C   UNL A   1      41.974  21.850  25.674  1.00  0.00     0.001 A 
ATOM     71  C   UNL A   1      41.207  21.071  27.825  1.00  0.00     0.001 A 
ATOM     72  C   UNL A   1      41.432  20.843  26.469  1.00  0.00     0.000 A 
ENDBRANCH  48  67
BRANCH  60  73
ATOM     73  C   UNL A   1      47.872  26.171  30.170  1.00  0.00    -0.014 A 
ATOM     74  C   UNL A   1      48.792  26.163  29.110  1.00  0.00     0.009 A 
ATOM     75  C   UNL A   1      48.286  25.711  31.432  1.00  0.00     0.009 A 
ATOM     76  C   UNL A   1      50.086  25.675  29.302  1.00  0.00     0.001 A 
ATOM     77  C   UNL A   1      49.589  25.256  31.628  1.00  0.00     0.001 A 
ATOM     78  C   UNL A   1      50.485  25.228  30.561  1.00  0.00     0.000 A 
ENDBRANCH  60  73
ENDBRANCH  34  35
ENDBRANCH  26  29
ENDBRANCH  24  25
ENDBRANCH  23  24
ENDBRANCH  22  23
ENDBRANCH   3  22
TORSDOF 15
ENDMDL
