MODEL 1
REMARK VINA RESULT:     -11.3      0.000      0.000
REMARK SMILES CCCCc1nc(C[N@H+]2CC[NH2+][C@H](C(=O)NCCCNC(=O)c3ccc(-c4c5nc(c(-c6ccccc6)c6ccc([nH]6)c(-c6ccccc6)c6nc(c(-c7ccccc7)c7ccc4[nH]7)C=C6)C=C5)cc3)C2)c(Cl)[nH]1
REMARK SMILES IDX 14 1 15 2 16 3 13 5 9 6 10 7 71 8 11 10 12 11 8 14 7 15 5 16
REMARK SMILES IDX 6 17 74 18 72 19 73 21 4 22 3 23 2 24 1 25 17 26 18 27 19 28
REMARK SMILES IDX 20 29 21 30 22 32 23 33 24 34 70 35 25 36 69 37 26 38 27 39
REMARK SMILES IDX 28 40 63 41 29 42 68 43 62 44 64 45 30 46 67 47 61 48 60 49
REMARK SMILES IDX 31 51 53 52 38 53 52 54 39 55 42 56 51 57 65 58 40 59 41 60
REMARK SMILES IDX 50 62 66 63 43 64 32 65 33 66 37 67 34 68 36 69 35 70 54 71
REMARK SMILES IDX 55 72 59 73 56 74 58 75 57 76 44 77 45 78 49 79 46 80 48 81
REMARK SMILES IDX 47 82
REMARK H PARENT 16 4 9 9 12 12 12 13 74 20 20 31 64 50 42 61
REMARK Flexibility Score: inf
ROOT
ATOM      1  C   UNL A   1      32.373  28.874  23.911  1.00  0.00     0.284 C 
ATOM      2  O   UNL A   1      33.041  29.006  22.881  1.00  0.00    -0.268 OA
ATOM      3  N   UNL A   1      32.444  29.890  24.830  1.00  0.00    -0.351 N 
ATOM      4  H   UNL A   1      33.173  30.536  24.692  1.00  0.00     0.163 HD
ENDROOT
BRANCH   1   5
ATOM      5  C   UNL A   1      31.604  27.579  24.237  1.00  0.00     0.328 C 
ATOM      6  N   UNL A   1      31.790  25.012  24.145  1.00  0.00    -0.320 N 
ATOM      7  C   UNL A   1      30.374  25.012  23.751  1.00  0.00     0.324 C 
ATOM      8  C   UNL A   1      32.452  26.317  23.910  1.00  0.00     0.339 C 
ATOM      9  H   UNL A   1      32.236  24.358  23.503  1.00  0.00     0.348 HD
ATOM     10  C   UNL A   1      29.591  26.308  24.045  1.00  0.00     0.323 C 
ATOM     11  N   UNL A   1      30.286  27.504  23.548  1.00  0.00    -0.327 N 
ATOM     12  H   UNL A   1      29.737  28.337  23.758  1.00  0.00     0.347 HD
ATOM     13  H   UNL A   1      30.414  27.449  22.538  1.00  0.00     0.347 HD
BRANCH   6  14
ATOM     14  C   UNL A   1      32.070  24.418  25.465  1.00  0.00     0.323 C 
BRANCH  14  15
ATOM     15  C   UNL A   1      32.692  23.062  25.414  1.00  0.00     0.132 A 
ATOM     16  C   UNL A   1      32.814  20.969  24.887  1.00  0.00     0.107 A 
ATOM     17  N   UNL A   1      31.952  21.956  25.033  1.00  0.00    -0.231 NA
ATOM     18  N   UNL A   1      34.059  21.346  25.329  1.00  0.00    -0.333 N 
ATOM     19  C   UNL A   1      33.984  22.668  25.643  1.00  0.00     0.135 A 
ATOM     20  H   UNL A   1      34.854  20.769  25.403  1.00  0.00     0.169 HD
ATOM     21  Cl  UNL A   1      35.398  23.478  26.097  1.00  0.00    -0.062 Cl
BRANCH  16  22
ATOM     22  C   UNL A   1      32.541  19.676  24.200  1.00  0.00     0.075 C 
BRANCH  22  23
ATOM     23  C   UNL A   1      33.134  18.460  24.903  1.00  0.00     0.008 C 
BRANCH  23  24
ATOM     24  C   UNL A   1      34.378  17.861  24.239  1.00  0.00    -0.003 C 
ATOM     25  C   UNL A   1      34.067  16.880  23.118  1.00  0.00     0.004 C 
ENDBRANCH  23  24
ENDBRANCH  22  23
ENDBRANCH  16  22
ENDBRANCH  14  15
ENDBRANCH   6  14
ENDBRANCH   1   5
BRANCH   3  26
ATOM     26  C   UNL A   1      31.593  30.146  25.981  1.00  0.00     0.118 C 
BRANCH  26  27
ATOM     27  C   UNL A   1      31.370  31.628  26.290  1.00  0.00     0.042 C 
BRANCH  27  28
ATOM     28  C   UNL A   1      32.450  32.170  27.214  1.00  0.00     0.118 C 
BRANCH  28  29
ATOM     29  N   UNL A   1      32.237  33.590  27.525  1.00  0.00    -0.352 N 
ATOM     30  C   UNL A   1      32.932  34.443  28.361  1.00  0.00     0.251 C 
ATOM     31  H   UNL A   1      31.472  34.002  27.060  1.00  0.00     0.163 HD
ATOM     32  O   UNL A   1      32.463  35.515  28.694  1.00  0.00    -0.269 OA
BRANCH  30  33
ATOM     33  C   UNL A   1      34.254  34.025  28.849  1.00  0.00     0.039 A 
ATOM     34  C   UNL A   1      34.409  33.433  30.107  1.00  0.00     0.014 A 
ATOM     35  C   UNL A   1      35.337  34.193  27.996  1.00  0.00     0.014 A 
ATOM     36  C   UNL A   1      35.655  32.925  30.459  1.00  0.00     0.010 A 
ATOM     37  C   UNL A   1      36.500  33.528  28.258  1.00  0.00     0.010 A 
ATOM     38  C   UNL A   1      36.689  32.960  29.515  1.00  0.00    -0.014 A 
BRANCH  38  39
ATOM     39  C   UNL A   1      37.971  32.319  29.758  1.00  0.00     0.031 A 
ATOM     40  C   UNL A   1      38.018  30.878  29.396  1.00  0.00     0.074 A 
ATOM     41  C   UNL A   1      39.085  33.050  29.984  1.00  0.00     0.049 A 
ATOM     42  N   UNL A   1      38.178  29.865  30.180  1.00  0.00    -0.248 NA
ATOM     43  C   UNL A   1      37.703  30.510  28.003  1.00  0.00     0.031 C 
ATOM     44  C   UNL A   1      39.215  34.514  29.984  1.00  0.00     0.029 A 
ATOM     45  N   UNL A   1      40.373  32.638  30.098  1.00  0.00    -0.354 N 
ATOM     46  C   UNL A   1      38.210  28.746  29.350  1.00  0.00     0.074 A 
ATOM     47  C   UNL A   1      37.687  29.178  28.080  1.00  0.00     0.031 C 
ATOM     48  C   UNL A   1      40.514  34.851  29.831  1.00  0.00     0.029 A 
ATOM     49  C   UNL A   1      41.314  33.643  29.900  1.00  0.00     0.049 A 
ATOM     50  H   UNL A   1      40.621  31.708  30.304  1.00  0.00     0.167 HD
ATOM     51  C   UNL A   1      38.941  27.643  29.677  1.00  0.00     0.031 A 
ATOM     52  C   UNL A   1      42.652  33.486  29.758  1.00  0.00     0.031 A 
ATOM     53  C   UNL A   1      39.342  27.676  31.064  1.00  0.00     0.049 A 
ATOM     54  C   UNL A   1      42.990  32.135  30.261  1.00  0.00     0.074 A 
ATOM     55  C   UNL A   1      38.677  27.753  32.272  1.00  0.00     0.029 A 
ATOM     56  N   UNL A   1      40.641  28.047  31.325  1.00  0.00    -0.354 N 
ATOM     57  N   UNL A   1      42.890  31.787  31.513  1.00  0.00    -0.248 NA
ATOM     58  C   UNL A   1      43.001  31.037  29.308  1.00  0.00     0.031 C 
ATOM     59  C   UNL A   1      39.477  28.619  33.076  1.00  0.00     0.029 A 
ATOM     60  C   UNL A   1      40.623  28.953  32.351  1.00  0.00     0.049 A 
ATOM     61  H   UNL A   1      41.441  27.720  30.856  1.00  0.00     0.167 HD
ATOM     62  C   UNL A   1      42.374  30.500  31.479  1.00  0.00     0.074 A 
ATOM     63  C   UNL A   1      42.575  30.050  30.101  1.00  0.00     0.031 C 
ATOM     64  C   UNL A   1      41.569  30.039  32.483  1.00  0.00     0.031 A 
BRANCH  51  65
ATOM     65  C   UNL A   1      39.684  26.796  28.661  1.00  0.00    -0.014 A 
ATOM     66  C   UNL A   1      40.574  27.439  27.779  1.00  0.00     0.009 A 
ATOM     67  C   UNL A   1      39.344  25.467  28.338  1.00  0.00     0.009 A 
ATOM     68  C   UNL A   1      40.999  26.831  26.590  1.00  0.00     0.001 A 
ATOM     69  C   UNL A   1      39.800  24.841  27.176  1.00  0.00     0.001 A 
ATOM     70  C   UNL A   1      40.598  25.536  26.282  1.00  0.00     0.000 A 
ENDBRANCH  51  65
BRANCH  52  71
ATOM     71  C   UNL A   1      43.619  34.309  29.003  1.00  0.00    -0.014 A 
ATOM     72  C   UNL A   1      43.646  34.273  27.601  1.00  0.00     0.009 A 
ATOM     73  C   UNL A   1      44.341  35.333  29.646  1.00  0.00     0.009 A 
ATOM     74  C   UNL A   1      44.331  35.252  26.867  1.00  0.00     0.001 A 
ATOM     75  C   UNL A   1      45.028  36.307  28.913  1.00  0.00     0.001 A 
ATOM     76  C   UNL A   1      45.007  36.277  27.523  1.00  0.00     0.000 A 
ENDBRANCH  52  71
BRANCH  64  77
ATOM     77  C   UNL A   1      41.465  30.867  33.742  1.00  0.00    -0.014 A 
ATOM     78  C   UNL A   1      42.272  30.659  34.875  1.00  0.00     0.009 A 
ATOM     79  C   UNL A   1      40.629  31.993  33.723  1.00  0.00     0.009 A 
ATOM     80  C   UNL A   1      42.219  31.535  35.965  1.00  0.00     0.001 A 
ATOM     81  C   UNL A   1      40.592  32.879  34.801  1.00  0.00     0.001 A 
ATOM     82  C   UNL A   1      41.382  32.648  35.925  1.00  0.00     0.000 A 
ENDBRANCH  64  77
ENDBRANCH  38  39
ENDBRANCH  30  33
ENDBRANCH  28  29
ENDBRANCH  27  28
ENDBRANCH  26  27
ENDBRANCH   3  26
TORSDOF 15
ENDMDL
MODEL 2
REMARK VINA RESULT:     -10.7      3.254      7.961
REMARK SMILES CCCCc1nc(C[N@H+]2CC[NH2+][C@H](C(=O)NCCCNC(=O)c3ccc(-c4c5nc(c(-c6ccccc6)c6ccc([nH]6)c(-c6ccccc6)c6nc(c(-c7ccccc7)c7ccc4[nH]7)C=C6)C=C5)cc3)C2)c(Cl)[nH]1
REMARK SMILES IDX 14 1 15 2 16 3 13 5 9 6 10 7 71 8 11 10 12 11 8 14 7 15 5 16
REMARK SMILES IDX 6 17 74 18 72 19 73 21 4 22 3 23 2 24 1 25 17 26 18 27 19 28
REMARK SMILES IDX 20 29 21 30 22 32 23 33 24 34 70 35 25 36 69 37 26 38 27 39
REMARK SMILES IDX 28 40 63 41 29 42 68 43 62 44 64 45 30 46 67 47 61 48 60 49
REMARK SMILES IDX 31 51 53 52 38 53 52 54 39 55 42 56 51 57 65 58 40 59 41 60
REMARK SMILES IDX 50 62 66 63 43 64 32 65 33 66 37 67 34 68 36 69 35 70 54 71
REMARK SMILES IDX 55 72 59 73 56 74 58 75 57 76 44 77 45 78 49 79 46 80 48 81
REMARK SMILES IDX 47 82
REMARK H PARENT 16 4 9 9 12 12 12 13 74 20 20 31 64 50 42 61
REMARK Flexibility Score: inf
ROOT
ATOM      1  C   UNL A   1      34.173  20.493  25.081  1.00  0.00     0.284 C 
ATOM      2  O   UNL A   1      33.774  19.427  24.605  1.00  0.00    -0.268 OA
ATOM      3  N   UNL A   1      35.509  20.576  25.384  1.00  0.00    -0.351 N 
ATOM      4  H   UNL A   1      35.995  19.720  25.394  1.00  0.00     0.163 HD
ENDROOT
BRANCH   1   5
ATOM      5  C   UNL A   1      33.215  21.640  25.459  1.00  0.00     0.328 C 
ATOM      6  N   UNL A   1      32.561  24.050  24.829  1.00  0.00    -0.320 N 
ATOM      7  C   UNL A   1      32.421  24.294  26.272  1.00  0.00     0.324 C 
ATOM      8  C   UNL A   1      33.405  22.870  24.526  1.00  0.00     0.339 C 
ATOM      9  H   UNL A   1      33.081  24.855  24.481  1.00  0.00     0.348 HD
ATOM     10  C   UNL A   1      32.292  23.040  27.160  1.00  0.00     0.323 C 
ATOM     11  N   UNL A   1      33.345  22.052  26.884  1.00  0.00    -0.327 N 
ATOM     12  H   UNL A   1      33.229  21.241  27.492  1.00  0.00     0.347 HD
ATOM     13  H   UNL A   1      34.266  22.453  27.057  1.00  0.00     0.347 HD
BRANCH   6  14
ATOM     14  C   UNL A   1      31.305  24.112  24.060  1.00  0.00     0.323 C 
BRANCH  14  15
ATOM     15  C   UNL A   1      31.182  25.307  23.174  1.00  0.00     0.132 A 
ATOM     16  C   UNL A   1      30.592  27.320  22.651  1.00  0.00     0.107 A 
ATOM     17  N   UNL A   1      30.325  26.344  23.497  1.00  0.00    -0.231 NA
ATOM     18  N   UNL A   1      31.465  26.891  21.681  1.00  0.00    -0.333 N 
ATOM     19  C   UNL A   1      31.849  25.631  22.022  1.00  0.00     0.135 A 
ATOM     20  H   UNL A   1      31.758  27.401  20.890  1.00  0.00     0.169 HD
ATOM     21  Cl  UNL A   1      33.036  24.863  21.094  1.00  0.00    -0.062 Cl
BRANCH  16  22
ATOM     22  C   UNL A   1      30.149  28.735  22.794  1.00  0.00     0.075 C 
BRANCH  22  23
ATOM     23  C   UNL A   1      28.650  28.898  23.023  1.00  0.00     0.008 C 
BRANCH  23  24
ATOM     24  C   UNL A   1      28.041  30.193  22.476  1.00  0.00    -0.003 C 
ATOM     25  C   UNL A   1      27.564  31.154  23.555  1.00  0.00     0.004 C 
ENDBRANCH  23  24
ENDBRANCH  22  23
ENDBRANCH  16  22
ENDBRANCH  14  15
ENDBRANCH   6  14
ENDBRANCH   1   5
BRANCH   3  26
ATOM     26  C   UNL A   1      36.308  21.750  25.696  1.00  0.00     0.118 C 
BRANCH  26  27
ATOM     27  C   UNL A   1      37.766  21.668  25.237  1.00  0.00     0.042 C 
BRANCH  27  28
ATOM     28  C   UNL A   1      38.698  22.340  26.234  1.00  0.00     0.118 C 
BRANCH  28  29
ATOM     29  N   UNL A   1      40.110  22.080  25.918  1.00  0.00    -0.352 N 
ATOM     30  C   UNL A   1      41.232  22.867  26.094  1.00  0.00     0.251 C 
ATOM     31  H   UNL A   1      40.284  21.199  25.512  1.00  0.00     0.163 HD
ATOM     32  O   UNL A   1      42.281  22.597  25.542  1.00  0.00    -0.269 OA
BRANCH  30  33
ATOM     33  C   UNL A   1      41.131  24.048  26.964  1.00  0.00     0.039 A 
ATOM     34  C   UNL A   1      41.860  24.136  28.154  1.00  0.00     0.014 A 
ATOM     35  C   UNL A   1      40.324  25.094  26.538  1.00  0.00     0.014 A 
ATOM     36  C   UNL A   1      41.840  25.331  28.865  1.00  0.00     0.010 A 
ATOM     37  C   UNL A   1      40.457  26.320  27.124  1.00  0.00     0.010 A 
ATOM     38  C   UNL A   1      41.150  26.424  28.327  1.00  0.00    -0.014 A 
BRANCH  38  39
ATOM     39  C   UNL A   1      41.207  27.743  28.937  1.00  0.00     0.031 A 
ATOM     40  C   UNL A   1      42.189  28.669  28.315  1.00  0.00     0.074 A 
ATOM     41  C   UNL A   1      40.232  28.168  29.770  1.00  0.00     0.049 A 
ATOM     42  N   UNL A   1      43.254  29.172  28.842  1.00  0.00    -0.248 NA
ATOM     43  C   UNL A   1      42.043  28.957  26.876  1.00  0.00     0.031 C 
ATOM     44  C   UNL A   1      39.004  27.457  30.156  1.00  0.00     0.029 A 
ATOM     45  N   UNL A   1      40.048  29.394  30.322  1.00  0.00    -0.354 N 
ATOM     46  C   UNL A   1      43.792  30.019  27.875  1.00  0.00     0.074 A 
ATOM     47  C   UNL A   1      43.147  29.667  26.636  1.00  0.00     0.031 C 
ATOM     48  C   UNL A   1      38.107  28.339  30.645  1.00  0.00     0.029 A 
ATOM     49  C   UNL A   1      38.754  29.631  30.772  1.00  0.00     0.049 A 
ATOM     50  H   UNL A   1      40.770  30.060  30.398  1.00  0.00     0.167 HD
ATOM     51  C   UNL A   1      44.492  31.135  28.223  1.00  0.00     0.031 A 
ATOM     52  C   UNL A   1      38.239  30.817  31.178  1.00  0.00     0.031 A 
ATOM     53  C   UNL A   1      44.866  31.103  29.618  1.00  0.00     0.049 A 
ATOM     54  C   UNL A   1      39.382  31.717  31.457  1.00  0.00     0.074 A 
ATOM     55  C   UNL A   1      45.593  30.241  30.414  1.00  0.00     0.029 A 
ATOM     56  N   UNL A   1      44.112  31.867  30.478  1.00  0.00    -0.354 N 
ATOM     57  N   UNL A   1      40.221  31.531  32.436  1.00  0.00    -0.248 NA
ATOM     58  C   UNL A   1      39.860  32.566  30.378  1.00  0.00     0.031 C 
ATOM     59  C   UNL A   1      44.886  30.203  31.654  1.00  0.00     0.029 A 
ATOM     60  C   UNL A   1      43.821  31.103  31.576  1.00  0.00     0.049 A 
ATOM     61  H   UNL A   1      43.832  32.799  30.331  1.00  0.00     0.167 HD
ATOM     62  C   UNL A   1      41.461  31.845  31.898  1.00  0.00     0.074 A 
ATOM     63  C   UNL A   1      41.164  32.585  30.672  1.00  0.00     0.031 C 
ATOM     64  C   UNL A   1      42.595  31.219  32.336  1.00  0.00     0.031 A 
BRANCH  51  65
ATOM     65  C   UNL A   1      44.426  32.442  27.453  1.00  0.00    -0.014 A 
ATOM     66  C   UNL A   1      43.750  33.529  28.041  1.00  0.00     0.009 A 
ATOM     67  C   UNL A   1      44.736  32.570  26.085  1.00  0.00     0.009 A 
ATOM     68  C   UNL A   1      43.309  34.618  27.279  1.00  0.00     0.001 A 
ATOM     69  C   UNL A   1      44.336  33.676  25.330  1.00  0.00     0.001 A 
ATOM     70  C   UNL A   1      43.589  34.683  25.919  1.00  0.00     0.000 A 
ENDBRANCH  51  65
BRANCH  52  71
ATOM     71  C   UNL A   1      36.848  31.310  31.108  1.00  0.00    -0.014 A 
ATOM     72  C   UNL A   1      36.208  31.805  32.255  1.00  0.00     0.009 A 
ATOM     73  C   UNL A   1      36.234  31.544  29.863  1.00  0.00     0.009 A 
ATOM     74  C   UNL A   1      35.022  32.546  32.156  1.00  0.00     0.001 A 
ATOM     75  C   UNL A   1      35.048  32.279  29.766  1.00  0.00     0.001 A 
ATOM     76  C   UNL A   1      34.452  32.796  30.911  1.00  0.00     0.000 A 
ENDBRANCH  52  71
BRANCH  64  77
ATOM     77  C   UNL A   1      42.499  30.374  33.584  1.00  0.00    -0.014 A 
ATOM     78  C   UNL A   1      42.738  30.872  34.878  1.00  0.00     0.009 A 
ATOM     79  C   UNL A   1      42.002  29.069  33.459  1.00  0.00     0.009 A 
ATOM     80  C   UNL A   1      42.512  30.076  36.006  1.00  0.00     0.001 A 
ATOM     81  C   UNL A   1      41.756  28.282  34.586  1.00  0.00     0.001 A 
ATOM     82  C   UNL A   1      42.017  28.783  35.859  1.00  0.00     0.000 A 
ENDBRANCH  64  77
ENDBRANCH  38  39
ENDBRANCH  30  33
ENDBRANCH  28  29
ENDBRANCH  27  28
ENDBRANCH  26  27
ENDBRANCH   3  26
TORSDOF 15
ENDMDL
MODEL 3
REMARK VINA RESULT:     -10.6      2.893      7.117
REMARK SMILES CCCCc1nc(C[N@H+]2CC[NH2+][C@H](C(=O)NCCCNC(=O)c3ccc(-c4c5nc(c(-c6ccccc6)c6ccc([nH]6)c(-c6ccccc6)c6nc(c(-c7ccccc7)c7ccc4[nH]7)C=C6)C=C5)cc3)C2)c(Cl)[nH]1
REMARK SMILES IDX 14 1 15 2 16 3 13 5 9 6 10 7 71 8 11 10 12 11 8 14 7 15 5 16
REMARK SMILES IDX 6 17 74 18 72 19 73 21 4 22 3 23 2 24 1 25 17 26 18 27 19 28
REMARK SMILES IDX 20 29 21 30 22 32 23 33 24 34 70 35 25 36 69 37 26 38 27 39
REMARK SMILES IDX 28 40 63 41 29 42 68 43 62 44 64 45 30 46 67 47 61 48 60 49
REMARK SMILES IDX 31 51 53 52 38 53 52 54 39 55 42 56 51 57 65 58 40 59 41 60
REMARK SMILES IDX 50 62 66 63 43 64 32 65 33 66 37 67 34 68 36 69 35 70 54 71
REMARK SMILES IDX 55 72 59 73 56 74 58 75 57 76 44 77 45 78 49 79 46 80 48 81
REMARK SMILES IDX 47 82
REMARK H PARENT 16 4 9 9 12 12 12 13 74 20 20 31 64 50 42 61
REMARK Flexibility Score: inf
ROOT
ATOM      1  C   UNL A   1      35.870  23.092  23.603  1.00  0.00     0.284 C 
ATOM      2  O   UNL A   1      35.785  23.161  22.373  1.00  0.00    -0.268 OA
ATOM      3  N   UNL A   1      37.013  22.533  24.115  1.00  0.00    -0.351 N 
ATOM      4  H   UNL A   1      37.574  22.048  23.469  1.00  0.00     0.163 HD
ENDROOT
BRANCH   1   5
ATOM      5  C   UNL A   1      34.703  23.476  24.535  1.00  0.00     0.328 C 
ATOM      6  N   UNL A   1      32.134  23.624  24.640  1.00  0.00    -0.320 N 
ATOM      7  C   UNL A   1      32.326  24.868  25.399  1.00  0.00     0.324 C 
ATOM      8  C   UNL A   1      33.328  23.245  23.847  1.00  0.00     0.339 C 
ATOM      9  H   UNL A   1      31.411  23.847  23.958  1.00  0.00     0.348 HD
ATOM     10  C   UNL A   1      33.725  25.076  26.014  1.00  0.00     0.323 C 
ATOM     11  N   UNL A   1      34.801  24.876  25.031  1.00  0.00    -0.327 N 
ATOM     12  H   UNL A   1      35.708  25.025  25.474  1.00  0.00     0.347 HD
ATOM     13  H   UNL A   1      34.707  25.536  24.260  1.00  0.00     0.347 HD
BRANCH   6  14
ATOM     14  C   UNL A   1      31.535  22.514  25.402  1.00  0.00     0.323 C 
BRANCH  14  15
ATOM     15  C   UNL A   1      32.382  21.288  25.478  1.00  0.00     0.132 A 
ATOM     16  C   UNL A   1      33.184  19.402  24.792  1.00  0.00     0.107 A 
ATOM     17  N   UNL A   1      32.166  20.222  24.622  1.00  0.00    -0.231 NA
ATOM     18  N   UNL A   1      33.960  19.807  25.851  1.00  0.00    -0.333 N 
ATOM     19  C   UNL A   1      33.464  21.003  26.270  1.00  0.00     0.135 A 
ATOM     20  H   UNL A   1      34.729  19.324  26.233  1.00  0.00     0.169 HD
ATOM     21  Cl  UNL A   1      34.285  21.844  27.486  1.00  0.00    -0.062 Cl
BRANCH  16  22
ATOM     22  C   UNL A   1      33.552  18.279  23.884  1.00  0.00     0.075 C 
BRANCH  22  23
ATOM     23  C   UNL A   1      34.524  17.276  24.495  1.00  0.00     0.008 C 
BRANCH  23  24
ATOM     24  C   UNL A   1      33.963  15.868  24.712  1.00  0.00    -0.003 C 
ATOM     25  C   UNL A   1      32.669  15.836  25.511  1.00  0.00     0.004 C 
ENDBRANCH  23  24
ENDBRANCH  22  23
ENDBRANCH  16  22
ENDBRANCH  14  15
ENDBRANCH   6  14
ENDBRANCH   1   5
BRANCH   3  26
ATOM     26  C   UNL A   1      37.512  22.555  25.481  1.00  0.00     0.118 C 
BRANCH  26  27
ATOM     27  C   UNL A   1      38.676  21.599  25.749  1.00  0.00     0.042 C 
BRANCH  27  28
ATOM     28  C   UNL A   1      39.706  22.225  26.677  1.00  0.00     0.118 C 
BRANCH  28  29
ATOM     29  N   UNL A   1      41.020  22.345  26.028  1.00  0.00    -0.352 N 
ATOM     30  C   UNL A   1      41.875  23.425  25.920  1.00  0.00     0.251 C 
ATOM     31  H   UNL A   1      41.343  21.520  25.600  1.00  0.00     0.163 HD
ATOM     32  O   UNL A   1      42.800  23.416  25.131  1.00  0.00    -0.269 OA
BRANCH  30  33
ATOM     33  C   UNL A   1      41.640  24.595  26.779  1.00  0.00     0.039 A 
ATOM     34  C   UNL A   1      42.274  24.721  28.020  1.00  0.00     0.014 A 
ATOM     35  C   UNL A   1      40.806  25.593  26.294  1.00  0.00     0.014 A 
ATOM     36  C   UNL A   1      42.130  25.911  28.727  1.00  0.00     0.010 A 
ATOM     37  C   UNL A   1      40.823  26.822  26.888  1.00  0.00     0.010 A 
ATOM     38  C   UNL A   1      41.418  26.963  28.138  1.00  0.00    -0.014 A 
BRANCH  38  39
ATOM     39  C   UNL A   1      41.351  28.280  28.751  1.00  0.00     0.031 A 
ATOM     40  C   UNL A   1      42.440  29.206  28.341  1.00  0.00     0.074 A 
ATOM     41  C   UNL A   1      40.228  28.705  29.370  1.00  0.00     0.049 A 
ATOM     42  N   UNL A   1      43.377  29.707  29.075  1.00  0.00    -0.248 NA
ATOM     43  C   UNL A   1      42.588  29.498  26.904  1.00  0.00     0.031 C 
ATOM     44  C   UNL A   1      38.947  27.995  29.498  1.00  0.00     0.029 A 
ATOM     45  N   UNL A   1      39.938  29.931  29.876  1.00  0.00    -0.354 N 
ATOM     46  C   UNL A   1      44.100  30.555  28.238  1.00  0.00     0.074 A 
ATOM     47  C   UNL A   1      43.718  30.206  26.894  1.00  0.00     0.031 C 
ATOM     48  C   UNL A   1      37.971  28.878  29.798  1.00  0.00     0.029 A 
ATOM     49  C   UNL A   1      38.580  30.168  30.056  1.00  0.00     0.049 A 
ATOM     50  H   UNL A   1      40.631  30.595  30.098  1.00  0.00     0.167 HD
ATOM     51  C   UNL A   1      44.716  31.670  28.722  1.00  0.00     0.031 A 
ATOM     52  C   UNL A   1      37.995  31.354  30.352  1.00  0.00     0.031 A 
ATOM     53  C   UNL A   1      44.800  31.635  30.164  1.00  0.00     0.049 A 
ATOM     54  C   UNL A   1      39.058  32.252  30.858  1.00  0.00     0.074 A 
ATOM     55  C   UNL A   1      45.350  30.770  31.089  1.00  0.00     0.029 A 
ATOM     56  N   UNL A   1      43.889  32.398  30.856  1.00  0.00    -0.354 N 
ATOM     57  N   UNL A   1      39.682  32.063  31.986  1.00  0.00    -0.248 NA
ATOM     58  C   UNL A   1      39.746  33.103  29.900  1.00  0.00     0.031 C 
ATOM     59  C   UNL A   1      44.408  30.731  32.160  1.00  0.00     0.029 A 
ATOM     60  C   UNL A   1      43.381  31.632  31.871  1.00  0.00     0.049 A 
ATOM     61  H   UNL A   1      43.645  33.330  30.658  1.00  0.00     0.167 HD
ATOM     62  C   UNL A   1      41.006  32.376  31.711  1.00  0.00     0.074 A 
ATOM     63  C   UNL A   1      40.963  33.120  30.451  1.00  0.00     0.031 C 
ATOM     64  C   UNL A   1      42.027  31.749  32.367  1.00  0.00     0.031 A 
BRANCH  51  65
ATOM     65  C   UNL A   1      44.808  32.978  27.958  1.00  0.00    -0.014 A 
ATOM     66  C   UNL A   1      43.670  33.807  27.916  1.00  0.00     0.009 A 
ATOM     67  C   UNL A   1      45.840  33.294  27.054  1.00  0.00     0.009 A 
ATOM     68  C   UNL A   1      43.529  34.812  26.949  1.00  0.00     0.001 A 
ATOM     69  C   UNL A   1      45.722  34.324  26.116  1.00  0.00     0.001 A 
ATOM     70  C   UNL A   1      44.550  35.059  26.038  1.00  0.00     0.000 A 
ENDBRANCH  51  65
BRANCH  52  71
ATOM     71  C   UNL A   1      36.647  31.849  30.004  1.00  0.00    -0.014 A 
ATOM     72  C   UNL A   1      35.890  32.574  30.937  1.00  0.00     0.009 A 
ATOM     73  C   UNL A   1      36.206  31.841  28.667  1.00  0.00     0.009 A 
ATOM     74  C   UNL A   1      34.760  33.302  30.539  1.00  0.00     0.001 A 
ATOM     75  C   UNL A   1      35.075  32.565  28.271  1.00  0.00     0.001 A 
ATOM     76  C   UNL A   1      34.363  33.310  29.204  1.00  0.00     0.000 A 
ENDBRANCH  52  71
BRANCH  64  77
ATOM     77  C   UNL A   1      41.680  30.901  33.568  1.00  0.00    -0.014 A 
ATOM     78  C   UNL A   1      41.290  29.552  33.479  1.00  0.00     0.009 A 
ATOM     79  C   UNL A   1      41.905  31.441  34.843  1.00  0.00     0.009 A 
ATOM     80  C   UNL A   1      41.102  28.782  34.631  1.00  0.00     0.001 A 
ATOM     81  C   UNL A   1      41.739  30.666  35.992  1.00  0.00     0.001 A 
ATOM     82  C   UNL A   1      41.332  29.338  35.887  1.00  0.00     0.000 A 
ENDBRANCH  64  77
ENDBRANCH  38  39
ENDBRANCH  30  33
ENDBRANCH  28  29
ENDBRANCH  27  28
ENDBRANCH  26  27
ENDBRANCH   3  26
TORSDOF 15
ENDMDL
