MODEL 1
REMARK VINA RESULT:     -10.2      0.000      0.000
REMARK SMILES CCCCCC(=O)N1CCC[C@H](C(=O)NCCCNC(=O)c2ccc(-c3c4nc(c(-c5ccccc5)c5ccc([nH]5)c(-c5ccccc5)c5nc(c(-c6ccccc6)c6ccc3[nH]6)C=C5)C=C4)cc2)C1
REMARK SMILES IDX 13 1 14 2 15 3 12 5 8 6 9 7 70 8 10 9 11 10 6 11 7 12 5 13
REMARK SMILES IDX 4 14 3 15 2 16 1 17 16 18 17 19 18 20 19 21 20 22 21 24
REMARK SMILES IDX 22 25 23 26 69 27 24 28 68 29 25 30 26 31 27 32 62 33 28 34
REMARK SMILES IDX 67 35 61 36 63 37 29 38 66 39 60 40 59 41 30 43 52 44 37 45
REMARK SMILES IDX 51 46 38 47 41 48 50 49 64 50 39 51 40 52 49 54 65 55 42 56
REMARK SMILES IDX 31 57 32 58 36 59 33 60 35 61 34 62 53 63 54 64 58 65 55 66
REMARK SMILES IDX 57 67 56 68 43 69 44 70 48 71 45 72 47 73 46 74
REMARK H PARENT 15 4 19 23 63 42 41 53
REMARK Flexibility Score: inf
ROOT
ATOM      1  C   UNL A   1      34.681  22.538  26.794  1.00  0.00     0.224 C 
ATOM      2  O   UNL A   1      34.409  22.471  27.998  1.00  0.00    -0.275 OA
ATOM      3  N   UNL A   1      35.671  21.722  26.353  1.00  0.00    -0.356 N 
ATOM      4  H   UNL A   1      36.173  21.258  27.062  1.00  0.00     0.163 HD
ENDROOT
BRANCH   1   5
ATOM      5  C   UNL A   1      33.903  23.513  25.898  1.00  0.00     0.098 C 
ATOM      6  N   UNL A   1      32.822  22.497  23.854  1.00  0.00    -0.342 N 
ATOM      7  C   UNL A   1      33.490  23.467  22.982  1.00  0.00     0.119 C 
ATOM      8  C   UNL A   1      32.660  22.912  25.238  1.00  0.00     0.132 C 
ATOM      9  C   UNL A   1      34.825  23.960  23.531  1.00  0.00     0.022 C 
ATOM     10  C   UNL A   1      34.767  24.389  24.991  1.00  0.00     0.017 C 
BRANCH   6  11
ATOM     11  C   UNL A   1      32.521  21.241  23.349  1.00  0.00     0.222 C 
ATOM     12  O   UNL A   1      31.910  21.147  22.276  1.00  0.00    -0.275 OA
BRANCH  11  13
ATOM     13  C   UNL A   1      32.772  19.940  24.126  1.00  0.00     0.100 C 
BRANCH  13  14
ATOM     14  C   UNL A   1      32.508  18.524  23.617  1.00  0.00     0.010 C 
BRANCH  14  15
ATOM     15  C   UNL A   1      33.695  17.587  23.308  1.00  0.00     0.000 C 
BRANCH  15  16
ATOM     16  C   UNL A   1      33.738  16.241  24.031  1.00  0.00    -0.003 C 
ATOM     17  C   UNL A   1      34.914  16.131  24.985  1.00  0.00     0.004 C 
ENDBRANCH  15  16
ENDBRANCH  14  15
ENDBRANCH  13  14
ENDBRANCH  11  13
ENDBRANCH   6  11
ENDBRANCH   1   5
BRANCH   3  18
ATOM     18  C   UNL A   1      36.105  21.425  25.010  1.00  0.00     0.117 C 
BRANCH  18  19
ATOM     19  C   UNL A   1      37.187  20.369  24.929  1.00  0.00     0.042 C 
BRANCH  19  20
ATOM     20  C   UNL A   1      38.471  20.796  25.606  1.00  0.00     0.118 C 
BRANCH  20  21
ATOM     21  N   UNL A   1      39.468  19.729  25.652  1.00  0.00    -0.352 N 
ATOM     22  C   UNL A   1      40.795  19.752  26.021  1.00  0.00     0.251 C 
ATOM     23  H   UNL A   1      39.136  18.846  25.372  1.00  0.00     0.163 HD
ATOM     24  O   UNL A   1      41.489  18.760  25.869  1.00  0.00    -0.269 OA
BRANCH  22  25
ATOM     25  C   UNL A   1      41.388  20.990  26.570  1.00  0.00     0.039 A 
ATOM     26  C   UNL A   1      41.857  21.968  25.688  1.00  0.00     0.014 A 
ATOM     27  C   UNL A   1      41.461  21.199  27.946  1.00  0.00     0.014 A 
ATOM     28  C   UNL A   1      42.318  23.186  26.191  1.00  0.00     0.010 A 
ATOM     29  C   UNL A   1      41.786  22.455  28.435  1.00  0.00     0.010 A 
ATOM     30  C   UNL A   1      42.237  23.458  27.565  1.00  0.00    -0.014 A 
BRANCH  30  31
ATOM     31  C   UNL A   1      42.659  24.761  28.136  1.00  0.00     0.031 A 
ATOM     32  C   UNL A   1      41.632  25.843  28.353  1.00  0.00     0.074 A 
ATOM     33  C   UNL A   1      43.961  24.998  28.389  1.00  0.00     0.049 A 
ATOM     34  N   UNL A   1      41.805  27.081  28.737  1.00  0.00    -0.248 NA
ATOM     35  C   UNL A   1      40.229  25.495  28.068  1.00  0.00     0.031 C 
ATOM     36  C   UNL A   1      45.058  24.048  28.183  1.00  0.00     0.029 A 
ATOM     37  N   UNL A   1      44.585  26.120  28.874  1.00  0.00    -0.354 N 
ATOM     38  C   UNL A   1      40.542  27.659  28.716  1.00  0.00     0.074 A 
ATOM     39  C   UNL A   1      39.624  26.664  28.213  1.00  0.00     0.031 C 
ATOM     40  C   UNL A   1      46.211  24.613  28.578  1.00  0.00     0.029 A 
ATOM     41  C   UNL A   1      45.944  25.978  29.016  1.00  0.00     0.049 A 
ATOM     42  H   UNL A   1      44.103  26.948  29.100  1.00  0.00     0.167 HD
ATOM     43  C   UNL A   1      40.167  28.897  29.115  1.00  0.00     0.031 A 
ATOM     44  C   UNL A   1      46.870  26.855  29.446  1.00  0.00     0.031 A 
ATOM     45  C   UNL A   1      41.075  29.879  29.639  1.00  0.00     0.049 A 
ATOM     46  C   UNL A   1      46.431  28.233  29.859  1.00  0.00     0.074 A 
ATOM     47  C   UNL A   1      40.795  31.150  30.106  1.00  0.00     0.029 A 
ATOM     48  N   UNL A   1      42.442  29.691  29.774  1.00  0.00    -0.354 N 
ATOM     49  N   UNL A   1      45.224  28.746  29.882  1.00  0.00    -0.248 NA
ATOM     50  C   UNL A   1      47.483  29.152  30.317  1.00  0.00     0.031 C 
ATOM     51  C   UNL A   1      42.000  31.748  30.486  1.00  0.00     0.029 A 
ATOM     52  C   UNL A   1      43.021  30.828  30.306  1.00  0.00     0.049 A 
ATOM     53  H   UNL A   1      42.926  28.870  29.528  1.00  0.00     0.167 HD
ATOM     54  C   UNL A   1      45.368  30.031  30.389  1.00  0.00     0.074 A 
ATOM     55  C   UNL A   1      46.777  30.213  30.675  1.00  0.00     0.031 C 
ATOM     56  C   UNL A   1      44.422  30.979  30.597  1.00  0.00     0.031 A 
BRANCH  43  57
ATOM     57  C   UNL A   1      38.707  29.243  29.015  1.00  0.00    -0.014 A 
ATOM     58  C   UNL A   1      38.161  29.732  27.815  1.00  0.00     0.009 A 
ATOM     59  C   UNL A   1      37.861  29.058  30.118  1.00  0.00     0.009 A 
ATOM     60  C   UNL A   1      36.808  30.062  27.734  1.00  0.00     0.001 A 
ATOM     61  C   UNL A   1      36.501  29.358  30.025  1.00  0.00     0.001 A 
ATOM     62  C   UNL A   1      35.978  29.869  28.838  1.00  0.00     0.000 A 
ENDBRANCH  43  57
BRANCH  44  63
ATOM     63  C   UNL A   1      48.304  26.465  29.526  1.00  0.00    -0.014 A 
ATOM     64  C   UNL A   1      48.814  25.870  30.691  1.00  0.00     0.009 A 
ATOM     65  C   UNL A   1      49.178  26.718  28.458  1.00  0.00     0.009 A 
ATOM     66  C   UNL A   1      50.175  25.574  30.800  1.00  0.00     0.001 A 
ATOM     67  C   UNL A   1      50.532  26.391  28.557  1.00  0.00     0.001 A 
ATOM     68  C   UNL A   1      51.033  25.834  29.732  1.00  0.00     0.000 A 
ENDBRANCH  44  63
BRANCH  56  69
ATOM     69  C   UNL A   1      44.873  32.275  31.208  1.00  0.00    -0.014 A 
ATOM     70  C   UNL A   1      44.931  32.446  32.600  1.00  0.00     0.009 A 
ATOM     71  C   UNL A   1      45.286  33.325  30.373  1.00  0.00     0.009 A 
ATOM     72  C   UNL A   1      45.362  33.657  33.142  1.00  0.00     0.001 A 
ATOM     73  C   UNL A   1      45.747  34.523  30.919  1.00  0.00     0.001 A 
ATOM     74  C   UNL A   1      45.775  34.692  32.302  1.00  0.00     0.000 A 
ENDBRANCH  56  69
ENDBRANCH  30  31
ENDBRANCH  22  25
ENDBRANCH  20  21
ENDBRANCH  19  20
ENDBRANCH  18  19
ENDBRANCH   3  18
TORSDOF 15
ENDMDL
MODEL 2
REMARK VINA RESULT:     -10.1      1.509      3.082
REMARK SMILES CCCCCC(=O)N1CCC[C@H](C(=O)NCCCNC(=O)c2ccc(-c3c4nc(c(-c5ccccc5)c5ccc([nH]5)c(-c5ccccc5)c5nc(c(-c6ccccc6)c6ccc3[nH]6)C=C5)C=C4)cc2)C1
REMARK SMILES IDX 13 1 14 2 15 3 12 5 8 6 9 7 70 8 10 9 11 10 6 11 7 12 5 13
REMARK SMILES IDX 4 14 3 15 2 16 1 17 16 18 17 19 18 20 19 21 20 22 21 24
REMARK SMILES IDX 22 25 23 26 69 27 24 28 68 29 25 30 26 31 27 32 62 33 28 34
REMARK SMILES IDX 67 35 61 36 63 37 29 38 66 39 60 40 59 41 30 43 52 44 37 45
REMARK SMILES IDX 51 46 38 47 41 48 50 49 64 50 39 51 40 52 49 54 65 55 42 56
REMARK SMILES IDX 31 57 32 58 36 59 33 60 35 61 34 62 53 63 54 64 58 65 55 66
REMARK SMILES IDX 57 67 56 68 43 69 44 70 48 71 45 72 47 73 46 74
REMARK H PARENT 15 4 19 23 63 42 41 53
REMARK Flexibility Score: inf
ROOT
ATOM      1  C   UNL A   1      34.853  22.920  25.326  1.00  0.00     0.224 C 
ATOM      2  O   UNL A   1      34.523  23.514  26.360  1.00  0.00    -0.275 OA
ATOM      3  N   UNL A   1      36.178  22.675  25.169  1.00  0.00    -0.356 N 
ATOM      4  H   UNL A   1      36.763  23.118  25.826  1.00  0.00     0.163 HD
ENDROOT
BRANCH   1   5
ATOM      5  C   UNL A   1      33.772  22.510  24.314  1.00  0.00     0.098 C 
ATOM      6  N   UNL A   1      32.807  24.384  22.924  1.00  0.00    -0.342 N 
ATOM      7  C   UNL A   1      31.446  24.024  23.330  1.00  0.00     0.119 C 
ATOM      8  C   UNL A   1      33.787  23.315  23.012  1.00  0.00     0.132 C 
ATOM      9  C   UNL A   1      31.374  23.372  24.707  1.00  0.00     0.022 C 
ATOM     10  C   UNL A   1      32.389  22.255  24.911  1.00  0.00     0.017 C 
BRANCH   6  11
ATOM     11  C   UNL A   1      33.085  25.708  22.622  1.00  0.00     0.222 C 
ATOM     12  O   UNL A   1      33.642  25.984  21.549  1.00  0.00    -0.275 OA
BRANCH  11  13
ATOM     13  C   UNL A   1      32.880  26.860  23.618  1.00  0.00     0.100 C 
BRANCH  13  14
ATOM     14  C   UNL A   1      33.518  26.978  25.001  1.00  0.00     0.010 C 
BRANCH  14  15
ATOM     15  C   UNL A   1      32.731  26.526  26.249  1.00  0.00     0.000 C 
BRANCH  15  16
ATOM     16  C   UNL A   1      31.450  27.288  26.591  1.00  0.00    -0.003 C 
ATOM     17  C   UNL A   1      31.720  28.547  27.395  1.00  0.00     0.004 C 
ENDBRANCH  15  16
ENDBRANCH  14  15
ENDBRANCH  13  14
ENDBRANCH  11  13
ENDBRANCH   6  11
ENDBRANCH   1   5
BRANCH   3  18
ATOM     18  C   UNL A   1      36.865  21.866  24.193  1.00  0.00     0.117 C 
BRANCH  18  19
ATOM     19  C   UNL A   1      37.453  20.587  24.754  1.00  0.00     0.042 C 
BRANCH  19  20
ATOM     20  C   UNL A   1      38.571  20.843  25.739  1.00  0.00     0.118 C 
BRANCH  20  21
ATOM     21  N   UNL A   1      39.594  19.799  25.717  1.00  0.00    -0.352 N 
ATOM     22  C   UNL A   1      40.933  19.843  26.038  1.00  0.00     0.251 C 
ATOM     23  H   UNL A   1      39.272  18.918  25.421  1.00  0.00     0.163 HD
ATOM     24  O   UNL A   1      41.644  18.873  25.830  1.00  0.00    -0.269 OA
BRANCH  22  25
ATOM     25  C   UNL A   1      41.516  21.079  26.603  1.00  0.00     0.039 A 
ATOM     26  C   UNL A   1      42.033  22.045  25.736  1.00  0.00     0.014 A 
ATOM     27  C   UNL A   1      41.534  21.296  27.980  1.00  0.00     0.014 A 
ATOM     28  C   UNL A   1      42.487  23.261  26.250  1.00  0.00     0.010 A 
ATOM     29  C   UNL A   1      41.853  22.552  28.474  1.00  0.00     0.010 A 
ATOM     30  C   UNL A   1      42.352  23.543  27.618  1.00  0.00    -0.014 A 
BRANCH  30  31
ATOM     31  C   UNL A   1      42.765  24.845  28.198  1.00  0.00     0.031 A 
ATOM     32  C   UNL A   1      41.731  25.919  28.420  1.00  0.00     0.074 A 
ATOM     33  C   UNL A   1      44.065  25.088  28.455  1.00  0.00     0.049 A 
ATOM     34  N   UNL A   1      41.895  27.156  28.811  1.00  0.00    -0.248 NA
ATOM     35  C   UNL A   1      40.330  25.565  28.129  1.00  0.00     0.031 C 
ATOM     36  C   UNL A   1      45.168  24.147  28.245  1.00  0.00     0.029 A 
ATOM     37  N   UNL A   1      44.681  26.211  28.948  1.00  0.00    -0.354 N 
ATOM     38  C   UNL A   1      40.628  27.726  28.792  1.00  0.00     0.074 A 
ATOM     39  C   UNL A   1      39.718  26.728  28.281  1.00  0.00     0.031 C 
ATOM     40  C   UNL A   1      46.316  24.716  28.646  1.00  0.00     0.029 A 
ATOM     41  C   UNL A   1      46.041  26.077  29.092  1.00  0.00     0.049 A 
ATOM     42  H   UNL A   1      44.193  27.035  29.178  1.00  0.00     0.167 HD
ATOM     43  C   UNL A   1      40.245  28.959  29.198  1.00  0.00     0.031 A 
ATOM     44  C   UNL A   1      46.960  26.957  29.529  1.00  0.00     0.031 A 
ATOM     45  C   UNL A   1      41.146  29.944  29.730  1.00  0.00     0.049 A 
ATOM     46  C   UNL A   1      46.512  28.330  29.951  1.00  0.00     0.074 A 
ATOM     47  C   UNL A   1      40.857  31.210  30.204  1.00  0.00     0.029 A 
ATOM     48  N   UNL A   1      42.514  29.763  29.866  1.00  0.00    -0.354 N 
ATOM     49  N   UNL A   1      45.301  28.834  29.974  1.00  0.00    -0.248 NA
ATOM     50  C   UNL A   1      47.558  29.252  30.416  1.00  0.00     0.031 C 
ATOM     51  C   UNL A   1      42.058  31.813  30.591  1.00  0.00     0.029 A 
ATOM     52  C   UNL A   1      43.085  30.901  30.407  1.00  0.00     0.049 A 
ATOM     53  H   UNL A   1      43.004  28.947  29.616  1.00  0.00     0.167 HD
ATOM     54  C   UNL A   1      45.437  30.117  30.489  1.00  0.00     0.074 A 
ATOM     55  C   UNL A   1      46.844  30.306  30.780  1.00  0.00     0.031 C 
ATOM     56  C   UNL A   1      44.485  31.058  30.701  1.00  0.00     0.031 A 
BRANCH  43  57
ATOM     57  C   UNL A   1      38.783  29.297  29.097  1.00  0.00    -0.014 A 
ATOM     58  C   UNL A   1      37.924  29.126  30.195  1.00  0.00     0.009 A 
ATOM     59  C   UNL A   1      38.262  29.816  27.903  1.00  0.00     0.009 A 
ATOM     60  C   UNL A   1      36.566  29.431  30.088  1.00  0.00     0.001 A 
ATOM     61  C   UNL A   1      36.910  30.152  27.808  1.00  0.00     0.001 A 
ATOM     62  C   UNL A   1      36.062  29.950  28.896  1.00  0.00     0.000 A 
ENDBRANCH  43  57
BRANCH  44  63
ATOM     63  C   UNL A   1      48.396  26.575  29.610  1.00  0.00    -0.014 A 
ATOM     64  C   UNL A   1      48.905  25.962  30.766  1.00  0.00     0.009 A 
ATOM     65  C   UNL A   1      49.274  26.853  28.551  1.00  0.00     0.009 A 
ATOM     66  C   UNL A   1      50.267  25.674  30.877  1.00  0.00     0.001 A 
ATOM     67  C   UNL A   1      50.630  26.534  28.651  1.00  0.00     0.001 A 
ATOM     68  C   UNL A   1      51.129  25.959  29.819  1.00  0.00     0.000 A 
ENDBRANCH  44  63
BRANCH  56  69
ATOM     69  C   UNL A   1      44.926  32.353  31.322  1.00  0.00    -0.014 A 
ATOM     70  C   UNL A   1      45.235  33.473  30.535  1.00  0.00     0.009 A 
ATOM     71  C   UNL A   1      44.991  32.462  32.720  1.00  0.00     0.009 A 
ATOM     72  C   UNL A   1      45.633  34.667  31.136  1.00  0.00     0.001 A 
ATOM     73  C   UNL A   1      45.358  33.666  33.319  1.00  0.00     0.001 A 
ATOM     74  C   UNL A   1      45.689  34.765  32.528  1.00  0.00     0.000 A 
ENDBRANCH  56  69
ENDBRANCH  30  31
ENDBRANCH  22  25
ENDBRANCH  20  21
ENDBRANCH  19  20
ENDBRANCH  18  19
ENDBRANCH   3  18
TORSDOF 15
ENDMDL
MODEL 3
REMARK VINA RESULT:     -10.1      0.496      6.142
REMARK SMILES CCCCCC(=O)N1CCC[C@H](C(=O)NCCCNC(=O)c2ccc(-c3c4nc(c(-c5ccccc5)c5ccc([nH]5)c(-c5ccccc5)c5nc(c(-c6ccccc6)c6ccc3[nH]6)C=C5)C=C4)cc2)C1
REMARK SMILES IDX 13 1 14 2 15 3 12 5 8 6 9 7 70 8 10 9 11 10 6 11 7 12 5 13
REMARK SMILES IDX 4 14 3 15 2 16 1 17 16 18 17 19 18 20 19 21 20 22 21 24
REMARK SMILES IDX 22 25 23 26 69 27 24 28 68 29 25 30 26 31 27 32 62 33 28 34
REMARK SMILES IDX 67 35 61 36 63 37 29 38 66 39 60 40 59 41 30 43 52 44 37 45
REMARK SMILES IDX 51 46 38 47 41 48 50 49 64 50 39 51 40 52 49 54 65 55 42 56
REMARK SMILES IDX 31 57 32 58 36 59 33 60 35 61 34 62 53 63 54 64 58 65 55 66
REMARK SMILES IDX 57 67 56 68 43 69 44 70 48 71 45 72 47 73 46 74
REMARK H PARENT 15 4 19 23 63 42 41 53
REMARK Flexibility Score: inf
ROOT
ATOM      1  C   UNL A   1      34.770  22.047  26.687  1.00  0.00     0.224 C 
ATOM      2  O   UNL A   1      34.370  21.930  27.850  1.00  0.00    -0.275 OA
ATOM      3  N   UNL A   1      35.697  21.145  26.273  1.00  0.00    -0.356 N 
ATOM      4  H   UNL A   1      36.064  20.573  26.985  1.00  0.00     0.163 HD
ENDROOT
BRANCH   1   5
ATOM      5  C   UNL A   1      34.209  23.174  25.806  1.00  0.00     0.098 C 
ATOM      6  N   UNL A   1      33.001  22.432  23.716  1.00  0.00    -0.342 N 
ATOM      7  C   UNL A   1      33.858  23.279  22.884  1.00  0.00     0.119 C 
ATOM      8  C   UNL A   1      32.890  22.834  25.109  1.00  0.00     0.132 C 
ATOM      9  C   UNL A   1      35.250  23.498  23.469  1.00  0.00     0.022 C 
ATOM     10  C   UNL A   1      35.242  23.894  24.940  1.00  0.00     0.017 C 
BRANCH   6  11
ATOM     11  C   UNL A   1      32.480  21.268  23.171  1.00  0.00     0.222 C 
ATOM     12  O   UNL A   1      32.086  21.270  21.996  1.00  0.00    -0.275 OA
BRANCH  11  13
ATOM     13  C   UNL A   1      32.219  19.996  23.993  1.00  0.00     0.100 C 
BRANCH  13  14
ATOM     14  C   UNL A   1      33.284  19.084  24.601  1.00  0.00     0.010 C 
BRANCH  14  15
ATOM     15  C   UNL A   1      32.865  17.756  25.267  1.00  0.00     0.000 C 
BRANCH  15  16
ATOM     16  C   UNL A   1      33.480  16.468  24.720  1.00  0.00    -0.003 C 
ATOM     17  C   UNL A   1      34.063  16.646  23.330  1.00  0.00     0.004 C 
ENDBRANCH  15  16
ENDBRANCH  14  15
ENDBRANCH  13  14
ENDBRANCH  11  13
ENDBRANCH   6  11
ENDBRANCH   1   5
BRANCH   3  18
ATOM     18  C   UNL A   1      36.227  20.893  24.956  1.00  0.00     0.117 C 
BRANCH  18  19
ATOM     19  C   UNL A   1      37.385  19.917  24.933  1.00  0.00     0.042 C 
BRANCH  19  20
ATOM     20  C   UNL A   1      38.603  20.440  25.662  1.00  0.00     0.118 C 
BRANCH  20  21
ATOM     21  N   UNL A   1      39.697  19.472  25.701  1.00  0.00    -0.352 N 
ATOM     22  C   UNL A   1      41.023  19.625  26.042  1.00  0.00     0.251 C 
ATOM     23  H   UNL A   1      39.445  18.558  25.438  1.00  0.00     0.163 HD
ATOM     24  O   UNL A   1      41.805  18.701  25.888  1.00  0.00    -0.269 OA
BRANCH  22  25
ATOM     25  C   UNL A   1      41.506  20.922  26.564  1.00  0.00     0.039 A 
ATOM     26  C   UNL A   1      42.015  21.867  25.670  1.00  0.00     0.014 A 
ATOM     27  C   UNL A   1      41.438  21.215  27.925  1.00  0.00     0.014 A 
ATOM     28  C   UNL A   1      42.372  23.134  26.135  1.00  0.00     0.010 A 
ATOM     29  C   UNL A   1      41.660  22.512  28.361  1.00  0.00     0.010 A 
ATOM     30  C   UNL A   1      42.149  23.482  27.476  1.00  0.00    -0.014 A 
BRANCH  30  31
ATOM     31  C   UNL A   1      42.457  24.836  28.000  1.00  0.00     0.031 A 
ATOM     32  C   UNL A   1      43.869  25.168  28.410  1.00  0.00     0.074 A 
ATOM     33  C   UNL A   1      41.469  25.735  28.173  1.00  0.00     0.049 A 
ATOM     34  N   UNL A   1      44.329  26.248  28.989  1.00  0.00    -0.248 NA
ATOM     35  C   UNL A   1      44.893  24.136  28.171  1.00  0.00     0.031 C 
ATOM     36  C   UNL A   1      40.054  25.521  27.853  1.00  0.00     0.029 A 
ATOM     37  N   UNL A   1      41.504  27.014  28.668  1.00  0.00    -0.354 N 
ATOM     38  C   UNL A   1      45.682  26.012  29.198  1.00  0.00     0.074 A 
ATOM     39  C   UNL A   1      45.955  24.665  28.757  1.00  0.00     0.031 C 
ATOM     40  C   UNL A   1      39.367  26.644  28.121  1.00  0.00     0.029 A 
ATOM     41  C   UNL A   1      40.279  27.636  28.677  1.00  0.00     0.049 A 
ATOM     42  H   UNL A   1      42.330  27.445  28.985  1.00  0.00     0.167 HD
ATOM     43  C   UNL A   1      46.626  26.854  29.681  1.00  0.00     0.031 A 
ATOM     44  C   UNL A   1      39.932  28.869  29.093  1.00  0.00     0.031 A 
ATOM     45  C   UNL A   1      46.360  28.203  30.098  1.00  0.00     0.049 A 
ATOM     46  C   UNL A   1      40.996  29.775  29.650  1.00  0.00     0.074 A 
ATOM     47  C   UNL A   1      47.249  29.151  30.568  1.00  0.00     0.029 A 
ATOM     48  N   UNL A   1      45.107  28.796  30.082  1.00  0.00    -0.354 N 
ATOM     49  N   UNL A   1      42.281  29.554  29.793  1.00  0.00    -0.248 NA
ATOM     50  C   UNL A   1      40.561  31.108  30.093  1.00  0.00     0.031 C 
ATOM     51  C   UNL A   1      46.527  30.308  30.875  1.00  0.00     0.029 A 
ATOM     52  C   UNL A   1      45.198  30.096  30.545  1.00  0.00     0.049 A 
ATOM     53  H   UNL A   1      44.277  28.357  29.783  1.00  0.00     0.167 HD
ATOM     54  C   UNL A   1      42.811  30.729  30.309  1.00  0.00     0.074 A 
ATOM     55  C   UNL A   1      41.713  31.665  30.437  1.00  0.00     0.031 C 
ATOM     56  C   UNL A   1      44.093  31.011  30.649  1.00  0.00     0.031 A 
BRANCH  43  57
ATOM     57  C   UNL A   1      48.035  26.337  29.764  1.00  0.00    -0.014 A 
ATOM     58  C   UNL A   1      48.909  26.440  28.668  1.00  0.00     0.009 A 
ATOM     59  C   UNL A   1      48.506  25.764  30.954  1.00  0.00     0.009 A 
ATOM     60  C   UNL A   1      50.212  25.947  28.751  1.00  0.00     0.001 A 
ATOM     61  C   UNL A   1      49.821  25.300  31.045  1.00  0.00     0.001 A 
ATOM     62  C   UNL A   1      50.668  25.383  29.942  1.00  0.00     0.000 A 
ENDBRANCH  43  57
BRANCH  44  63
ATOM     63  C   UNL A   1      38.522  29.334  28.992  1.00  0.00    -0.014 A 
ATOM     64  C   UNL A   1      37.674  29.282  30.110  1.00  0.00     0.009 A 
ATOM     65  C   UNL A   1      38.004  29.795  27.772  1.00  0.00     0.009 A 
ATOM     66  C   UNL A   1      36.330  29.643  29.998  1.00  0.00     0.001 A 
ATOM     67  C   UNL A   1      36.667  30.186  27.672  1.00  0.00     0.001 A 
ATOM     68  C   UNL A   1      35.827  30.096  28.780  1.00  0.00     0.000 A 
ENDBRANCH  44  63
BRANCH  56  69
ATOM     69  C   UNL A   1      44.381  32.401  31.142  1.00  0.00    -0.014 A 
ATOM     70  C   UNL A   1      44.697  33.440  30.255  1.00  0.00     0.009 A 
ATOM     71  C   UNL A   1      44.293  32.678  32.516  1.00  0.00     0.009 A 
ATOM     72  C   UNL A   1      44.951  34.725  30.738  1.00  0.00     0.001 A 
ATOM     73  C   UNL A   1      44.516  33.969  32.993  1.00  0.00     0.001 A 
ATOM     74  C   UNL A   1      44.855  34.989  32.105  1.00  0.00     0.000 A 
ENDBRANCH  56  69
ENDBRANCH  30  31
ENDBRANCH  22  25
ENDBRANCH  20  21
ENDBRANCH  19  20
ENDBRANCH  18  19
ENDBRANCH   3  18
TORSDOF 15
ENDMDL
