MODEL 1
REMARK VINA RESULT:     -11.1      0.000      0.000
REMARK SMILES Cn1cc(S(=O)(=O)N[C@@H]2C=C[C@@H](C(=O)NCCCNC(=O)c3ccc(-c4c5nc(c(-c6ccccc6)c6ccc([nH]6)c(-c6ccccc6)c6nc(c(-c7ccccc7)c7ccc4[nH]7)C=C6)C=C5)cc3)C2)cc1C(N)=O
REMARK SMILES IDX 16 1 15 2 13 3 14 4 12 6 9 7 10 8 70 9 11 10 8 11 5 13 6 14
REMARK SMILES IDX 7 15 4 16 1 17 2 18 3 19 72 20 71 21 73 22 74 23 75 24 17 27
REMARK SMILES IDX 18 28 19 29 20 30 21 32 22 33 23 34 69 35 24 36 68 37 25 38
REMARK SMILES IDX 26 39 27 40 62 41 28 42 67 43 61 44 63 45 29 46 66 47 60 48
REMARK SMILES IDX 59 49 30 51 52 52 37 53 51 54 38 55 41 56 50 57 64 58 39 59
REMARK SMILES IDX 40 60 49 62 65 63 42 64 31 65 32 66 36 67 33 68 35 69 34 70
REMARK SMILES IDX 53 71 54 72 58 73 55 74 57 75 56 76 43 77 44 78 48 79 45 80
REMARK SMILES IDX 47 81 46 82
REMARK H PARENT 15 5 8 12 74 25 74 26 19 31 63 50 41 61
REMARK Flexibility Score: inf
ROOT
ATOM      1  C   UNL A   1      33.464  34.219  27.978  1.00  0.00     0.117 C 
ENDROOT
BRANCH   1   2
ATOM      2  N   UNL A   1      34.865  33.828  27.971  1.00  0.00    -0.356 N 
ATOM      3  C   UNL A   1      35.461  32.604  28.039  1.00  0.00     0.226 C 
ATOM      4  O   UNL A   1      36.694  32.575  27.992  1.00  0.00    -0.274 OA
ATOM      5  H   UNL A   1      35.496  34.582  27.906  1.00  0.00     0.163 HD
BRANCH   3   6
ATOM      6  C   UNL A   1      34.667  31.306  28.194  1.00  0.00     0.103 C 
ATOM      7  C   UNL A   1      33.785  29.561  26.692  1.00  0.00     0.093 C 
ATOM      8  C   UNL A   1      35.083  29.178  27.322  1.00  0.00    -0.011 C 
ATOM      9  C   UNL A   1      33.679  31.056  27.046  1.00  0.00     0.042 C 
ATOM     10  C   UNL A   1      35.536  30.090  28.189  1.00  0.00    -0.016 C 
BRANCH   7  11
ATOM     11  N   UNL A   1      32.680  28.827  27.330  1.00  0.00    -0.204 NA
ATOM     12  H   UNL A   1      32.948  28.656  28.300  1.00  0.00     0.142 HD
BRANCH  11  13
ATOM     13  S   UNL A   1      32.231  27.339  26.661  1.00  0.00     0.242 S 
ATOM     14  O   UNL A   1      30.982  26.936  27.268  1.00  0.00    -0.207 OA
ATOM     15  O   UNL A   1      33.407  26.501  26.677  1.00  0.00    -0.207 OA
BRANCH  13  16
ATOM     16  C   UNL A   1      31.876  27.556  24.986  1.00  0.00     0.100 A 
ATOM     17  C   UNL A   1      31.486  26.472  21.563  1.00  0.00     0.150 C 
ATOM     18  N   UNL A   1      31.489  27.171  22.832  1.00  0.00    -0.345 N 
ATOM     19  C   UNL A   1      32.025  26.631  23.979  1.00  0.00     0.107 A 
ATOM     20  C   UNL A   1      30.923  28.407  23.105  1.00  0.00     0.107 A 
ATOM     21  C   UNL A   1      31.294  28.710  24.412  1.00  0.00     0.055 A 
BRANCH  20  22
ATOM     22  C   UNL A   1      30.105  29.185  22.196  1.00  0.00     0.265 C 
ATOM     23  N   UNL A   1      30.746  30.221  21.577  1.00  0.00    -0.364 N 
ATOM     24  O   UNL A   1      28.908  29.013  21.995  1.00  0.00    -0.268 OA
ATOM     25  H   UNL A   1      31.707  30.369  21.733  1.00  0.00     0.160 HD
ATOM     26  H   UNL A   1      30.246  30.820  20.977  1.00  0.00     0.160 HD
ENDBRANCH  20  22
ENDBRANCH  13  16
ENDBRANCH  11  13
ENDBRANCH   7  11
ENDBRANCH   3   6
ENDBRANCH   1   2
BRANCH   1  27
ATOM     27  C   UNL A   1      32.984  34.616  29.363  1.00  0.00     0.042 C 
BRANCH  27  28
ATOM     28  C   UNL A   1      33.291  36.064  29.702  1.00  0.00     0.118 C 
BRANCH  28  29
ATOM     29  N   UNL A   1      32.564  36.520  30.880  1.00  0.00    -0.352 N 
ATOM     30  C   UNL A   1      32.699  36.148  32.195  1.00  0.00     0.251 C 
ATOM     31  H   UNL A   1      31.871  37.198  30.706  1.00  0.00     0.163 HD
ATOM     32  O   UNL A   1      31.856  36.487  33.019  1.00  0.00    -0.269 OA
BRANCH  30  33
ATOM     33  C   UNL A   1      33.852  35.324  32.613  1.00  0.00     0.039 A 
ATOM     34  C   UNL A   1      33.636  34.005  33.019  1.00  0.00     0.014 A 
ATOM     35  C   UNL A   1      35.142  35.857  32.616  1.00  0.00     0.014 A 
ATOM     36  C   UNL A   1      34.725  33.199  33.360  1.00  0.00     0.010 A 
ATOM     37  C   UNL A   1      36.230  35.033  32.870  1.00  0.00     0.010 A 
ATOM     38  C   UNL A   1      36.032  33.698  33.254  1.00  0.00    -0.014 A 
BRANCH  38  39
ATOM     39  C   UNL A   1      37.218  32.868  33.575  1.00  0.00     0.031 A 
ATOM     40  C   UNL A   1      37.945  33.089  34.873  1.00  0.00     0.074 A 
ATOM     41  C   UNL A   1      37.692  31.988  32.674  1.00  0.00     0.049 A 
ATOM     42  N   UNL A   1      39.088  32.596  35.274  1.00  0.00    -0.248 NA
ATOM     43  C   UNL A   1      37.318  34.014  35.832  1.00  0.00     0.031 C 
ATOM     44  C   UNL A   1      37.096  31.697  31.368  1.00  0.00     0.029 A 
ATOM     45  N   UNL A   1      38.801  31.181  32.719  1.00  0.00    -0.354 N 
ATOM     46  C   UNL A   1      39.331  33.176  36.513  1.00  0.00     0.074 A 
ATOM     47  C   UNL A   1      38.239  34.086  36.780  1.00  0.00     0.031 C 
ATOM     48  C   UNL A   1      37.833  30.761  30.747  1.00  0.00     0.029 A 
ATOM     49  C   UNL A   1      38.974  30.420  31.589  1.00  0.00     0.049 A 
ATOM     50  H   UNL A   1      39.416  31.152  33.488  1.00  0.00     0.167 HD
ATOM     51  C   UNL A   1      40.363  32.961  37.362  1.00  0.00     0.031 A 
ATOM     52  C   UNL A   1      39.950  29.551  31.266  1.00  0.00     0.031 A 
ATOM     53  C   UNL A   1      41.432  32.032  37.116  1.00  0.00     0.049 A 
ATOM     54  C   UNL A   1      41.078  29.318  32.231  1.00  0.00     0.074 A 
ATOM     55  C   UNL A   1      42.506  31.717  37.929  1.00  0.00     0.029 A 
ATOM     56  N   UNL A   1      41.547  31.255  35.976  1.00  0.00    -0.354 N 
ATOM     57  N   UNL A   1      41.286  29.866  33.404  1.00  0.00    -0.248 NA
ATOM     58  C   UNL A   1      42.101  28.343  31.830  1.00  0.00     0.031 C 
ATOM     59  C   UNL A   1      43.284  30.758  37.269  1.00  0.00     0.029 A 
ATOM     60  C   UNL A   1      42.673  30.457  36.063  1.00  0.00     0.049 A 
ATOM     61  H   UNL A   1      40.921  31.268  35.215  1.00  0.00     0.167 HD
ATOM     62  C   UNL A   1      42.447  29.281  33.892  1.00  0.00     0.074 A 
ATOM     63  C   UNL A   1      42.894  28.333  32.893  1.00  0.00     0.031 C 
ATOM     64  C   UNL A   1      43.088  29.509  35.064  1.00  0.00     0.031 A 
BRANCH  51  65
ATOM     65  C   UNL A   1      40.374  33.746  38.641  1.00  0.00    -0.014 A 
ATOM     66  C   UNL A   1      41.012  34.995  38.717  1.00  0.00     0.009 A 
ATOM     67  C   UNL A   1      39.728  33.241  39.779  1.00  0.00     0.009 A 
ATOM     68  C   UNL A   1      41.031  35.706  39.918  1.00  0.00     0.001 A 
ATOM     69  C   UNL A   1      39.727  33.966  40.972  1.00  0.00     0.001 A 
ATOM     70  C   UNL A   1      40.386  35.193  41.042  1.00  0.00     0.000 A 
ENDBRANCH  51  65
BRANCH  52  71
ATOM     71  C   UNL A   1      39.901  28.819  29.976  1.00  0.00    -0.014 A 
ATOM     72  C   UNL A   1      40.381  29.424  28.804  1.00  0.00     0.009 A 
ATOM     73  C   UNL A   1      39.364  27.526  29.904  1.00  0.00     0.009 A 
ATOM     74  C   UNL A   1      40.299  28.758  27.579  1.00  0.00     0.001 A 
ATOM     75  C   UNL A   1      39.304  26.852  28.681  1.00  0.00     0.001 A 
ATOM     76  C   UNL A   1      39.763  27.473  27.520  1.00  0.00     0.000 A 
ENDBRANCH  52  71
BRANCH  64  77
ATOM     77  C   UNL A   1      44.308  28.684  35.347  1.00  0.00    -0.014 A 
ATOM     78  C   UNL A   1      45.585  29.129  34.980  1.00  0.00     0.009 A 
ATOM     79  C   UNL A   1      44.174  27.465  36.029  1.00  0.00     0.009 A 
ATOM     80  C   UNL A   1      46.709  28.354  35.270  1.00  0.00     0.001 A 
ATOM     81  C   UNL A   1      45.301  26.703  36.335  1.00  0.00     0.001 A 
ATOM     82  C   UNL A   1      46.566  27.144  35.951  1.00  0.00     0.000 A 
ENDBRANCH  64  77
ENDBRANCH  38  39
ENDBRANCH  30  33
ENDBRANCH  28  29
ENDBRANCH  27  28
ENDBRANCH   1  27
TORSDOF 14
ENDMDL
MODEL 2
REMARK VINA RESULT:     -11.0      5.471     10.558
REMARK SMILES Cn1cc(S(=O)(=O)N[C@@H]2C=C[C@@H](C(=O)NCCCNC(=O)c3ccc(-c4c5nc(c(-c6ccccc6)c6ccc([nH]6)c(-c6ccccc6)c6nc(c(-c7ccccc7)c7ccc4[nH]7)C=C6)C=C5)cc3)C2)cc1C(N)=O
REMARK SMILES IDX 16 1 15 2 13 3 14 4 12 6 9 7 10 8 70 9 11 10 8 11 5 13 6 14
REMARK SMILES IDX 7 15 4 16 1 17 2 18 3 19 72 20 71 21 73 22 74 23 75 24 17 27
REMARK SMILES IDX 18 28 19 29 20 30 21 32 22 33 23 34 69 35 24 36 68 37 25 38
REMARK SMILES IDX 26 39 27 40 62 41 28 42 67 43 61 44 63 45 29 46 66 47 60 48
REMARK SMILES IDX 59 49 30 51 52 52 37 53 51 54 38 55 41 56 50 57 64 58 39 59
REMARK SMILES IDX 40 60 49 62 65 63 42 64 31 65 32 66 36 67 33 68 35 69 34 70
REMARK SMILES IDX 53 71 54 72 58 73 55 74 57 75 56 76 43 77 44 78 48 79 45 80
REMARK SMILES IDX 47 81 46 82
REMARK H PARENT 15 5 8 12 74 25 74 26 19 31 63 50 41 61
REMARK Flexibility Score: inf
ROOT
ATOM      1  C   UNL A   1      35.974  20.232  25.038  1.00  0.00     0.117 C 
ENDROOT
BRANCH   1   2
ATOM      2  N   UNL A   1      35.477  18.893  24.762  1.00  0.00    -0.356 N 
ATOM      3  C   UNL A   1      34.208  18.410  24.642  1.00  0.00     0.226 C 
ATOM      4  O   UNL A   1      34.087  17.209  24.380  1.00  0.00    -0.274 OA
ATOM      5  H   UNL A   1      36.181  18.216  24.641  1.00  0.00     0.163 HD
BRANCH   3   6
ATOM      6  C   UNL A   1      32.968  19.282  24.843  1.00  0.00     0.103 C 
ATOM      7  C   UNL A   1      32.513  21.665  25.281  1.00  0.00     0.093 C 
ATOM      8  C   UNL A   1      32.380  21.308  23.838  1.00  0.00    -0.011 C 
ATOM      9  C   UNL A   1      33.174  20.405  25.870  1.00  0.00     0.042 C 
ATOM     10  C   UNL A   1      32.561  20.005  23.600  1.00  0.00    -0.016 C 
BRANCH   7  11
ATOM     11  N   UNL A   1      31.180  21.845  25.880  1.00  0.00    -0.204 NA
ATOM     12  H   UNL A   1      30.503  21.854  25.117  1.00  0.00     0.142 HD
BRANCH  11  13
ATOM     13  S   UNL A   1      30.913  23.234  26.809  1.00  0.00     0.242 S 
ATOM     14  O   UNL A   1      32.061  23.423  27.667  1.00  0.00    -0.207 OA
ATOM     15  O   UNL A   1      29.566  23.139  27.324  1.00  0.00    -0.207 OA
BRANCH  13  16
ATOM     16  C   UNL A   1      30.885  24.612  25.771  1.00  0.00     0.100 A 
ATOM     17  C   UNL A   1      31.391  28.093  24.951  1.00  0.00     0.150 C 
ATOM     18  N   UNL A   1      31.158  26.663  24.960  1.00  0.00    -0.345 N 
ATOM     19  C   UNL A   1      31.149  25.917  26.117  1.00  0.00     0.107 A 
ATOM     20  C   UNL A   1      30.980  25.839  23.860  1.00  0.00     0.107 A 
ATOM     21  C   UNL A   1      30.664  24.585  24.375  1.00  0.00     0.055 A 
BRANCH  20  22
ATOM     22  C   UNL A   1      31.120  26.235  22.472  1.00  0.00     0.265 C 
ATOM     23  N   UNL A   1      31.830  25.370  21.688  1.00  0.00    -0.364 N 
ATOM     24  O   UNL A   1      30.703  27.280  21.987  1.00  0.00    -0.268 OA
ATOM     25  H   UNL A   1      32.171  24.528  22.068  1.00  0.00     0.160 HD
ATOM     26  H   UNL A   1      32.002  25.589  20.744  1.00  0.00     0.160 HD
ENDBRANCH  20  22
ENDBRANCH  13  16
ENDBRANCH  11  13
ENDBRANCH   7  11
ENDBRANCH   3   6
ENDBRANCH   1   2
BRANCH   1  27
ATOM     27  C   UNL A   1      37.395  20.432  24.540  1.00  0.00     0.042 C 
BRANCH  27  28
ATOM     28  C   UNL A   1      38.391  20.653  25.665  1.00  0.00     0.118 C 
BRANCH  28  29
ATOM     29  N   UNL A   1      39.441  19.643  25.676  1.00  0.00    -0.352 N 
ATOM     30  C   UNL A   1      40.778  19.767  25.967  1.00  0.00     0.251 C 
ATOM     31  H   UNL A   1      39.148  18.733  25.439  1.00  0.00     0.163 HD
ATOM     32  O   UNL A   1      41.548  18.845  25.721  1.00  0.00    -0.269 OA
BRANCH  30  33
ATOM     33  C   UNL A   1      41.289  21.020  26.560  1.00  0.00     0.039 A 
ATOM     34  C   UNL A   1      41.825  22.002  25.724  1.00  0.00     0.014 A 
ATOM     35  C   UNL A   1      41.251  21.219  27.942  1.00  0.00     0.014 A 
ATOM     36  C   UNL A   1      42.258  23.213  26.268  1.00  0.00     0.010 A 
ATOM     37  C   UNL A   1      41.598  22.454  28.472  1.00  0.00     0.010 A 
ATOM     38  C   UNL A   1      42.114  23.461  27.642  1.00  0.00    -0.014 A 
BRANCH  38  39
ATOM     39  C   UNL A   1      42.530  24.744  28.257  1.00  0.00     0.031 A 
ATOM     40  C   UNL A   1      41.508  25.828  28.468  1.00  0.00     0.074 A 
ATOM     41  C   UNL A   1      43.826  24.970  28.541  1.00  0.00     0.049 A 
ATOM     42  N   UNL A   1      41.686  27.072  28.830  1.00  0.00    -0.248 NA
ATOM     43  C   UNL A   1      40.104  25.472  28.201  1.00  0.00     0.031 C 
ATOM     44  C   UNL A   1      44.920  24.012  28.361  1.00  0.00     0.029 A 
ATOM     45  N   UNL A   1      44.445  26.091  29.034  1.00  0.00    -0.354 N 
ATOM     46  C   UNL A   1      40.424  27.653  28.802  1.00  0.00     0.074 A 
ATOM     47  C   UNL A   1      39.497  26.639  28.350  1.00  0.00     0.031 C 
ATOM     48  C   UNL A   1      46.070  24.580  28.759  1.00  0.00     0.029 A 
ATOM     49  C   UNL A   1      45.803  25.951  29.179  1.00  0.00     0.049 A 
ATOM     50  H   UNL A   1      43.961  26.919  29.259  1.00  0.00     0.167 HD
ATOM     51  C   UNL A   1      40.064  28.914  29.138  1.00  0.00     0.031 A 
ATOM     52  C   UNL A   1      46.730  26.834  29.596  1.00  0.00     0.031 A 
ATOM     53  C   UNL A   1      40.977  29.913  29.621  1.00  0.00     0.049 A 
ATOM     54  C   UNL A   1      46.303  28.223  29.977  1.00  0.00     0.074 A 
ATOM     55  C   UNL A   1      40.705  31.210  30.020  1.00  0.00     0.029 A 
ATOM     56  N   UNL A   1      42.338  29.716  29.788  1.00  0.00    -0.354 N 
ATOM     57  N   UNL A   1      45.104  28.754  29.956  1.00  0.00    -0.248 NA
ATOM     58  C   UNL A   1      47.358  29.134  30.443  1.00  0.00     0.031 C 
ATOM     59  C   UNL A   1      41.910  31.805  30.413  1.00  0.00     0.029 A 
ATOM     60  C   UNL A   1      42.921  30.866  30.287  1.00  0.00     0.049 A 
ATOM     61  H   UNL A   1      42.819  28.882  29.582  1.00  0.00     0.167 HD
ATOM     62  C   UNL A   1      45.256  30.048  30.434  1.00  0.00     0.074 A 
ATOM     63  C   UNL A   1      46.661  30.222  30.741  1.00  0.00     0.031 C 
ATOM     64  C   UNL A   1      44.317  31.010  30.602  1.00  0.00     0.031 A 
BRANCH  51  65
ATOM     65  C   UNL A   1      38.614  29.274  28.997  1.00  0.00    -0.014 A 
ATOM     66  C   UNL A   1      38.106  29.764  27.783  1.00  0.00     0.009 A 
ATOM     67  C   UNL A   1      37.741  29.107  30.083  1.00  0.00     0.009 A 
ATOM     68  C   UNL A   1      36.759  30.112  27.671  1.00  0.00     0.001 A 
ATOM     69  C   UNL A   1      36.390  29.433  29.961  1.00  0.00     0.001 A 
ATOM     70  C   UNL A   1      35.902  29.943  28.758  1.00  0.00     0.000 A 
ENDBRANCH  51  65
BRANCH  52  71
ATOM     71  C   UNL A   1      48.155  26.431  29.694  1.00  0.00    -0.014 A 
ATOM     72  C   UNL A   1      49.025  26.652  28.615  1.00  0.00     0.009 A 
ATOM     73  C   UNL A   1      48.648  25.812  30.851  1.00  0.00     0.009 A 
ATOM     74  C   UNL A   1      50.356  26.237  28.684  1.00  0.00     0.001 A 
ATOM     75  C   UNL A   1      49.987  25.419  30.926  1.00  0.00     0.001 A 
ATOM     76  C   UNL A   1      50.836  25.623  29.840  1.00  0.00     0.000 A 
ENDBRANCH  52  71
BRANCH  64  77
ATOM     77  C   UNL A   1      44.771  32.313  31.190  1.00  0.00    -0.014 A 
ATOM     78  C   UNL A   1      45.194  33.369  30.370  1.00  0.00     0.009 A 
ATOM     79  C   UNL A   1      44.730  32.495  32.580  1.00  0.00     0.009 A 
ATOM     80  C   UNL A   1      45.594  34.580  30.938  1.00  0.00     0.001 A 
ATOM     81  C   UNL A   1      45.112  33.713  33.142  1.00  0.00     0.001 A 
ATOM     82  C   UNL A   1      45.549  34.752  32.322  1.00  0.00     0.000 A 
ENDBRANCH  64  77
ENDBRANCH  38  39
ENDBRANCH  30  33
ENDBRANCH  28  29
ENDBRANCH  27  28
ENDBRANCH   1  27
TORSDOF 14
ENDMDL
MODEL 3
REMARK VINA RESULT:     -10.9      3.213      7.531
REMARK SMILES Cn1cc(S(=O)(=O)N[C@@H]2C=C[C@@H](C(=O)NCCCNC(=O)c3ccc(-c4c5nc(c(-c6ccccc6)c6ccc([nH]6)c(-c6ccccc6)c6nc(c(-c7ccccc7)c7ccc4[nH]7)C=C6)C=C5)cc3)C2)cc1C(N)=O
REMARK SMILES IDX 16 1 15 2 13 3 14 4 12 6 9 7 10 8 70 9 11 10 8 11 5 13 6 14
REMARK SMILES IDX 7 15 4 16 1 17 2 18 3 19 72 20 71 21 73 22 74 23 75 24 17 27
REMARK SMILES IDX 18 28 19 29 20 30 21 32 22 33 23 34 69 35 24 36 68 37 25 38
REMARK SMILES IDX 26 39 27 40 62 41 28 42 67 43 61 44 63 45 29 46 66 47 60 48
REMARK SMILES IDX 59 49 30 51 52 52 37 53 51 54 38 55 41 56 50 57 64 58 39 59
REMARK SMILES IDX 40 60 49 62 65 63 42 64 31 65 32 66 36 67 33 68 35 69 34 70
REMARK SMILES IDX 53 71 54 72 58 73 55 74 57 75 56 76 43 77 44 78 48 79 45 80
REMARK SMILES IDX 47 81 46 82
REMARK H PARENT 15 5 8 12 74 25 74 26 19 31 63 50 41 61
REMARK Flexibility Score: inf
ROOT
ATOM      1  C   UNL A   1      31.759  30.442  25.794  1.00  0.00     0.117 C 
ENDROOT
BRANCH   1   2
ATOM      2  N   UNL A   1      30.841  30.359  24.670  1.00  0.00    -0.356 N 
ATOM      3  C   UNL A   1      30.571  29.346  23.799  1.00  0.00     0.226 C 
ATOM      4  O   UNL A   1      29.711  29.558  22.939  1.00  0.00    -0.274 OA
ATOM      5  H   UNL A   1      30.321  31.179  24.510  1.00  0.00     0.163 HD
BRANCH   3   6
ATOM      6  C   UNL A   1      31.302  28.003  23.841  1.00  0.00     0.103 C 
ATOM      7  C   UNL A   1      30.697  25.652  24.272  1.00  0.00     0.093 C 
ATOM      8  C   UNL A   1      30.771  25.971  22.816  1.00  0.00    -0.011 C 
ATOM      9  C   UNL A   1      30.762  27.050  24.916  1.00  0.00     0.042 C 
ATOM     10  C   UNL A   1      31.162  27.226  22.571  1.00  0.00    -0.016 C 
BRANCH   7  11
ATOM     11  N   UNL A   1      31.877  24.871  24.676  1.00  0.00    -0.204 NA
ATOM     12  H   UNL A   1      32.228  24.396  23.843  1.00  0.00     0.142 HD
BRANCH  11  13
ATOM     13  S   UNL A   1      31.673  23.696  25.877  1.00  0.00     0.242 S 
ATOM     14  O   UNL A   1      30.290  23.274  25.856  1.00  0.00    -0.207 OA
ATOM     15  O   UNL A   1      32.312  24.202  27.069  1.00  0.00    -0.207 OA
BRANCH  13  16
ATOM     16  C   UNL A   1      32.586  22.293  25.456  1.00  0.00     0.100 A 
ATOM     17  C   UNL A   1      35.622  20.391  24.993  1.00  0.00     0.150 C 
ATOM     18  N   UNL A   1      34.262  20.866  25.150  1.00  0.00    -0.345 N 
ATOM     19  C   UNL A   1      33.956  22.189  25.370  1.00  0.00     0.107 A 
ATOM     20  C   UNL A   1      33.107  20.099  25.171  1.00  0.00     0.107 A 
ATOM     21  C   UNL A   1      32.053  21.007  25.214  1.00  0.00     0.055 A 
BRANCH  20  22
ATOM     22  C   UNL A   1      33.050  18.650  25.165  1.00  0.00     0.265 C 
ATOM     23  N   UNL A   1      32.795  18.072  26.376  1.00  0.00    -0.364 N 
ATOM     24  O   UNL A   1      33.259  17.937  24.190  1.00  0.00    -0.268 OA
ATOM     25  H   UNL A   1      32.627  18.636  27.165  1.00  0.00     0.160 HD
ATOM     26  H   UNL A   1      32.781  17.091  26.460  1.00  0.00     0.160 HD
ENDBRANCH  20  22
ENDBRANCH  13  16
ENDBRANCH  11  13
ENDBRANCH   7  11
ENDBRANCH   3   6
ENDBRANCH   1   2
BRANCH   1  27
ATOM     27  C   UNL A   1      31.474  31.640  26.683  1.00  0.00     0.042 C 
BRANCH  27  28
ATOM     28  C   UNL A   1      32.737  32.322  27.180  1.00  0.00     0.118 C 
BRANCH  28  29
ATOM     29  N   UNL A   1      32.487  33.687  27.626  1.00  0.00    -0.352 N 
ATOM     30  C   UNL A   1      33.142  34.437  28.571  1.00  0.00     0.251 C 
ATOM     31  H   UNL A   1      31.732  34.139  27.183  1.00  0.00     0.163 HD
ATOM     32  O   UNL A   1      32.658  35.494  28.960  1.00  0.00    -0.269 OA
BRANCH  30  33
ATOM     33  C   UNL A   1      34.425  33.961  29.130  1.00  0.00     0.039 A 
ATOM     34  C   UNL A   1      34.413  33.148  30.266  1.00  0.00     0.014 A 
ATOM     35  C   UNL A   1      35.636  34.327  28.540  1.00  0.00     0.014 A 
ATOM     36  C   UNL A   1      35.616  32.644  30.768  1.00  0.00     0.010 A 
ATOM     37  C   UNL A   1      36.821  33.756  28.985  1.00  0.00     0.010 A 
ATOM     38  C   UNL A   1      36.824  32.917  30.110  1.00  0.00    -0.014 A 
BRANCH  38  39
ATOM     39  C   UNL A   1      38.119  32.377  30.589  1.00  0.00     0.031 A 
ATOM     40  C   UNL A   1      38.660  31.109  29.986  1.00  0.00     0.074 A 
ATOM     41  C   UNL A   1      38.760  32.967  31.615  1.00  0.00     0.049 A 
ATOM     42  N   UNL A   1      39.677  30.381  30.367  1.00  0.00    -0.248 NA
ATOM     43  C   UNL A   1      37.938  30.572  28.821  1.00  0.00     0.031 C 
ATOM     44  C   UNL A   1      38.330  34.185  32.305  1.00  0.00     0.029 A 
ATOM     45  N   UNL A   1      39.912  32.606  32.267  1.00  0.00    -0.354 N 
ATOM     46  C   UNL A   1      39.695  29.287  29.511  1.00  0.00     0.074 A 
ATOM     47  C   UNL A   1      38.566  29.425  28.618  1.00  0.00     0.031 C 
ATOM     48  C   UNL A   1      39.218  34.482  33.267  1.00  0.00     0.029 A 
ATOM     49  C   UNL A   1      40.253  33.455  33.292  1.00  0.00     0.049 A 
ATOM     50  H   UNL A   1      40.443  31.812  32.025  1.00  0.00     0.167 HD
ATOM     51  C   UNL A   1      40.581  28.265  29.461  1.00  0.00     0.031 A 
ATOM     52  C   UNL A   1      41.282  33.403  34.159  1.00  0.00     0.031 A 
ATOM     53  C   UNL A   1      41.724  28.142  30.324  1.00  0.00     0.049 A 
ATOM     54  C   UNL A   1      42.259  32.266  34.074  1.00  0.00     0.074 A 
ATOM     55  C   UNL A   1      42.700  27.161  30.331  1.00  0.00     0.029 A 
ATOM     56  N   UNL A   1      42.051  29.045  31.323  1.00  0.00    -0.354 N 
ATOM     57  N   UNL A   1      42.269  31.245  33.251  1.00  0.00    -0.248 NA
ATOM     58  C   UNL A   1      43.371  32.277  35.035  1.00  0.00     0.031 C 
ATOM     59  C   UNL A   1      43.611  27.463  31.349  1.00  0.00     0.029 A 
ATOM     60  C   UNL A   1      43.217  28.647  31.952  1.00  0.00     0.049 A 
ATOM     61  H   UNL A   1      41.532  29.849  31.552  1.00  0.00     0.167 HD
ATOM     62  C   UNL A   1      43.402  30.511  33.575  1.00  0.00     0.074 A 
ATOM     63  C   UNL A   1      44.057  31.204  34.665  1.00  0.00     0.031 C 
ATOM     64  C   UNL A   1      43.859  29.362  33.022  1.00  0.00     0.031 A 
BRANCH  51  65
ATOM     65  C   UNL A   1      40.345  27.202  28.428  1.00  0.00    -0.014 A 
ATOM     66  C   UNL A   1      39.562  26.073  28.720  1.00  0.00     0.009 A 
ATOM     67  C   UNL A   1      40.895  27.337  27.145  1.00  0.00     0.009 A 
ATOM     68  C   UNL A   1      39.365  25.083  27.755  1.00  0.00     0.001 A 
ATOM     69  C   UNL A   1      40.676  26.357  26.175  1.00  0.00     0.001 A 
ATOM     70  C   UNL A   1      39.919  25.228  26.484  1.00  0.00     0.000 A 
ENDBRANCH  51  65
BRANCH  52  71
ATOM     71  C   UNL A   1      41.454  34.470  35.176  1.00  0.00    -0.014 A 
ATOM     72  C   UNL A   1      42.219  35.609  34.880  1.00  0.00     0.009 A 
ATOM     73  C   UNL A   1      40.872  34.352  36.446  1.00  0.00     0.009 A 
ATOM     74  C   UNL A   1      42.420  36.596  35.847  1.00  0.00     0.001 A 
ATOM     75  C   UNL A   1      41.055  35.354  37.404  1.00  0.00     0.001 A 
ATOM     76  C   UNL A   1      41.836  36.469  37.106  1.00  0.00     0.000 A 
ENDBRANCH  52  71
BRANCH  64  77
ATOM     77  C   UNL A   1      45.151  28.815  33.551  1.00  0.00    -0.014 A 
ATOM     78  C   UNL A   1      45.169  27.884  34.600  1.00  0.00     0.009 A 
ATOM     79  C   UNL A   1      46.361  29.208  32.960  1.00  0.00     0.009 A 
ATOM     80  C   UNL A   1      46.382  27.374  35.064  1.00  0.00     0.001 A 
ATOM     81  C   UNL A   1      47.570  28.681  33.414  1.00  0.00     0.001 A 
ATOM     82  C   UNL A   1      47.580  27.769  34.468  1.00  0.00     0.000 A 
ENDBRANCH  64  77
ENDBRANCH  38  39
ENDBRANCH  30  33
ENDBRANCH  28  29
ENDBRANCH  27  28
ENDBRANCH   1  27
TORSDOF 14
ENDMDL
