MODEL 1
REMARK VINA RESULT:     -10.8      0.000      0.000
REMARK SMILES CCc1nc(=O)n([C@H]2CCCOC2)c(CC)c1CC(=O)NCCCNC(=O)c1ccc(-c2c3nc(c(-c4ccccc4)c4ccc([nH]4)c(-c4ccccc4)c4nc(c(-c5ccccc5)c5ccc2[nH]5)C=C4)C=C3)cc1
REMARK SMILES IDX 23 1 22 2 21 3 19 4 20 5 18 7 17 8 3 9 4 10 5 11 14 12 6 13
REMARK SMILES IDX 7 14 2 15 1 16 15 17 16 18 8 19 9 20 13 21 10 22 12 23 11 24
REMARK SMILES IDX 24 25 25 26 26 27 27 29 28 30 29 31 75 32 30 33 74 34 31 35
REMARK SMILES IDX 32 36 33 37 68 38 34 39 73 40 67 41 69 42 35 43 72 44 66 45
REMARK SMILES IDX 65 46 36 48 58 49 43 50 57 51 44 52 47 53 56 54 70 55 45 56
REMARK SMILES IDX 46 57 55 59 71 60 48 61 37 62 38 63 42 64 39 65 41 66 40 67
REMARK SMILES IDX 59 68 60 69 64 70 61 71 63 72 62 73 49 74 50 75 54 76 51 77
REMARK SMILES IDX 53 78 52 79
REMARK H PARENT 21 6 25 28 69 47 47 58
REMARK Flexibility Score: inf
ROOT
ATOM      1  C   UNL A   1      37.650  20.274  24.859  1.00  0.00     0.042 C 
ENDROOT
BRANCH   1   2
ATOM      2  C   UNL A   1      36.415  21.094  25.186  1.00  0.00     0.117 C 
BRANCH   2   3
ATOM      3  N   UNL A   1      36.733  22.456  25.550  1.00  0.00    -0.356 N 
ATOM      4  C   UNL A   1      36.016  23.590  25.324  1.00  0.00     0.224 C 
ATOM      5  O   UNL A   1      36.439  24.646  25.795  1.00  0.00    -0.275 OA
ATOM      6  H   UNL A   1      37.585  22.580  26.027  1.00  0.00     0.163 HD
BRANCH   4   7
ATOM      7  C   UNL A   1      34.704  23.531  24.544  1.00  0.00     0.139 C 
BRANCH   7   8
ATOM      8  C   UNL A   1      33.504  24.209  25.177  1.00  0.00     0.003 A 
ATOM      9  C   UNL A   1      32.667  23.421  26.135  1.00  0.00     0.051 A 
ATOM     10  N   UNL A   1      31.521  23.820  26.564  1.00  0.00    -0.198 NA
ATOM     11  C   UNL A   1      31.037  25.034  26.188  1.00  0.00     0.348 A 
ATOM     12  C   UNL A   1      33.096  25.493  24.975  1.00  0.00     0.028 A 
ATOM     13  O   UNL A   1      29.849  25.296  26.384  1.00  0.00    -0.246 OA
ATOM     14  N   UNL A   1      31.921  25.977  25.603  1.00  0.00    -0.291 N 
BRANCH   9  15
ATOM     15  C   UNL A   1      33.071  22.023  26.628  1.00  0.00     0.053 C 
ATOM     16  C   UNL A   1      33.926  21.968  27.879  1.00  0.00     0.011 C 
ENDBRANCH   9  15
BRANCH  12  17
ATOM     17  C   UNL A   1      33.856  26.358  23.987  1.00  0.00     0.051 C 
ATOM     18  C   UNL A   1      33.386  26.146  22.545  1.00  0.00     0.010 C 
ENDBRANCH  12  17
BRANCH  14  19
ATOM     19  C   UNL A   1      31.366  27.377  25.628  1.00  0.00     0.118 C 
ATOM     20  C   UNL A   1      31.486  28.006  27.052  1.00  0.00     0.030 C 
ATOM     21  C   UNL A   1      31.855  28.507  24.694  1.00  0.00     0.185 C 
ATOM     22  C   UNL A   1      32.910  28.470  27.334  1.00  0.00     0.031 C 
ATOM     23  O   UNL A   1      33.200  28.913  24.959  1.00  0.00    -0.379 OA
ATOM     24  C   UNL A   1      33.381  29.444  26.266  1.00  0.00     0.160 C 
ENDBRANCH  14  19
ENDBRANCH   7   8
ENDBRANCH   4   7
ENDBRANCH   2   3
ENDBRANCH   1   2
BRANCH   1  25
ATOM     25  C   UNL A   1      38.843  20.631  25.731  1.00  0.00     0.118 C 
BRANCH  25  26
ATOM     26  N   UNL A   1      39.833  19.559  25.802  1.00  0.00    -0.352 N 
ATOM     27  C   UNL A   1      41.177  19.609  26.081  1.00  0.00     0.251 C 
ATOM     28  H   UNL A   1      39.481  18.657  25.620  1.00  0.00     0.163 HD
ATOM     29  O   UNL A   1      41.881  18.621  25.903  1.00  0.00    -0.269 OA
BRANCH  27  30
ATOM     30  C   UNL A   1      41.770  20.868  26.569  1.00  0.00     0.039 A 
ATOM     31  C   UNL A   1      41.809  21.137  27.937  1.00  0.00     0.014 A 
ATOM     32  C   UNL A   1      42.249  21.805  25.652  1.00  0.00     0.014 A 
ATOM     33  C   UNL A   1      42.113  22.416  28.372  1.00  0.00     0.010 A 
ATOM     34  C   UNL A   1      42.674  23.056  26.106  1.00  0.00     0.010 A 
ATOM     35  C   UNL A   1      42.550  23.393  27.463  1.00  0.00    -0.014 A 
BRANCH  35  36
ATOM     36  C   UNL A   1      42.867  24.754  27.961  1.00  0.00     0.031 A 
ATOM     37  C   UNL A   1      41.773  25.761  28.200  1.00  0.00     0.074 A 
ATOM     38  C   UNL A   1      44.145  25.059  28.258  1.00  0.00     0.049 A 
ATOM     39  N   UNL A   1      41.874  26.989  28.643  1.00  0.00    -0.248 NA
ATOM     40  C   UNL A   1      40.393  25.345  27.901  1.00  0.00     0.031 C 
ATOM     41  C   UNL A   1      45.284  24.153  28.098  1.00  0.00     0.029 A 
ATOM     42  N   UNL A   1      44.699  26.197  28.786  1.00  0.00    -0.354 N 
ATOM     43  C   UNL A   1      40.580  27.496  28.656  1.00  0.00     0.074 A 
ATOM     44  C   UNL A   1      39.713  26.459  28.144  1.00  0.00     0.031 C 
ATOM     45  C   UNL A   1      46.385  24.744  28.578  1.00  0.00     0.029 A 
ATOM     46  C   UNL A   1      46.054  26.101  28.994  1.00  0.00     0.049 A 
ATOM     47  H   UNL A   1      44.177  27.006  28.996  1.00  0.00     0.167 HD
ATOM     48  C   UNL A   1      40.155  28.713  29.070  1.00  0.00     0.031 A 
ATOM     49  C   UNL A   1      46.942  27.005  29.448  1.00  0.00     0.031 A 
ATOM     50  C   UNL A   1      41.024  29.732  29.598  1.00  0.00     0.049 A 
ATOM     51  C   UNL A   1      46.453  28.368  29.843  1.00  0.00     0.074 A 
ATOM     52  C   UNL A   1      40.682  30.987  30.070  1.00  0.00     0.029 A 
ATOM     53  N   UNL A   1      42.401  29.616  29.727  1.00  0.00    -0.354 N 
ATOM     54  N   UNL A   1      45.224  28.827  29.862  1.00  0.00    -0.248 NA
ATOM     55  C   UNL A   1      47.465  29.338  30.282  1.00  0.00     0.031 C 
ATOM     56  C   UNL A   1      41.856  31.660  30.405  1.00  0.00     0.029 A 
ATOM     57  C   UNL A   1      42.925  30.793  30.235  1.00  0.00     0.049 A 
ATOM     58  H   UNL A   1      42.926  28.817  29.493  1.00  0.00     0.167 HD
ATOM     59  C   UNL A   1      45.312  30.130  30.329  1.00  0.00     0.074 A 
ATOM     60  C   UNL A   1      46.712  30.382  30.605  1.00  0.00     0.031 C 
ATOM     61  C   UNL A   1      44.319  31.035  30.508  1.00  0.00     0.031 A 
BRANCH  48  62
ATOM     62  C   UNL A   1      38.687  29.036  28.967  1.00  0.00    -0.014 A 
ATOM     63  C   UNL A   1      38.179  29.578  27.774  1.00  0.00     0.009 A 
ATOM     64  C   UNL A   1      37.832  28.920  30.074  1.00  0.00     0.009 A 
ATOM     65  C   UNL A   1      36.856  30.021  27.699  1.00  0.00     0.001 A 
ATOM     66  C   UNL A   1      36.499  29.332  29.985  1.00  0.00     0.001 A 
ATOM     67  C   UNL A   1      36.018  29.895  28.803  1.00  0.00     0.000 A 
ENDBRANCH  48  62
BRANCH  49  68
ATOM     68  C   UNL A   1      48.377  26.626  29.546  1.00  0.00    -0.014 A 
ATOM     69  C   UNL A   1      49.246  26.838  28.460  1.00  0.00     0.009 A 
ATOM     70  C   UNL A   1      48.871  25.982  30.689  1.00  0.00     0.009 A 
ATOM     71  C   UNL A   1      50.562  26.375  28.500  1.00  0.00     0.001 A 
ATOM     72  C   UNL A   1      50.201  25.555  30.742  1.00  0.00     0.001 A 
ATOM     73  C   UNL A   1      51.040  25.738  29.643  1.00  0.00     0.000 A 
ENDBRANCH  49  68
BRANCH  61  74
ATOM     74  C   UNL A   1      44.686  32.393  31.043  1.00  0.00    -0.014 A 
ATOM     75  C   UNL A   1      45.070  33.410  30.152  1.00  0.00     0.009 A 
ATOM     76  C   UNL A   1      44.778  32.630  32.422  1.00  0.00     0.009 A 
ATOM     77  C   UNL A   1      45.565  34.624  30.630  1.00  0.00     0.001 A 
ATOM     78  C   UNL A   1      45.238  33.860  32.898  1.00  0.00     0.001 A 
ATOM     79  C   UNL A   1      45.645  34.849  32.004  1.00  0.00     0.000 A 
ENDBRANCH  61  74
ENDBRANCH  35  36
ENDBRANCH  27  30
ENDBRANCH  25  26
ENDBRANCH   1  25
TORSDOF 14
ENDMDL
MODEL 2
REMARK VINA RESULT:     -10.8      0.610      5.998
REMARK SMILES CCc1nc(=O)n([C@H]2CCCOC2)c(CC)c1CC(=O)NCCCNC(=O)c1ccc(-c2c3nc(c(-c4ccccc4)c4ccc([nH]4)c(-c4ccccc4)c4nc(c(-c5ccccc5)c5ccc2[nH]5)C=C4)C=C3)cc1
REMARK SMILES IDX 23 1 22 2 21 3 19 4 20 5 18 7 17 8 3 9 4 10 5 11 14 12 6 13
REMARK SMILES IDX 7 14 2 15 1 16 15 17 16 18 8 19 9 20 13 21 10 22 12 23 11 24
REMARK SMILES IDX 24 25 25 26 26 27 27 29 28 30 29 31 75 32 30 33 74 34 31 35
REMARK SMILES IDX 32 36 33 37 68 38 34 39 73 40 67 41 69 42 35 43 72 44 66 45
REMARK SMILES IDX 65 46 36 48 58 49 43 50 57 51 44 52 47 53 56 54 70 55 45 56
REMARK SMILES IDX 46 57 55 59 71 60 48 61 37 62 38 63 42 64 39 65 41 66 40 67
REMARK SMILES IDX 59 68 60 69 64 70 61 71 63 72 62 73 49 74 50 75 54 76 51 77
REMARK SMILES IDX 53 78 52 79
REMARK H PARENT 21 6 25 28 69 47 47 58
REMARK Flexibility Score: inf
ROOT
ATOM      1  C   UNL A   1      37.631  20.485  24.856  1.00  0.00     0.042 C 
ENDROOT
BRANCH   1   2
ATOM      2  C   UNL A   1      36.408  21.300  25.235  1.00  0.00     0.117 C 
BRANCH   2   3
ATOM      3  N   UNL A   1      35.726  21.847  24.085  1.00  0.00    -0.356 N 
ATOM      4  C   UNL A   1      35.236  23.103  23.901  1.00  0.00     0.224 C 
ATOM      5  O   UNL A   1      34.757  23.382  22.801  1.00  0.00    -0.275 OA
ATOM      6  H   UNL A   1      35.598  21.226  23.331  1.00  0.00     0.163 HD
BRANCH   4   7
ATOM      7  C   UNL A   1      35.325  24.138  25.020  1.00  0.00     0.139 C 
BRANCH   7   8
ATOM      8  C   UNL A   1      34.011  24.632  25.597  1.00  0.00     0.003 A 
ATOM      9  C   UNL A   1      33.305  23.768  26.594  1.00  0.00     0.051 A 
ATOM     10  N   UNL A   1      32.098  23.984  26.986  1.00  0.00    -0.198 NA
ATOM     11  C   UNL A   1      31.417  25.069  26.529  1.00  0.00     0.348 A 
ATOM     12  C   UNL A   1      33.389  25.809  25.309  1.00  0.00     0.028 A 
ATOM     13  O   UNL A   1      30.199  25.130  26.695  1.00  0.00    -0.246 OA
ATOM     14  N   UNL A   1      32.135  26.116  25.894  1.00  0.00    -0.291 N 
BRANCH   9  15
ATOM     15  C   UNL A   1      33.937  22.495  27.178  1.00  0.00     0.053 C 
ATOM     16  C   UNL A   1      33.308  21.178  26.768  1.00  0.00     0.011 C 
ENDBRANCH   9  15
BRANCH  12  17
ATOM     17  C   UNL A   1      34.007  26.732  24.276  1.00  0.00     0.051 C 
ATOM     18  C   UNL A   1      33.523  26.426  22.857  1.00  0.00     0.010 C 
ENDBRANCH  12  17
BRANCH  14  19
ATOM     19  C   UNL A   1      31.343  27.396  25.825  1.00  0.00     0.118 C 
ATOM     20  C   UNL A   1      31.412  28.175  27.175  1.00  0.00     0.030 C 
ATOM     21  C   UNL A   1      31.584  28.494  24.764  1.00  0.00     0.185 C 
ATOM     22  C   UNL A   1      32.744  28.902  27.327  1.00  0.00     0.031 C 
ATOM     23  O   UNL A   1      32.846  29.148  24.909  1.00  0.00    -0.379 OA
ATOM     24  C   UNL A   1      32.988  29.831  26.148  1.00  0.00     0.160 C 
ENDBRANCH  14  19
ENDBRANCH   7   8
ENDBRANCH   4   7
ENDBRANCH   2   3
ENDBRANCH   1   2
BRANCH   1  25
ATOM     25  C   UNL A   1      38.852  20.828  25.694  1.00  0.00     0.118 C 
BRANCH  25  26
ATOM     26  N   UNL A   1      39.832  19.745  25.736  1.00  0.00    -0.352 N 
ATOM     27  C   UNL A   1      41.172  19.771  26.038  1.00  0.00     0.251 C 
ATOM     28  H   UNL A   1      39.476  18.854  25.513  1.00  0.00     0.163 HD
ATOM     29  O   UNL A   1      41.870  18.785  25.830  1.00  0.00    -0.269 OA
BRANCH  27  30
ATOM     30  C   UNL A   1      41.768  21.004  26.586  1.00  0.00     0.039 A 
ATOM     31  C   UNL A   1      41.771  21.225  27.963  1.00  0.00     0.014 A 
ATOM     32  C   UNL A   1      42.286  21.965  25.716  1.00  0.00     0.014 A 
ATOM     33  C   UNL A   1      42.080  22.484  28.450  1.00  0.00     0.010 A 
ATOM     34  C   UNL A   1      42.714  23.193  26.225  1.00  0.00     0.010 A 
ATOM     35  C   UNL A   1      42.557  23.485  27.588  1.00  0.00    -0.014 A 
BRANCH  35  36
ATOM     36  C   UNL A   1      42.877  24.824  28.141  1.00  0.00     0.031 A 
ATOM     37  C   UNL A   1      44.301  25.213  28.440  1.00  0.00     0.074 A 
ATOM     38  C   UNL A   1      41.881  25.714  28.314  1.00  0.00     0.049 A 
ATOM     39  N   UNL A   1      44.757  26.346  28.915  1.00  0.00    -0.248 NA
ATOM     40  C   UNL A   1      45.346  24.210  28.181  1.00  0.00     0.031 C 
ATOM     41  C   UNL A   1      40.467  25.459  28.028  1.00  0.00     0.029 A 
ATOM     42  N   UNL A   1      41.903  27.018  28.738  1.00  0.00    -0.354 N 
ATOM     43  C   UNL A   1      46.132  26.182  29.030  1.00  0.00     0.074 A 
ATOM     44  C   UNL A   1      46.436  24.833  28.611  1.00  0.00     0.031 C 
ATOM     45  C   UNL A   1      39.770  26.586  28.221  1.00  0.00     0.029 A 
ATOM     46  C   UNL A   1      40.666  27.617  28.732  1.00  0.00     0.049 A 
ATOM     47  H   UNL A   1      42.725  27.481  29.020  1.00  0.00     0.167 HD
ATOM     48  C   UNL A   1      47.057  27.084  29.437  1.00  0.00     0.031 A 
ATOM     49  C   UNL A   1      40.282  28.850  29.112  1.00  0.00     0.031 A 
ATOM     50  C   UNL A   1      46.745  28.432  29.834  1.00  0.00     0.049 A 
ATOM     51  C   UNL A   1      41.319  29.810  29.618  1.00  0.00     0.074 A 
ATOM     52  C   UNL A   1      47.618  29.428  30.235  1.00  0.00     0.029 A 
ATOM     53  N   UNL A   1      45.469  28.976  29.877  1.00  0.00    -0.354 N 
ATOM     54  N   UNL A   1      42.617  29.644  29.707  1.00  0.00    -0.248 NA
ATOM     55  C   UNL A   1      40.846  31.124  30.071  1.00  0.00     0.031 C 
ATOM     56  C   UNL A   1      46.867  30.544  30.600  1.00  0.00     0.029 A 
ATOM     57  C   UNL A   1      45.531  30.281  30.336  1.00  0.00     0.049 A 
ATOM     58  H   UNL A   1      44.645  28.504  29.619  1.00  0.00     0.167 HD
ATOM     59  C   UNL A   1      43.118  30.836  30.211  1.00  0.00     0.074 A 
ATOM     60  C   UNL A   1      41.988  31.725  30.385  1.00  0.00     0.031 C 
ATOM     61  C   UNL A   1      44.401  31.159  30.504  1.00  0.00     0.031 A 
BRANCH  48  62
ATOM     62  C   UNL A   1      48.500  26.657  29.494  1.00  0.00    -0.014 A 
ATOM     63  C   UNL A   1      48.998  26.048  30.658  1.00  0.00     0.009 A 
ATOM     64  C   UNL A   1      49.395  26.960  28.455  1.00  0.00     0.009 A 
ATOM     65  C   UNL A   1      50.361  25.775  30.794  1.00  0.00     0.001 A 
ATOM     66  C   UNL A   1      50.753  26.655  28.580  1.00  0.00     0.001 A 
ATOM     67  C   UNL A   1      51.236  26.077  29.753  1.00  0.00     0.000 A 
ENDBRANCH  48  62
BRANCH  49  68
ATOM     68  C   UNL A   1      38.845  29.223  29.018  1.00  0.00    -0.014 A 
ATOM     69  C   UNL A   1      37.990  29.053  30.123  1.00  0.00     0.009 A 
ATOM     70  C   UNL A   1      38.300  29.675  27.809  1.00  0.00     0.009 A 
ATOM     71  C   UNL A   1      36.620  29.286  30.006  1.00  0.00     0.001 A 
ATOM     72  C   UNL A   1      36.933  29.947  27.705  1.00  0.00     0.001 A 
ATOM     73  C   UNL A   1      36.092  29.737  28.798  1.00  0.00     0.000 A 
ENDBRANCH  49  68
BRANCH  61  74
ATOM     74  C   UNL A   1      44.680  32.540  31.035  1.00  0.00    -0.014 A 
ATOM     75  C   UNL A   1      44.601  32.781  32.418  1.00  0.00     0.009 A 
ATOM     76  C   UNL A   1      44.892  33.622  30.170  1.00  0.00     0.009 A 
ATOM     77  C   UNL A   1      44.699  34.080  32.919  1.00  0.00     0.001 A 
ATOM     78  C   UNL A   1      45.028  34.916  30.677  1.00  0.00     0.001 A 
ATOM     79  C   UNL A   1      44.916  35.146  32.047  1.00  0.00     0.000 A 
ENDBRANCH  61  74
ENDBRANCH  35  36
ENDBRANCH  27  30
ENDBRANCH  25  26
ENDBRANCH   1  25
TORSDOF 14
ENDMDL
MODEL 3
REMARK VINA RESULT:     -10.6      3.309      8.787
REMARK SMILES CCc1nc(=O)n([C@H]2CCCOC2)c(CC)c1CC(=O)NCCCNC(=O)c1ccc(-c2c3nc(c(-c4ccccc4)c4ccc([nH]4)c(-c4ccccc4)c4nc(c(-c5ccccc5)c5ccc2[nH]5)C=C4)C=C3)cc1
REMARK SMILES IDX 23 1 22 2 21 3 19 4 20 5 18 7 17 8 3 9 4 10 5 11 14 12 6 13
REMARK SMILES IDX 7 14 2 15 1 16 15 17 16 18 8 19 9 20 13 21 10 22 12 23 11 24
REMARK SMILES IDX 24 25 25 26 26 27 27 29 28 30 29 31 75 32 30 33 74 34 31 35
REMARK SMILES IDX 32 36 33 37 68 38 34 39 73 40 67 41 69 42 35 43 72 44 66 45
REMARK SMILES IDX 65 46 36 48 58 49 43 50 57 51 44 52 47 53 56 54 70 55 45 56
REMARK SMILES IDX 46 57 55 59 71 60 48 61 37 62 38 63 42 64 39 65 41 66 40 67
REMARK SMILES IDX 59 68 60 69 64 70 61 71 63 72 62 73 49 74 50 75 54 76 51 77
REMARK SMILES IDX 53 78 52 79
REMARK H PARENT 21 6 25 28 69 47 47 58
REMARK Flexibility Score: inf
ROOT
ATOM      1  C   UNL A   1      31.716  31.324  26.532  1.00  0.00     0.042 C 
ENDROOT
BRANCH   1   2
ATOM      2  C   UNL A   1      32.153  30.061  25.813  1.00  0.00     0.117 C 
BRANCH   2   3
ATOM      3  N   UNL A   1      31.401  28.898  26.225  1.00  0.00    -0.356 N 
ATOM      4  C   UNL A   1      31.842  27.628  26.438  1.00  0.00     0.224 C 
ATOM      5  O   UNL A   1      31.037  26.801  26.867  1.00  0.00    -0.275 OA
ATOM      6  H   UNL A   1      30.439  29.044  26.373  1.00  0.00     0.163 HD
BRANCH   4   7
ATOM      7  C   UNL A   1      33.304  27.266  26.188  1.00  0.00     0.139 C 
BRANCH   7   8
ATOM      8  C   UNL A   1      33.584  26.312  25.042  1.00  0.00     0.003 A 
ATOM      9  C   UNL A   1      33.655  26.870  23.655  1.00  0.00     0.051 A 
ATOM     10  N   UNL A   1      33.676  26.135  22.599  1.00  0.00    -0.198 NA
ATOM     11  C   UNL A   1      33.684  24.780  22.712  1.00  0.00     0.348 A 
ATOM     12  C   UNL A   1      33.792  24.969  25.136  1.00  0.00     0.028 A 
ATOM     13  O   UNL A   1      33.443  24.091  21.720  1.00  0.00    -0.246 OA
ATOM     14  N   UNL A   1      33.996  24.195  23.966  1.00  0.00    -0.291 N 
BRANCH   9  15
ATOM     15  C   UNL A   1      33.627  28.380  23.370  1.00  0.00     0.053 C 
ATOM     16  C   UNL A   1      32.490  28.884  22.503  1.00  0.00     0.011 C 
ENDBRANCH   9  15
BRANCH  12  17
ATOM     17  C   UNL A   1      33.696  24.304  26.496  1.00  0.00     0.051 C 
ATOM     18  C   UNL A   1      32.294  23.764  26.783  1.00  0.00     0.010 C 
ENDBRANCH  12  17
BRANCH  14  19
ATOM     19  C   UNL A   1      34.374  22.741  23.844  1.00  0.00     0.118 C 
ATOM     20  C   UNL A   1      35.796  22.578  23.223  1.00  0.00     0.030 C 
ATOM     21  C   UNL A   1      34.387  21.759  25.038  1.00  0.00     0.185 C 
ATOM     22  C   UNL A   1      36.885  22.866  24.251  1.00  0.00     0.031 C 
ATOM     23  O   UNL A   1      35.400  22.059  26.001  1.00  0.00    -0.379 OA
ATOM     24  C   UNL A   1      36.719  21.980  25.475  1.00  0.00     0.160 C 
ENDBRANCH  14  19
ENDBRANCH   7   8
ENDBRANCH   4   7
ENDBRANCH   2   3
ENDBRANCH   1   2
BRANCH   1  25
ATOM     25  C   UNL A   1      32.865  32.031  27.235  1.00  0.00     0.118 C 
BRANCH  25  26
ATOM     26  N   UNL A   1      32.539  33.405  27.609  1.00  0.00    -0.352 N 
ATOM     27  C   UNL A   1      33.133  34.240  28.523  1.00  0.00     0.251 C 
ATOM     28  H   UNL A   1      31.771  33.795  27.129  1.00  0.00     0.163 HD
ATOM     29  O   UNL A   1      32.593  35.296  28.835  1.00  0.00    -0.269 OA
BRANCH  27  30
ATOM     30  C   UNL A   1      34.409  33.843  29.147  1.00  0.00     0.039 A 
ATOM     31  C   UNL A   1      35.618  34.196  28.548  1.00  0.00     0.014 A 
ATOM     32  C   UNL A   1      34.397  33.075  30.312  1.00  0.00     0.014 A 
ATOM     33  C   UNL A   1      36.791  33.600  28.980  1.00  0.00     0.010 A 
ATOM     34  C   UNL A   1      35.599  32.575  30.819  1.00  0.00     0.010 A 
ATOM     35  C   UNL A   1      36.798  32.783  30.121  1.00  0.00    -0.014 A 
BRANCH  35  36
ATOM     36  C   UNL A   1      38.072  32.158  30.556  1.00  0.00     0.031 A 
ATOM     37  C   UNL A   1      38.865  32.739  31.697  1.00  0.00     0.074 A 
ATOM     38  C   UNL A   1      38.480  31.024  29.956  1.00  0.00     0.049 A 
ATOM     39  N   UNL A   1      39.990  32.312  32.212  1.00  0.00    -0.248 NA
ATOM     40  C   UNL A   1      38.335  33.953  32.341  1.00  0.00     0.031 C 
ATOM     41  C   UNL A   1      37.777  30.351  28.861  1.00  0.00     0.029 A 
ATOM     42  N   UNL A   1      39.562  30.216  30.199  1.00  0.00    -0.354 N 
ATOM     43  C   UNL A   1      40.312  33.213  33.220  1.00  0.00     0.074 A 
ATOM     44  C   UNL A   1      39.285  34.230  33.225  1.00  0.00     0.031 C 
ATOM     45  C   UNL A   1      38.406  29.206  28.573  1.00  0.00     0.029 A 
ATOM     46  C   UNL A   1      39.607  29.103  29.395  1.00  0.00     0.049 A 
ATOM     47  H   UNL A   1      40.242  30.414  30.884  1.00  0.00     0.167 HD
ATOM     48  C   UNL A   1      41.364  33.184  34.073  1.00  0.00     0.031 A 
ATOM     49  C   UNL A   1      40.518  28.116  29.305  1.00  0.00     0.031 A 
ATOM     50  C   UNL A   1      42.371  32.155  34.073  1.00  0.00     0.049 A 
ATOM     51  C   UNL A   1      41.707  28.141  30.221  1.00  0.00     0.074 A 
ATOM     52  C   UNL A   1      43.460  32.025  34.917  1.00  0.00     0.029 A 
ATOM     53  N   UNL A   1      42.413  31.082  33.194  1.00  0.00    -0.354 N 
ATOM     54  N   UNL A   1      41.989  28.992  31.178  1.00  0.00    -0.248 NA
ATOM     55  C   UNL A   1      42.701  27.074  30.051  1.00  0.00     0.031 C 
ATOM     56  C   UNL A   1      44.206  30.924  34.498  1.00  0.00     0.029 A 
ATOM     57  C   UNL A   1      43.533  30.309  33.453  1.00  0.00     0.049 A 
ATOM     58  H   UNL A   1      41.748  30.898  32.493  1.00  0.00     0.167 HD
ATOM     59  C   UNL A   1      43.182  28.555  31.736  1.00  0.00     0.074 A 
ATOM     60  C   UNL A   1      43.559  27.350  31.026  1.00  0.00     0.031 C 
ATOM     61  C   UNL A   1      43.900  29.109  32.743  1.00  0.00     0.031 A 
BRANCH  48  62
ATOM     62  C   UNL A   1      41.506  34.296  35.078  1.00  0.00    -0.014 A 
ATOM     63  C   UNL A   1      40.867  34.189  36.326  1.00  0.00     0.009 A 
ATOM     64  C   UNL A   1      42.162  35.495  34.757  1.00  0.00     0.009 A 
ATOM     65  C   UNL A   1      40.860  35.263  37.218  1.00  0.00     0.001 A 
ATOM     66  C   UNL A   1      42.183  36.556  35.666  1.00  0.00     0.001 A 
ATOM     67  C   UNL A   1      41.521  36.444  36.888  1.00  0.00     0.000 A 
ENDBRANCH  48  62
BRANCH  49  68
ATOM     68  C   UNL A   1      40.318  27.033  28.306  1.00  0.00    -0.014 A 
ATOM     69  C   UNL A   1      39.604  25.870  28.648  1.00  0.00     0.009 A 
ATOM     70  C   UNL A   1      40.901  27.116  27.034  1.00  0.00     0.009 A 
ATOM     71  C   UNL A   1      39.516  24.800  27.757  1.00  0.00     0.001 A 
ATOM     72  C   UNL A   1      40.777  26.059  26.128  1.00  0.00     0.001 A 
ATOM     73  C   UNL A   1      40.100  24.896  26.496  1.00  0.00     0.000 A 
ENDBRANCH  49  68
BRANCH  61  74
ATOM     74  C   UNL A   1      45.170  28.423  33.169  1.00  0.00    -0.014 A 
ATOM     75  C   UNL A   1      45.133  27.475  34.207  1.00  0.00     0.009 A 
ATOM     76  C   UNL A   1      46.412  28.800  32.639  1.00  0.00     0.009 A 
ATOM     77  C   UNL A   1      46.314  26.943  34.724  1.00  0.00     0.001 A 
ATOM     78  C   UNL A   1      47.591  28.237  33.134  1.00  0.00     0.001 A 
ATOM     79  C   UNL A   1      47.542  27.322  34.185  1.00  0.00     0.000 A 
ENDBRANCH  61  74
ENDBRANCH  35  36
ENDBRANCH  27  30
ENDBRANCH  25  26
ENDBRANCH   1  25
TORSDOF 14
ENDMDL
