MODEL 1
REMARK VINA RESULT:     -10.7      0.000      0.000
REMARK SMILES Nc1cc(F)c([C@H]([NH3+])C(=O)NCCCNC(=O)c2ccc(-c3c4nc(c(-c5ccccc5)c5ccc([nH]5)c(-c5ccccc5)c5nc(c(-c6ccccc6)c6ccc3[nH]6)C=C5)C=C4)cc2)cc1F
REMARK SMILES IDX 13 1 12 2 11 3 9 4 10 5 7 7 6 8 2 9 3 10 67 11 4 12 66 13
REMARK SMILES IDX 68 14 5 15 1 16 8 19 14 23 15 24 16 25 17 27 18 28 19 29
REMARK SMILES IDX 65 30 20 31 64 32 21 33 22 34 23 35 58 36 24 37 63 38 57 39
REMARK SMILES IDX 59 40 25 41 62 42 56 43 55 44 26 46 48 47 33 48 47 49 34 50
REMARK SMILES IDX 37 51 46 52 60 53 35 54 36 55 45 57 61 58 38 59 27 60 28 61
REMARK SMILES IDX 32 62 29 63 31 64 30 65 49 66 50 67 54 68 51 69 53 70 52 71
REMARK SMILES IDX 39 72 40 73 44 74 41 75 43 76 42 77
REMARK H PARENT 11 6 1 17 1 18 8 20 8 21 8 22 15 26 59 45 37 56
REMARK Flexibility Score: inf
ROOT
ATOM      1  C   UNL A   1      32.377  28.477  27.168  1.00  0.00     0.042 C 
ENDROOT
BRANCH   1   2
ATOM      2  C   UNL A   1      32.504  27.014  26.775  1.00  0.00     0.118 C 
BRANCH   2   3
ATOM      3  N   UNL A   1      31.254  26.294  26.942  1.00  0.00    -0.351 N 
ATOM      4  C   UNL A   1      30.476  25.680  26.002  1.00  0.00     0.283 C 
ATOM      5  O   UNL A   1      29.397  25.204  26.373  1.00  0.00    -0.268 OA
ATOM      6  H   UNL A   1      30.919  26.241  27.866  1.00  0.00     0.163 HD
BRANCH   4   7
ATOM      7  C   UNL A   1      30.880  25.658  24.503  1.00  0.00     0.305 C 
BRANCH   7   8
ATOM      8  C   UNL A   1      30.594  26.942  23.739  1.00  0.00     0.058 A 
ATOM      9  C   UNL A   1      30.111  29.385  22.355  1.00  0.00     0.071 A 
ATOM     10  C   UNL A   1      31.410  28.931  22.560  1.00  0.00     0.068 A 
ATOM     11  C   UNL A   1      29.058  28.604  22.848  1.00  0.00     0.146 A 
ATOM     12  C   UNL A   1      31.639  27.718  23.213  1.00  0.00     0.135 A 
ATOM     13  C   UNL A   1      29.284  27.400  23.516  1.00  0.00     0.055 A 
ATOM     14  F   UNL A   1      27.793  29.019  22.681  1.00  0.00    -0.205 F 
ATOM     15  F   UNL A   1      32.911  27.320  23.354  1.00  0.00    -0.206 F 
BRANCH   9  16
ATOM     16  N   UNL A   1      29.877  30.626  21.780  1.00  0.00    -0.396 N 
ATOM     17  H   UNL A   1      30.371  31.416  22.098  1.00  0.00     0.156 HD
ATOM     18  H   UNL A   1      29.218  30.716  21.055  1.00  0.00     0.156 HD
ENDBRANCH   9  16
ENDBRANCH   7   8
BRANCH   7  19
ATOM     19  N   UNL A   1      30.269  24.449  23.892  1.00  0.00    -0.343 N 
ATOM     20  H   UNL A   1      30.313  23.674  24.555  1.00  0.00     0.345 HD
ATOM     21  H   UNL A   1      30.778  24.201  23.044  1.00  0.00     0.345 HD
ATOM     22  H   UNL A   1      29.295  24.642  23.658  1.00  0.00     0.345 HD
ENDBRANCH   7  19
ENDBRANCH   4   7
ENDBRANCH   2   3
ENDBRANCH   1   2
BRANCH   1  23
ATOM     23  C   UNL A   1      33.628  29.299  26.901  1.00  0.00     0.118 C 
BRANCH  23  24
ATOM     24  N   UNL A   1      33.675  30.546  27.655  1.00  0.00    -0.352 N 
ATOM     25  C   UNL A   1      34.664  31.035  28.478  1.00  0.00     0.251 C 
ATOM     26  H   UNL A   1      32.883  31.124  27.562  1.00  0.00     0.163 HD
ATOM     27  O   UNL A   1      34.476  32.054  29.135  1.00  0.00    -0.269 OA
BRANCH  25  28
ATOM     28  C   UNL A   1      35.942  30.302  28.602  1.00  0.00     0.039 A 
ATOM     29  C   UNL A   1      36.267  29.642  29.787  1.00  0.00     0.014 A 
ATOM     30  C   UNL A   1      36.845  30.316  27.536  1.00  0.00     0.014 A 
ATOM     31  C   UNL A   1      37.562  29.181  29.980  1.00  0.00     0.010 A 
ATOM     32  C   UNL A   1      38.117  29.758  27.697  1.00  0.00     0.010 A 
ATOM     33  C   UNL A   1      38.507  29.241  28.942  1.00  0.00    -0.014 A 
BRANCH  33  34
ATOM     34  C   UNL A   1      39.892  28.765  29.196  1.00  0.00     0.031 A 
ATOM     35  C   UNL A   1      40.335  27.396  28.750  1.00  0.00     0.074 A 
ATOM     36  C   UNL A   1      40.780  29.608  29.758  1.00  0.00     0.049 A 
ATOM     37  N   UNL A   1      41.525  26.852  28.832  1.00  0.00    -0.248 NA
ATOM     38  C   UNL A   1      39.322  26.523  28.136  1.00  0.00     0.031 C 
ATOM     39  C   UNL A   1      40.476  30.967  30.214  1.00  0.00     0.029 A 
ATOM     40  N   UNL A   1      42.123  29.469  30.001  1.00  0.00    -0.354 N 
ATOM     41  C   UNL A   1      41.397  25.574  28.302  1.00  0.00     0.074 A 
ATOM     42  C   UNL A   1      40.011  25.409  27.923  1.00  0.00     0.031 C 
ATOM     43  C   UNL A   1      41.611  31.561  30.607  1.00  0.00     0.029 A 
ATOM     44  C   UNL A   1      42.709  30.606  30.501  1.00  0.00     0.049 A 
ATOM     45  H   UNL A   1      42.619  28.634  29.834  1.00  0.00     0.167 HD
ATOM     46  C   UNL A   1      42.351  24.629  28.134  1.00  0.00     0.031 A 
ATOM     47  C   UNL A   1      43.987  30.859  30.844  1.00  0.00     0.031 A 
ATOM     48  C   UNL A   1      43.735  24.799  28.492  1.00  0.00     0.049 A 
ATOM     49  C   UNL A   1      45.016  29.780  30.682  1.00  0.00     0.074 A 
ATOM     50  C   UNL A   1      44.776  23.899  28.341  1.00  0.00     0.029 A 
ATOM     51  N   UNL A   1      44.270  25.941  29.066  1.00  0.00    -0.354 N 
ATOM     52  N   UNL A   1      44.876  28.580  30.177  1.00  0.00    -0.248 NA
ATOM     53  C   UNL A   1      46.378  30.087  31.143  1.00  0.00     0.031 C 
ATOM     54  C   UNL A   1      45.931  24.477  28.872  1.00  0.00     0.029 A 
ATOM     55  C   UNL A   1      45.623  25.759  29.297  1.00  0.00     0.049 A 
ATOM     56  H   UNL A   1      43.764  26.758  29.277  1.00  0.00     0.167 HD
ATOM     57  C   UNL A   1      46.129  27.989  30.252  1.00  0.00     0.074 A 
ATOM     58  C   UNL A   1      47.024  28.971  30.829  1.00  0.00     0.031 C 
ATOM     59  C   UNL A   1      46.501  26.741  29.879  1.00  0.00     0.031 A 
BRANCH  46  60
ATOM     60  C   UNL A   1      41.943  23.306  27.544  1.00  0.00    -0.014 A 
ATOM     61  C   UNL A   1      41.458  22.290  28.384  1.00  0.00     0.009 A 
ATOM     62  C   UNL A   1      42.131  23.030  26.182  1.00  0.00     0.009 A 
ATOM     63  C   UNL A   1      41.182  21.020  27.874  1.00  0.00     0.001 A 
ATOM     64  C   UNL A   1      41.828  21.766  25.670  1.00  0.00     0.001 A 
ATOM     65  C   UNL A   1      41.364  20.760  26.517  1.00  0.00     0.000 A 
ENDBRANCH  46  60
BRANCH  47  66
ATOM     66  C   UNL A   1      44.347  32.203  31.367  1.00  0.00    -0.014 A 
ATOM     67  C   UNL A   1      44.822  33.201  30.500  1.00  0.00     0.009 A 
ATOM     68  C   UNL A   1      44.277  32.474  32.741  1.00  0.00     0.009 A 
ATOM     69  C   UNL A   1      45.246  34.432  31.001  1.00  0.00     0.001 A 
ATOM     70  C   UNL A   1      44.676  33.718  33.236  1.00  0.00     0.001 A 
ATOM     71  C   UNL A   1      45.170  34.692  32.368  1.00  0.00     0.000 A 
ENDBRANCH  47  66
BRANCH  59  72
ATOM     72  C   UNL A   1      47.937  26.351  30.075  1.00  0.00    -0.014 A 
ATOM     73  C   UNL A   1      48.834  26.427  28.997  1.00  0.00     0.009 A 
ATOM     74  C   UNL A   1      48.379  25.813  31.294  1.00  0.00     0.009 A 
ATOM     75  C   UNL A   1      50.142  25.958  29.131  1.00  0.00     0.001 A 
ATOM     76  C   UNL A   1      49.695  25.370  31.432  1.00  0.00     0.001 A 
ATOM     77  C   UNL A   1      50.572  25.434  30.349  1.00  0.00     0.000 A 
ENDBRANCH  59  72
ENDBRANCH  33  34
ENDBRANCH  25  28
ENDBRANCH  23  24
ENDBRANCH   1  23
TORSDOF 13
ENDMDL
MODEL 2
REMARK VINA RESULT:     -10.6      3.703      8.182
REMARK SMILES Nc1cc(F)c([C@H]([NH3+])C(=O)NCCCNC(=O)c2ccc(-c3c4nc(c(-c5ccccc5)c5ccc([nH]5)c(-c5ccccc5)c5nc(c(-c6ccccc6)c6ccc3[nH]6)C=C5)C=C4)cc2)cc1F
REMARK SMILES IDX 13 1 12 2 11 3 9 4 10 5 7 7 6 8 2 9 3 10 67 11 4 12 66 13
REMARK SMILES IDX 68 14 5 15 1 16 8 19 14 23 15 24 16 25 17 27 18 28 19 29
REMARK SMILES IDX 65 30 20 31 64 32 21 33 22 34 23 35 58 36 24 37 63 38 57 39
REMARK SMILES IDX 59 40 25 41 62 42 56 43 55 44 26 46 48 47 33 48 47 49 34 50
REMARK SMILES IDX 37 51 46 52 60 53 35 54 36 55 45 57 61 58 38 59 27 60 28 61
REMARK SMILES IDX 32 62 29 63 31 64 30 65 49 66 50 67 54 68 51 69 53 70 52 71
REMARK SMILES IDX 39 72 40 73 44 74 41 75 43 76 42 77
REMARK H PARENT 11 6 1 17 1 18 8 20 8 21 8 22 15 26 59 45 37 56
REMARK Flexibility Score: inf
ROOT
ATOM      1  C   UNL A   1      37.310  20.675  24.901  1.00  0.00     0.042 C 
ENDROOT
BRANCH   1   2
ATOM      2  C   UNL A   1      36.191  21.661  25.195  1.00  0.00     0.118 C 
BRANCH   2   3
ATOM      3  N   UNL A   1      35.751  22.358  23.999  1.00  0.00    -0.351 N 
ATOM      4  C   UNL A   1      34.483  22.631  23.572  1.00  0.00     0.283 C 
ATOM      5  O   UNL A   1      34.354  23.163  22.464  1.00  0.00    -0.268 OA
ATOM      6  H   UNL A   1      36.473  22.681  23.411  1.00  0.00     0.163 HD
BRANCH   4   7
ATOM      7  C   UNL A   1      33.239  22.206  24.399  1.00  0.00     0.305 C 
BRANCH   7   8
ATOM      8  C   UNL A   1      32.953  20.712  24.410  1.00  0.00     0.058 A 
ATOM      9  C   UNL A   1      32.486  17.902  24.468  1.00  0.00     0.071 A 
ATOM     10  C   UNL A   1      32.867  18.582  25.621  1.00  0.00     0.068 A 
ATOM     11  C   UNL A   1      32.340  18.643  23.289  1.00  0.00     0.146 A 
ATOM     12  C   UNL A   1      33.066  19.964  25.593  1.00  0.00     0.135 A 
ATOM     13  C   UNL A   1      32.554  20.021  23.253  1.00  0.00     0.055 A 
ATOM     14  F   UNL A   1      31.988  18.017  22.155  1.00  0.00    -0.205 F 
ATOM     15  F   UNL A   1      33.403  20.565  26.742  1.00  0.00    -0.206 F 
BRANCH   9  16
ATOM     16  N   UNL A   1      32.365  16.519  24.468  1.00  0.00    -0.396 N 
ATOM     17  H   UNL A   1      33.134  15.959  24.722  1.00  0.00     0.156 HD
ATOM     18  H   UNL A   1      31.512  16.099  24.215  1.00  0.00     0.156 HD
ENDBRANCH   9  16
ENDBRANCH   7   8
BRANCH   7  19
ATOM     19  N   UNL A   1      32.093  23.032  23.941  1.00  0.00    -0.343 N 
ATOM     20  H   UNL A   1      32.195  23.235  22.946  1.00  0.00     0.345 HD
ATOM     21  H   UNL A   1      32.071  23.906  24.466  1.00  0.00     0.345 HD
ATOM     22  H   UNL A   1      31.223  22.522  24.096  1.00  0.00     0.345 HD
ENDBRANCH   7  19
ENDBRANCH   4   7
ENDBRANCH   2   3
ENDBRANCH   1   2
BRANCH   1  23
ATOM     23  C   UNL A   1      38.609  20.981  25.630  1.00  0.00     0.118 C 
BRANCH  23  24
ATOM     24  N   UNL A   1      39.561  19.876  25.608  1.00  0.00    -0.352 N 
ATOM     25  C   UNL A   1      40.888  19.856  25.974  1.00  0.00     0.251 C 
ATOM     26  H   UNL A   1      39.202  19.018  25.284  1.00  0.00     0.163 HD
ATOM     27  O   UNL A   1      41.572  18.859  25.768  1.00  0.00    -0.269 OA
BRANCH  25  28
ATOM     28  C   UNL A   1      41.498  21.059  26.578  1.00  0.00     0.039 A 
ATOM     29  C   UNL A   1      41.516  21.225  27.962  1.00  0.00     0.014 A 
ATOM     30  C   UNL A   1      42.015  22.056  25.745  1.00  0.00     0.014 A 
ATOM     31  C   UNL A   1      41.855  22.460  28.500  1.00  0.00     0.010 A 
ATOM     32  C   UNL A   1      42.454  23.263  26.297  1.00  0.00     0.010 A 
ATOM     33  C   UNL A   1      42.319  23.498  27.674  1.00  0.00    -0.014 A 
BRANCH  33  34
ATOM     34  C   UNL A   1      42.643  24.816  28.282  1.00  0.00     0.031 A 
ATOM     35  C   UNL A   1      44.066  25.195  28.596  1.00  0.00     0.074 A 
ATOM     36  C   UNL A   1      41.652  25.709  28.473  1.00  0.00     0.049 A 
ATOM     37  N   UNL A   1      44.529  26.329  29.063  1.00  0.00    -0.248 NA
ATOM     38  C   UNL A   1      45.105  24.180  28.359  1.00  0.00     0.031 C 
ATOM     39  C   UNL A   1      40.235  25.465  28.188  1.00  0.00     0.029 A 
ATOM     40  N   UNL A   1      41.685  27.009  28.906  1.00  0.00    -0.354 N 
ATOM     41  C   UNL A   1      45.901  26.156  29.195  1.00  0.00     0.074 A 
ATOM     42  C   UNL A   1      46.198  24.802  28.783  1.00  0.00     0.031 C 
ATOM     43  C   UNL A   1      39.550  26.601  28.379  1.00  0.00     0.029 A 
ATOM     44  C   UNL A   1      40.460  27.630  28.868  1.00  0.00     0.049 A 
ATOM     45  H   UNL A   1      42.507  27.456  29.215  1.00  0.00     0.167 HD
ATOM     46  C   UNL A   1      46.830  27.049  29.608  1.00  0.00     0.031 A 
ATOM     47  C   UNL A   1      40.100  28.887  29.194  1.00  0.00     0.031 A 
ATOM     48  C   UNL A   1      46.537  28.403  29.999  1.00  0.00     0.049 A 
ATOM     49  C   UNL A   1      41.145  29.844  29.685  1.00  0.00     0.074 A 
ATOM     50  C   UNL A   1      47.421  29.385  30.415  1.00  0.00     0.029 A 
ATOM     51  N   UNL A   1      45.272  28.967  30.017  1.00  0.00    -0.354 N 
ATOM     52  N   UNL A   1      42.437  29.662  29.800  1.00  0.00    -0.248 NA
ATOM     53  C   UNL A   1      40.683  31.177  30.098  1.00  0.00     0.031 C 
ATOM     54  C   UNL A   1      46.683  30.526  30.737  1.00  0.00     0.029 A 
ATOM     55  C   UNL A   1      45.348  30.276  30.461  1.00  0.00     0.049 A 
ATOM     56  H   UNL A   1      44.444  28.505  29.754  1.00  0.00     0.167 HD
ATOM     57  C   UNL A   1      42.945  30.856  30.291  1.00  0.00     0.074 A 
ATOM     58  C   UNL A   1      41.826  31.765  30.430  1.00  0.00     0.031 C 
ATOM     59  C   UNL A   1      44.226  31.167  30.602  1.00  0.00     0.031 A 
BRANCH  46  60
ATOM     60  C   UNL A   1      48.264  26.600  29.677  1.00  0.00    -0.014 A 
ATOM     61  C   UNL A   1      49.098  26.761  28.558  1.00  0.00     0.009 A 
ATOM     62  C   UNL A   1      48.762  25.930  30.805  1.00  0.00     0.009 A 
ATOM     63  C   UNL A   1      50.397  26.249  28.561  1.00  0.00     0.001 A 
ATOM     64  C   UNL A   1      50.072  25.443  30.815  1.00  0.00     0.001 A 
ATOM     65  C   UNL A   1      50.884  25.594  29.691  1.00  0.00     0.000 A 
ENDBRANCH  46  60
BRANCH  47  66
ATOM     66  C   UNL A   1      38.679  29.296  29.052  1.00  0.00    -0.014 A 
ATOM     67  C   UNL A   1      37.799  29.202  30.143  1.00  0.00     0.009 A 
ATOM     68  C   UNL A   1      38.180  29.724  27.814  1.00  0.00     0.009 A 
ATOM     69  C   UNL A   1      36.444  29.499  29.990  1.00  0.00     0.001 A 
ATOM     70  C   UNL A   1      36.829  30.049  27.670  1.00  0.00     0.001 A 
ATOM     71  C   UNL A   1      35.961  29.926  28.754  1.00  0.00     0.000 A 
ENDBRANCH  47  66
BRANCH  59  72
ATOM     72  C   UNL A   1      44.505  32.547  31.125  1.00  0.00    -0.014 A 
ATOM     73  C   UNL A   1      44.852  33.574  30.232  1.00  0.00     0.009 A 
ATOM     74  C   UNL A   1      44.522  32.807  32.504  1.00  0.00     0.009 A 
ATOM     75  C   UNL A   1      45.227  34.830  30.711  1.00  0.00     0.001 A 
ATOM     76  C   UNL A   1      44.872  34.072  32.978  1.00  0.00     0.001 A 
ATOM     77  C   UNL A   1      45.233  35.078  32.083  1.00  0.00     0.000 A 
ENDBRANCH  59  72
ENDBRANCH  33  34
ENDBRANCH  25  28
ENDBRANCH  23  24
ENDBRANCH   1  23
TORSDOF 13
ENDMDL
MODEL 3
REMARK VINA RESULT:     -10.5      3.924      8.465
REMARK SMILES Nc1cc(F)c([C@H]([NH3+])C(=O)NCCCNC(=O)c2ccc(-c3c4nc(c(-c5ccccc5)c5ccc([nH]5)c(-c5ccccc5)c5nc(c(-c6ccccc6)c6ccc3[nH]6)C=C5)C=C4)cc2)cc1F
REMARK SMILES IDX 13 1 12 2 11 3 9 4 10 5 7 7 6 8 2 9 3 10 67 11 4 12 66 13
REMARK SMILES IDX 68 14 5 15 1 16 8 19 14 23 15 24 16 25 17 27 18 28 19 29
REMARK SMILES IDX 65 30 20 31 64 32 21 33 22 34 23 35 58 36 24 37 63 38 57 39
REMARK SMILES IDX 59 40 25 41 62 42 56 43 55 44 26 46 48 47 33 48 47 49 34 50
REMARK SMILES IDX 37 51 46 52 60 53 35 54 36 55 45 57 61 58 38 59 27 60 28 61
REMARK SMILES IDX 32 62 29 63 31 64 30 65 49 66 50 67 54 68 51 69 53 70 52 71
REMARK SMILES IDX 39 72 40 73 44 74 41 75 43 76 42 77
REMARK H PARENT 11 6 1 17 1 18 8 20 8 21 8 22 15 26 59 45 37 56
REMARK Flexibility Score: inf
ROOT
ATOM      1  C   UNL A   1      36.068  23.233  26.111  1.00  0.00     0.042 C 
ENDROOT
BRANCH   1   2
ATOM      2  C   UNL A   1      34.730  23.701  25.562  1.00  0.00     0.118 C 
BRANCH   2   3
ATOM      3  N   UNL A   1      34.712  23.715  24.110  1.00  0.00    -0.351 N 
ATOM      4  C   UNL A   1      33.755  23.255  23.251  1.00  0.00     0.283 C 
ATOM      5  O   UNL A   1      34.004  23.294  22.041  1.00  0.00    -0.268 OA
ATOM      6  H   UNL A   1      35.504  24.115  23.683  1.00  0.00     0.163 HD
BRANCH   4   7
ATOM      7  C   UNL A   1      32.437  22.618  23.770  1.00  0.00     0.305 C 
BRANCH   7   8
ATOM      8  C   UNL A   1      32.462  21.102  23.900  1.00  0.00     0.058 A 
ATOM      9  C   UNL A   1      32.439  18.261  24.102  1.00  0.00     0.071 A 
ATOM     10  C   UNL A   1      32.231  18.886  22.877  1.00  0.00     0.068 A 
ATOM     11  C   UNL A   1      32.660  19.072  25.223  1.00  0.00     0.146 A 
ATOM     12  C   UNL A   1      32.273  20.278  22.779  1.00  0.00     0.135 A 
ATOM     13  C   UNL A   1      32.685  20.463  25.131  1.00  0.00     0.055 A 
ATOM     14  F   UNL A   1      32.850  18.502  26.423  1.00  0.00    -0.205 F 
ATOM     15  F   UNL A   1      32.094  20.820  21.566  1.00  0.00    -0.206 F 
BRANCH   9  16
ATOM     16  N   UNL A   1      32.320  16.883  24.224  1.00  0.00    -0.396 N 
ATOM     17  H   UNL A   1      32.500  16.304  23.448  1.00  0.00     0.156 HD
ATOM     18  H   UNL A   1      32.056  16.486  25.084  1.00  0.00     0.156 HD
ENDBRANCH   9  16
ENDBRANCH   7   8
BRANCH   7  19
ATOM     19  N   UNL A   1      31.328  23.129  22.924  1.00  0.00    -0.343 N 
ATOM     20  H   UNL A   1      31.675  23.881  22.327  1.00  0.00     0.345 HD
ATOM     21  H   UNL A   1      30.581  23.484  23.519  1.00  0.00     0.345 HD
ATOM     22  H   UNL A   1      30.968  22.372  22.342  1.00  0.00     0.345 HD
ENDBRANCH   7  19
ENDBRANCH   4   7
ENDBRANCH   2   3
ENDBRANCH   1   2
BRANCH   1  23
ATOM     23  C   UNL A   1      37.226  23.398  25.139  1.00  0.00     0.118 C 
BRANCH  23  24
ATOM     24  N   UNL A   1      38.395  22.599  25.488  1.00  0.00    -0.352 N 
ATOM     25  C   UNL A   1      39.521  22.957  26.194  1.00  0.00     0.251 C 
ATOM     26  H   UNL A   1      38.377  21.666  25.172  1.00  0.00     0.163 HD
ATOM     27  O   UNL A   1      40.468  22.183  26.285  1.00  0.00    -0.269 OA
BRANCH  25  28
ATOM     28  C   UNL A   1      39.604  24.299  26.808  1.00  0.00     0.039 A 
ATOM     29  C   UNL A   1      40.234  25.347  26.137  1.00  0.00     0.014 A 
ATOM     30  C   UNL A   1      39.087  24.499  28.091  1.00  0.00     0.014 A 
ATOM     31  C   UNL A   1      40.529  26.519  26.820  1.00  0.00     0.010 A 
ATOM     32  C   UNL A   1      39.295  25.718  28.741  1.00  0.00     0.010 A 
ATOM     33  C   UNL A   1      40.072  26.717  28.135  1.00  0.00    -0.014 A 
BRANCH  33  34
ATOM     34  C   UNL A   1      40.434  27.971  28.845  1.00  0.00     0.031 A 
ATOM     35  C   UNL A   1      39.439  29.091  28.995  1.00  0.00     0.074 A 
ATOM     36  C   UNL A   1      41.644  28.065  29.432  1.00  0.00     0.049 A 
ATOM     37  N   UNL A   1      39.569  30.223  29.643  1.00  0.00    -0.248 NA
ATOM     38  C   UNL A   1      38.132  28.929  28.338  1.00  0.00     0.031 C 
ATOM     39  C   UNL A   1      42.687  27.038  29.374  1.00  0.00     0.029 A 
ATOM     40  N   UNL A   1      42.185  29.043  30.226  1.00  0.00    -0.354 N 
ATOM     41  C   UNL A   1      38.376  30.910  29.454  1.00  0.00     0.074 A 
ATOM     42  C   UNL A   1      37.540  30.084  28.611  1.00  0.00     0.031 C 
ATOM     43  C   UNL A   1      43.706  27.405  30.162  1.00  0.00     0.029 A 
ATOM     44  C   UNL A   1      43.424  28.722  30.723  1.00  0.00     0.049 A 
ATOM     45  H   UNL A   1      41.729  29.895  30.420  1.00  0.00     0.167 HD
ATOM     46  C   UNL A   1      38.006  32.114  29.950  1.00  0.00     0.031 A 
ATOM     47  C   UNL A   1      44.250  29.407  31.537  1.00  0.00     0.031 A 
ATOM     48  C   UNL A   1      38.830  32.928  30.805  1.00  0.00     0.049 A 
ATOM     49  C   UNL A   1      43.830  30.756  32.040  1.00  0.00     0.074 A 
ATOM     50  C   UNL A   1      38.528  34.156  31.370  1.00  0.00     0.029 A 
ATOM     51  N   UNL A   1      40.108  32.597  31.222  1.00  0.00    -0.354 N 
ATOM     52  N   UNL A   1      42.698  31.386  31.853  1.00  0.00    -0.248 NA
ATOM     53  C   UNL A   1      44.803  31.490  32.862  1.00  0.00     0.031 C 
ATOM     54  C   UNL A   1      39.645  34.593  32.085  1.00  0.00     0.029 A 
ATOM     55  C   UNL A   1      40.619  33.609  32.018  1.00  0.00     0.049 A 
ATOM     56  H   UNL A   1      40.582  31.767  30.989  1.00  0.00     0.167 HD
ATOM     57  C   UNL A   1      42.816  32.588  32.536  1.00  0.00     0.074 A 
ATOM     58  C   UNL A   1      44.122  32.589  33.164  1.00  0.00     0.031 C 
ATOM     59  C   UNL A   1      41.922  33.601  32.630  1.00  0.00     0.031 A 
BRANCH  46  60
ATOM     60  C   UNL A   1      36.650  32.648  29.577  1.00  0.00    -0.014 A 
ATOM     61  C   UNL A   1      36.478  33.317  28.355  1.00  0.00     0.009 A 
ATOM     62  C   UNL A   1      35.572  32.580  30.473  1.00  0.00     0.009 A 
ATOM     63  C   UNL A   1      35.257  33.919  28.040  1.00  0.00     0.001 A 
ATOM     64  C   UNL A   1      34.344  33.160  30.144  1.00  0.00     0.001 A 
ATOM     65  C   UNL A   1      34.190  33.836  28.934  1.00  0.00     0.000 A 
ENDBRANCH  46  60
BRANCH  47  66
ATOM     66  C   UNL A   1      45.555  28.808  31.921  1.00  0.00    -0.014 A 
ATOM     67  C   UNL A   1      45.670  28.045  33.095  1.00  0.00     0.009 A 
ATOM     68  C   UNL A   1      46.702  29.045  31.151  1.00  0.00     0.009 A 
ATOM     69  C   UNL A   1      46.912  27.557  33.505  1.00  0.00     0.001 A 
ATOM     70  C   UNL A   1      47.939  28.531  31.549  1.00  0.00     0.001 A 
ATOM     71  C   UNL A   1      48.045  27.798  32.730  1.00  0.00     0.000 A 
ENDBRANCH  47  66
BRANCH  59  72
ATOM     72  C   UNL A   1      42.310  34.805  33.440  1.00  0.00    -0.014 A 
ATOM     73  C   UNL A   1      41.900  34.905  34.780  1.00  0.00     0.009 A 
ATOM     74  C   UNL A   1      42.991  35.881  32.852  1.00  0.00     0.009 A 
ATOM     75  C   UNL A   1      42.151  36.067  35.511  1.00  0.00     0.001 A 
ATOM     76  C   UNL A   1      43.264  37.032  33.594  1.00  0.00     0.001 A 
ATOM     77  C   UNL A   1      42.836  37.127  34.918  1.00  0.00     0.000 A 
ENDBRANCH  59  72
ENDBRANCH  33  34
ENDBRANCH  25  28
ENDBRANCH  23  24
ENDBRANCH   1  23
TORSDOF 13
ENDMDL
