MODEL 1
REMARK VINA RESULT:     -12.6      0.000      0.000
REMARK SMILES CCc1ccc(S(=O)(=O)c2nnn(-c3ccc(C(=O)NCCCNC(=O)c4ccc(-c5c6nc(c(-c7ccccc7)c7ccc([nH]7)c(-c7ccccc7)c7nc(c(-c8ccccc8)c8ccc5[nH]8)C=C7)C=C6)cc4)cc3)c2C)cc1
REMARK SMILES IDX 21 1 20 2 18 3 19 4 17 6 14 7 15 8 76 9 16 10 75 11 13 12
REMARK SMILES IDX 10 13 11 14 77 15 12 16 78 17 7 18 8 19 9 20 6 21 3 22 4 23
REMARK SMILES IDX 80 24 5 25 79 26 2 27 1 28 22 29 23 30 24 31 25 32 26 34
REMARK SMILES IDX 27 35 28 36 74 37 29 38 73 39 30 40 31 41 32 42 67 43 33 44
REMARK SMILES IDX 72 45 66 46 68 47 34 48 71 49 65 50 64 51 35 53 57 54 42 55
REMARK SMILES IDX 56 56 43 57 46 58 55 59 69 60 44 61 45 62 54 64 70 65 47 66
REMARK SMILES IDX 36 67 37 68 41 69 38 70 40 71 39 72 58 73 59 74 63 75 60 76
REMARK SMILES IDX 62 77 61 78 48 79 49 80 53 81 50 82 52 83 51 84
REMARK H PARENT 20 5 24 33 68 52 46 63
REMARK Flexibility Score: inf
ROOT
ATOM      1  C   UNL A   1      36.512  20.509  25.178  1.00  0.00     0.118 C 
ENDROOT
BRANCH   1   2
ATOM      2  N   UNL A   1      35.349  19.660  24.959  1.00  0.00    -0.352 N 
ATOM      3  C   UNL A   1      33.997  19.913  24.993  1.00  0.00     0.251 C 
ATOM      4  O   UNL A   1      33.238  19.001  24.663  1.00  0.00    -0.269 OA
ATOM      5  H   UNL A   1      35.573  18.726  24.746  1.00  0.00     0.163 HD
BRANCH   3   6
ATOM      6  C   UNL A   1      33.420  21.241  25.356  1.00  0.00     0.039 A 
ATOM      7  C   UNL A   1      32.469  23.826  25.853  1.00  0.00     0.067 A 
ATOM      8  C   UNL A   1      32.152  23.206  24.644  1.00  0.00     0.029 A 
ATOM      9  C   UNL A   1      33.147  23.128  26.850  1.00  0.00     0.029 A 
ATOM     10  C   UNL A   1      32.658  21.924  24.390  1.00  0.00     0.016 A 
ATOM     11  C   UNL A   1      33.579  21.830  26.609  1.00  0.00     0.016 A 
BRANCH   7  12
ATOM     12  N   UNL A   1      32.142  25.173  26.085  1.00  0.00    -0.216 N 
ATOM     13  C   UNL A   1      32.198  27.327  26.324  1.00  0.00     0.205 A 
ATOM     14  N   UNL A   1      31.077  26.847  26.946  1.00  0.00    -0.117 NA
ATOM     15  C   UNL A   1      32.850  26.289  25.679  1.00  0.00     0.081 A 
ATOM     16  N   UNL A   1      31.008  25.541  26.715  1.00  0.00    -0.061 NA
ATOM     17  C   UNL A   1      33.914  26.276  24.643  1.00  0.00     0.070 C 
BRANCH  13  18
ATOM     18  S   UNL A   1      32.533  29.016  26.183  1.00  0.00     0.227 S 
ATOM     19  O   UNL A   1      33.797  29.075  25.488  1.00  0.00    -0.217 OA
ATOM     20  O   UNL A   1      32.346  29.571  27.515  1.00  0.00    -0.217 OA
BRANCH  18  21
ATOM     21  C   UNL A   1      31.288  29.697  25.121  1.00  0.00     0.073 A 
ATOM     22  C   UNL A   1      29.371  30.885  23.453  1.00  0.00    -0.048 A 
ATOM     23  C   UNL A   1      29.870  31.573  24.568  1.00  0.00     0.005 A 
ATOM     24  C   UNL A   1      29.855  29.595  23.185  1.00  0.00     0.005 A 
ATOM     25  C   UNL A   1      30.831  30.987  25.397  1.00  0.00     0.021 A 
ATOM     26  C   UNL A   1      30.799  28.996  24.017  1.00  0.00     0.021 A 
BRANCH  22  27
ATOM     27  C   UNL A   1      28.319  31.444  22.520  1.00  0.00     0.032 C 
ATOM     28  C   UNL A   1      27.943  30.592  21.317  1.00  0.00     0.009 C 
ENDBRANCH  22  27
ENDBRANCH  18  21
ENDBRANCH  13  18
ENDBRANCH   7  12
ENDBRANCH   3   6
ENDBRANCH   1   2
BRANCH   1  29
ATOM     29  C   UNL A   1      37.823  19.789  24.829  1.00  0.00     0.042 C 
BRANCH  29  30
ATOM     30  C   UNL A   1      38.984  20.222  25.707  1.00  0.00     0.118 C 
BRANCH  30  31
ATOM     31  N   UNL A   1      40.066  19.242  25.700  1.00  0.00    -0.352 N 
ATOM     32  C   UNL A   1      41.411  19.461  25.894  1.00  0.00     0.251 C 
ATOM     33  H   UNL A   1      39.800  18.309  25.534  1.00  0.00     0.163 HD
ATOM     34  O   UNL A   1      42.237  18.639  25.514  1.00  0.00    -0.269 OA
BRANCH  32  35
ATOM     35  C   UNL A   1      41.845  20.705  26.549  1.00  0.00     0.039 A 
ATOM     36  C   UNL A   1      42.226  21.806  25.778  1.00  0.00     0.014 A 
ATOM     37  C   UNL A   1      41.836  20.774  27.942  1.00  0.00     0.014 A 
ATOM     38  C   UNL A   1      42.507  23.009  26.418  1.00  0.00     0.010 A 
ATOM     39  C   UNL A   1      42.009  21.990  28.566  1.00  0.00     0.010 A 
ATOM     40  C   UNL A   1      42.366  23.104  27.812  1.00  0.00    -0.014 A 
BRANCH  40  41
ATOM     41  C   UNL A   1      42.447  24.412  28.457  1.00  0.00     0.031 A 
ATOM     42  C   UNL A   1      41.317  25.331  28.153  1.00  0.00     0.074 A 
ATOM     43  C   UNL A   1      43.333  24.724  29.426  1.00  0.00     0.049 A 
ATOM     44  N   UNL A   1      41.358  26.434  27.481  1.00  0.00    -0.248 NA
ATOM     45  C   UNL A   1      39.958  24.923  28.546  1.00  0.00     0.031 C 
ATOM     46  C   UNL A   1      44.300  23.843  30.089  1.00  0.00     0.029 A 
ATOM     47  N   UNL A   1      43.469  25.892  30.112  1.00  0.00    -0.354 N 
ATOM     48  C   UNL A   1      40.072  26.963  27.525  1.00  0.00     0.074 A 
ATOM     49  C   UNL A   1      39.225  25.919  28.046  1.00  0.00     0.031 C 
ATOM     50  C   UNL A   1      44.739  24.431  31.224  1.00  0.00     0.029 A 
ATOM     51  C   UNL A   1      44.221  25.787  31.274  1.00  0.00     0.049 A 
ATOM     52  H   UNL A   1      43.069  26.740  29.810  1.00  0.00     0.167 HD
ATOM     53  C   UNL A   1      39.847  28.297  27.356  1.00  0.00     0.031 A 
ATOM     54  C   UNL A   1      44.386  26.736  32.227  1.00  0.00     0.031 A 
ATOM     55  C   UNL A   1      41.007  28.968  26.827  1.00  0.00     0.049 A 
ATOM     56  C   UNL A   1      44.034  28.040  31.625  1.00  0.00     0.074 A 
ATOM     57  C   UNL A   1      41.775  28.850  25.686  1.00  0.00     0.029 A 
ATOM     58  N   UNL A   1      41.765  29.687  27.721  1.00  0.00    -0.354 N 
ATOM     59  N   UNL A   1      44.749  28.623  30.707  1.00  0.00    -0.248 NA
ATOM     60  C   UNL A   1      42.666  28.516  31.746  1.00  0.00     0.031 C 
ATOM     61  C   UNL A   1      43.114  29.078  26.122  1.00  0.00     0.029 A 
ATOM     62  C   UNL A   1      43.080  29.391  27.483  1.00  0.00     0.049 A 
ATOM     63  H   UNL A   1      41.424  30.304  28.408  1.00  0.00     0.167 HD
ATOM     64  C   UNL A   1      43.819  29.187  29.849  1.00  0.00     0.074 A 
ATOM     65  C   UNL A   1      42.569  29.202  30.605  1.00  0.00     0.031 C 
ATOM     66  C   UNL A   1      44.088  29.321  28.516  1.00  0.00     0.031 A 
BRANCH  53  67
ATOM     67  C   UNL A   1      38.758  29.068  28.068  1.00  0.00    -0.014 A 
ATOM     68  C   UNL A   1      38.559  28.834  29.442  1.00  0.00     0.009 A 
ATOM     69  C   UNL A   1      37.739  29.770  27.397  1.00  0.00     0.009 A 
ATOM     70  C   UNL A   1      37.366  29.192  30.081  1.00  0.00     0.001 A 
ATOM     71  C   UNL A   1      36.566  30.170  28.042  1.00  0.00     0.001 A 
ATOM     72  C   UNL A   1      36.364  29.850  29.376  1.00  0.00     0.000 A 
ENDBRANCH  53  67
BRANCH  54  73
ATOM     73  C   UNL A   1      44.631  26.587  33.675  1.00  0.00    -0.014 A 
ATOM     74  C   UNL A   1      45.433  27.514  34.362  1.00  0.00     0.009 A 
ATOM     75  C   UNL A   1      43.853  25.700  34.440  1.00  0.00     0.009 A 
ATOM     76  C   UNL A   1      45.416  27.583  35.760  1.00  0.00     0.001 A 
ATOM     77  C   UNL A   1      43.840  25.765  35.837  1.00  0.00     0.001 A 
ATOM     78  C   UNL A   1      44.608  26.720  36.496  1.00  0.00     0.000 A 
ENDBRANCH  54  73
BRANCH  66  79
ATOM     79  C   UNL A   1      45.511  29.124  28.055  1.00  0.00    -0.014 A 
ATOM     80  C   UNL A   1      46.062  27.866  27.752  1.00  0.00     0.009 A 
ATOM     81  C   UNL A   1      46.280  30.267  27.789  1.00  0.00     0.009 A 
ATOM     82  C   UNL A   1      47.358  27.758  27.236  1.00  0.00     0.001 A 
ATOM     83  C   UNL A   1      47.563  30.160  27.251  1.00  0.00     0.001 A 
ATOM     84  C   UNL A   1      48.105  28.906  26.982  1.00  0.00     0.000 A 
ENDBRANCH  66  79
ENDBRANCH  40  41
ENDBRANCH  32  35
ENDBRANCH  30  31
ENDBRANCH  29  30
ENDBRANCH   1  29
TORSDOF 14
ENDMDL
MODEL 2
REMARK VINA RESULT:     -12.4      3.137      8.863
REMARK SMILES CCc1ccc(S(=O)(=O)c2nnn(-c3ccc(C(=O)NCCCNC(=O)c4ccc(-c5c6nc(c(-c7ccccc7)c7ccc([nH]7)c(-c7ccccc7)c7nc(c(-c8ccccc8)c8ccc5[nH]8)C=C7)C=C6)cc4)cc3)c2C)cc1
REMARK SMILES IDX 21 1 20 2 18 3 19 4 17 6 14 7 15 8 76 9 16 10 75 11 13 12
REMARK SMILES IDX 10 13 11 14 77 15 12 16 78 17 7 18 8 19 9 20 6 21 3 22 4 23
REMARK SMILES IDX 80 24 5 25 79 26 2 27 1 28 22 29 23 30 24 31 25 32 26 34
REMARK SMILES IDX 27 35 28 36 74 37 29 38 73 39 30 40 31 41 32 42 67 43 33 44
REMARK SMILES IDX 72 45 66 46 68 47 34 48 71 49 65 50 64 51 35 53 57 54 42 55
REMARK SMILES IDX 56 56 43 57 46 58 55 59 69 60 44 61 45 62 54 64 70 65 47 66
REMARK SMILES IDX 36 67 37 68 41 69 38 70 40 71 39 72 58 73 59 74 63 75 60 76
REMARK SMILES IDX 62 77 61 78 48 79 49 80 53 81 50 82 52 83 51 84
REMARK H PARENT 20 5 24 33 68 52 46 63
REMARK Flexibility Score: inf
ROOT
ATOM      1  C   UNL A   1      34.834  32.458  30.685  1.00  0.00     0.118 C 
ENDROOT
BRANCH   1   2
ATOM      2  N   UNL A   1      34.750  33.291  29.493  1.00  0.00    -0.352 N 
ATOM      3  C   UNL A   1      34.418  33.010  28.187  1.00  0.00     0.251 C 
ATOM      4  O   UNL A   1      34.338  33.956  27.404  1.00  0.00    -0.269 OA
ATOM      5  H   UNL A   1      34.974  34.235  29.651  1.00  0.00     0.163 HD
BRANCH   3   6
ATOM      6  C   UNL A   1      34.105  31.635  27.699  1.00  0.00     0.039 A 
ATOM      7  C   UNL A   1      33.678  29.096  26.600  1.00  0.00     0.067 A 
ATOM      8  C   UNL A   1      34.938  29.414  27.106  1.00  0.00     0.029 A 
ATOM      9  C   UNL A   1      32.612  29.982  26.746  1.00  0.00     0.029 A 
ATOM     10  C   UNL A   1      35.153  30.698  27.626  1.00  0.00     0.016 A 
ATOM     11  C   UNL A   1      32.825  31.223  27.330  1.00  0.00     0.016 A 
BRANCH   7  12
ATOM     12  N   UNL A   1      33.457  27.894  25.907  1.00  0.00    -0.216 N 
ATOM     13  C   UNL A   1      33.029  26.400  24.395  1.00  0.00     0.205 A 
ATOM     14  N   UNL A   1      32.872  25.830  25.630  1.00  0.00    -0.117 NA
ATOM     15  C   UNL A   1      33.498  27.695  24.539  1.00  0.00     0.081 A 
ATOM     16  N   UNL A   1      33.225  26.727  26.543  1.00  0.00    -0.061 NA
ATOM     17  C   UNL A   1      34.103  28.646  23.572  1.00  0.00     0.070 C 
BRANCH  13  18
ATOM     18  S   UNL A   1      32.900  25.495  22.928  1.00  0.00     0.227 S 
ATOM     19  O   UNL A   1      34.019  25.939  22.132  1.00  0.00    -0.217 OA
ATOM     20  O   UNL A   1      31.520  25.644  22.489  1.00  0.00    -0.217 OA
BRANCH  18  21
ATOM     21  C   UNL A   1      33.163  23.795  23.353  1.00  0.00     0.073 A 
ATOM     22  C   UNL A   1      33.654  21.141  24.117  1.00  0.00    -0.048 A 
ATOM     23  C   UNL A   1      34.673  22.102  24.185  1.00  0.00     0.005 A 
ATOM     24  C   UNL A   1      32.385  21.535  23.667  1.00  0.00     0.005 A 
ATOM     25  C   UNL A   1      34.429  23.427  23.812  1.00  0.00     0.021 A 
ATOM     26  C   UNL A   1      32.139  22.850  23.275  1.00  0.00     0.021 A 
BRANCH  22  27
ATOM     27  C   UNL A   1      33.844  19.686  24.485  1.00  0.00     0.032 C 
ATOM     28  C   UNL A   1      32.848  19.089  25.468  1.00  0.00     0.009 C 
ENDBRANCH  22  27
ENDBRANCH  18  21
ENDBRANCH  13  18
ENDBRANCH   7  12
ENDBRANCH   3   6
ENDBRANCH   1   2
BRANCH   1  29
ATOM     29  C   UNL A   1      36.259  31.940  30.925  1.00  0.00     0.042 C 
BRANCH  29  30
ATOM     30  C   UNL A   1      37.278  32.558  29.983  1.00  0.00     0.118 C 
BRANCH  30  31
ATOM     31  N   UNL A   1      38.077  33.586  30.643  1.00  0.00    -0.352 N 
ATOM     32  C   UNL A   1      39.203  33.420  31.415  1.00  0.00     0.251 C 
ATOM     33  H   UNL A   1      37.770  34.513  30.521  1.00  0.00     0.163 HD
ATOM     34  O   UNL A   1      39.563  34.298  32.191  1.00  0.00    -0.269 OA
BRANCH  32  35
ATOM     35  C   UNL A   1      39.963  32.164  31.310  1.00  0.00     0.039 A 
ATOM     36  C   UNL A   1      39.622  31.070  32.109  1.00  0.00     0.014 A 
ATOM     37  C   UNL A   1      40.999  32.077  30.379  1.00  0.00     0.014 A 
ATOM     38  C   UNL A   1      40.269  29.857  31.898  1.00  0.00     0.010 A 
ATOM     39  C   UNL A   1      41.562  30.852  30.098  1.00  0.00     0.010 A 
ATOM     40  C   UNL A   1      41.218  29.744  30.869  1.00  0.00    -0.014 A 
BRANCH  40  41
ATOM     41  C   UNL A   1      41.735  28.428  30.505  1.00  0.00     0.031 A 
ATOM     42  C   UNL A   1      42.581  27.779  31.545  1.00  0.00     0.074 A 
ATOM     43  C   UNL A   1      41.330  27.727  29.426  1.00  0.00     0.049 A 
ATOM     44  N   UNL A   1      43.846  27.525  31.484  1.00  0.00    -0.248 NA
ATOM     45  C   UNL A   1      41.974  27.476  32.851  1.00  0.00     0.031 C 
ATOM     46  C   UNL A   1      40.263  28.060  28.477  1.00  0.00     0.029 A 
ATOM     47  N   UNL A   1      41.720  26.487  29.020  1.00  0.00    -0.354 N 
ATOM     48  C   UNL A   1      44.165  26.857  32.663  1.00  0.00     0.074 A 
ATOM     49  C   UNL A   1      43.020  27.001  33.529  1.00  0.00     0.031 C 
ATOM     50  C   UNL A   1      39.932  26.957  27.768  1.00  0.00     0.029 A 
ATOM     51  C   UNL A   1      40.873  25.898  28.090  1.00  0.00     0.049 A 
ATOM     52  H   UNL A   1      42.533  26.045  29.357  1.00  0.00     0.167 HD
ATOM     53  C   UNL A   1      45.247  26.033  32.742  1.00  0.00     0.031 A 
ATOM     54  C   UNL A   1      40.922  24.623  27.636  1.00  0.00     0.031 A 
ATOM     55  C   UNL A   1      46.133  26.212  31.620  1.00  0.00     0.049 A 
ATOM     56  C   UNL A   1      42.275  24.098  27.921  1.00  0.00     0.074 A 
ATOM     57  C   UNL A   1      46.848  27.269  31.092  1.00  0.00     0.029 A 
ATOM     58  N   UNL A   1      46.073  25.263  30.627  1.00  0.00    -0.354 N 
ATOM     59  N   UNL A   1      43.348  24.515  27.314  1.00  0.00    -0.248 NA
ATOM     60  C   UNL A   1      42.499  23.393  29.171  1.00  0.00     0.031 C 
ATOM     61  C   UNL A   1      46.758  27.101  29.678  1.00  0.00     0.029 A 
ATOM     62  C   UNL A   1      46.058  25.919  29.426  1.00  0.00     0.049 A 
ATOM     63  H   UNL A   1      46.044  24.288  30.757  1.00  0.00     0.167 HD
ATOM     64  C   UNL A   1      44.318  24.541  28.304  1.00  0.00     0.074 A 
ATOM     65  C   UNL A   1      43.775  23.721  29.385  1.00  0.00     0.031 C 
ATOM     66  C   UNL A   1      45.333  25.454  28.265  1.00  0.00     0.031 A 
BRANCH  53  67
ATOM     67  C   UNL A   1      45.293  24.773  33.576  1.00  0.00    -0.014 A 
ATOM     68  C   UNL A   1      44.462  23.695  33.210  1.00  0.00     0.009 A 
ATOM     69  C   UNL A   1      45.873  24.711  34.857  1.00  0.00     0.009 A 
ATOM     70  C   UNL A   1      44.152  22.671  34.112  1.00  0.00     0.001 A 
ATOM     71  C   UNL A   1      45.601  23.666  35.744  1.00  0.00     0.001 A 
ATOM     72  C   UNL A   1      44.713  22.663  35.384  1.00  0.00     0.000 A 
ENDBRANCH  53  67
BRANCH  54  73
ATOM     73  C   UNL A   1      39.833  23.750  27.155  1.00  0.00    -0.014 A 
ATOM     74  C   UNL A   1      38.621  24.302  26.706  1.00  0.00     0.009 A 
ATOM     75  C   UNL A   1      40.082  22.396  26.870  1.00  0.00     0.009 A 
ATOM     76  C   UNL A   1      37.717  23.541  25.956  1.00  0.00     0.001 A 
ATOM     77  C   UNL A   1      39.176  21.633  26.125  1.00  0.00     0.001 A 
ATOM     78  C   UNL A   1      38.002  22.212  25.652  1.00  0.00     0.000 A 
ENDBRANCH  54  73
BRANCH  66  79
ATOM     79  C   UNL A   1      45.546  26.226  26.986  1.00  0.00    -0.014 A 
ATOM     80  C   UNL A   1      45.032  27.516  26.762  1.00  0.00     0.009 A 
ATOM     81  C   UNL A   1      46.412  25.680  26.027  1.00  0.00     0.009 A 
ATOM     82  C   UNL A   1      45.346  28.218  25.593  1.00  0.00     0.001 A 
ATOM     83  C   UNL A   1      46.746  26.392  24.873  1.00  0.00     0.001 A 
ATOM     84  C   UNL A   1      46.206  27.656  24.652  1.00  0.00     0.000 A 
ENDBRANCH  66  79
ENDBRANCH  40  41
ENDBRANCH  32  35
ENDBRANCH  30  31
ENDBRANCH  29  30
ENDBRANCH   1  29
TORSDOF 14
ENDMDL
MODEL 3
REMARK VINA RESULT:     -12.4      2.417      5.840
REMARK SMILES CCc1ccc(S(=O)(=O)c2nnn(-c3ccc(C(=O)NCCCNC(=O)c4ccc(-c5c6nc(c(-c7ccccc7)c7ccc([nH]7)c(-c7ccccc7)c7nc(c(-c8ccccc8)c8ccc5[nH]8)C=C7)C=C6)cc4)cc3)c2C)cc1
REMARK SMILES IDX 21 1 20 2 18 3 19 4 17 6 14 7 15 8 76 9 16 10 75 11 13 12
REMARK SMILES IDX 10 13 11 14 77 15 12 16 78 17 7 18 8 19 9 20 6 21 3 22 4 23
REMARK SMILES IDX 80 24 5 25 79 26 2 27 1 28 22 29 23 30 24 31 25 32 26 34
REMARK SMILES IDX 27 35 28 36 74 37 29 38 73 39 30 40 31 41 32 42 67 43 33 44
REMARK SMILES IDX 72 45 66 46 68 47 34 48 71 49 65 50 64 51 35 53 57 54 42 55
REMARK SMILES IDX 56 56 43 57 46 58 55 59 69 60 44 61 45 62 54 64 70 65 47 66
REMARK SMILES IDX 36 67 37 68 41 69 38 70 40 71 39 72 58 73 59 74 63 75 60 76
REMARK SMILES IDX 62 77 61 78 48 79 49 80 53 81 50 82 52 83 51 84
REMARK H PARENT 20 5 24 33 68 52 46 63
REMARK Flexibility Score: inf
ROOT
ATOM      1  C   UNL A   1      37.686  21.296  25.001  1.00  0.00     0.118 C 
ENDROOT
BRANCH   1   2
ATOM      2  N   UNL A   1      36.705  20.224  24.897  1.00  0.00    -0.352 N 
ATOM      3  C   UNL A   1      35.333  20.209  25.006  1.00  0.00     0.251 C 
ATOM      4  O   UNL A   1      34.755  19.148  24.769  1.00  0.00    -0.269 OA
ATOM      5  H   UNL A   1      37.099  19.341  24.715  1.00  0.00     0.163 HD
BRANCH   3   6
ATOM      6  C   UNL A   1      34.524  21.417  25.342  1.00  0.00     0.039 A 
ATOM      7  C   UNL A   1      33.122  23.798  25.791  1.00  0.00     0.067 A 
ATOM      8  C   UNL A   1      32.947  23.124  24.582  1.00  0.00     0.029 A 
ATOM      9  C   UNL A   1      33.889  23.236  26.810  1.00  0.00     0.029 A 
ATOM     10  C   UNL A   1      33.676  21.948  24.352  1.00  0.00     0.016 A 
ATOM     11  C   UNL A   1      34.548  22.034  26.592  1.00  0.00     0.016 A 
BRANCH   7  12
ATOM     12  N   UNL A   1      32.558  25.067  26.001  1.00  0.00    -0.216 N 
ATOM     13  C   UNL A   1      32.213  27.202  26.158  1.00  0.00     0.205 A 
ATOM     14  N   UNL A   1      31.254  26.549  26.886  1.00  0.00    -0.117 NA
ATOM     15  C   UNL A   1      33.005  26.276  25.500  1.00  0.00     0.081 A 
ATOM     16  N   UNL A   1      31.423  25.244  26.707  1.00  0.00    -0.061 NA
ATOM     17  C   UNL A   1      33.974  26.414  24.382  1.00  0.00     0.070 C 
BRANCH  13  18
ATOM     18  S   UNL A   1      32.204  28.915  25.932  1.00  0.00     0.227 S 
ATOM     19  O   UNL A   1      33.504  29.212  25.379  1.00  0.00    -0.217 OA
ATOM     20  O   UNL A   1      31.741  29.480  27.191  1.00  0.00    -0.217 OA
BRANCH  18  21
ATOM     21  C   UNL A   1      30.986  29.259  24.692  1.00  0.00     0.073 A 
ATOM     22  C   UNL A   1      29.012  29.691  22.745  1.00  0.00    -0.048 A 
ATOM     23  C   UNL A   1      29.631  28.439  22.868  1.00  0.00     0.005 A 
ATOM     24  C   UNL A   1      29.394  30.719  23.620  1.00  0.00     0.005 A 
ATOM     25  C   UNL A   1      30.609  28.218  23.842  1.00  0.00     0.021 A 
ATOM     26  C   UNL A   1      30.382  30.513  24.582  1.00  0.00     0.021 A 
BRANCH  22  27
ATOM     27  C   UNL A   1      27.960  30.012  21.707  1.00  0.00     0.032 C 
ATOM     28  C   UNL A   1      28.165  31.277  20.888  1.00  0.00     0.009 C 
ENDBRANCH  22  27
ENDBRANCH  18  21
ENDBRANCH  13  18
ENDBRANCH   7  12
ENDBRANCH   3   6
ENDBRANCH   1   2
BRANCH   1  29
ATOM     29  C   UNL A   1      38.965  20.838  25.715  1.00  0.00     0.042 C 
BRANCH  29  30
ATOM     30  C   UNL A   1      39.715  21.983  26.372  1.00  0.00     0.118 C 
BRANCH  30  31
ATOM     31  N   UNL A   1      41.113  22.029  25.955  1.00  0.00    -0.352 N 
ATOM     32  C   UNL A   1      41.951  23.119  25.911  1.00  0.00     0.251 C 
ATOM     33  H   UNL A   1      41.504  21.172  25.668  1.00  0.00     0.163 HD
ATOM     34  O   UNL A   1      42.963  23.101  25.219  1.00  0.00    -0.269 OA
BRANCH  32  35
ATOM     35  C   UNL A   1      41.607  24.316  26.695  1.00  0.00     0.039 A 
ATOM     36  C   UNL A   1      42.077  24.456  28.002  1.00  0.00     0.014 A 
ATOM     37  C   UNL A   1      40.838  25.316  26.098  1.00  0.00     0.014 A 
ATOM     38  C   UNL A   1      41.847  25.653  28.674  1.00  0.00     0.010 A 
ATOM     39  C   UNL A   1      40.704  26.537  26.721  1.00  0.00     0.010 A 
ATOM     40  C   UNL A   1      41.186  26.703  28.017  1.00  0.00    -0.014 A 
BRANCH  40  41
ATOM     41  C   UNL A   1      41.137  28.025  28.637  1.00  0.00     0.031 A 
ATOM     42  C   UNL A   1      42.210  28.960  28.202  1.00  0.00     0.074 A 
ATOM     43  C   UNL A   1      40.102  28.476  29.375  1.00  0.00     0.049 A 
ATOM     44  N   UNL A   1      43.182  29.428  28.913  1.00  0.00    -0.248 NA
ATOM     45  C   UNL A   1      42.278  29.334  26.780  1.00  0.00     0.031 C 
ATOM     46  C   UNL A   1      38.815  27.821  29.628  1.00  0.00     0.029 A 
ATOM     47  N   UNL A   1      39.942  29.694  29.963  1.00  0.00    -0.354 N 
ATOM     48  C   UNL A   1      43.878  30.307  28.089  1.00  0.00     0.074 A 
ATOM     49  C   UNL A   1      43.381  30.085  26.754  1.00  0.00     0.031 C 
ATOM     50  C   UNL A   1      37.933  28.730  30.101  1.00  0.00     0.029 A 
ATOM     51  C   UNL A   1      38.637  29.977  30.343  1.00  0.00     0.049 A 
ATOM     52  H   UNL A   1      40.688  30.320  30.108  1.00  0.00     0.167 HD
ATOM     53  C   UNL A   1      44.634  31.317  28.605  1.00  0.00     0.031 A 
ATOM     54  C   UNL A   1      38.159  31.160  30.798  1.00  0.00     0.031 A 
ATOM     55  C   UNL A   1      44.863  31.140  30.016  1.00  0.00     0.049 A 
ATOM     56  C   UNL A   1      39.312  31.958  31.267  1.00  0.00     0.074 A 
ATOM     57  C   UNL A   1      45.444  30.165  30.803  1.00  0.00     0.029 A 
ATOM     58  N   UNL A   1      44.102  31.908  30.866  1.00  0.00    -0.354 N 
ATOM     59  N   UNL A   1      40.008  31.659  32.326  1.00  0.00    -0.248 NA
ATOM     60  C   UNL A   1      39.957  32.866  30.333  1.00  0.00     0.031 C 
ATOM     61  C   UNL A   1      44.630  30.107  31.973  1.00  0.00     0.029 A 
ATOM     62  C   UNL A   1      43.647  31.093  31.867  1.00  0.00     0.049 A 
ATOM     63  H   UNL A   1      43.918  32.870  30.771  1.00  0.00     0.167 HD
ATOM     64  C   UNL A   1      41.316  31.954  31.977  1.00  0.00     0.074 A 
ATOM     65  C   UNL A   1      41.207  32.810  30.797  1.00  0.00     0.031 C 
ATOM     66  C   UNL A   1      42.358  31.244  32.502  1.00  0.00     0.031 A 
BRANCH  53  67
ATOM     67  C   UNL A   1      44.795  32.672  27.953  1.00  0.00    -0.014 A 
ATOM     68  C   UNL A   1      43.793  33.639  28.162  1.00  0.00     0.009 A 
ATOM     69  C   UNL A   1      45.712  32.931  26.917  1.00  0.00     0.009 A 
ATOM     70  C   UNL A   1      43.657  34.747  27.317  1.00  0.00     0.001 A 
ATOM     71  C   UNL A   1      45.607  34.059  26.100  1.00  0.00     0.001 A 
ATOM     72  C   UNL A   1      44.559  34.950  26.278  1.00  0.00     0.000 A 
ENDBRANCH  53  67
BRANCH  54  73
ATOM     73  C   UNL A   1      36.807  31.742  30.677  1.00  0.00    -0.014 A 
ATOM     74  C   UNL A   1      35.942  31.769  31.784  1.00  0.00     0.009 A 
ATOM     75  C   UNL A   1      36.467  32.522  29.559  1.00  0.00     0.009 A 
ATOM     76  C   UNL A   1      34.806  32.588  31.789  1.00  0.00     0.001 A 
ATOM     77  C   UNL A   1      35.329  33.337  29.561  1.00  0.00     0.001 A 
ATOM     78  C   UNL A   1      34.509  33.383  30.685  1.00  0.00     0.000 A 
ENDBRANCH  54  73
BRANCH  66  79
ATOM     79  C   UNL A   1      42.081  30.347  33.684  1.00  0.00    -0.014 A 
ATOM     80  C   UNL A   1      41.623  29.022  33.563  1.00  0.00     0.009 A 
ATOM     81  C   UNL A   1      42.425  30.816  34.960  1.00  0.00     0.009 A 
ATOM     82  C   UNL A   1      41.478  28.209  34.692  1.00  0.00     0.001 A 
ATOM     83  C   UNL A   1      42.305  29.996  36.083  1.00  0.00     0.001 A 
ATOM     84  C   UNL A   1      41.824  28.697  35.951  1.00  0.00     0.000 A 
ENDBRANCH  66  79
ENDBRANCH  40  41
ENDBRANCH  32  35
ENDBRANCH  30  31
ENDBRANCH  29  30
ENDBRANCH   1  29
TORSDOF 14
ENDMDL
