MODEL 1
REMARK VINA RESULT:     -10.9      0.000      0.000
REMARK SMILES Cc1cc(C(=O)N2CCC[C@@H]2C)sc1/C=C/C(=O)NCCCNC(=O)c1ccc(-c2c3nc(c(-c4ccccc4)c4ccc([nH]4)c(-c4ccccc4)c4nc(c(-c5ccccc5)c5ccc2[nH]5)C=C4)C=C3)cc1
REMARK SMILES IDX 20 1 19 2 17 3 18 4 16 6 15 7 14 8 1 9 2 10 3 11 4 12 13 13
REMARK SMILES IDX 5 14 6 15 7 16 8 17 11 18 9 19 10 20 12 21 21 22 22 23 23 24
REMARK SMILES IDX 24 25 25 27 26 28 27 29 73 30 28 31 72 32 29 33 30 34 31 35
REMARK SMILES IDX 66 36 32 37 71 38 65 39 67 40 33 41 70 42 64 43 63 44 34 46
REMARK SMILES IDX 56 47 41 48 55 49 42 50 45 51 54 52 68 53 43 54 44 55 53 57
REMARK SMILES IDX 69 58 46 59 35 60 36 61 40 62 37 63 39 64 38 65 57 66 58 67
REMARK SMILES IDX 62 68 59 69 61 70 60 71 47 72 48 73 52 74 49 75 51 76 50 77
REMARK H PARENT 19 5 23 26 67 45 45 56
REMARK Flexibility Score: inf
ROOT
ATOM      1  C   UNL A   1      33.733  35.390  28.366  1.00  0.00     0.118 C 
ENDROOT
BRANCH   1   2
ATOM      2  N   UNL A   1      35.097  35.238  28.844  1.00  0.00    -0.352 N 
ATOM      3  C   UNL A   1      35.825  34.114  29.078  1.00  0.00     0.244 C 
ATOM      4  O   UNL A   1      37.011  34.206  29.381  1.00  0.00    -0.270 OA
ATOM      5  H   UNL A   1      35.568  36.083  29.027  1.00  0.00     0.163 HD
BRANCH   3   6
ATOM      6  C   UNL A   1      35.223  32.782  28.879  1.00  0.00     0.072 C 
ATOM      7  C   UNL A   1      35.155  32.170  27.688  1.00  0.00     0.025 C 
BRANCH   7   8
ATOM      8  C   UNL A   1      34.559  30.883  27.515  1.00  0.00     0.031 A 
ATOM      9  C   UNL A   1      36.593  29.351  27.893  1.00  0.00     0.046 C 
ATOM     10  C   UNL A   1      35.164  29.632  27.552  1.00  0.00    -0.032 A 
ATOM     11  C   UNL A   1      34.220  28.587  27.259  1.00  0.00     0.029 A 
ATOM     12  C   UNL A   1      32.930  29.041  27.053  1.00  0.00     0.093 A 
ATOM     13  S   UNL A   1      32.876  30.732  27.216  1.00  0.00    -0.130 S 
BRANCH  12  14
ATOM     14  C   UNL A   1      31.734  28.209  26.949  1.00  0.00     0.264 C 
ATOM     15  O   UNL A   1      31.067  27.955  27.957  1.00  0.00    -0.268 OA
BRANCH  14  16
ATOM     16  N   UNL A   1      31.276  27.760  25.715  1.00  0.00    -0.335 N 
ATOM     17  C   UNL A   1      30.999  26.352  25.533  1.00  0.00     0.120 C 
ATOM     18  C   UNL A   1      31.040  28.491  24.465  1.00  0.00     0.082 C 
ATOM     19  C   UNL A   1      29.883  26.364  24.506  1.00  0.00     0.024 C 
ATOM     20  C   UNL A   1      30.307  27.482  23.561  1.00  0.00     0.026 C 
ATOM     21  C   UNL A   1      32.350  28.947  23.829  1.00  0.00     0.031 C 
ENDBRANCH  14  16
ENDBRANCH  12  14
ENDBRANCH   7   8
ENDBRANCH   3   6
ENDBRANCH   1   2
BRANCH   1  22
ATOM     22  C   UNL A   1      33.098  36.675  28.893  1.00  0.00     0.042 C 
BRANCH  22  23
ATOM     23  C   UNL A   1      33.464  36.983  30.342  1.00  0.00     0.118 C 
BRANCH  23  24
ATOM     24  N   UNL A   1      32.454  36.506  31.274  1.00  0.00    -0.352 N 
ATOM     25  C   UNL A   1      32.509  35.497  32.201  1.00  0.00     0.251 C 
ATOM     26  H   UNL A   1      31.593  36.984  31.233  1.00  0.00     0.163 HD
ATOM     27  O   UNL A   1      31.474  35.113  32.738  1.00  0.00    -0.269 OA
BRANCH  25  28
ATOM     28  C   UNL A   1      33.797  34.858  32.555  1.00  0.00     0.039 A 
ATOM     29  C   UNL A   1      33.787  33.528  32.988  1.00  0.00     0.014 A 
ATOM     30  C   UNL A   1      34.998  35.572  32.526  1.00  0.00     0.014 A 
ATOM     31  C   UNL A   1      34.983  32.902  33.345  1.00  0.00     0.010 A 
ATOM     32  C   UNL A   1      36.199  34.927  32.819  1.00  0.00     0.010 A 
ATOM     33  C   UNL A   1      36.202  33.590  33.239  1.00  0.00    -0.014 A 
BRANCH  33  34
ATOM     34  C   UNL A   1      37.487  32.926  33.573  1.00  0.00     0.031 A 
ATOM     35  C   UNL A   1      38.092  31.923  32.630  1.00  0.00     0.074 A 
ATOM     36  C   UNL A   1      38.084  33.186  34.753  1.00  0.00     0.049 A 
ATOM     37  N   UNL A   1      39.173  31.200  32.777  1.00  0.00    -0.248 NA
ATOM     38  C   UNL A   1      37.377  31.686  31.366  1.00  0.00     0.031 C 
ATOM     39  C   UNL A   1      37.583  34.111  35.770  1.00  0.00     0.029 A 
ATOM     40  N   UNL A   1      39.239  32.685  35.298  1.00  0.00    -0.354 N 
ATOM     41  C   UNL A   1      39.257  30.410  31.637  1.00  0.00     0.074 A 
ATOM     42  C   UNL A   1      38.096  30.712  30.828  1.00  0.00     0.031 C 
ATOM     43  C   UNL A   1      38.437  34.129  36.806  1.00  0.00     0.029 A 
ATOM     44  C   UNL A   1      39.524  33.191  36.542  1.00  0.00     0.049 A 
ATOM     45  H   UNL A   1      39.809  32.026  34.840  1.00  0.00     0.167 HD
ATOM     46  C   UNL A   1      40.219  29.522  31.287  1.00  0.00     0.031 A 
ATOM     47  C   UNL A   1      40.543  32.927  37.380  1.00  0.00     0.031 A 
ATOM     48  C   UNL A   1      41.380  29.228  32.084  1.00  0.00     0.049 A 
ATOM     49  C   UNL A   1      41.598  31.939  36.971  1.00  0.00     0.074 A 
ATOM     50  C   UNL A   1      42.437  28.384  31.791  1.00  0.00     0.029 A 
ATOM     51  N   UNL A   1      41.638  29.774  33.332  1.00  0.00    -0.354 N 
ATOM     52  N   UNL A   1      41.689  31.240  35.865  1.00  0.00    -0.248 NA
ATOM     53  C   UNL A   1      42.696  31.713  37.921  1.00  0.00     0.031 C 
ATOM     54  C   UNL A   1      43.315  28.387  32.880  1.00  0.00     0.029 A 
ATOM     55  C   UNL A   1      42.828  29.270  33.831  1.00  0.00     0.049 A 
ATOM     56  H   UNL A   1      41.061  30.422  33.795  1.00  0.00     0.167 HD
ATOM     57  C   UNL A   1      42.865  30.511  35.975  1.00  0.00     0.074 A 
ATOM     58  C   UNL A   1      43.460  30.862  37.249  1.00  0.00     0.031 C 
ATOM     59  C   UNL A   1      43.404  29.628  35.100  1.00  0.00     0.031 A 
BRANCH  46  60
ATOM     60  C   UNL A   1      40.048  28.799  29.981  1.00  0.00    -0.014 A 
ATOM     61  C   UNL A   1      40.417  29.396  28.766  1.00  0.00     0.009 A 
ATOM     62  C   UNL A   1      39.539  27.490  29.968  1.00  0.00     0.009 A 
ATOM     63  C   UNL A   1      40.244  28.713  27.560  1.00  0.00     0.001 A 
ATOM     64  C   UNL A   1      39.394  26.800  28.763  1.00  0.00     0.001 A 
ATOM     65  C   UNL A   1      39.737  27.415  27.560  1.00  0.00     0.000 A 
ENDBRANCH  46  60
BRANCH  47  66
ATOM     66  C   UNL A   1      40.625  33.624  38.688  1.00  0.00    -0.014 A 
ATOM     67  C   UNL A   1      41.289  34.855  38.796  1.00  0.00     0.009 A 
ATOM     68  C   UNL A   1      40.036  33.067  39.834  1.00  0.00     0.009 A 
ATOM     69  C   UNL A   1      41.381  35.504  40.029  1.00  0.00     0.001 A 
ATOM     70  C   UNL A   1      40.107  33.731  41.061  1.00  0.00     0.001 A 
ATOM     71  C   UNL A   1      40.786  34.943  41.159  1.00  0.00     0.000 A 
ENDBRANCH  47  66
BRANCH  59  72
ATOM     72  C   UNL A   1      44.717  29.005  35.478  1.00  0.00    -0.014 A 
ATOM     73  C   UNL A   1      45.935  29.630  35.169  1.00  0.00     0.009 A 
ATOM     74  C   UNL A   1      44.732  27.791  36.183  1.00  0.00     0.009 A 
ATOM     75  C   UNL A   1      47.145  29.035  35.533  1.00  0.00     0.001 A 
ATOM     76  C   UNL A   1      45.942  27.212  36.567  1.00  0.00     0.001 A 
ATOM     77  C   UNL A   1      47.146  27.829  36.235  1.00  0.00     0.000 A 
ENDBRANCH  59  72
ENDBRANCH  33  34
ENDBRANCH  25  28
ENDBRANCH  23  24
ENDBRANCH  22  23
ENDBRANCH   1  22
TORSDOF 13
ENDMDL
MODEL 2
REMARK VINA RESULT:     -10.8      0.558      6.044
REMARK SMILES Cc1cc(C(=O)N2CCC[C@@H]2C)sc1/C=C/C(=O)NCCCNC(=O)c1ccc(-c2c3nc(c(-c4ccccc4)c4ccc([nH]4)c(-c4ccccc4)c4nc(c(-c5ccccc5)c5ccc2[nH]5)C=C4)C=C3)cc1
REMARK SMILES IDX 20 1 19 2 17 3 18 4 16 6 15 7 14 8 1 9 2 10 3 11 4 12 13 13
REMARK SMILES IDX 5 14 6 15 7 16 8 17 11 18 9 19 10 20 12 21 21 22 22 23 23 24
REMARK SMILES IDX 24 25 25 27 26 28 27 29 73 30 28 31 72 32 29 33 30 34 31 35
REMARK SMILES IDX 66 36 32 37 71 38 65 39 67 40 33 41 70 42 64 43 63 44 34 46
REMARK SMILES IDX 56 47 41 48 55 49 42 50 45 51 54 52 68 53 43 54 44 55 53 57
REMARK SMILES IDX 69 58 46 59 35 60 36 61 40 62 37 63 39 64 38 65 57 66 58 67
REMARK SMILES IDX 62 68 59 69 61 70 60 71 47 72 48 73 52 74 49 75 51 76 50 77
REMARK H PARENT 19 5 23 26 67 45 45 56
REMARK Flexibility Score: inf
ROOT
ATOM      1  C   UNL A   1      33.692  35.283  28.331  1.00  0.00     0.118 C 
ENDROOT
BRANCH   1   2
ATOM      2  N   UNL A   1      35.040  35.105  28.841  1.00  0.00    -0.352 N 
ATOM      3  C   UNL A   1      35.902  34.063  28.702  1.00  0.00     0.244 C 
ATOM      4  O   UNL A   1      37.050  34.156  29.126  1.00  0.00    -0.270 OA
ATOM      5  H   UNL A   1      35.386  35.859  29.372  1.00  0.00     0.163 HD
BRANCH   3   6
ATOM      6  C   UNL A   1      35.493  32.853  27.961  1.00  0.00     0.072 C 
ATOM      7  C   UNL A   1      34.814  31.839  28.517  1.00  0.00     0.025 C 
BRANCH   7   8
ATOM      8  C   UNL A   1      34.437  30.671  27.784  1.00  0.00     0.031 A 
ATOM      9  C   UNL A   1      36.650  29.356  27.796  1.00  0.00     0.046 C 
ATOM     10  C   UNL A   1      35.223  29.588  27.411  1.00  0.00    -0.032 A 
ATOM     11  C   UNL A   1      34.475  28.649  26.618  1.00  0.00     0.029 A 
ATOM     12  C   UNL A   1      33.149  28.999  26.441  1.00  0.00     0.093 A 
ATOM     13  S   UNL A   1      32.824  30.465  27.238  1.00  0.00    -0.130 S 
BRANCH  12  14
ATOM     14  C   UNL A   1      32.106  28.150  25.871  1.00  0.00     0.264 C 
ATOM     15  O   UNL A   1      31.526  27.321  26.580  1.00  0.00    -0.268 OA
BRANCH  14  16
ATOM     16  N   UNL A   1      31.687  28.312  24.555  1.00  0.00    -0.335 N 
ATOM     17  C   UNL A   1      30.436  27.718  24.134  1.00  0.00     0.120 C 
ATOM     18  C   UNL A   1      32.337  28.987  23.427  1.00  0.00     0.082 C 
ATOM     19  C   UNL A   1      29.964  28.675  23.055  1.00  0.00     0.024 C 
ATOM     20  C   UNL A   1      31.257  29.029  22.329  1.00  0.00     0.026 C 
ATOM     21  C   UNL A   1      33.570  28.223  22.955  1.00  0.00     0.031 C 
ENDBRANCH  14  16
ENDBRANCH  12  14
ENDBRANCH   7   8
ENDBRANCH   3   6
ENDBRANCH   1   2
BRANCH   1  22
ATOM     22  C   UNL A   1      33.083  36.599  28.811  1.00  0.00     0.042 C 
BRANCH  22  23
ATOM     23  C   UNL A   1      33.503  36.980  30.229  1.00  0.00     0.118 C 
BRANCH  23  24
ATOM     24  N   UNL A   1      32.498  36.609  31.214  1.00  0.00    -0.352 N 
ATOM     25  C   UNL A   1      32.519  35.628  32.173  1.00  0.00     0.251 C 
ATOM     26  H   UNL A   1      31.673  37.145  31.188  1.00  0.00     0.163 HD
ATOM     27  O   UNL A   1      31.481  35.338  32.761  1.00  0.00    -0.269 OA
BRANCH  25  28
ATOM     28  C   UNL A   1      33.771  34.910  32.502  1.00  0.00     0.039 A 
ATOM     29  C   UNL A   1      33.688  33.574  32.906  1.00  0.00     0.014 A 
ATOM     30  C   UNL A   1      35.010  35.555  32.476  1.00  0.00     0.014 A 
ATOM     31  C   UNL A   1      34.850  32.873  33.239  1.00  0.00     0.010 A 
ATOM     32  C   UNL A   1      36.175  34.837  32.744  1.00  0.00     0.010 A 
ATOM     33  C   UNL A   1      36.105  33.493  33.136  1.00  0.00    -0.014 A 
BRANCH  33  34
ATOM     34  C   UNL A   1      37.354  32.750  33.444  1.00  0.00     0.031 A 
ATOM     35  C   UNL A   1      38.100  33.015  34.722  1.00  0.00     0.074 A 
ATOM     36  C   UNL A   1      37.846  31.877  32.545  1.00  0.00     0.049 A 
ATOM     37  N   UNL A   1      39.235  32.510  35.134  1.00  0.00    -0.248 NA
ATOM     38  C   UNL A   1      37.504  33.990  35.649  1.00  0.00     0.031 C 
ATOM     39  C   UNL A   1      37.238  31.555  31.253  1.00  0.00     0.029 A 
ATOM     40  N   UNL A   1      38.981  31.105  32.580  1.00  0.00    -0.354 N 
ATOM     41  C   UNL A   1      39.498  33.119  36.355  1.00  0.00     0.074 A 
ATOM     42  C   UNL A   1      38.427  34.060  36.597  1.00  0.00     0.031 C 
ATOM     43  C   UNL A   1      37.993  30.637  30.629  1.00  0.00     0.029 A 
ATOM     44  C   UNL A   1      39.154  30.332  31.458  1.00  0.00     0.049 A 
ATOM     45  H   UNL A   1      39.609  31.105  33.337  1.00  0.00     0.167 HD
ATOM     46  C   UNL A   1      40.531  32.906  37.206  1.00  0.00     0.031 A 
ATOM     47  C   UNL A   1      40.141  29.478  31.130  1.00  0.00     0.031 A 
ATOM     48  C   UNL A   1      41.592  31.962  36.974  1.00  0.00     0.049 A 
ATOM     49  C   UNL A   1      41.276  29.259  32.089  1.00  0.00     0.074 A 
ATOM     50  C   UNL A   1      42.653  31.637  37.799  1.00  0.00     0.029 A 
ATOM     51  N   UNL A   1      41.723  31.189  35.830  1.00  0.00    -0.354 N 
ATOM     52  N   UNL A   1      41.481  29.804  33.263  1.00  0.00    -0.248 NA
ATOM     53  C   UNL A   1      42.309  28.296  31.681  1.00  0.00     0.031 C 
ATOM     54  C   UNL A   1      43.451  30.696  37.138  1.00  0.00     0.029 A 
ATOM     55  C   UNL A   1      42.858  30.401  35.921  1.00  0.00     0.049 A 
ATOM     56  H   UNL A   1      41.102  31.200  35.067  1.00  0.00     0.167 HD
ATOM     57  C   UNL A   1      42.651  29.233  33.745  1.00  0.00     0.074 A 
ATOM     58  C   UNL A   1      43.103  28.290  32.743  1.00  0.00     0.031 C 
ATOM     59  C   UNL A   1      43.294  29.470  34.914  1.00  0.00     0.031 A 
BRANCH  46  60
ATOM     60  C   UNL A   1      40.563  33.719  38.469  1.00  0.00    -0.014 A 
ATOM     61  C   UNL A   1      41.211  34.964  38.515  1.00  0.00     0.009 A 
ATOM     62  C   UNL A   1      39.911  33.249  39.620  1.00  0.00     0.009 A 
ATOM     63  C   UNL A   1      41.238  35.704  39.699  1.00  0.00     0.001 A 
ATOM     64  C   UNL A   1      39.917  34.005  40.794  1.00  0.00     0.001 A 
ATOM     65  C   UNL A   1      40.588  35.226  40.836  1.00  0.00     0.000 A 
ENDBRANCH  46  60
BRANCH  47  66
ATOM     66  C   UNL A   1      40.091  28.751  29.836  1.00  0.00    -0.014 A 
ATOM     67  C   UNL A   1      39.523  27.470  29.765  1.00  0.00     0.009 A 
ATOM     68  C   UNL A   1      40.602  29.334  28.667  1.00  0.00     0.009 A 
ATOM     69  C   UNL A   1      39.490  26.778  28.552  1.00  0.00     0.001 A 
ATOM     70  C   UNL A   1      40.544  28.651  27.451  1.00  0.00     0.001 A 
ATOM     71  C   UNL A   1      39.996  27.371  27.396  1.00  0.00     0.000 A 
ENDBRANCH  47  66
BRANCH  59  72
ATOM     72  C   UNL A   1      44.539  28.674  35.183  1.00  0.00    -0.014 A 
ATOM     73  C   UNL A   1      44.480  27.424  35.818  1.00  0.00     0.009 A 
ATOM     74  C   UNL A   1      45.784  29.169  34.765  1.00  0.00     0.009 A 
ATOM     75  C   UNL A   1      45.649  26.698  36.056  1.00  0.00     0.001 A 
ATOM     76  C   UNL A   1      46.948  28.430  34.981  1.00  0.00     0.001 A 
ATOM     77  C   UNL A   1      46.880  27.201  35.633  1.00  0.00     0.000 A 
ENDBRANCH  59  72
ENDBRANCH  33  34
ENDBRANCH  25  28
ENDBRANCH  23  24
ENDBRANCH  22  23
ENDBRANCH   1  22
TORSDOF 13
ENDMDL
MODEL 3
REMARK VINA RESULT:     -10.8      7.726     12.582
REMARK SMILES Cc1cc(C(=O)N2CCC[C@@H]2C)sc1/C=C/C(=O)NCCCNC(=O)c1ccc(-c2c3nc(c(-c4ccccc4)c4ccc([nH]4)c(-c4ccccc4)c4nc(c(-c5ccccc5)c5ccc2[nH]5)C=C4)C=C3)cc1
REMARK SMILES IDX 20 1 19 2 17 3 18 4 16 6 15 7 14 8 1 9 2 10 3 11 4 12 13 13
REMARK SMILES IDX 5 14 6 15 7 16 8 17 11 18 9 19 10 20 12 21 21 22 22 23 23 24
REMARK SMILES IDX 24 25 25 27 26 28 27 29 73 30 28 31 72 32 29 33 30 34 31 35
REMARK SMILES IDX 66 36 32 37 71 38 65 39 67 40 33 41 70 42 64 43 63 44 34 46
REMARK SMILES IDX 56 47 41 48 55 49 42 50 45 51 54 52 68 53 43 54 44 55 53 57
REMARK SMILES IDX 69 58 46 59 35 60 36 61 40 62 37 63 39 64 38 65 57 66 58 67
REMARK SMILES IDX 62 68 59 69 61 70 60 71 47 72 48 73 52 74 49 75 51 76 50 77
REMARK H PARENT 19 5 23 26 67 45 45 56
REMARK Flexibility Score: inf
ROOT
ATOM      1  C   UNL A   1      41.804  19.380  27.589  1.00  0.00     0.118 C 
ENDROOT
BRANCH   1   2
ATOM      2  N   UNL A   1      42.533  20.551  28.046  1.00  0.00    -0.352 N 
ATOM      3  C   UNL A   1      42.129  21.843  28.170  1.00  0.00     0.244 C 
ATOM      4  O   UNL A   1      42.877  22.670  28.684  1.00  0.00    -0.270 OA
ATOM      5  H   UNL A   1      43.466  20.381  28.307  1.00  0.00     0.163 HD
BRANCH   3   6
ATOM      6  C   UNL A   1      40.764  22.239  27.776  1.00  0.00     0.072 C 
ATOM      7  C   UNL A   1      40.380  22.409  26.502  1.00  0.00     0.025 C 
BRANCH   7   8
ATOM      8  C   UNL A   1      39.055  22.802  26.141  1.00  0.00     0.031 A 
ATOM      9  C   UNL A   1      38.902  25.100  27.291  1.00  0.00     0.046 C 
ATOM     10  C   UNL A   1      38.359  23.949  26.506  1.00  0.00    -0.032 A 
ATOM     11  C   UNL A   1      37.018  23.932  25.986  1.00  0.00     0.029 A 
ATOM     12  C   UNL A   1      36.731  22.822  25.213  1.00  0.00     0.093 A 
ATOM     13  S   UNL A   1      38.093  21.808  25.127  1.00  0.00    -0.130 S 
BRANCH  12  14
ATOM     14  C   UNL A   1      35.540  22.633  24.390  1.00  0.00     0.264 C 
ATOM     15  O   UNL A   1      35.463  23.170  23.280  1.00  0.00    -0.268 OA
BRANCH  14  16
ATOM     16  N   UNL A   1      34.514  21.786  24.794  1.00  0.00    -0.335 N 
ATOM     17  C   UNL A   1      33.362  21.613  23.936  1.00  0.00     0.120 C 
ATOM     18  C   UNL A   1      34.352  21.010  26.028  1.00  0.00     0.082 C 
ATOM     19  C   UNL A   1      32.929  20.192  24.248  1.00  0.00     0.024 C 
ATOM     20  C   UNL A   1      33.142  20.098  25.754  1.00  0.00     0.026 C 
ATOM     21  C   UNL A   1      34.095  21.917  27.228  1.00  0.00     0.031 C 
ENDBRANCH  14  16
ENDBRANCH  12  14
ENDBRANCH   7   8
ENDBRANCH   3   6
ENDBRANCH   1   2
BRANCH   1  22
ATOM     22  C   UNL A   1      42.653  18.525  26.652  1.00  0.00     0.042 C 
BRANCH  22  23
ATOM     23  C   UNL A   1      42.815  19.129  25.259  1.00  0.00     0.118 C 
BRANCH  23  24
ATOM     24  N   UNL A   1      44.086  18.766  24.651  1.00  0.00    -0.352 N 
ATOM     25  C   UNL A   1      45.148  19.552  24.282  1.00  0.00     0.251 C 
ATOM     26  H   UNL A   1      44.203  17.804  24.477  1.00  0.00     0.163 HD
ATOM     27  O   UNL A   1      46.039  19.075  23.585  1.00  0.00    -0.269 OA
BRANCH  25  28
ATOM     28  C   UNL A   1      45.229  20.969  24.702  1.00  0.00     0.039 A 
ATOM     29  C   UNL A   1      45.579  21.255  26.027  1.00  0.00     0.014 A 
ATOM     30  C   UNL A   1      44.903  22.010  23.828  1.00  0.00     0.014 A 
ATOM     31  C   UNL A   1      45.647  22.581  26.459  1.00  0.00     0.010 A 
ATOM     32  C   UNL A   1      45.036  23.334  24.242  1.00  0.00     0.010 A 
ATOM     33  C   UNL A   1      45.400  23.633  25.563  1.00  0.00    -0.014 A 
BRANCH  33  34
ATOM     34  C   UNL A   1      45.511  25.049  25.994  1.00  0.00     0.031 A 
ATOM     35  C   UNL A   1      46.842  25.749  25.969  1.00  0.00     0.074 A 
ATOM     36  C   UNL A   1      44.422  25.689  26.461  1.00  0.00     0.049 A 
ATOM     37  N   UNL A   1      47.144  26.960  26.364  1.00  0.00    -0.248 NA
ATOM     38  C   UNL A   1      47.986  24.980  25.455  1.00  0.00     0.031 C 
ATOM     39  C   UNL A   1      43.080  25.113  26.569  1.00  0.00     0.029 A 
ATOM     40  N   UNL A   1      44.275  26.966  26.941  1.00  0.00    -0.354 N 
ATOM     41  C   UNL A   1      48.513  27.091  26.164  1.00  0.00     0.074 A 
ATOM     42  C   UNL A   1      48.988  25.824  25.654  1.00  0.00     0.031 C 
ATOM     43  C   UNL A   1      42.243  26.040  27.062  1.00  0.00     0.029 A 
ATOM     44  C   UNL A   1      42.993  27.260  27.338  1.00  0.00     0.049 A 
ATOM     45  H   UNL A   1      45.018  27.610  26.996  1.00  0.00     0.167 HD
ATOM     46  C   UNL A   1      49.302  28.172  26.373  1.00  0.00     0.031 A 
ATOM     47  C   UNL A   1      42.480  28.385  27.870  1.00  0.00     0.031 A 
ATOM     48  C   UNL A   1      48.830  29.438  26.869  1.00  0.00     0.049 A 
ATOM     49  C   UNL A   1      43.375  29.570  28.093  1.00  0.00     0.074 A 
ATOM     50  C   UNL A   1      49.542  30.608  27.066  1.00  0.00     0.029 A 
ATOM     51  N   UNL A   1      47.521  29.698  27.246  1.00  0.00    -0.354 N 
ATOM     52  N   UNL A   1      44.657  29.694  27.848  1.00  0.00    -0.248 NA
ATOM     53  C   UNL A   1      42.747  30.775  28.654  1.00  0.00     0.031 C 
ATOM     54  C   UNL A   1      48.673  31.565  27.599  1.00  0.00     0.029 A 
ATOM     55  C   UNL A   1      47.409  31.005  27.690  1.00  0.00     0.049 A 
ATOM     56  H   UNL A   1      46.782  29.050  27.204  1.00  0.00     0.167 HD
ATOM     57  C   UNL A   1      44.985  30.996  28.203  1.00  0.00     0.074 A 
ATOM     58  C   UNL A   1      43.765  31.626  28.665  1.00  0.00     0.031 C 
ATOM     59  C   UNL A   1      46.189  31.615  28.149  1.00  0.00     0.031 A 
BRANCH  46  60
ATOM     60  C   UNL A   1      50.766  28.026  26.069  1.00  0.00    -0.014 A 
ATOM     61  C   UNL A   1      51.267  28.259  24.779  1.00  0.00     0.009 A 
ATOM     62  C   UNL A   1      51.662  27.681  27.094  1.00  0.00     0.009 A 
ATOM     63  C   UNL A   1      52.630  28.113  24.512  1.00  0.00     0.001 A 
ATOM     64  C   UNL A   1      53.028  27.561  26.828  1.00  0.00     0.001 A 
ATOM     65  C   UNL A   1      53.509  27.767  25.536  1.00  0.00     0.000 A 
ENDBRANCH  46  60
BRANCH  47  66
ATOM     66  C   UNL A   1      41.037  28.449  28.213  1.00  0.00    -0.014 A 
ATOM     67  C   UNL A   1      40.587  28.007  29.467  1.00  0.00     0.009 A 
ATOM     68  C   UNL A   1      40.105  28.955  27.295  1.00  0.00     0.009 A 
ATOM     69  C   UNL A   1      39.228  28.051  29.785  1.00  0.00     0.001 A 
ATOM     70  C   UNL A   1      38.749  29.021  27.626  1.00  0.00     0.001 A 
ATOM     71  C   UNL A   1      38.311  28.562  28.866  1.00  0.00     0.000 A 
ENDBRANCH  47  66
BRANCH  59  72
ATOM     72  C   UNL A   1      46.238  33.054  28.575  1.00  0.00    -0.014 A 
ATOM     73  C   UNL A   1      46.033  34.093  27.654  1.00  0.00     0.009 A 
ATOM     74  C   UNL A   1      46.459  33.372  29.924  1.00  0.00     0.009 A 
ATOM     75  C   UNL A   1      46.080  35.424  28.072  1.00  0.00     0.001 A 
ATOM     76  C   UNL A   1      46.480  34.703  30.343  1.00  0.00     0.001 A 
ATOM     77  C   UNL A   1      46.299  35.727  29.416  1.00  0.00     0.000 A 
ENDBRANCH  59  72
ENDBRANCH  33  34
ENDBRANCH  25  28
ENDBRANCH  23  24
ENDBRANCH  22  23
ENDBRANCH   1  22
TORSDOF 13
ENDMDL
