MODEL 1
REMARK VINA RESULT:     -12.6      0.000      0.000
REMARK SMILES O=C(NCCCNC(=O)c1sccc1S(=O)(=O)Nc1ccc(-c2nc3ccccc3n2C(F)F)cc1)c1ccc(-c2c3nc(c(-c4ccccc4)c4ccc([nH]4)c(-c4ccccc4)c4nc(c(-c5ccccc5)c5ccc2[nH]5)C=C4)C=C3)cc1
REMARK SMILES IDX 7 1 8 2 9 3 6 5 5 6 4 7 3 8 1 9 2 10 37 12 38 13 84 14 39 15
REMARK SMILES IDX 83 16 40 17 41 18 42 19 77 20 43 21 82 22 76 23 78 24 44 25
REMARK SMILES IDX 81 26 75 27 74 28 45 30 67 31 52 32 66 33 53 34 56 35 65 36
REMARK SMILES IDX 79 37 54 38 55 39 64 41 80 42 57 43 46 44 47 45 51 46 48 47
REMARK SMILES IDX 50 48 49 49 68 50 69 51 73 52 70 53 72 54 71 55 58 56 59 57
REMARK SMILES IDX 63 58 60 59 62 60 61 61 10 62 11 63 14 64 12 65 13 66 15 67
REMARK SMILES IDX 16 68 17 69 18 70 19 72 20 73 36 74 21 75 35 76 22 77 23 78
REMARK SMILES IDX 24 79 31 80 25 81 30 82 26 83 29 84 27 85 28 86 32 87 33 88
REMARK SMILES IDX 34 89
REMARK H PARENT 7 4 3 11 78 29 56 40 18 71
REMARK Flexibility Score: inf
ROOT
ATOM      1  N   UNL A   1      31.247  26.736  26.875  1.00  0.00    -0.351 N 
ATOM      2  C   UNL A   1      30.528  25.907  26.066  1.00  0.00     0.262 C 
ATOM      3  O   UNL A   1      29.418  25.575  26.488  1.00  0.00    -0.268 OA
ATOM      4  H   UNL A   1      30.889  26.837  27.787  1.00  0.00     0.163 HD
ENDROOT
BRANCH   1   5
ATOM      5  C   UNL A   1      32.451  27.491  26.610  1.00  0.00     0.118 C 
BRANCH   5   6
ATOM      6  C   UNL A   1      32.268  28.950  26.988  1.00  0.00     0.042 C 
BRANCH   6   7
ATOM      7  C   UNL A   1      33.540  29.796  26.849  1.00  0.00     0.118 C 
BRANCH   7   8
ATOM      8  N   UNL A   1      33.693  30.840  27.840  1.00  0.00    -0.352 N 
ATOM      9  O   UNL A   1      34.577  32.469  29.045  1.00  0.00    -0.269 OA
ATOM     10  C   UNL A   1      34.782  31.420  28.429  1.00  0.00     0.251 C 
ATOM     11  H   UNL A   1      32.836  31.207  28.156  1.00  0.00     0.163 HD
BRANCH  10  12
ATOM     12  C   UNL A   1      36.145  30.827  28.453  1.00  0.00     0.039 A 
ATOM     13  C   UNL A   1      36.445  29.476  28.275  1.00  0.00     0.014 A 
ATOM     14  C   UNL A   1      37.192  31.708  28.777  1.00  0.00     0.014 A 
ATOM     15  C   UNL A   1      37.708  28.987  28.572  1.00  0.00     0.010 A 
ATOM     16  C   UNL A   1      38.471  31.235  29.032  1.00  0.00     0.010 A 
ATOM     17  C   UNL A   1      38.710  29.866  28.985  1.00  0.00    -0.014 A 
BRANCH  17  18
ATOM     18  C   UNL A   1      40.047  29.322  29.173  1.00  0.00     0.031 A 
ATOM     19  C   UNL A   1      40.367  28.993  30.593  1.00  0.00     0.074 A 
ATOM     20  C   UNL A   1      40.871  29.010  28.154  1.00  0.00     0.049 A 
ATOM     21  N   UNL A   1      41.324  29.460  31.326  1.00  0.00    -0.248 NA
ATOM     22  C   UNL A   1      39.420  28.132  31.322  1.00  0.00     0.031 C 
ATOM     23  C   UNL A   1      40.576  29.026  26.719  1.00  0.00     0.029 A 
ATOM     24  N   UNL A   1      42.127  28.485  28.200  1.00  0.00    -0.354 N 
ATOM     25  C   UNL A   1      41.212  28.816  32.558  1.00  0.00     0.074 A 
ATOM     26  C   UNL A   1      39.948  28.127  32.545  1.00  0.00     0.031 C 
ATOM     27  C   UNL A   1      41.514  28.305  26.064  1.00  0.00     0.029 A 
ATOM     28  C   UNL A   1      42.541  27.898  27.009  1.00  0.00     0.049 A 
ATOM     29  H   UNL A   1      42.694  28.518  29.004  1.00  0.00     0.167 HD
ATOM     30  C   UNL A   1      42.274  28.699  33.402  1.00  0.00     0.031 A 
ATOM     31  C   UNL A   1      43.608  27.078  26.833  1.00  0.00     0.031 A 
ATOM     32  C   UNL A   1      43.300  29.663  33.105  1.00  0.00     0.049 A 
ATOM     33  C   UNL A   1      44.515  27.264  27.986  1.00  0.00     0.074 A 
ATOM     34  C   UNL A   1      43.373  31.041  33.087  1.00  0.00     0.029 A 
ATOM     35  N   UNL A   1      44.393  29.220  32.399  1.00  0.00    -0.354 N 
ATOM     36  N   UNL A   1      45.186  28.358  28.201  1.00  0.00    -0.248 NA
ATOM     37  C   UNL A   1      44.334  26.402  29.142  1.00  0.00     0.031 C 
ATOM     38  C   UNL A   1      44.209  31.348  31.971  1.00  0.00     0.029 A 
ATOM     39  C   UNL A   1      44.648  30.143  31.421  1.00  0.00     0.049 A 
ATOM     40  H   UNL A   1      44.898  28.393  32.566  1.00  0.00     0.167 HD
ATOM     41  C   UNL A   1      45.115  28.546  29.573  1.00  0.00     0.074 A 
ATOM     42  C   UNL A   1      44.665  27.262  30.110  1.00  0.00     0.031 C 
ATOM     43  C   UNL A   1      45.151  29.800  30.112  1.00  0.00     0.031 A 
BRANCH  30  44
ATOM     44  C   UNL A   1      42.576  27.426  34.164  1.00  0.00    -0.014 A 
ATOM     45  C   UNL A   1      43.485  26.510  33.601  1.00  0.00     0.009 A 
ATOM     46  C   UNL A   1      41.779  26.950  35.223  1.00  0.00     0.009 A 
ATOM     47  C   UNL A   1      43.501  25.165  33.992  1.00  0.00     0.001 A 
ATOM     48  C   UNL A   1      41.823  25.618  35.644  1.00  0.00     0.001 A 
ATOM     49  C   UNL A   1      42.658  24.717  35.001  1.00  0.00     0.000 A 
ENDBRANCH  30  44
BRANCH  31  50
ATOM     50  C   UNL A   1      43.753  25.933  25.907  1.00  0.00    -0.014 A 
ATOM     51  C   UNL A   1      45.019  25.533  25.444  1.00  0.00     0.009 A 
ATOM     52  C   UNL A   1      42.675  25.053  25.700  1.00  0.00     0.009 A 
ATOM     53  C   UNL A   1      45.200  24.285  24.830  1.00  0.00     0.001 A 
ATOM     54  C   UNL A   1      42.856  23.809  25.085  1.00  0.00     0.001 A 
ATOM     55  C   UNL A   1      44.122  23.419  24.663  1.00  0.00     0.000 A 
ENDBRANCH  31  50
BRANCH  43  56
ATOM     56  C   UNL A   1      45.498  30.952  29.204  1.00  0.00    -0.014 A 
ATOM     57  C   UNL A   1      44.545  31.634  28.427  1.00  0.00     0.009 A 
ATOM     58  C   UNL A   1      46.804  31.461  29.253  1.00  0.00     0.009 A 
ATOM     59  C   UNL A   1      44.900  32.774  27.698  1.00  0.00     0.001 A 
ATOM     60  C   UNL A   1      47.153  32.610  28.542  1.00  0.00     0.001 A 
ATOM     61  C   UNL A   1      46.202  33.263  27.760  1.00  0.00     0.000 A 
ENDBRANCH  43  56
ENDBRANCH  17  18
ENDBRANCH  10  12
ENDBRANCH   7   8
ENDBRANCH   6   7
ENDBRANCH   5   6
ENDBRANCH   1   5
BRANCH   2  62
ATOM     62  C   UNL A   1      31.042  25.519  24.775  1.00  0.00     0.112 A 
ATOM     63  S   UNL A   1      30.680  26.626  23.497  1.00  0.00    -0.137 S 
ATOM     64  C   UNL A   1      31.732  24.416  24.299  1.00  0.00     0.111 A 
ATOM     65  C   UNL A   1      31.536  25.710  22.350  1.00  0.00     0.067 A 
ATOM     66  C   UNL A   1      32.055  24.566  22.903  1.00  0.00     0.035 A 
BRANCH  64  67
ATOM     67  S   UNL A   1      32.218  22.957  25.114  1.00  0.00     0.263 S 
ATOM     68  O   UNL A   1      33.037  23.437  26.199  1.00  0.00    -0.201 OA
ATOM     69  O   UNL A   1      30.943  22.313  25.381  1.00  0.00    -0.201 OA
BRANCH  67  70
ATOM     70  N   UNL A   1      33.096  21.840  24.253  1.00  0.00    -0.280 N 
ATOM     71  H   UNL A   1      32.596  21.244  23.650  1.00  0.00     0.180 HD
BRANCH  70  72
ATOM     72  C   UNL A   1      34.498  21.672  24.312  1.00  0.00     0.049 A 
ATOM     73  C   UNL A   1      35.267  22.750  23.860  1.00  0.00     0.027 A 
ATOM     74  C   UNL A   1      35.117  20.602  24.933  1.00  0.00     0.027 A 
ATOM     75  C   UNL A   1      36.617  22.859  24.216  1.00  0.00     0.014 A 
ATOM     76  C   UNL A   1      36.466  20.713  25.275  1.00  0.00     0.014 A 
ATOM     77  C   UNL A   1      37.221  21.874  24.998  1.00  0.00     0.018 A 
BRANCH  77  78
ATOM     78  C   UNL A   1      38.555  21.961  25.628  1.00  0.00     0.145 A 
ATOM     79  N   UNL A   1      39.407  20.948  25.562  1.00  0.00    -0.228 NA
ATOM     80  N   UNL A   1      39.085  22.940  26.455  1.00  0.00    -0.266 N 
ATOM     81  C   UNL A   1      40.407  21.201  26.449  1.00  0.00     0.089 A 
ATOM     82  C   UNL A   1      40.228  22.436  27.056  1.00  0.00     0.074 A 
ATOM     83  C   UNL A   1      41.501  20.398  26.793  1.00  0.00     0.030 A 
ATOM     84  C   UNL A   1      41.111  22.917  28.036  1.00  0.00     0.029 A 
ATOM     85  C   UNL A   1      42.398  20.864  27.758  1.00  0.00     0.002 A 
ATOM     86  C   UNL A   1      42.200  22.101  28.371  1.00  0.00     0.002 A 
BRANCH  80  87
ATOM     87  C   UNL A   1      38.595  24.282  26.669  1.00  0.00     0.451 C 
ATOM     88  F   UNL A   1      38.467  24.559  27.996  1.00  0.00    -0.185 F 
ATOM     89  F   UNL A   1      39.421  25.228  26.146  1.00  0.00    -0.185 F 
ENDBRANCH  80  87
ENDBRANCH  77  78
ENDBRANCH  70  72
ENDBRANCH  67  70
ENDBRANCH  64  67
ENDBRANCH   2  62
TORSDOF 15
ENDMDL
MODEL 2
REMARK VINA RESULT:     -12.3      4.112      9.305
REMARK SMILES O=C(NCCCNC(=O)c1sccc1S(=O)(=O)Nc1ccc(-c2nc3ccccc3n2C(F)F)cc1)c1ccc(-c2c3nc(c(-c4ccccc4)c4ccc([nH]4)c(-c4ccccc4)c4nc(c(-c5ccccc5)c5ccc2[nH]5)C=C4)C=C3)cc1
REMARK SMILES IDX 7 1 8 2 9 3 6 5 5 6 4 7 3 8 1 9 2 10 37 12 38 13 84 14 39 15
REMARK SMILES IDX 83 16 40 17 41 18 42 19 77 20 43 21 82 22 76 23 78 24 44 25
REMARK SMILES IDX 81 26 75 27 74 28 45 30 67 31 52 32 66 33 53 34 56 35 65 36
REMARK SMILES IDX 79 37 54 38 55 39 64 41 80 42 57 43 46 44 47 45 51 46 48 47
REMARK SMILES IDX 50 48 49 49 68 50 69 51 73 52 70 53 72 54 71 55 58 56 59 57
REMARK SMILES IDX 63 58 60 59 62 60 61 61 10 62 11 63 14 64 12 65 13 66 15 67
REMARK SMILES IDX 16 68 17 69 18 70 19 72 20 73 36 74 21 75 35 76 22 77 23 78
REMARK SMILES IDX 24 79 31 80 25 81 30 82 26 83 29 84 27 85 28 86 32 87 33 88
REMARK SMILES IDX 34 89
REMARK H PARENT 7 4 3 11 78 29 56 40 18 71
REMARK Flexibility Score: inf
ROOT
ATOM      1  N   UNL A   1      43.583  23.204  26.338  1.00  0.00    -0.351 N 
ATOM      2  C   UNL A   1      43.410  22.361  25.280  1.00  0.00     0.262 C 
ATOM      3  O   UNL A   1      43.359  22.895  24.170  1.00  0.00    -0.268 OA
ATOM      4  H   UNL A   1      43.467  24.159  26.128  1.00  0.00     0.163 HD
ENDROOT
BRANCH   1   5
ATOM      5  C   UNL A   1      43.910  22.922  27.717  1.00  0.00     0.118 C 
BRANCH   5   6
ATOM      6  C   UNL A   1      42.716  23.179  28.619  1.00  0.00     0.042 C 
BRANCH   6   7
ATOM      7  C   UNL A   1      43.083  23.429  30.087  1.00  0.00     0.118 C 
BRANCH   7   8
ATOM      8  N   UNL A   1      44.428  23.917  30.307  1.00  0.00    -0.352 N 
ATOM      9  O   UNL A   1      46.117  25.133  31.053  1.00  0.00    -0.269 OA
ATOM     10  C   UNL A   1      44.932  25.122  30.711  1.00  0.00     0.251 C 
ATOM     11  H   UNL A   1      45.122  23.243  30.129  1.00  0.00     0.163 HD
BRANCH  10  12
ATOM     12  C   UNL A   1      44.184  26.407  30.671  1.00  0.00     0.039 A 
ATOM     13  C   UNL A   1      43.888  27.208  31.774  1.00  0.00     0.014 A 
ATOM     14  C   UNL A   1      43.664  26.774  29.417  1.00  0.00     0.014 A 
ATOM     15  C   UNL A   1      42.970  28.243  31.670  1.00  0.00     0.010 A 
ATOM     16  C   UNL A   1      42.780  27.837  29.293  1.00  0.00     0.010 A 
ATOM     17  C   UNL A   1      42.392  28.531  30.434  1.00  0.00    -0.014 A 
BRANCH  17  18
ATOM     18  C   UNL A   1      41.524  29.698  30.353  1.00  0.00     0.031 A 
ATOM     19  C   UNL A   1      42.254  30.972  30.092  1.00  0.00     0.074 A 
ATOM     20  C   UNL A   1      40.179  29.624  30.368  1.00  0.00     0.049 A 
ATOM     21  N   UNL A   1      42.281  32.041  30.818  1.00  0.00    -0.248 NA
ATOM     22  C   UNL A   1      43.171  31.007  28.939  1.00  0.00     0.031 C 
ATOM     23  C   UNL A   1      39.342  28.421  30.343  1.00  0.00     0.029 A 
ATOM     24  N   UNL A   1      39.265  30.631  30.284  1.00  0.00    -0.354 N 
ATOM     25  C   UNL A   1      43.075  32.955  30.125  1.00  0.00     0.074 A 
ATOM     26  C   UNL A   1      43.707  32.220  29.060  1.00  0.00     0.031 C 
ATOM     27  C   UNL A   1      38.080  28.765  29.997  1.00  0.00     0.029 A 
ATOM     28  C   UNL A   1      37.993  30.213  29.912  1.00  0.00     0.049 A 
ATOM     29  H   UNL A   1      39.486  31.572  30.470  1.00  0.00     0.167 HD
ATOM     30  C   UNL A   1      42.965  34.296  30.329  1.00  0.00     0.031 A 
ATOM     31  C   UNL A   1      36.967  30.998  29.496  1.00  0.00     0.031 A 
ATOM     32  C   UNL A   1      42.334  34.594  31.588  1.00  0.00     0.049 A 
ATOM     33  C   UNL A   1      37.257  32.384  29.924  1.00  0.00     0.074 A 
ATOM     34  C   UNL A   1      42.625  34.341  32.913  1.00  0.00     0.029 A 
ATOM     35  N   UNL A   1      41.007  34.950  31.556  1.00  0.00    -0.354 N 
ATOM     36  N   UNL A   1      37.257  32.765  31.168  1.00  0.00    -0.248 NA
ATOM     37  C   UNL A   1      37.985  33.243  29.005  1.00  0.00     0.031 C 
ATOM     38  C   UNL A   1      41.361  34.079  33.521  1.00  0.00     0.029 A 
ATOM     39  C   UNL A   1      40.374  34.253  32.549  1.00  0.00     0.049 A 
ATOM     40  H   UNL A   1      40.590  35.588  30.934  1.00  0.00     0.167 HD
ATOM     41  C   UNL A   1      38.336  33.629  31.268  1.00  0.00     0.074 A 
ATOM     42  C   UNL A   1      38.686  33.962  29.887  1.00  0.00     0.031 C 
ATOM     43  C   UNL A   1      39.021  33.763  32.442  1.00  0.00     0.031 A 
BRANCH  30  44
ATOM     44  C   UNL A   1      42.994  35.301  29.197  1.00  0.00    -0.014 A 
ATOM     45  C   UNL A   1      43.708  36.499  29.384  1.00  0.00     0.009 A 
ATOM     46  C   UNL A   1      42.102  35.265  28.107  1.00  0.00     0.009 A 
ATOM     47  C   UNL A   1      43.448  37.633  28.605  1.00  0.00     0.001 A 
ATOM     48  C   UNL A   1      41.872  36.382  27.300  1.00  0.00     0.001 A 
ATOM     49  C   UNL A   1      42.517  37.578  27.575  1.00  0.00     0.000 A 
ENDBRANCH  30  44
BRANCH  31  50
ATOM     50  C   UNL A   1      35.915  30.697  28.499  1.00  0.00    -0.014 A 
ATOM     51  C   UNL A   1      35.808  29.419  27.925  1.00  0.00     0.009 A 
ATOM     52  C   UNL A   1      34.838  31.584  28.321  1.00  0.00     0.009 A 
ATOM     53  C   UNL A   1      34.652  29.036  27.229  1.00  0.00     0.001 A 
ATOM     54  C   UNL A   1      33.685  31.202  27.626  1.00  0.00     0.001 A 
ATOM     55  C   UNL A   1      33.587  29.922  27.093  1.00  0.00     0.000 A 
ENDBRANCH  31  50
BRANCH  43  56
ATOM     56  C   UNL A   1      38.437  33.130  33.679  1.00  0.00    -0.014 A 
ATOM     57  C   UNL A   1      38.616  31.774  34.007  1.00  0.00     0.009 A 
ATOM     58  C   UNL A   1      37.815  33.965  34.618  1.00  0.00     0.009 A 
ATOM     59  C   UNL A   1      38.158  31.268  35.229  1.00  0.00     0.001 A 
ATOM     60  C   UNL A   1      37.378  33.464  35.845  1.00  0.00     0.001 A 
ATOM     61  C   UNL A   1      37.543  32.114  36.148  1.00  0.00     0.000 A 
ENDBRANCH  43  56
ENDBRANCH  17  18
ENDBRANCH  10  12
ENDBRANCH   7   8
ENDBRANCH   6   7
ENDBRANCH   5   6
ENDBRANCH   1   5
BRANCH   2  62
ATOM     62  C   UNL A   1      43.360  20.934  25.484  1.00  0.00     0.112 A 
ATOM     63  S   UNL A   1      44.810  20.097  25.054  1.00  0.00    -0.137 S 
ATOM     64  C   UNL A   1      42.381  20.050  25.909  1.00  0.00     0.111 A 
ATOM     65  C   UNL A   1      44.185  18.594  25.543  1.00  0.00     0.067 A 
ATOM     66  C   UNL A   1      42.891  18.704  25.985  1.00  0.00     0.035 A 
BRANCH  64  67
ATOM     67  S   UNL A   1      40.714  20.333  26.323  1.00  0.00     0.263 S 
ATOM     68  O   UNL A   1      40.031  19.199  25.752  1.00  0.00    -0.201 OA
ATOM     69  O   UNL A   1      40.779  20.506  27.764  1.00  0.00    -0.201 OA
BRANCH  67  70
ATOM     70  N   UNL A   1      39.994  21.716  25.751  1.00  0.00    -0.280 N 
ATOM     71  H   UNL A   1      40.588  22.430  25.424  1.00  0.00     0.180 HD
BRANCH  70  72
ATOM     72  C   UNL A   1      38.603  21.957  25.692  1.00  0.00     0.049 A 
ATOM     73  C   UNL A   1      38.178  23.216  26.129  1.00  0.00     0.027 A 
ATOM     74  C   UNL A   1      37.701  21.104  25.083  1.00  0.00     0.027 A 
ATOM     75  C   UNL A   1      36.915  23.705  25.770  1.00  0.00     0.014 A 
ATOM     76  C   UNL A   1      36.440  21.594  24.737  1.00  0.00     0.014 A 
ATOM     77  C   UNL A   1      36.052  22.926  24.999  1.00  0.00     0.018 A 
BRANCH  77  78
ATOM     78  C   UNL A   1      34.798  23.386  24.366  1.00  0.00     0.145 A 
ATOM     79  N   UNL A   1      34.815  24.028  23.207  1.00  0.00    -0.228 NA
ATOM     80  N   UNL A   1      33.502  23.384  24.860  1.00  0.00    -0.266 N 
ATOM     81  C   UNL A   1      33.578  24.563  23.022  1.00  0.00     0.089 A 
ATOM     82  C   UNL A   1      32.725  24.204  24.056  1.00  0.00     0.074 A 
ATOM     83  C   UNL A   1      33.121  25.384  21.984  1.00  0.00     0.030 A 
ATOM     84  C   UNL A   1      31.396  24.655  24.113  1.00  0.00     0.029 A 
ATOM     85  C   UNL A   1      31.798  25.834  22.016  1.00  0.00     0.002 A 
ATOM     86  C   UNL A   1      30.955  25.478  23.068  1.00  0.00     0.002 A 
BRANCH  80  87
ATOM     87  C   UNL A   1      32.983  22.649  25.990  1.00  0.00     0.451 C 
ATOM     88  F   UNL A   1      32.981  21.309  25.751  1.00  0.00    -0.185 F 
ATOM     89  F   UNL A   1      33.711  22.848  27.121  1.00  0.00    -0.185 F 
ENDBRANCH  80  87
ENDBRANCH  77  78
ENDBRANCH  70  72
ENDBRANCH  67  70
ENDBRANCH  64  67
ENDBRANCH   2  62
TORSDOF 15
ENDMDL
MODEL 3
REMARK VINA RESULT:     -12.0      2.389      3.428
REMARK SMILES O=C(NCCCNC(=O)c1sccc1S(=O)(=O)Nc1ccc(-c2nc3ccccc3n2C(F)F)cc1)c1ccc(-c2c3nc(c(-c4ccccc4)c4ccc([nH]4)c(-c4ccccc4)c4nc(c(-c5ccccc5)c5ccc2[nH]5)C=C4)C=C3)cc1
REMARK SMILES IDX 7 1 8 2 9 3 6 5 5 6 4 7 3 8 1 9 2 10 37 12 38 13 84 14 39 15
REMARK SMILES IDX 83 16 40 17 41 18 42 19 77 20 43 21 82 22 76 23 78 24 44 25
REMARK SMILES IDX 81 26 75 27 74 28 45 30 67 31 52 32 66 33 53 34 56 35 65 36
REMARK SMILES IDX 79 37 54 38 55 39 64 41 80 42 57 43 46 44 47 45 51 46 48 47
REMARK SMILES IDX 50 48 49 49 68 50 69 51 73 52 70 53 72 54 71 55 58 56 59 57
REMARK SMILES IDX 63 58 60 59 62 60 61 61 10 62 11 63 14 64 12 65 13 66 15 67
REMARK SMILES IDX 16 68 17 69 18 70 19 72 20 73 36 74 21 75 35 76 22 77 23 78
REMARK SMILES IDX 24 79 31 80 25 81 30 82 26 83 29 84 27 85 28 86 32 87 33 88
REMARK SMILES IDX 34 89
REMARK H PARENT 7 4 3 11 78 29 56 40 18 71
REMARK Flexibility Score: inf
ROOT
ATOM      1  N   UNL A   1      31.536  30.298  25.372  1.00  0.00    -0.351 N 
ATOM      2  C   UNL A   1      30.991  29.726  24.261  1.00  0.00     0.262 C 
ATOM      3  O   UNL A   1      29.986  30.279  23.809  1.00  0.00    -0.268 OA
ATOM      4  H   UNL A   1      30.971  30.980  25.805  1.00  0.00     0.163 HD
ENDROOT
BRANCH   1   5
ATOM      5  C   UNL A   1      32.807  30.067  26.018  1.00  0.00     0.118 C 
BRANCH   5   6
ATOM      6  C   UNL A   1      32.981  30.984  27.215  1.00  0.00     0.042 C 
BRANCH   6   7
ATOM      7  C   UNL A   1      34.427  31.095  27.714  1.00  0.00     0.118 C 
BRANCH   7   8
ATOM      8  N   UNL A   1      34.574  31.619  29.056  1.00  0.00    -0.352 N 
ATOM      9  O   UNL A   1      35.494  32.377  30.918  1.00  0.00    -0.269 OA
ATOM     10  C   UNL A   1      35.603  31.611  29.957  1.00  0.00     0.251 C 
ATOM     11  H   UNL A   1      33.767  32.073  29.388  1.00  0.00     0.163 HD
BRANCH  10  12
ATOM     12  C   UNL A   1      36.769  30.689  29.900  1.00  0.00     0.039 A 
ATOM     13  C   UNL A   1      36.765  29.352  30.299  1.00  0.00     0.014 A 
ATOM     14  C   UNL A   1      37.986  31.265  29.495  1.00  0.00     0.014 A 
ATOM     15  C   UNL A   1      37.955  28.657  30.450  1.00  0.00     0.010 A 
ATOM     16  C   UNL A   1      39.178  30.562  29.599  1.00  0.00     0.010 A 
ATOM     17  C   UNL A   1      39.163  29.278  30.133  1.00  0.00    -0.014 A 
BRANCH  17  18
ATOM     18  C   UNL A   1      40.373  28.470  30.198  1.00  0.00     0.031 A 
ATOM     19  C   UNL A   1      40.987  28.418  31.558  1.00  0.00     0.074 A 
ATOM     20  C   UNL A   1      40.824  27.724  29.171  1.00  0.00     0.049 A 
ATOM     21  N   UNL A   1      42.174  28.784  31.914  1.00  0.00    -0.248 NA
ATOM     22  C   UNL A   1      40.118  28.026  32.681  1.00  0.00     0.031 C 
ATOM     23  C   UNL A   1      40.169  27.474  27.884  1.00  0.00     0.029 A 
ATOM     24  N   UNL A   1      41.923  26.922  29.114  1.00  0.00    -0.354 N 
ATOM     25  C   UNL A   1      42.269  28.502  33.276  1.00  0.00     0.074 A 
ATOM     26  C   UNL A   1      40.938  28.177  33.720  1.00  0.00     0.031 C 
ATOM     27  C   UNL A   1      40.746  26.403  27.293  1.00  0.00     0.029 A 
ATOM     28  C   UNL A   1      41.887  25.983  28.089  1.00  0.00     0.049 A 
ATOM     29  H   UNL A   1      42.676  26.999  29.743  1.00  0.00     0.167 HD
ATOM     30  C   UNL A   1      43.473  28.320  33.886  1.00  0.00     0.031 A 
ATOM     31  C   UNL A   1      42.692  24.899  27.949  1.00  0.00     0.031 A 
ATOM     32  C   UNL A   1      44.550  28.890  33.120  1.00  0.00     0.049 A 
ATOM     33  C   UNL A   1      43.890  25.115  28.791  1.00  0.00     0.074 A 
ATOM     34  C   UNL A   1      44.878  30.158  32.686  1.00  0.00     0.029 A 
ATOM     35  N   UNL A   1      45.312  28.027  32.369  1.00  0.00    -0.354 N 
ATOM     36  N   UNL A   1      44.790  26.019  28.537  1.00  0.00    -0.248 NA
ATOM     37  C   UNL A   1      43.858  24.628  30.160  1.00  0.00     0.031 C 
ATOM     38  C   UNL A   1      45.433  29.967  31.385  1.00  0.00     0.029 A 
ATOM     39  C   UNL A   1      45.473  28.594  31.134  1.00  0.00     0.049 A 
ATOM     40  H   UNL A   1      45.674  27.162  32.665  1.00  0.00     0.167 HD
ATOM     41  C   UNL A   1      45.121  26.539  29.779  1.00  0.00     0.074 A 
ATOM     42  C   UNL A   1      44.591  25.579  30.747  1.00  0.00     0.031 C 
ATOM     43  C   UNL A   1      45.538  27.833  29.910  1.00  0.00     0.031 A 
BRANCH  30  44
ATOM     44  C   UNL A   1      43.714  27.231  34.909  1.00  0.00    -0.014 A 
ATOM     45  C   UNL A   1      43.485  25.895  34.531  1.00  0.00     0.009 A 
ATOM     46  C   UNL A   1      43.839  27.480  36.290  1.00  0.00     0.009 A 
ATOM     47  C   UNL A   1      43.266  24.893  35.484  1.00  0.00     0.001 A 
ATOM     48  C   UNL A   1      43.664  26.474  37.244  1.00  0.00     0.001 A 
ATOM     49  C   UNL A   1      43.339  25.188  36.840  1.00  0.00     0.000 A 
ENDBRANCH  30  44
BRANCH  31  50
ATOM     50  C   UNL A   1      42.366  23.569  27.388  1.00  0.00    -0.014 A 
ATOM     51  C   UNL A   1      43.104  23.034  26.318  1.00  0.00     0.009 A 
ATOM     52  C   UNL A   1      41.510  22.700  28.089  1.00  0.00     0.009 A 
ATOM     53  C   UNL A   1      43.012  21.674  25.988  1.00  0.00     0.001 A 
ATOM     54  C   UNL A   1      41.418  21.343  27.759  1.00  0.00     0.001 A 
ATOM     55  C   UNL A   1      42.180  20.828  26.717  1.00  0.00     0.000 A 
ENDBRANCH  31  50
BRANCH  43  56
ATOM     56  C   UNL A   1      45.847  28.608  28.654  1.00  0.00    -0.014 A 
ATOM     57  C   UNL A   1      44.903  29.414  27.995  1.00  0.00     0.009 A 
ATOM     58  C   UNL A   1      47.178  28.643  28.212  1.00  0.00     0.009 A 
ATOM     59  C   UNL A   1      45.278  30.209  26.905  1.00  0.00     0.001 A 
ATOM     60  C   UNL A   1      47.555  29.451  27.139  1.00  0.00     0.001 A 
ATOM     61  C   UNL A   1      46.604  30.230  26.482  1.00  0.00     0.000 A 
ENDBRANCH  43  56
ENDBRANCH  17  18
ENDBRANCH  10  12
ENDBRANCH   7   8
ENDBRANCH   6   7
ENDBRANCH   5   6
ENDBRANCH   1   5
BRANCH   2  62
ATOM     62  C   UNL A   1      31.622  28.585  23.644  1.00  0.00     0.112 A 
ATOM     63  S   UNL A   1      33.036  28.957  22.722  1.00  0.00    -0.137 S 
ATOM     64  C   UNL A   1      31.323  27.233  23.576  1.00  0.00     0.111 A 
ATOM     65  C   UNL A   1      33.317  27.325  22.340  1.00  0.00     0.067 A 
ATOM     66  C   UNL A   1      32.343  26.509  22.859  1.00  0.00     0.035 A 
BRANCH  64  67
ATOM     67  S   UNL A   1      29.955  26.352  24.192  1.00  0.00     0.263 S 
ATOM     68  O   UNL A   1      30.137  26.410  25.621  1.00  0.00    -0.201 OA
ATOM     69  O   UNL A   1      28.838  27.035  23.562  1.00  0.00    -0.201 OA
BRANCH  67  70
ATOM     70  N   UNL A   1      29.794  24.758  23.753  1.00  0.00    -0.280 N 
ATOM     71  H   UNL A   1      29.001  24.517  23.221  1.00  0.00     0.180 HD
BRANCH  70  72
ATOM     72  C   UNL A   1      30.694  23.719  24.076  1.00  0.00     0.049 A 
ATOM     73  C   UNL A   1      31.402  23.163  23.005  1.00  0.00     0.027 A 
ATOM     74  C   UNL A   1      31.023  23.362  25.371  1.00  0.00     0.027 A 
ATOM     75  C   UNL A   1      32.568  22.420  23.232  1.00  0.00     0.014 A 
ATOM     76  C   UNL A   1      32.180  22.613  25.589  1.00  0.00     0.014 A 
ATOM     77  C   UNL A   1      33.020  22.197  24.532  1.00  0.00     0.018 A 
BRANCH  77  78
ATOM     78  C   UNL A   1      34.331  21.631  24.912  1.00  0.00     0.145 A 
ATOM     79  N   UNL A   1      35.338  22.419  25.261  1.00  0.00    -0.228 NA
ATOM     80  N   UNL A   1      34.786  20.323  24.846  1.00  0.00    -0.266 N 
ATOM     81  C   UNL A   1      36.463  21.655  25.277  1.00  0.00     0.089 A 
ATOM     82  C   UNL A   1      36.164  20.330  24.994  1.00  0.00     0.074 A 
ATOM     83  C   UNL A   1      37.787  22.044  25.519  1.00  0.00     0.030 A 
ATOM     84  C   UNL A   1      37.161  19.344  24.920  1.00  0.00     0.029 A 
ATOM     85  C   UNL A   1      38.792  21.074  25.462  1.00  0.00     0.002 A 
ATOM     86  C   UNL A   1      38.481  19.748  25.162  1.00  0.00     0.002 A 
BRANCH  80  87
ATOM     87  C   UNL A   1      34.005  19.118  24.687  1.00  0.00     0.451 C 
ATOM     88  F   UNL A   1      33.176  18.921  25.749  1.00  0.00    -0.185 F 
ATOM     89  F   UNL A   1      33.224  19.145  23.574  1.00  0.00    -0.185 F 
ENDBRANCH  80  87
ENDBRANCH  77  78
ENDBRANCH  70  72
ENDBRANCH  67  70
ENDBRANCH  64  67
ENDBRANCH   2  62
TORSDOF 15
ENDMDL
