MODEL 1
REMARK VINA RESULT:     -12.7      0.000      0.000
REMARK SMILES O=C(NCCCNC(=O)[C@H]1Cc2[nH]cnc2CN1C(=O)C[C@]12C[C@H]3C[C@H](C[C@H](C3)C1)C2)c1ccc(-c2c3nc(c(-c4ccccc4)c4ccc([nH]4)c(-c4ccccc4)c4nc(c(-c5ccccc5)c5ccc2[nH]5)C=C4)C=C3)cc1
REMARK SMILES IDX 5 1 4 2 3 3 1 4 2 5 32 7 33 8 79 9 34 10 78 11 35 12 36 13
REMARK SMILES IDX 37 14 72 15 38 16 77 17 71 18 73 19 39 20 76 21 70 22 69 23
REMARK SMILES IDX 40 25 62 26 47 27 61 28 48 29 51 30 60 31 74 32 49 33 50 34
REMARK SMILES IDX 59 36 75 37 52 38 41 39 42 40 46 41 43 42 45 43 44 44 63 45
REMARK SMILES IDX 64 46 68 47 65 48 67 49 66 50 53 51 54 52 58 53 55 54 57 55
REMARK SMILES IDX 56 56 6 57 7 58 8 59 9 61 10 62 11 63 18 64 12 65 17 66
REMARK SMILES IDX 13 67 16 68 14 69 15 71 19 72 20 73 21 74 22 75 23 76 30 77
REMARK SMILES IDX 31 78 24 79 28 80 26 81 25 82 29 83 27 84
REMARK H PARENT 3 6 73 24 51 35 7 60 13 70
REMARK Flexibility Score: inf
ROOT
ATOM      1  C   UNL A   1      34.734  30.736  27.466  1.00  0.00     0.042 C 
ENDROOT
BRANCH   1   2
ATOM      2  C   UNL A   1      34.714  32.170  28.006  1.00  0.00     0.118 C 
BRANCH   2   3
ATOM      3  N   UNL A   1      34.460  32.298  29.429  1.00  0.00    -0.352 N 
ATOM      4  O   UNL A   1      34.669  32.328  31.633  1.00  0.00    -0.269 OA
ATOM      5  C   UNL A   1      35.160  31.977  30.560  1.00  0.00     0.251 C 
ATOM      6  H   UNL A   1      33.587  32.707  29.625  1.00  0.00     0.163 HD
BRANCH   5   7
ATOM      7  C   UNL A   1      36.419  31.186  30.574  1.00  0.00     0.039 A 
ATOM      8  C   UNL A   1      37.703  31.718  30.464  1.00  0.00     0.014 A 
ATOM      9  C   UNL A   1      36.280  29.793  30.704  1.00  0.00     0.014 A 
ATOM     10  C   UNL A   1      38.810  30.882  30.355  1.00  0.00     0.010 A 
ATOM     11  C   UNL A   1      37.389  28.953  30.650  1.00  0.00     0.010 A 
ATOM     12  C   UNL A   1      38.652  29.497  30.430  1.00  0.00    -0.014 A 
BRANCH  12  13
ATOM     13  C   UNL A   1      39.863  28.679  30.375  1.00  0.00     0.031 A 
ATOM     14  C   UNL A   1      40.612  28.509  31.654  1.00  0.00     0.074 A 
ATOM     15  C   UNL A   1      40.246  27.969  29.297  1.00  0.00     0.049 A 
ATOM     16  N   UNL A   1      41.858  28.763  31.899  1.00  0.00    -0.248 NA
ATOM     17  C   UNL A   1      39.860  28.010  32.814  1.00  0.00     0.031 C 
ATOM     18  C   UNL A   1      39.491  27.729  28.066  1.00  0.00     0.029 A 
ATOM     19  N   UNL A   1      41.364  27.200  29.141  1.00  0.00    -0.354 N 
ATOM     20  C   UNL A   1      42.096  28.313  33.197  1.00  0.00     0.074 A 
ATOM     21  C   UNL A   1      40.813  27.942  33.743  1.00  0.00     0.031 C 
ATOM     22  C   UNL A   1      40.056  26.698  27.400  1.00  0.00     0.029 A 
ATOM     23  C   UNL A   1      41.276  26.303  28.089  1.00  0.00     0.049 A 
ATOM     24  H   UNL A   1      42.156  27.276  29.719  1.00  0.00     0.167 HD
ATOM     25  C   UNL A   1      43.349  28.104  33.687  1.00  0.00     0.031 A 
ATOM     26  C   UNL A   1      42.100  25.261  27.835  1.00  0.00     0.031 A 
ATOM     27  C   UNL A   1      44.366  28.774  32.926  1.00  0.00     0.049 A 
ATOM     28  C   UNL A   1      43.367  25.468  28.567  1.00  0.00     0.074 A 
ATOM     29  C   UNL A   1      44.644  30.083  32.587  1.00  0.00     0.029 A 
ATOM     30  N   UNL A   1      45.185  28.007  32.137  1.00  0.00    -0.354 N 
ATOM     31  N   UNL A   1      44.252  26.369  28.255  1.00  0.00    -0.248 NA
ATOM     32  C   UNL A   1      43.529  24.865  29.880  1.00  0.00     0.031 C 
ATOM     33  C   UNL A   1      45.256  30.013  31.301  1.00  0.00     0.029 A 
ATOM     34  C   UNL A   1      45.314  28.666  30.944  1.00  0.00     0.049 A 
ATOM     35  H   UNL A   1      45.599  27.148  32.381  1.00  0.00     0.167 HD
ATOM     36  C   UNL A   1      44.818  26.743  29.463  1.00  0.00     0.074 A 
ATOM     37  C   UNL A   1      44.443  25.688  30.397  1.00  0.00     0.031 C 
ATOM     38  C   UNL A   1      45.295  28.009  29.657  1.00  0.00     0.031 A 
BRANCH  25  39
ATOM     39  C   UNL A   1      43.691  26.995  34.655  1.00  0.00    -0.014 A 
ATOM     40  C   UNL A   1      43.640  25.660  34.210  1.00  0.00     0.009 A 
ATOM     41  C   UNL A   1      43.774  27.194  36.047  1.00  0.00     0.009 A 
ATOM     42  C   UNL A   1      43.595  24.590  35.113  1.00  0.00     0.001 A 
ATOM     43  C   UNL A   1      43.779  26.126  36.948  1.00  0.00     0.001 A 
ATOM     44  C   UNL A   1      43.658  24.824  36.481  1.00  0.00     0.000 A 
ENDBRANCH  25  39
BRANCH  26  45
ATOM     45  C   UNL A   1      41.780  23.990  27.159  1.00  0.00    -0.014 A 
ATOM     46  C   UNL A   1      42.649  23.442  26.205  1.00  0.00     0.009 A 
ATOM     47  C   UNL A   1      40.721  23.186  27.624  1.00  0.00     0.009 A 
ATOM     48  C   UNL A   1      42.477  22.130  25.748  1.00  0.00     0.001 A 
ATOM     49  C   UNL A   1      40.543  21.880  27.161  1.00  0.00     0.001 A 
ATOM     50  C   UNL A   1      41.429  21.347  26.232  1.00  0.00     0.000 A 
ENDBRANCH  26  45
BRANCH  38  51
ATOM     51  C   UNL A   1      45.479  28.890  28.449  1.00  0.00    -0.014 A 
ATOM     52  C   UNL A   1      44.444  29.690  27.934  1.00  0.00     0.009 A 
ATOM     53  C   UNL A   1      46.764  29.030  27.904  1.00  0.00     0.009 A 
ATOM     54  C   UNL A   1      44.679  30.573  26.876  1.00  0.00     0.001 A 
ATOM     55  C   UNL A   1      47.004  29.929  26.863  1.00  0.00     0.001 A 
ATOM     56  C   UNL A   1      45.959  30.694  26.344  1.00  0.00     0.000 A 
ENDBRANCH  38  51
ENDBRANCH  12  13
ENDBRANCH   5   7
ENDBRANCH   2   3
ENDBRANCH   1   2
BRANCH   1  57
ATOM     57  C   UNL A   1      33.367  30.171  27.078  1.00  0.00     0.117 C 
BRANCH  57  58
ATOM     58  N   UNL A   1      33.177  28.813  27.559  1.00  0.00    -0.354 N 
ATOM     59  C   UNL A   1      32.022  28.129  27.268  1.00  0.00     0.243 C 
ATOM     60  H   UNL A   1      33.879  28.382  28.097  1.00  0.00     0.163 HD
ATOM     61  O   UNL A   1      31.190  28.063  28.168  1.00  0.00    -0.273 OA
BRANCH  59  62
ATOM     62  C   UNL A   1      31.775  27.683  25.808  1.00  0.00     0.180 C 
ATOM     63  C   UNL A   1      33.062  27.774  24.900  1.00  0.00     0.091 C 
ATOM     64  N   UNL A   1      30.929  26.451  25.504  1.00  0.00    -0.324 N 
ATOM     65  C   UNL A   1      32.792  27.157  23.581  1.00  0.00     0.042 A 
ATOM     66  C   UNL A   1      30.420  26.451  24.104  1.00  0.00     0.178 C 
ATOM     67  N   UNL A   1      33.644  27.000  22.529  1.00  0.00    -0.348 N 
ATOM     68  C   UNL A   1      31.610  26.562  23.204  1.00  0.00     0.081 A 
ATOM     69  C   UNL A   1      32.937  26.354  21.547  1.00  0.00     0.197 A 
ATOM     70  H   UNL A   1      34.582  27.293  22.481  1.00  0.00     0.167 HD
ATOM     71  N   UNL A   1      31.702  26.090  21.922  1.00  0.00    -0.240 NA
BRANCH  64  72
ATOM     72  C   UNL A   1      30.850  25.210  26.137  1.00  0.00     0.224 C 
ATOM     73  O   UNL A   1      29.757  24.750  26.496  1.00  0.00    -0.275 OA
BRANCH  72  74
ATOM     74  C   UNL A   1      32.069  24.369  26.501  1.00  0.00     0.107 C 
BRANCH  74  75
ATOM     75  C   UNL A   1      32.625  23.422  25.416  1.00  0.00    -0.020 C 
ATOM     76  C   UNL A   1      31.596  23.136  24.312  1.00  0.00     0.011 C 
ATOM     77  C   UNL A   1      33.074  22.073  26.030  1.00  0.00     0.011 C 
ATOM     78  C   UNL A   1      33.865  24.071  24.742  1.00  0.00     0.011 C 
ATOM     79  C   UNL A   1      32.143  22.202  23.231  1.00  0.00    -0.010 C 
ATOM     80  C   UNL A   1      33.646  21.144  24.941  1.00  0.00    -0.010 C 
ATOM     81  C   UNL A   1      34.432  23.155  23.641  1.00  0.00    -0.010 C 
ATOM     82  C   UNL A   1      33.352  22.888  22.580  1.00  0.00     0.007 C 
ATOM     83  C   UNL A   1      32.565  20.881  23.882  1.00  0.00     0.007 C 
ATOM     84  C   UNL A   1      34.855  21.818  24.269  1.00  0.00     0.007 C 
ENDBRANCH  74  75
ENDBRANCH  72  74
ENDBRANCH  64  72
ENDBRANCH  59  62
ENDBRANCH  57  58
ENDBRANCH   1  57
TORSDOF 13
ENDMDL
MODEL 2
REMARK VINA RESULT:     -12.6      1.387      1.908
REMARK SMILES O=C(NCCCNC(=O)[C@H]1Cc2[nH]cnc2CN1C(=O)C[C@]12C[C@H]3C[C@H](C[C@H](C3)C1)C2)c1ccc(-c2c3nc(c(-c4ccccc4)c4ccc([nH]4)c(-c4ccccc4)c4nc(c(-c5ccccc5)c5ccc2[nH]5)C=C4)C=C3)cc1
REMARK SMILES IDX 5 1 4 2 3 3 1 4 2 5 32 7 33 8 79 9 34 10 78 11 35 12 36 13
REMARK SMILES IDX 37 14 72 15 38 16 77 17 71 18 73 19 39 20 76 21 70 22 69 23
REMARK SMILES IDX 40 25 62 26 47 27 61 28 48 29 51 30 60 31 74 32 49 33 50 34
REMARK SMILES IDX 59 36 75 37 52 38 41 39 42 40 46 41 43 42 45 43 44 44 63 45
REMARK SMILES IDX 64 46 68 47 65 48 67 49 66 50 53 51 54 52 58 53 55 54 57 55
REMARK SMILES IDX 56 56 6 57 7 58 8 59 9 61 10 62 11 63 18 64 12 65 17 66
REMARK SMILES IDX 13 67 16 68 14 69 15 71 19 72 20 73 21 74 22 75 23 76 30 77
REMARK SMILES IDX 31 78 24 79 28 80 26 81 25 82 29 83 27 84
REMARK H PARENT 3 6 73 24 51 35 7 60 13 70
REMARK Flexibility Score: inf
ROOT
ATOM      1  C   UNL A   1      34.051  29.744  27.650  1.00  0.00     0.042 C 
ENDROOT
BRANCH   1   2
ATOM      2  C   UNL A   1      34.437  31.227  27.633  1.00  0.00     0.118 C 
BRANCH   2   3
ATOM      3  N   UNL A   1      34.442  31.886  28.925  1.00  0.00    -0.352 N 
ATOM      4  O   UNL A   1      35.042  32.718  30.887  1.00  0.00    -0.269 OA
ATOM      5  C   UNL A   1      35.338  31.969  29.956  1.00  0.00     0.251 C 
ATOM      6  H   UNL A   1      33.613  32.387  29.100  1.00  0.00     0.163 HD
BRANCH   5   7
ATOM      7  C   UNL A   1      36.588  31.170  30.049  1.00  0.00     0.039 A 
ATOM      8  C   UNL A   1      37.864  31.636  29.732  1.00  0.00     0.014 A 
ATOM      9  C   UNL A   1      36.449  29.842  30.489  1.00  0.00     0.014 A 
ATOM     10  C   UNL A   1      38.953  30.770  29.727  1.00  0.00     0.010 A 
ATOM     11  C   UNL A   1      37.545  28.984  30.538  1.00  0.00     0.010 A 
ATOM     12  C   UNL A   1      38.792  29.438  30.113  1.00  0.00    -0.014 A 
BRANCH  12  13
ATOM     13  C   UNL A   1      39.989  28.600  30.148  1.00  0.00     0.031 A 
ATOM     14  C   UNL A   1      40.678  28.476  31.465  1.00  0.00     0.074 A 
ATOM     15  C   UNL A   1      40.406  27.835  29.121  1.00  0.00     0.049 A 
ATOM     16  N   UNL A   1      41.917  28.721  31.754  1.00  0.00    -0.248 NA
ATOM     17  C   UNL A   1      39.867  28.043  32.612  1.00  0.00     0.031 C 
ATOM     18  C   UNL A   1      39.702  27.551  27.870  1.00  0.00     0.029 A 
ATOM     19  N   UNL A   1      41.516  27.042  29.049  1.00  0.00    -0.354 N 
ATOM     20  C   UNL A   1      42.090  28.327  33.081  1.00  0.00     0.074 A 
ATOM     21  C   UNL A   1      40.778  28.002  33.584  1.00  0.00     0.031 C 
ATOM     22  C   UNL A   1      40.277  26.482  27.277  1.00  0.00     0.029 A 
ATOM     23  C   UNL A   1      41.458  26.100  28.036  1.00  0.00     0.049 A 
ATOM     24  H   UNL A   1      42.284  27.132  29.658  1.00  0.00     0.167 HD
ATOM     25  C   UNL A   1      43.316  28.121  33.634  1.00  0.00     0.031 A 
ATOM     26  C   UNL A   1      42.273  25.034  27.866  1.00  0.00     0.031 A 
ATOM     27  C   UNL A   1      44.377  28.740  32.890  1.00  0.00     0.049 A 
ATOM     28  C   UNL A   1      43.511  25.254  28.643  1.00  0.00     0.074 A 
ATOM     29  C   UNL A   1      44.693  30.027  32.505  1.00  0.00     0.029 A 
ATOM     30  N   UNL A   1      45.216  27.924  32.173  1.00  0.00    -0.354 N 
ATOM     31  N   UNL A   1      44.425  26.127  28.331  1.00  0.00    -0.248 NA
ATOM     32  C   UNL A   1      43.605  24.709  29.988  1.00  0.00     0.031 C 
ATOM     33  C   UNL A   1      45.359  29.889  31.252  1.00  0.00     0.029 A 
ATOM     34  C   UNL A   1      45.409  28.526  30.958  1.00  0.00     0.049 A 
ATOM     35  H   UNL A   1      45.604  27.071  32.474  1.00  0.00     0.167 HD
ATOM     36  C   UNL A   1      44.944  26.546  29.545  1.00  0.00     0.074 A 
ATOM     37  C   UNL A   1      44.510  25.541  30.508  1.00  0.00     0.031 C 
ATOM     38  C   UNL A   1      45.434  27.812  29.703  1.00  0.00     0.031 A 
BRANCH  25  39
ATOM     39  C   UNL A   1      43.596  27.052  34.665  1.00  0.00    -0.014 A 
ATOM     40  C   UNL A   1      43.544  25.700  34.278  1.00  0.00     0.009 A 
ATOM     41  C   UNL A   1      43.618  27.313  36.049  1.00  0.00     0.009 A 
ATOM     42  C   UNL A   1      43.441  24.671  35.224  1.00  0.00     0.001 A 
ATOM     43  C   UNL A   1      43.565  26.286  36.996  1.00  0.00     0.001 A 
ATOM     44  C   UNL A   1      43.446  24.966  36.582  1.00  0.00     0.000 A 
ENDBRANCH  25  39
BRANCH  26  45
ATOM     45  C   UNL A   1      41.961  23.739  27.234  1.00  0.00    -0.014 A 
ATOM     46  C   UNL A   1      42.757  23.232  26.198  1.00  0.00     0.009 A 
ATOM     47  C   UNL A   1      41.006  22.880  27.811  1.00  0.00     0.009 A 
ATOM     48  C   UNL A   1      42.616  21.906  25.769  1.00  0.00     0.001 A 
ATOM     49  C   UNL A   1      40.858  21.561  27.377  1.00  0.00     0.001 A 
ATOM     50  C   UNL A   1      41.673  21.070  26.364  1.00  0.00     0.000 A 
ENDBRANCH  26  45
BRANCH  38  51
ATOM     51  C   UNL A   1      45.686  28.634  28.466  1.00  0.00    -0.014 A 
ATOM     52  C   UNL A   1      44.681  29.401  27.852  1.00  0.00     0.009 A 
ATOM     53  C   UNL A   1      47.001  28.756  27.992  1.00  0.00     0.009 A 
ATOM     54  C   UNL A   1      44.975  30.232  26.767  1.00  0.00     0.001 A 
ATOM     55  C   UNL A   1      47.299  29.605  26.924  1.00  0.00     0.001 A 
ATOM     56  C   UNL A   1      46.284  30.336  26.307  1.00  0.00     0.000 A 
ENDBRANCH  38  51
ENDBRANCH  12  13
ENDBRANCH   5   7
ENDBRANCH   2   3
ENDBRANCH   1   2
BRANCH   1  57
ATOM     57  C   UNL A   1      34.134  29.038  26.295  1.00  0.00     0.117 C 
BRANCH  57  58
ATOM     58  N   UNL A   1      33.599  27.688  26.346  1.00  0.00    -0.354 N 
ATOM     59  C   UNL A   1      32.242  27.481  26.395  1.00  0.00     0.243 C 
ATOM     60  H   UNL A   1      34.213  26.918  26.346  1.00  0.00     0.163 HD
ATOM     61  O   UNL A   1      31.776  27.203  27.496  1.00  0.00    -0.273 OA
BRANCH  59  62
ATOM     62  C   UNL A   1      31.399  27.805  25.140  1.00  0.00     0.180 C 
ATOM     63  C   UNL A   1      31.004  29.328  25.028  1.00  0.00     0.091 C 
ATOM     64  N   UNL A   1      31.746  27.188  23.789  1.00  0.00    -0.324 N 
ATOM     65  C   UNL A   1      30.367  29.588  23.716  1.00  0.00     0.042 A 
ATOM     66  C   UNL A   1      30.597  27.226  22.842  1.00  0.00     0.178 C 
ATOM     67  N   UNL A   1      29.916  30.772  23.214  1.00  0.00    -0.348 N 
ATOM     68  C   UNL A   1      30.171  28.655  22.724  1.00  0.00     0.081 A 
ATOM     69  C   UNL A   1      29.432  30.503  21.958  1.00  0.00     0.197 A 
ATOM     70  H   UNL A   1      29.932  31.647  23.662  1.00  0.00     0.167 HD
ATOM     71  N   UNL A   1      29.560  29.231  21.643  1.00  0.00    -0.240 NA
BRANCH  64  72
ATOM     72  C   UNL A   1      32.977  26.944  23.179  1.00  0.00     0.224 C 
ATOM     73  O   UNL A   1      33.782  27.867  22.986  1.00  0.00    -0.275 OA
BRANCH  72  74
ATOM     74  C   UNL A   1      33.399  25.581  22.643  1.00  0.00     0.107 C 
BRANCH  74  75
ATOM     75  C   UNL A   1      33.745  24.489  23.679  1.00  0.00    -0.020 C 
ATOM     76  C   UNL A   1      34.615  25.029  24.823  1.00  0.00     0.011 C 
ATOM     77  C   UNL A   1      34.488  23.304  23.013  1.00  0.00     0.011 C 
ATOM     78  C   UNL A   1      32.437  23.934  24.308  1.00  0.00     0.011 C 
ATOM     79  C   UNL A   1      34.956  23.954  25.855  1.00  0.00    -0.010 C 
ATOM     80  C   UNL A   1      34.809  22.212  24.054  1.00  0.00    -0.010 C 
ATOM     81  C   UNL A   1      32.751  22.854  25.361  1.00  0.00    -0.010 C 
ATOM     82  C   UNL A   1      33.641  23.448  26.465  1.00  0.00     0.007 C 
ATOM     83  C   UNL A   1      35.696  22.809  25.156  1.00  0.00     0.007 C 
ATOM     84  C   UNL A   1      33.503  21.697  24.683  1.00  0.00     0.007 C 
ENDBRANCH  74  75
ENDBRANCH  72  74
ENDBRANCH  64  72
ENDBRANCH  59  62
ENDBRANCH  57  58
ENDBRANCH   1  57
TORSDOF 13
ENDMDL
MODEL 3
REMARK VINA RESULT:     -12.5      2.990      7.916
REMARK SMILES O=C(NCCCNC(=O)[C@H]1Cc2[nH]cnc2CN1C(=O)C[C@]12C[C@H]3C[C@H](C[C@H](C3)C1)C2)c1ccc(-c2c3nc(c(-c4ccccc4)c4ccc([nH]4)c(-c4ccccc4)c4nc(c(-c5ccccc5)c5ccc2[nH]5)C=C4)C=C3)cc1
REMARK SMILES IDX 5 1 4 2 3 3 1 4 2 5 32 7 33 8 79 9 34 10 78 11 35 12 36 13
REMARK SMILES IDX 37 14 72 15 38 16 77 17 71 18 73 19 39 20 76 21 70 22 69 23
REMARK SMILES IDX 40 25 62 26 47 27 61 28 48 29 51 30 60 31 74 32 49 33 50 34
REMARK SMILES IDX 59 36 75 37 52 38 41 39 42 40 46 41 43 42 45 43 44 44 63 45
REMARK SMILES IDX 64 46 68 47 65 48 67 49 66 50 53 51 54 52 58 53 55 54 57 55
REMARK SMILES IDX 56 56 6 57 7 58 8 59 9 61 10 62 11 63 18 64 12 65 17 66
REMARK SMILES IDX 13 67 16 68 14 69 15 71 19 72 20 73 21 74 22 75 23 76 30 77
REMARK SMILES IDX 31 78 24 79 28 80 26 81 25 82 29 83 27 84
REMARK H PARENT 3 6 73 24 51 35 7 60 13 70
REMARK Flexibility Score: inf
ROOT
ATOM      1  C   UNL A   1      38.912  22.849  26.507  1.00  0.00     0.042 C 
ENDROOT
BRANCH   1   2
ATOM      2  C   UNL A   1      40.063  21.856  26.702  1.00  0.00     0.118 C 
BRANCH   2   3
ATOM      3  N   UNL A   1      41.226  22.075  25.863  1.00  0.00    -0.352 N 
ATOM      4  O   UNL A   1      43.089  22.878  24.976  1.00  0.00    -0.269 OA
ATOM      5  C   UNL A   1      42.154  23.075  25.752  1.00  0.00     0.251 C 
ATOM      6  H   UNL A   1      41.384  21.339  25.230  1.00  0.00     0.163 HD
BRANCH   5   7
ATOM      7  C   UNL A   1      42.063  24.387  26.446  1.00  0.00     0.039 A 
ATOM      8  C   UNL A   1      42.506  24.641  27.743  1.00  0.00     0.014 A 
ATOM      9  C   UNL A   1      41.476  25.438  25.720  1.00  0.00     0.014 A 
ATOM     10  C   UNL A   1      42.256  25.868  28.349  1.00  0.00     0.010 A 
ATOM     11  C   UNL A   1      41.272  26.686  26.303  1.00  0.00     0.010 A 
ATOM     12  C   UNL A   1      41.623  26.887  27.637  1.00  0.00    -0.014 A 
BRANCH  12  13
ATOM     13  C   UNL A   1      41.450  28.172  28.310  1.00  0.00     0.031 A 
ATOM     14  C   UNL A   1      42.516  29.192  28.086  1.00  0.00     0.074 A 
ATOM     15  C   UNL A   1      40.340  28.529  28.984  1.00  0.00     0.049 A 
ATOM     16  N   UNL A   1      43.223  29.826  28.966  1.00  0.00    -0.248 NA
ATOM     17  C   UNL A   1      42.846  29.526  26.693  1.00  0.00     0.031 C 
ATOM     18  C   UNL A   1      39.060  27.821  29.043  1.00  0.00     0.029 A 
ATOM     19  N   UNL A   1      40.094  29.689  29.663  1.00  0.00    -0.354 N 
ATOM     20  C   UNL A   1      43.982  30.756  28.254  1.00  0.00     0.074 A 
ATOM     21  C   UNL A   1      43.776  30.467  26.856  1.00  0.00     0.031 C 
ATOM     22  C   UNL A   1      38.114  28.665  29.512  1.00  0.00     0.029 A 
ATOM     23  C   UNL A   1      38.749  29.914  29.905  1.00  0.00     0.049 A 
ATOM     24  H   UNL A   1      40.805  30.305  29.952  1.00  0.00     0.167 HD
ATOM     25  C   UNL A   1      44.592  31.818  28.848  1.00  0.00     0.031 A 
ATOM     26  C   UNL A   1      38.179  31.064  30.330  1.00  0.00     0.031 A 
ATOM     27  C   UNL A   1      44.740  31.657  30.267  1.00  0.00     0.049 A 
ATOM     28  C   UNL A   1      39.223  31.919  30.931  1.00  0.00     0.074 A 
ATOM     29  C   UNL A   1      45.363  30.749  31.099  1.00  0.00     0.029 A 
ATOM     30  N   UNL A   1      43.938  32.415  31.084  1.00  0.00    -0.354 N 
ATOM     31  N   UNL A   1      39.803  31.673  32.070  1.00  0.00    -0.248 NA
ATOM     32  C   UNL A   1      39.877  32.921  30.104  1.00  0.00     0.031 C 
ATOM     33  C   UNL A   1      44.555  30.700  32.272  1.00  0.00     0.029 A 
ATOM     34  C   UNL A   1      43.494  31.586  32.080  1.00  0.00     0.049 A 
ATOM     35  H   UNL A   1      43.724  33.369  30.976  1.00  0.00     0.167 HD
ATOM     36  C   UNL A   1      41.091  32.164  31.926  1.00  0.00     0.074 A 
ATOM     37  C   UNL A   1      41.031  33.043  30.764  1.00  0.00     0.031 C 
ATOM     38  C   UNL A   1      42.141  31.593  32.587  1.00  0.00     0.031 A 
BRANCH  25  39
ATOM     39  C   UNL A   1      44.739  33.170  28.189  1.00  0.00    -0.014 A 
ATOM     40  C   UNL A   1      43.598  33.978  28.025  1.00  0.00     0.009 A 
ATOM     41  C   UNL A   1      45.889  33.548  27.468  1.00  0.00     0.009 A 
ATOM     42  C   UNL A   1      43.586  35.056  27.130  1.00  0.00     0.001 A 
ATOM     43  C   UNL A   1      45.895  34.652  26.612  1.00  0.00     0.001 A 
ATOM     44  C   UNL A   1      44.734  35.388  26.420  1.00  0.00     0.000 A 
ENDBRANCH  25  39
BRANCH  26  45
ATOM     45  C   UNL A   1      36.816  31.560  30.060  1.00  0.00    -0.014 A 
ATOM     46  C   UNL A   1      35.968  31.942  31.109  1.00  0.00     0.009 A 
ATOM     47  C   UNL A   1      36.424  31.879  28.747  1.00  0.00     0.009 A 
ATOM     48  C   UNL A   1      34.780  32.638  30.853  1.00  0.00     0.001 A 
ATOM     49  C   UNL A   1      35.235  32.565  28.490  1.00  0.00     0.001 A 
ATOM     50  C   UNL A   1      34.419  32.956  29.545  1.00  0.00     0.000 A 
ENDBRANCH  26  45
BRANCH  38  51
ATOM     51  C   UNL A   1      41.837  30.630  33.705  1.00  0.00    -0.014 A 
ATOM     52  C   UNL A   1      41.688  29.249  33.491  1.00  0.00     0.009 A 
ATOM     53  C   UNL A   1      41.846  31.104  35.026  1.00  0.00     0.009 A 
ATOM     54  C   UNL A   1      41.509  28.373  34.565  1.00  0.00     0.001 A 
ATOM     55  C   UNL A   1      41.690  30.225  36.100  1.00  0.00     0.001 A 
ATOM     56  C   UNL A   1      41.514  28.861  35.869  1.00  0.00     0.000 A 
ENDBRANCH  38  51
ENDBRANCH  12  13
ENDBRANCH   5   7
ENDBRANCH   2   3
ENDBRANCH   1   2
BRANCH   1  57
ATOM     57  C   UNL A   1      37.779  22.357  25.605  1.00  0.00     0.117 C 
BRANCH  57  58
ATOM     58  N   UNL A   1      37.312  23.390  24.697  1.00  0.00    -0.354 N 
ATOM     59  C   UNL A   1      36.377  23.097  23.734  1.00  0.00     0.243 C 
ATOM     60  H   UNL A   1      37.669  24.305  24.771  1.00  0.00     0.163 HD
ATOM     61  O   UNL A   1      36.804  22.945  22.593  1.00  0.00    -0.273 OA
BRANCH  59  62
ATOM     62  C   UNL A   1      34.930  22.786  24.179  1.00  0.00     0.180 C 
ATOM     63  C   UNL A   1      34.636  23.189  25.676  1.00  0.00     0.091 C 
ATOM     64  N   UNL A   1      33.753  23.072  23.253  1.00  0.00    -0.324 N 
ATOM     65  C   UNL A   1      33.191  23.037  25.964  1.00  0.00     0.042 A 
ATOM     66  C   UNL A   1      32.537  22.300  23.634  1.00  0.00     0.178 C 
ATOM     67  N   UNL A   1      32.524  23.311  27.120  1.00  0.00    -0.348 N 
ATOM     68  C   UNL A   1      32.234  22.634  25.060  1.00  0.00     0.081 A 
ATOM     69  C   UNL A   1      31.202  23.030  26.884  1.00  0.00     0.197 A 
ATOM     70  H   UNL A   1      32.913  23.646  27.960  1.00  0.00     0.167 HD
ATOM     71  N   UNL A   1      31.001  22.605  25.654  1.00  0.00    -0.240 NA
BRANCH  64  72
ATOM     72  C   UNL A   1      33.500  24.138  22.389  1.00  0.00     0.224 C 
ATOM     73  O   UNL A   1      33.179  23.935  21.209  1.00  0.00    -0.275 OA
BRANCH  72  74
ATOM     74  C   UNL A   1      33.665  25.602  22.782  1.00  0.00     0.107 C 
BRANCH  74  75
ATOM     75  C   UNL A   1      32.468  26.287  23.475  1.00  0.00    -0.020 C 
ATOM     76  C   UNL A   1      31.136  25.591  23.159  1.00  0.00     0.011 C 
ATOM     77  C   UNL A   1      32.357  27.774  23.055  1.00  0.00     0.011 C 
ATOM     78  C   UNL A   1      32.663  26.245  25.016  1.00  0.00     0.011 C 
ATOM     79  C   UNL A   1      29.948  26.262  23.848  1.00  0.00    -0.010 C 
ATOM     80  C   UNL A   1      31.171  28.453  23.770  1.00  0.00    -0.010 C 
ATOM     81  C   UNL A   1      31.474  26.907  25.738  1.00  0.00    -0.010 C 
ATOM     82  C   UNL A   1      30.171  26.181  25.365  1.00  0.00     0.007 C 
ATOM     83  C   UNL A   1      29.872  27.724  23.396  1.00  0.00     0.007 C 
ATOM     84  C   UNL A   1      31.372  28.374  25.293  1.00  0.00     0.007 C 
ENDBRANCH  74  75
ENDBRANCH  72  74
ENDBRANCH  64  72
ENDBRANCH  59  62
ENDBRANCH  57  58
ENDBRANCH   1  57
TORSDOF 13
ENDMDL
