MODEL 1
REMARK VINA RESULT:      -9.6      0.000      0.000
REMARK SMILES CCCC[C@@](CC)(C[C@H]1CCOC1)C(=O)NCCCNC(=O)c1ccc(-c2c3nc(c(-c4ccccc4)c4ccc([nH]4)c(-c4ccccc4)c4nc(c(-c5ccccc5)c5ccc2[nH]5)C=C4)C=C3)cc1
REMARK SMILES IDX 17 1 16 2 14 3 15 4 5 6 4 7 3 8 2 9 1 10 6 11 7 12 8 13 9 14
REMARK SMILES IDX 10 15 13 16 11 17 12 18 18 19 19 20 20 21 21 22 22 24 23 25
REMARK SMILES IDX 24 26 70 27 25 28 69 29 26 30 27 31 28 32 63 33 29 34 68 35
REMARK SMILES IDX 62 36 64 37 30 38 67 39 61 40 60 41 31 43 53 44 38 45 52 46
REMARK SMILES IDX 39 47 42 48 51 49 65 50 40 51 41 52 50 54 66 55 43 56 32 57
REMARK SMILES IDX 33 58 37 59 34 60 36 61 35 62 54 63 55 64 59 65 56 66 58 67
REMARK SMILES IDX 57 68 44 69 45 70 49 71 46 72 48 73 47 74
REMARK H PARENT 16 5 20 23 64 42 42 53
REMARK Flexibility Score: inf
ROOT
ATOM      1  C   UNL A   1      31.543  30.401  26.173  1.00  0.00     0.117 C 
ENDROOT
BRANCH   1   2
ATOM      2  N   UNL A   1      31.060  30.119  24.831  1.00  0.00    -0.356 N 
ATOM      3  C   UNL A   1      31.161  29.059  23.989  1.00  0.00     0.226 C 
ATOM      4  O   UNL A   1      30.843  29.311  22.824  1.00  0.00    -0.274 OA
ATOM      5  H   UNL A   1      30.543  30.864  24.446  1.00  0.00     0.163 HD
BRANCH   3   6
ATOM      6  C   UNL A   1      31.672  27.666  24.423  1.00  0.00     0.049 C 
BRANCH   6   7
ATOM      7  C   UNL A   1      30.983  27.185  25.754  1.00  0.00     0.017 C 
BRANCH   7   8
ATOM      8  C   UNL A   1      30.399  25.760  25.865  1.00  0.00     0.001 C 
BRANCH   8   9
ATOM      9  C   UNL A   1      31.299  24.670  26.455  1.00  0.00    -0.003 C 
ATOM     10  C   UNL A   1      30.604  23.326  26.635  1.00  0.00     0.004 C 
ENDBRANCH   8   9
ENDBRANCH   7   8
ENDBRANCH   6   7
BRANCH   6  11
ATOM     11  C   UNL A   1      33.218  27.771  24.639  1.00  0.00     0.013 C 
ATOM     12  C   UNL A   1      33.736  27.462  26.038  1.00  0.00     0.005 C 
ENDBRANCH   6  11
BRANCH   6  13
ATOM     13  C   UNL A   1      31.296  26.624  23.309  1.00  0.00     0.023 C 
BRANCH  13  14
ATOM     14  C   UNL A   1      32.407  25.691  22.779  1.00  0.00     0.018 C 
ATOM     15  C   UNL A   1      32.245  24.197  22.972  1.00  0.00     0.034 C 
ATOM     16  C   UNL A   1      32.554  25.771  21.262  1.00  0.00     0.163 C 
ATOM     17  C   UNL A   1      33.183  23.632  21.927  1.00  0.00     0.160 C 
ATOM     18  O   UNL A   1      33.184  24.555  20.833  1.00  0.00    -0.381 OA
ENDBRANCH  13  14
ENDBRANCH   6  13
ENDBRANCH   3   6
ENDBRANCH   1   2
BRANCH   1  19
ATOM     19  C   UNL A   1      31.395  31.876  26.533  1.00  0.00     0.042 C 
BRANCH  19  20
ATOM     20  C   UNL A   1      32.702  32.560  26.911  1.00  0.00     0.118 C 
BRANCH  20  21
ATOM     21  N   UNL A   1      32.489  33.834  27.581  1.00  0.00    -0.352 N 
ATOM     22  C   UNL A   1      33.162  34.398  28.632  1.00  0.00     0.251 C 
ATOM     23  H   UNL A   1      31.747  34.374  27.223  1.00  0.00     0.163 HD
ATOM     24  O   UNL A   1      32.696  35.389  29.192  1.00  0.00    -0.269 OA
BRANCH  22  25
ATOM     25  C   UNL A   1      34.434  33.816  29.107  1.00  0.00     0.039 A 
ATOM     26  C   UNL A   1      35.626  34.207  28.491  1.00  0.00     0.014 A 
ATOM     27  C   UNL A   1      34.454  32.863  30.129  1.00  0.00     0.014 A 
ATOM     28  C   UNL A   1      36.839  33.677  28.932  1.00  0.00     0.010 A 
ATOM     29  C   UNL A   1      35.669  32.402  30.626  1.00  0.00     0.010 A 
ATOM     30  C   UNL A   1      36.873  32.788  30.020  1.00  0.00    -0.014 A 
BRANCH  30  31
ATOM     31  C   UNL A   1      38.154  32.225  30.511  1.00  0.00     0.031 A 
ATOM     32  C   UNL A   1      38.692  30.951  29.918  1.00  0.00     0.074 A 
ATOM     33  C   UNL A   1      38.806  32.828  31.524  1.00  0.00     0.049 A 
ATOM     34  N   UNL A   1      39.770  30.282  30.240  1.00  0.00    -0.248 NA
ATOM     35  C   UNL A   1      37.903  30.334  28.841  1.00  0.00     0.031 C 
ATOM     36  C   UNL A   1      38.366  34.043  32.215  1.00  0.00     0.029 A 
ATOM     37  N   UNL A   1      39.980  32.496  32.151  1.00  0.00    -0.354 N 
ATOM     38  C   UNL A   1      39.773  29.157  29.426  1.00  0.00     0.074 A 
ATOM     39  C   UNL A   1      38.567  29.208  28.630  1.00  0.00     0.031 C 
ATOM     40  C   UNL A   1      39.276  34.370  33.147  1.00  0.00     0.029 A 
ATOM     41  C   UNL A   1      40.341  33.374  33.142  1.00  0.00     0.049 A 
ATOM     42  H   UNL A   1      40.514  31.703  31.911  1.00  0.00     0.167 HD
ATOM     43  C   UNL A   1      40.704  28.178  29.332  1.00  0.00     0.031 A 
ATOM     44  C   UNL A   1      41.413  33.376  33.956  1.00  0.00     0.031 A 
ATOM     45  C   UNL A   1      41.916  28.139  30.104  1.00  0.00     0.049 A 
ATOM     46  C   UNL A   1      42.441  32.288  33.821  1.00  0.00     0.074 A 
ATOM     47  C   UNL A   1      42.952  27.226  30.037  1.00  0.00     0.029 A 
ATOM     48  N   UNL A   1      42.254  29.059  31.084  1.00  0.00    -0.354 N 
ATOM     49  N   UNL A   1      42.462  31.269  32.998  1.00  0.00    -0.248 NA
ATOM     50  C   UNL A   1      43.602  32.362  34.720  1.00  0.00     0.031 C 
ATOM     51  C   UNL A   1      43.901  27.570  31.006  1.00  0.00     0.029 A 
ATOM     52  C   UNL A   1      43.476  28.726  31.642  1.00  0.00     0.049 A 
ATOM     53  H   UNL A   1      41.706  29.834  31.346  1.00  0.00     0.167 HD
ATOM     54  C   UNL A   1      43.649  30.596  33.258  1.00  0.00     0.074 A 
ATOM     55  C   UNL A   1      44.327  31.333  34.306  1.00  0.00     0.031 C 
ATOM     56  C   UNL A   1      44.136  29.471  32.682  1.00  0.00     0.031 A 
BRANCH  43  57
ATOM     57  C   UNL A   1      40.440  27.066  28.355  1.00  0.00    -0.014 A 
ATOM     58  C   UNL A   1      40.944  27.113  27.046  1.00  0.00     0.009 A 
ATOM     59  C   UNL A   1      39.698  25.945  28.757  1.00  0.00     0.009 A 
ATOM     60  C   UNL A   1      40.676  26.079  26.146  1.00  0.00     0.001 A 
ATOM     61  C   UNL A   1      39.457  24.899  27.865  1.00  0.00     0.001 A 
ATOM     62  C   UNL A   1      39.937  24.971  26.558  1.00  0.00     0.000 A 
ENDBRANCH  43  57
BRANCH  44  63
ATOM     63  C   UNL A   1      41.590  34.466  34.952  1.00  0.00    -0.014 A 
ATOM     64  C   UNL A   1      41.105  34.315  36.260  1.00  0.00     0.009 A 
ATOM     65  C   UNL A   1      42.237  35.659  34.600  1.00  0.00     0.009 A 
ATOM     66  C   UNL A   1      41.242  35.348  37.189  1.00  0.00     0.001 A 
ATOM     67  C   UNL A   1      42.396  36.681  35.538  1.00  0.00     0.001 A 
ATOM     68  C   UNL A   1      41.891  36.529  36.828  1.00  0.00     0.000 A 
ENDBRANCH  44  63
BRANCH  56  69
ATOM     69  C   UNL A   1      45.481  28.991  33.145  1.00  0.00    -0.014 A 
ATOM     70  C   UNL A   1      46.664  29.445  32.541  1.00  0.00     0.009 A 
ATOM     71  C   UNL A   1      45.564  28.096  34.223  1.00  0.00     0.009 A 
ATOM     72  C   UNL A   1      47.904  28.983  32.988  1.00  0.00     0.001 A 
ATOM     73  C   UNL A   1      46.806  27.657  34.684  1.00  0.00     0.001 A 
ATOM     74  C   UNL A   1      47.974  28.094  34.060  1.00  0.00     0.000 A 
ENDBRANCH  56  69
ENDBRANCH  30  31
ENDBRANCH  22  25
ENDBRANCH  20  21
ENDBRANCH  19  20
ENDBRANCH   1  19
TORSDOF 16
ENDMDL
MODEL 2
REMARK VINA RESULT:      -9.5      1.290      6.327
REMARK SMILES CCCC[C@@](CC)(C[C@H]1CCOC1)C(=O)NCCCNC(=O)c1ccc(-c2c3nc(c(-c4ccccc4)c4ccc([nH]4)c(-c4ccccc4)c4nc(c(-c5ccccc5)c5ccc2[nH]5)C=C4)C=C3)cc1
REMARK SMILES IDX 17 1 16 2 14 3 15 4 5 6 4 7 3 8 2 9 1 10 6 11 7 12 8 13 9 14
REMARK SMILES IDX 10 15 13 16 11 17 12 18 18 19 19 20 20 21 21 22 22 24 23 25
REMARK SMILES IDX 24 26 70 27 25 28 69 29 26 30 27 31 28 32 63 33 29 34 68 35
REMARK SMILES IDX 62 36 64 37 30 38 67 39 61 40 60 41 31 43 53 44 38 45 52 46
REMARK SMILES IDX 39 47 42 48 51 49 65 50 40 51 41 52 50 54 66 55 43 56 32 57
REMARK SMILES IDX 33 58 37 59 34 60 36 61 35 62 54 63 55 64 59 65 56 66 58 67
REMARK SMILES IDX 57 68 44 69 45 70 49 71 46 72 48 73 47 74
REMARK H PARENT 16 5 20 23 64 42 42 53
REMARK Flexibility Score: inf
ROOT
ATOM      1  C   UNL A   1      31.119  30.448  25.762  1.00  0.00     0.117 C 
ENDROOT
BRANCH   1   2
ATOM      2  N   UNL A   1      32.122  30.034  24.794  1.00  0.00    -0.356 N 
ATOM      3  C   UNL A   1      32.931  28.952  24.671  1.00  0.00     0.226 C 
ATOM      4  O   UNL A   1      33.843  29.097  23.853  1.00  0.00    -0.274 OA
ATOM      5  H   UNL A   1      32.240  30.684  24.064  1.00  0.00     0.163 HD
BRANCH   3   6
ATOM      6  C   UNL A   1      32.771  27.661  25.508  1.00  0.00     0.049 C 
BRANCH   6   7
ATOM      7  C   UNL A   1      31.265  27.213  25.598  1.00  0.00     0.017 C 
BRANCH   7   8
ATOM      8  C   UNL A   1      30.467  26.883  24.318  1.00  0.00     0.001 C 
BRANCH   8   9
ATOM      9  C   UNL A   1      29.913  25.462  24.176  1.00  0.00    -0.003 C 
ATOM     10  C   UNL A   1      30.770  24.550  23.306  1.00  0.00     0.004 C 
ENDBRANCH   8   9
ENDBRANCH   7   8
ENDBRANCH   6   7
BRANCH   6  11
ATOM     11  C   UNL A   1      33.320  27.952  26.944  1.00  0.00     0.013 C 
ATOM     12  C   UNL A   1      34.407  29.014  27.058  1.00  0.00     0.005 C 
ENDBRANCH   6  11
BRANCH   6  13
ATOM     13  C   UNL A   1      33.554  26.500  24.795  1.00  0.00     0.023 C 
BRANCH  13  14
ATOM     14  C   UNL A   1      34.124  25.362  25.670  1.00  0.00     0.018 C 
ATOM     15  C   UNL A   1      33.167  24.319  26.209  1.00  0.00     0.034 C 
ATOM     16  C   UNL A   1      35.108  24.482  24.904  1.00  0.00     0.163 C 
ATOM     17  C   UNL A   1      34.093  23.165  26.531  1.00  0.00     0.160 C 
ATOM     18  O   UNL A   1      35.162  23.218  25.581  1.00  0.00    -0.381 OA
ENDBRANCH  13  14
ENDBRANCH   6  13
ENDBRANCH   3   6
ENDBRANCH   1   2
BRANCH   1  19
ATOM     19  C   UNL A   1      31.231  31.931  26.098  1.00  0.00     0.042 C 
BRANCH  19  20
ATOM     20  C   UNL A   1      32.373  32.273  27.044  1.00  0.00     0.118 C 
BRANCH  20  21
ATOM     21  N   UNL A   1      32.303  33.643  27.529  1.00  0.00    -0.352 N 
ATOM     22  C   UNL A   1      33.121  34.309  28.403  1.00  0.00     0.251 C 
ATOM     23  H   UNL A   1      31.552  34.172  27.176  1.00  0.00     0.163 HD
ATOM     24  O   UNL A   1      32.773  35.400  28.851  1.00  0.00    -0.269 OA
BRANCH  22  25
ATOM     25  C   UNL A   1      34.410  33.720  28.822  1.00  0.00     0.039 A 
ATOM     26  C   UNL A   1      34.447  32.928  29.973  1.00  0.00     0.014 A 
ATOM     27  C   UNL A   1      35.584  33.975  28.109  1.00  0.00     0.014 A 
ATOM     28  C   UNL A   1      35.653  32.354  30.380  1.00  0.00     0.010 A 
ATOM     29  C   UNL A   1      36.766  33.333  28.465  1.00  0.00     0.010 A 
ATOM     30  C   UNL A   1      36.817  32.533  29.615  1.00  0.00    -0.014 A 
BRANCH  30  31
ATOM     31  C   UNL A   1      38.105  31.920  30.024  1.00  0.00     0.031 A 
ATOM     32  C   UNL A   1      39.011  32.643  30.983  1.00  0.00     0.074 A 
ATOM     33  C   UNL A   1      38.483  30.741  29.495  1.00  0.00     0.049 A 
ATOM     34  N   UNL A   1      40.191  32.292  31.428  1.00  0.00    -0.248 NA
ATOM     35  C   UNL A   1      38.543  33.944  31.487  1.00  0.00     0.031 C 
ATOM     36  C   UNL A   1      37.716  29.959  28.522  1.00  0.00     0.029 A 
ATOM     37  N   UNL A   1      39.614  29.993  29.704  1.00  0.00    -0.354 N 
ATOM     38  C   UNL A   1      40.614  33.337  32.240  1.00  0.00     0.074 A 
ATOM     39  C   UNL A   1      39.589  34.355  32.189  1.00  0.00     0.031 C 
ATOM     40  C   UNL A   1      38.384  28.828  28.243  1.00  0.00     0.029 A 
ATOM     41  C   UNL A   1      39.638  28.821  28.989  1.00  0.00     0.049 A 
ATOM     42  H   UNL A   1      40.340  30.270  30.309  1.00  0.00     0.167 HD
ATOM     43  C   UNL A   1      41.745  33.435  32.979  1.00  0.00     0.031 A 
ATOM     44  C   UNL A   1      40.566  27.847  28.942  1.00  0.00     0.031 A 
ATOM     45  C   UNL A   1      42.753  32.413  33.051  1.00  0.00     0.049 A 
ATOM     46  C   UNL A   1      41.804  27.971  29.784  1.00  0.00     0.074 A 
ATOM     47  C   UNL A   1      43.903  32.389  33.820  1.00  0.00     0.029 A 
ATOM     48  N   UNL A   1      42.729  31.231  32.327  1.00  0.00    -0.354 N 
ATOM     49  N   UNL A   1      42.156  28.934  30.600  1.00  0.00    -0.248 NA
ATOM     50  C   UNL A   1      42.767  26.862  29.709  1.00  0.00     0.031 C 
ATOM     51  C   UNL A   1      44.597  31.208  33.531  1.00  0.00     0.029 A 
ATOM     52  C   UNL A   1      43.853  30.477  32.618  1.00  0.00     0.049 A 
ATOM     53  H   UNL A   1      42.019  30.968  31.698  1.00  0.00     0.167 HD
ATOM     54  C   UNL A   1      43.365  28.536  31.157  1.00  0.00     0.074 A 
ATOM     55  C   UNL A   1      43.677  27.237  30.597  1.00  0.00     0.031 C 
ATOM     56  C   UNL A   1      44.146  29.186  32.052  1.00  0.00     0.031 A 
BRANCH  43  57
ATOM     57  C   UNL A   1      41.946  34.699  33.768  1.00  0.00    -0.014 A 
ATOM     58  C   UNL A   1      42.622  35.800  33.218  1.00  0.00     0.009 A 
ATOM     59  C   UNL A   1      41.433  34.798  35.070  1.00  0.00     0.009 A 
ATOM     60  C   UNL A   1      42.813  36.960  33.971  1.00  0.00     0.001 A 
ATOM     61  C   UNL A   1      41.601  35.970  35.810  1.00  0.00     0.001 A 
ATOM     62  C   UNL A   1      42.300  37.046  35.264  1.00  0.00     0.000 A 
ENDBRANCH  43  57
BRANCH  44  63
ATOM     63  C   UNL A   1      40.345  26.649  28.090  1.00  0.00    -0.014 A 
ATOM     64  C   UNL A   1      40.875  26.596  26.792  1.00  0.00     0.009 A 
ATOM     65  C   UNL A   1      39.604  25.558  28.568  1.00  0.00     0.009 A 
ATOM     66  C   UNL A   1      40.643  25.485  25.978  1.00  0.00     0.001 A 
ATOM     67  C   UNL A   1      39.396  24.437  27.762  1.00  0.00     0.001 A 
ATOM     68  C   UNL A   1      39.908  24.405  26.465  1.00  0.00     0.000 A 
ENDBRANCH  44  63
BRANCH  56  69
ATOM     69  C   UNL A   1      45.392  28.485  32.510  1.00  0.00    -0.014 A 
ATOM     70  C   UNL A   1      46.619  28.677  31.857  1.00  0.00     0.009 A 
ATOM     71  C   UNL A   1      45.341  27.645  33.634  1.00  0.00     0.009 A 
ATOM     72  C   UNL A   1      47.764  28.013  32.300  1.00  0.00     0.001 A 
ATOM     73  C   UNL A   1      46.494  27.004  34.091  1.00  0.00     0.001 A 
ATOM     74  C   UNL A   1      47.702  27.181  33.418  1.00  0.00     0.000 A 
ENDBRANCH  56  69
ENDBRANCH  30  31
ENDBRANCH  22  25
ENDBRANCH  20  21
ENDBRANCH  19  20
ENDBRANCH   1  19
TORSDOF 16
ENDMDL
MODEL 3
REMARK VINA RESULT:      -9.5      1.134      2.445
REMARK SMILES CCCC[C@@](CC)(C[C@H]1CCOC1)C(=O)NCCCNC(=O)c1ccc(-c2c3nc(c(-c4ccccc4)c4ccc([nH]4)c(-c4ccccc4)c4nc(c(-c5ccccc5)c5ccc2[nH]5)C=C4)C=C3)cc1
REMARK SMILES IDX 17 1 16 2 14 3 15 4 5 6 4 7 3 8 2 9 1 10 6 11 7 12 8 13 9 14
REMARK SMILES IDX 10 15 13 16 11 17 12 18 18 19 19 20 20 21 21 22 22 24 23 25
REMARK SMILES IDX 24 26 70 27 25 28 69 29 26 30 27 31 28 32 63 33 29 34 68 35
REMARK SMILES IDX 62 36 64 37 30 38 67 39 61 40 60 41 31 43 53 44 38 45 52 46
REMARK SMILES IDX 39 47 42 48 51 49 65 50 40 51 41 52 50 54 66 55 43 56 32 57
REMARK SMILES IDX 33 58 37 59 34 60 36 61 35 62 54 63 55 64 59 65 56 66 58 67
REMARK SMILES IDX 57 68 44 69 45 70 49 71 46 72 48 73 47 74
REMARK H PARENT 16 5 20 23 64 42 42 53
REMARK Flexibility Score: inf
ROOT
ATOM      1  C   UNL A   1      31.415  30.351  26.086  1.00  0.00     0.117 C 
ENDROOT
BRANCH   1   2
ATOM      2  N   UNL A   1      32.492  30.077  25.150  1.00  0.00    -0.356 N 
ATOM      3  C   UNL A   1      32.689  29.157  24.172  1.00  0.00     0.226 C 
ATOM      4  O   UNL A   1      33.856  29.082  23.779  1.00  0.00    -0.274 OA
ATOM      5  H   UNL A   1      33.250  30.699  25.246  1.00  0.00     0.163 HD
BRANCH   3   6
ATOM      6  C   UNL A   1      31.572  28.241  23.619  1.00  0.00     0.049 C 
BRANCH   6   7
ATOM      7  C   UNL A   1      30.714  27.611  24.779  1.00  0.00     0.017 C 
BRANCH   7   8
ATOM      8  C   UNL A   1      31.246  26.407  25.584  1.00  0.00     0.001 C 
BRANCH   8   9
ATOM      9  C   UNL A   1      30.446  25.102  25.519  1.00  0.00    -0.003 C 
ATOM     10  C   UNL A   1      31.165  23.974  24.788  1.00  0.00     0.004 C 
ENDBRANCH   8   9
ENDBRANCH   7   8
ENDBRANCH   6   7
BRANCH   6  11
ATOM     11  C   UNL A   1      32.254  27.103  22.792  1.00  0.00     0.013 C 
ATOM     12  C   UNL A   1      31.365  26.335  21.822  1.00  0.00     0.005 C 
ENDBRANCH   6  11
BRANCH   6  13
ATOM     13  C   UNL A   1      30.596  29.109  22.746  1.00  0.00     0.023 C 
BRANCH  13  14
ATOM     14  C   UNL A   1      29.303  29.637  23.406  1.00  0.00     0.018 C 
ATOM     15  C   UNL A   1      29.037  31.128  23.377  1.00  0.00     0.034 C 
ATOM     16  C   UNL A   1      28.046  29.107  22.721  1.00  0.00     0.163 C 
ATOM     17  C   UNL A   1      27.543  31.196  23.614  1.00  0.00     0.160 C 
ATOM     18  O   UNL A   1      26.981  30.017  23.028  1.00  0.00    -0.381 OA
ENDBRANCH  13  14
ENDBRANCH   6  13
ENDBRANCH   3   6
ENDBRANCH   1   2
BRANCH   1  19
ATOM     19  C   UNL A   1      31.355  31.825  26.470  1.00  0.00     0.042 C 
BRANCH  19  20
ATOM     20  C   UNL A   1      32.626  32.352  27.124  1.00  0.00     0.118 C 
BRANCH  20  21
ATOM     21  N   UNL A   1      32.473  33.710  27.624  1.00  0.00    -0.352 N 
ATOM     22  C   UNL A   1      33.218  34.397  28.544  1.00  0.00     0.251 C 
ATOM     23  H   UNL A   1      31.715  34.211  27.243  1.00  0.00     0.163 HD
ATOM     24  O   UNL A   1      32.802  35.465  28.990  1.00  0.00    -0.269 OA
BRANCH  22  25
ATOM     25  C   UNL A   1      34.511  33.859  29.015  1.00  0.00     0.039 A 
ATOM     26  C   UNL A   1      34.533  33.065  30.165  1.00  0.00     0.014 A 
ATOM     27  C   UNL A   1      35.703  34.162  28.352  1.00  0.00     0.014 A 
ATOM     28  C   UNL A   1      35.742  32.538  30.621  1.00  0.00     0.010 A 
ATOM     29  C   UNL A   1      36.894  33.566  28.756  1.00  0.00     0.010 A 
ATOM     30  C   UNL A   1      36.929  32.765  29.906  1.00  0.00    -0.014 A 
BRANCH  30  31
ATOM     31  C   UNL A   1      38.222  32.202  30.366  1.00  0.00     0.031 A 
ATOM     32  C   UNL A   1      38.718  30.897  29.804  1.00  0.00     0.074 A 
ATOM     33  C   UNL A   1      38.924  32.834  31.327  1.00  0.00     0.049 A 
ATOM     34  N   UNL A   1      39.799  30.225  30.108  1.00  0.00    -0.248 NA
ATOM     35  C   UNL A   1      37.876  30.249  28.786  1.00  0.00     0.031 C 
ATOM     36  C   UNL A   1      38.531  34.083  31.985  1.00  0.00     0.029 A 
ATOM     37  N   UNL A   1      40.119  32.510  31.917  1.00  0.00    -0.354 N 
ATOM     38  C   UNL A   1      39.752  29.068  29.341  1.00  0.00     0.074 A 
ATOM     39  C   UNL A   1      38.515  29.105  28.594  1.00  0.00     0.031 C 
ATOM     40  C   UNL A   1      39.483  34.433  32.865  1.00  0.00     0.029 A 
ATOM     41  C   UNL A   1      40.533  33.421  32.856  1.00  0.00     0.049 A 
ATOM     42  H   UNL A   1      40.631  31.700  31.688  1.00  0.00     0.167 HD
ATOM     43  C   UNL A   1      40.664  28.072  29.248  1.00  0.00     0.031 A 
ATOM     44  C   UNL A   1      41.638  33.439  33.624  1.00  0.00     0.031 A 
ATOM     45  C   UNL A   1      41.907  28.045  29.971  1.00  0.00     0.049 A 
ATOM     46  C   UNL A   1      42.644  32.331  33.492  1.00  0.00     0.074 A 
ATOM     47  C   UNL A   1      42.927  27.114  29.898  1.00  0.00     0.029 A 
ATOM     48  N   UNL A   1      42.298  28.998  30.898  1.00  0.00    -0.354 N 
ATOM     49  N   UNL A   1      42.617  31.280  32.710  1.00  0.00    -0.248 NA
ATOM     50  C   UNL A   1      43.842  32.422  34.339  1.00  0.00     0.031 C 
ATOM     51  C   UNL A   1      43.920  27.482  30.813  1.00  0.00     0.029 A 
ATOM     52  C   UNL A   1      43.538  28.669  31.418  1.00  0.00     0.049 A 
ATOM     53  H   UNL A   1      41.772  29.791  31.151  1.00  0.00     0.167 HD
ATOM     54  C   UNL A   1      43.804  30.599  32.949  1.00  0.00     0.074 A 
ATOM     55  C   UNL A   1      44.535  31.367  33.937  1.00  0.00     0.031 C 
ATOM     56  C   UNL A   1      44.251  29.444  32.399  1.00  0.00     0.031 A 
BRANCH  43  57
ATOM     57  C   UNL A   1      40.344  26.926  28.329  1.00  0.00    -0.014 A 
ATOM     58  C   UNL A   1      39.571  25.838  28.766  1.00  0.00     0.009 A 
ATOM     59  C   UNL A   1      40.802  26.945  27.004  1.00  0.00     0.009 A 
ATOM     60  C   UNL A   1      39.296  24.774  27.903  1.00  0.00     0.001 A 
ATOM     61  C   UNL A   1      40.501  25.894  26.135  1.00  0.00     0.001 A 
ATOM     62  C   UNL A   1      39.758  24.805  26.588  1.00  0.00     0.000 A 
ENDBRANCH  43  57
BRANCH  44  63
ATOM     63  C   UNL A   1      41.871  34.565  34.567  1.00  0.00    -0.014 A 
ATOM     64  C   UNL A   1      41.409  34.488  35.890  1.00  0.00     0.009 A 
ATOM     65  C   UNL A   1      42.550  35.719  34.149  1.00  0.00     0.009 A 
ATOM     66  C   UNL A   1      41.599  35.556  36.769  1.00  0.00     0.001 A 
ATOM     67  C   UNL A   1      42.762  36.775  35.038  1.00  0.00     0.001 A 
ATOM     68  C   UNL A   1      42.279  36.697  36.343  1.00  0.00     0.000 A 
ENDBRANCH  44  63
BRANCH  56  69
ATOM     69  C   UNL A   1      45.607  28.963  32.825  1.00  0.00    -0.014 A 
ATOM     70  C   UNL A   1      45.762  28.082  33.907  1.00  0.00     0.009 A 
ATOM     71  C   UNL A   1      46.744  29.373  32.111  1.00  0.00     0.009 A 
ATOM     72  C   UNL A   1      47.034  27.649  34.286  1.00  0.00     0.001 A 
ATOM     73  C   UNL A   1      48.012  28.917  32.476  1.00  0.00     0.001 A 
ATOM     74  C   UNL A   1      48.156  28.063  33.568  1.00  0.00     0.000 A 
ENDBRANCH  56  69
ENDBRANCH  30  31
ENDBRANCH  22  25
ENDBRANCH  20  21
ENDBRANCH  19  20
ENDBRANCH   1  19
TORSDOF 16
ENDMDL
