MODEL 1
REMARK VINA RESULT:     -11.6      0.000      0.000
REMARK SMILES C[C@@H](C(=O)NCCCNC(=O)c1ccc(-c2c3nc(c(-c4ccccc4)c4ccc([nH]4)c(-c4ccccc4)c4nc(c(-c5ccccc5)c5ccc2[nH]5)C=C4)C=C3)cc1)n1ccc(C(=O)N2CC[NH+](Cc3cccc(F)c3)CC2)n1
REMARK SMILES IDX 6 1 5 2 3 3 4 4 2 6 1 7 60 8 61 9 80 10 62 11 63 12 64 13
REMARK SMILES IDX 65 14 66 15 67 16 79 17 68 18 78 19 69 20 70 22 71 23 72 24
REMARK SMILES IDX 77 25 73 26 75 27 74 28 76 29 7 30 8 31 9 32 10 33 11 35
REMARK SMILES IDX 12 36 13 37 59 38 14 39 58 40 15 41 16 42 17 43 52 44 18 45
REMARK SMILES IDX 57 46 51 47 53 48 19 49 56 50 50 51 49 52 20 54 42 55 27 56
REMARK SMILES IDX 41 57 28 58 31 59 40 60 54 61 29 62 30 63 39 65 55 66 32 67
REMARK SMILES IDX 21 68 22 69 26 70 23 71 25 72 24 73 43 74 44 75 48 76 45 77
REMARK SMILES IDX 47 78 46 79 33 80 34 81 38 82 35 83 37 84 36 85
REMARK H PARENT 5 5 69 21 9 34 53 53 31 64
REMARK Flexibility Score: inf
ROOT
ATOM      1  C   UNL A   1      36.455  34.570  32.848  1.00  0.00     0.117 C 
ENDROOT
BRANCH   1   2
ATOM      2  N   UNL A   1      35.172  33.994  33.211  1.00  0.00    -0.354 N 
ATOM      3  C   UNL A   1      33.915  34.234  32.725  1.00  0.00     0.244 C 
ATOM      4  O   UNL A   1      32.993  33.604  33.249  1.00  0.00    -0.273 OA
ATOM      5  H   UNL A   1      35.214  33.317  33.925  1.00  0.00     0.163 HD
BRANCH   3   6
ATOM      6  C   UNL A   1      33.700  35.273  31.631  1.00  0.00     0.193 C 
ATOM      7  C   UNL A   1      32.418  36.066  31.870  1.00  0.00     0.044 C 
BRANCH   6   8
ATOM      8  N   UNL A   1      33.692  34.669  30.295  1.00  0.00    -0.260 N 
ATOM      9  C   UNL A   1      33.350  35.263  29.113  1.00  0.00     0.110 A 
ATOM     10  N   UNL A   1      34.256  33.452  30.129  1.00  0.00    -0.167 NA
ATOM     11  C   UNL A   1      33.749  34.400  28.123  1.00  0.00     0.056 A 
ATOM     12  C   UNL A   1      34.298  33.277  28.794  1.00  0.00     0.150 A 
BRANCH  12  13
ATOM     13  C   UNL A   1      34.937  32.118  28.145  1.00  0.00     0.274 C 
ATOM     14  O   UNL A   1      36.166  32.063  28.062  1.00  0.00    -0.267 OA
ATOM     15  N   UNL A   1      34.127  31.105  27.613  1.00  0.00    -0.326 N 
ATOM     16  C   UNL A   1      34.807  29.963  27.010  1.00  0.00     0.181 C 
ATOM     17  C   UNL A   1      32.750  31.337  27.170  1.00  0.00     0.181 C 
ATOM     18  C   UNL A   1      33.927  28.708  26.890  1.00  0.00     0.284 C 
ATOM     19  C   UNL A   1      31.915  30.049  27.043  1.00  0.00     0.284 C 
ATOM     20  N   UNL A   1      32.568  28.915  26.384  1.00  0.00    -0.328 N 
ATOM     21  H   UNL A   1      32.039  28.093  26.671  1.00  0.00     0.348 HD
BRANCH  20  22
ATOM     22  C   UNL A   1      32.384  28.801  24.938  1.00  0.00     0.299 C 
BRANCH  22  23
ATOM     23  C   UNL A   1      31.098  28.194  24.430  1.00  0.00     0.009 A 
ATOM     24  C   UNL A   1      30.720  26.892  24.802  1.00  0.00     0.010 A 
ATOM     25  C   UNL A   1      30.267  28.906  23.553  1.00  0.00     0.048 A 
ATOM     26  C   UNL A   1      29.523  26.334  24.346  1.00  0.00     0.004 A 
ATOM     27  C   UNL A   1      29.076  28.343  23.106  1.00  0.00     0.123 A 
ATOM     28  C   UNL A   1      28.693  27.066  23.499  1.00  0.00     0.039 A 
ATOM     29  F   UNL A   1      28.283  29.046  22.286  1.00  0.00    -0.207 F 
ENDBRANCH  22  23
ENDBRANCH  20  22
ENDBRANCH  12  13
ENDBRANCH   6   8
ENDBRANCH   3   6
ENDBRANCH   1   2
BRANCH   1  30
ATOM     30  C   UNL A   1      37.518  33.513  32.551  1.00  0.00     0.042 C 
BRANCH  30  31
ATOM     31  C   UNL A   1      37.358  32.789  31.216  1.00  0.00     0.118 C 
BRANCH  31  32
ATOM     32  N   UNL A   1      36.540  31.593  31.310  1.00  0.00    -0.352 N 
ATOM     33  C   UNL A   1      36.812  30.313  30.887  1.00  0.00     0.251 C 
ATOM     34  H   UNL A   1      35.663  31.718  31.738  1.00  0.00     0.163 HD
ATOM     35  O   UNL A   1      35.939  29.459  30.946  1.00  0.00    -0.269 OA
BRANCH  33  36
ATOM     36  C   UNL A   1      38.142  29.964  30.333  1.00  0.00     0.039 A 
ATOM     37  C   UNL A   1      39.155  29.599  31.227  1.00  0.00     0.014 A 
ATOM     38  C   UNL A   1      38.413  30.040  28.963  1.00  0.00     0.014 A 
ATOM     39  C   UNL A   1      40.422  29.258  30.746  1.00  0.00     0.010 A 
ATOM     40  C   UNL A   1      39.670  29.666  28.480  1.00  0.00     0.010 A 
ATOM     41  C   UNL A   1      40.681  29.270  29.367  1.00  0.00    -0.014 A 
BRANCH  41  42
ATOM     42  C   UNL A   1      42.008  28.863  28.843  1.00  0.00     0.031 A 
ATOM     43  C   UNL A   1      42.244  27.458  28.372  1.00  0.00     0.074 A 
ATOM     44  C   UNL A   1      43.018  29.754  28.829  1.00  0.00     0.049 A 
ATOM     45  N   UNL A   1      43.352  26.912  27.937  1.00  0.00    -0.248 NA
ATOM     46  C   UNL A   1      41.091  26.545  28.407  1.00  0.00     0.031 C 
ATOM     47  C   UNL A   1      42.932  31.143  29.281  1.00  0.00     0.029 A 
ATOM     48  N   UNL A   1      44.320  29.613  28.420  1.00  0.00    -0.354 N 
ATOM     49  C   UNL A   1      43.038  25.587  27.671  1.00  0.00     0.074 A 
ATOM     50  C   UNL A   1      41.639  25.408  27.997  1.00  0.00     0.031 C 
ATOM     51  C   UNL A   1      44.128  31.732  29.113  1.00  0.00     0.029 A 
ATOM     52  C   UNL A   1      45.064  30.758  28.560  1.00  0.00     0.049 A 
ATOM     53  H   UNL A   1      44.685  28.773  28.061  1.00  0.00     0.167 HD
ATOM     54  C   UNL A   1      43.840  24.605  27.194  1.00  0.00     0.031 A 
ATOM     55  C   UNL A   1      46.357  30.998  28.275  1.00  0.00     0.031 A 
ATOM     56  C   UNL A   1      45.223  24.771  26.842  1.00  0.00     0.049 A 
ATOM     57  C   UNL A   1      47.213  29.904  27.710  1.00  0.00     0.074 A 
ATOM     58  C   UNL A   1      46.101  23.835  26.321  1.00  0.00     0.029 A 
ATOM     59  N   UNL A   1      45.928  25.956  26.966  1.00  0.00    -0.354 N 
ATOM     60  N   UNL A   1      46.895  28.662  27.447  1.00  0.00    -0.248 NA
ATOM     61  C   UNL A   1      48.608  30.252  27.398  1.00  0.00     0.031 C 
ATOM     62  C   UNL A   1      47.344  24.453  26.139  1.00  0.00     0.029 A 
ATOM     63  C   UNL A   1      47.232  25.776  26.533  1.00  0.00     0.049 A 
ATOM     64  H   UNL A   1      45.559  26.800  27.310  1.00  0.00     0.167 HD
ATOM     65  C   UNL A   1      48.044  28.079  26.934  1.00  0.00     0.074 A 
ATOM     66  C   UNL A   1      49.066  29.106  26.913  1.00  0.00     0.031 C 
ATOM     67  C   UNL A   1      48.234  26.805  26.517  1.00  0.00     0.031 A 
BRANCH  54  68
ATOM     68  C   UNL A   1      43.229  23.246  27.038  1.00  0.00    -0.014 A 
ATOM     69  C   UNL A   1      42.835  22.503  28.161  1.00  0.00     0.009 A 
ATOM     70  C   UNL A   1      43.024  22.716  25.755  1.00  0.00     0.009 A 
ATOM     71  C   UNL A   1      42.266  21.238  28.000  1.00  0.00     0.001 A 
ATOM     72  C   UNL A   1      42.445  21.456  25.599  1.00  0.00     0.001 A 
ATOM     73  C   UNL A   1      42.071  20.717  26.722  1.00  0.00     0.000 A 
ENDBRANCH  54  68
BRANCH  55  74
ATOM     74  C   UNL A   1      46.923  32.345  28.512  1.00  0.00    -0.014 A 
ATOM     75  C   UNL A   1      46.703  33.375  27.586  1.00  0.00     0.009 A 
ATOM     76  C   UNL A   1      47.678  32.605  29.664  1.00  0.00     0.009 A 
ATOM     77  C   UNL A   1      47.243  34.643  27.805  1.00  0.00     0.001 A 
ATOM     78  C   UNL A   1      48.208  33.877  29.884  1.00  0.00     0.001 A 
ATOM     79  C   UNL A   1      47.994  34.894  28.953  1.00  0.00     0.000 A 
ENDBRANCH  55  74
BRANCH  67  80
ATOM     80  C   UNL A   1      49.594  26.459  25.995  1.00  0.00    -0.014 A 
ATOM     81  C   UNL A   1      50.512  25.761  26.794  1.00  0.00     0.009 A 
ATOM     82  C   UNL A   1      49.953  26.815  24.687  1.00  0.00     0.009 A 
ATOM     83  C   UNL A   1      51.775  25.441  26.296  1.00  0.00     0.001 A 
ATOM     84  C   UNL A   1      51.215  26.486  24.189  1.00  0.00     0.001 A 
ATOM     85  C   UNL A   1      52.125  25.803  24.995  1.00  0.00     0.000 A 
ENDBRANCH  67  80
ENDBRANCH  41  42
ENDBRANCH  33  36
ENDBRANCH  31  32
ENDBRANCH  30  31
ENDBRANCH   1  30
TORSDOF 14
ENDMDL
MODEL 2
REMARK VINA RESULT:     -11.5      3.944      9.331
REMARK SMILES C[C@@H](C(=O)NCCCNC(=O)c1ccc(-c2c3nc(c(-c4ccccc4)c4ccc([nH]4)c(-c4ccccc4)c4nc(c(-c5ccccc5)c5ccc2[nH]5)C=C4)C=C3)cc1)n1ccc(C(=O)N2CC[NH+](Cc3cccc(F)c3)CC2)n1
REMARK SMILES IDX 6 1 5 2 3 3 4 4 2 6 1 7 60 8 61 9 80 10 62 11 63 12 64 13
REMARK SMILES IDX 65 14 66 15 67 16 79 17 68 18 78 19 69 20 70 22 71 23 72 24
REMARK SMILES IDX 77 25 73 26 75 27 74 28 76 29 7 30 8 31 9 32 10 33 11 35
REMARK SMILES IDX 12 36 13 37 59 38 14 39 58 40 15 41 16 42 17 43 52 44 18 45
REMARK SMILES IDX 57 46 51 47 53 48 19 49 56 50 50 51 49 52 20 54 42 55 27 56
REMARK SMILES IDX 41 57 28 58 31 59 40 60 54 61 29 62 30 63 39 65 55 66 32 67
REMARK SMILES IDX 21 68 22 69 26 70 23 71 25 72 24 73 43 74 44 75 48 76 45 77
REMARK SMILES IDX 47 78 46 79 33 80 34 81 38 82 35 83 37 84 36 85
REMARK H PARENT 5 5 69 21 9 34 53 53 31 64
REMARK Flexibility Score: inf
ROOT
ATOM      1  C   UNL A   1      38.037  21.898  25.698  1.00  0.00     0.117 C 
ENDROOT
BRANCH   1   2
ATOM      2  N   UNL A   1      37.352  22.417  24.526  1.00  0.00    -0.354 N 
ATOM      3  C   UNL A   1      36.030  22.379  24.174  1.00  0.00     0.244 C 
ATOM      4  O   UNL A   1      35.734  22.888  23.091  1.00  0.00    -0.273 OA
ATOM      5  H   UNL A   1      37.937  22.872  23.878  1.00  0.00     0.163 HD
BRANCH   3   6
ATOM      6  C   UNL A   1      35.014  21.686  25.076  1.00  0.00     0.193 C 
ATOM      7  C   UNL A   1      34.878  20.209  24.717  1.00  0.00     0.044 C 
BRANCH   6   8
ATOM      8  N   UNL A   1      33.707  22.349  25.041  1.00  0.00    -0.260 N 
ATOM      9  C   UNL A   1      32.482  21.768  24.879  1.00  0.00     0.110 A 
ATOM     10  N   UNL A   1      33.630  23.653  25.392  1.00  0.00    -0.167 NA
ATOM     11  C   UNL A   1      31.557  22.737  25.178  1.00  0.00     0.056 A 
ATOM     12  C   UNL A   1      32.309  23.902  25.482  1.00  0.00     0.150 A 
BRANCH  12  13
ATOM     13  C   UNL A   1      31.754  25.186  25.945  1.00  0.00     0.274 C 
ATOM     14  O   UNL A   1      31.550  25.368  27.147  1.00  0.00    -0.267 OA
ATOM     15  N   UNL A   1      31.445  26.174  24.998  1.00  0.00    -0.326 N 
ATOM     16  C   UNL A   1      30.928  27.439  25.509  1.00  0.00     0.181 C 
ATOM     17  C   UNL A   1      31.123  25.866  23.602  1.00  0.00     0.181 C 
ATOM     18  C   UNL A   1      31.065  28.610  24.521  1.00  0.00     0.284 C 
ATOM     19  C   UNL A   1      31.252  27.074  22.656  1.00  0.00     0.284 C 
ATOM     20  N   UNL A   1      30.681  28.336  23.134  1.00  0.00    -0.328 N 
ATOM     21  H   UNL A   1      31.127  29.064  22.576  1.00  0.00     0.348 HD
BRANCH  20  22
ATOM     22  C   UNL A   1      29.290  28.605  22.775  1.00  0.00     0.299 C 
BRANCH  22  23
ATOM     23  C   UNL A   1      28.894  30.033  22.483  1.00  0.00     0.009 A 
ATOM     24  C   UNL A   1      28.937  31.012  23.491  1.00  0.00     0.010 A 
ATOM     25  C   UNL A   1      28.447  30.406  21.208  1.00  0.00     0.048 A 
ATOM     26  C   UNL A   1      28.586  32.338  23.219  1.00  0.00     0.004 A 
ATOM     27  C   UNL A   1      28.102  31.729  20.947  1.00  0.00     0.123 A 
ATOM     28  C   UNL A   1      28.174  32.699  21.939  1.00  0.00     0.039 A 
ATOM     29  F   UNL A   1      27.699  32.073  19.716  1.00  0.00    -0.207 F 
ENDBRANCH  22  23
ENDBRANCH  20  22
ENDBRANCH  12  13
ENDBRANCH   6   8
ENDBRANCH   3   6
ENDBRANCH   1   2
BRANCH   1  30
ATOM     30  C   UNL A   1      39.287  21.093  25.345  1.00  0.00     0.042 C 
BRANCH  30  31
ATOM     31  C   UNL A   1      39.543  19.872  26.224  1.00  0.00     0.118 C 
BRANCH  31  32
ATOM     32  N   UNL A   1      40.797  19.205  25.924  1.00  0.00    -0.352 N 
ATOM     33  C   UNL A   1      42.085  19.680  26.017  1.00  0.00     0.251 C 
ATOM     34  H   UNL A   1      40.713  18.277  25.608  1.00  0.00     0.163 HD
ATOM     35  O   UNL A   1      43.011  19.001  25.599  1.00  0.00    -0.269 OA
BRANCH  33  36
ATOM     36  C   UNL A   1      42.358  21.020  26.590  1.00  0.00     0.039 A 
ATOM     37  C   UNL A   1      42.762  22.041  25.722  1.00  0.00     0.014 A 
ATOM     38  C   UNL A   1      42.270  21.266  27.964  1.00  0.00     0.014 A 
ATOM     39  C   UNL A   1      43.024  23.320  26.220  1.00  0.00     0.010 A 
ATOM     40  C   UNL A   1      42.500  22.552  28.458  1.00  0.00     0.010 A 
ATOM     41  C   UNL A   1      42.875  23.588  27.589  1.00  0.00    -0.014 A 
BRANCH  41  42
ATOM     42  C   UNL A   1      43.104  24.954  28.121  1.00  0.00     0.031 A 
ATOM     43  C   UNL A   1      44.480  25.392  28.531  1.00  0.00     0.074 A 
ATOM     44  C   UNL A   1      42.061  25.792  28.274  1.00  0.00     0.049 A 
ATOM     45  N   UNL A   1      44.856  26.525  29.068  1.00  0.00    -0.248 NA
ATOM     46  C   UNL A   1      45.571  24.427  28.324  1.00  0.00     0.031 C 
ATOM     47  C   UNL A   1      40.669  25.485  27.940  1.00  0.00     0.029 A 
ATOM     48  N   UNL A   1      42.015  27.074  28.758  1.00  0.00    -0.354 N 
ATOM     49  C   UNL A   1      46.221  26.402  29.286  1.00  0.00     0.074 A 
ATOM     50  C   UNL A   1      46.607  25.084  28.830  1.00  0.00     0.031 C 
ATOM     51  C   UNL A   1      39.907  26.556  28.219  1.00  0.00     0.029 A 
ATOM     52  C   UNL A   1      40.753  27.613  28.764  1.00  0.00     0.049 A 
ATOM     53  H   UNL A   1      42.811  27.561  29.070  1.00  0.00     0.167 HD
ATOM     54  C   UNL A   1      47.080  27.306  29.817  1.00  0.00     0.031 A 
ATOM     55  C   UNL A   1      40.323  28.823  29.164  1.00  0.00     0.031 A 
ATOM     56  C   UNL A   1      46.718  28.627  30.251  1.00  0.00     0.049 A 
ATOM     57  C   UNL A   1      41.301  29.820  29.710  1.00  0.00     0.074 A 
ATOM     58  C   UNL A   1      47.533  29.619  30.771  1.00  0.00     0.029 A 
ATOM     59  N   UNL A   1      45.435  29.145  30.206  1.00  0.00    -0.354 N 
ATOM     60  N   UNL A   1      42.591  29.694  29.893  1.00  0.00    -0.248 NA
ATOM     61  C   UNL A   1      40.759  31.131  30.100  1.00  0.00     0.031 C 
ATOM     62  C   UNL A   1      46.737  30.737  31.052  1.00  0.00     0.029 A 
ATOM     63  C   UNL A   1      45.434  30.442  30.691  1.00  0.00     0.049 A 
ATOM     64  H   UNL A   1      44.642  28.663  29.879  1.00  0.00     0.167 HD
ATOM     65  C   UNL A   1      43.018  30.907  30.413  1.00  0.00     0.074 A 
ATOM     66  C   UNL A   1      41.852  31.761  30.508  1.00  0.00     0.031 C 
ATOM     67  C   UNL A   1      44.267  31.278  30.779  1.00  0.00     0.031 A 
BRANCH  54  68
ATOM     68  C   UNL A   1      48.507  26.878  29.966  1.00  0.00    -0.014 A 
ATOM     69  C   UNL A   1      48.919  26.128  31.077  1.00  0.00     0.009 A 
ATOM     70  C   UNL A   1      49.443  27.211  28.974  1.00  0.00     0.009 A 
ATOM     71  C   UNL A   1      50.254  25.735  31.203  1.00  0.00     0.001 A 
ATOM     72  C   UNL A   1      50.773  26.807  29.098  1.00  0.00     0.001 A 
ATOM     73  C   UNL A   1      51.178  26.074  30.215  1.00  0.00     0.000 A 
ENDBRANCH  54  68
BRANCH  55  74
ATOM     74  C   UNL A   1      38.887  29.165  29.053  1.00  0.00    -0.014 A 
ATOM     75  C   UNL A   1      38.372  29.658  27.846  1.00  0.00     0.009 A 
ATOM     76  C   UNL A   1      38.030  28.997  30.149  1.00  0.00     0.009 A 
ATOM     77  C   UNL A   1      37.020  29.989  27.743  1.00  0.00     0.001 A 
ATOM     78  C   UNL A   1      36.677  29.320  30.039  1.00  0.00     0.001 A 
ATOM     79  C   UNL A   1      36.173  29.818  28.838  1.00  0.00     0.000 A 
ENDBRANCH  55  74
BRANCH  67  80
ATOM     80  C   UNL A   1      44.434  32.670  31.303  1.00  0.00    -0.014 A 
ATOM     81  C   UNL A   1      44.636  33.746  30.426  1.00  0.00     0.009 A 
ATOM     82  C   UNL A   1      44.368  32.912  32.683  1.00  0.00     0.009 A 
ATOM     83  C   UNL A   1      44.787  35.041  30.925  1.00  0.00     0.001 A 
ATOM     84  C   UNL A   1      44.511  34.209  33.178  1.00  0.00     0.001 A 
ATOM     85  C   UNL A   1      44.724  35.271  32.299  1.00  0.00     0.000 A 
ENDBRANCH  67  80
ENDBRANCH  41  42
ENDBRANCH  33  36
ENDBRANCH  31  32
ENDBRANCH  30  31
ENDBRANCH   1  30
TORSDOF 14
ENDMDL
MODEL 3
REMARK VINA RESULT:     -11.4      4.790      7.908
REMARK SMILES C[C@@H](C(=O)NCCCNC(=O)c1ccc(-c2c3nc(c(-c4ccccc4)c4ccc([nH]4)c(-c4ccccc4)c4nc(c(-c5ccccc5)c5ccc2[nH]5)C=C4)C=C3)cc1)n1ccc(C(=O)N2CC[NH+](Cc3cccc(F)c3)CC2)n1
REMARK SMILES IDX 6 1 5 2 3 3 4 4 2 6 1 7 60 8 61 9 80 10 62 11 63 12 64 13
REMARK SMILES IDX 65 14 66 15 67 16 79 17 68 18 78 19 69 20 70 22 71 23 72 24
REMARK SMILES IDX 77 25 73 26 75 27 74 28 76 29 7 30 8 31 9 32 10 33 11 35
REMARK SMILES IDX 12 36 13 37 59 38 14 39 58 40 15 41 16 42 17 43 52 44 18 45
REMARK SMILES IDX 57 46 51 47 53 48 19 49 56 50 50 51 49 52 20 54 42 55 27 56
REMARK SMILES IDX 41 57 28 58 31 59 40 60 54 61 29 62 30 63 39 65 55 66 32 67
REMARK SMILES IDX 21 68 22 69 26 70 23 71 25 72 24 73 43 74 44 75 48 76 45 77
REMARK SMILES IDX 47 78 46 79 33 80 34 81 38 82 35 83 37 84 36 85
REMARK H PARENT 5 5 69 21 9 34 53 53 31 64
REMARK Flexibility Score: inf
ROOT
ATOM      1  C   UNL A   1      33.001  30.422  27.255  1.00  0.00     0.117 C 
ENDROOT
BRANCH   1   2
ATOM      2  N   UNL A   1      32.260  29.207  27.548  1.00  0.00    -0.354 N 
ATOM      3  C   UNL A   1      31.781  28.231  26.716  1.00  0.00     0.244 C 
ATOM      4  O   UNL A   1      31.156  27.312  27.250  1.00  0.00    -0.273 OA
ATOM      5  H   UNL A   1      32.071  29.062  28.503  1.00  0.00     0.163 HD
BRANCH   3   6
ATOM      6  C   UNL A   1      31.983  28.338  25.209  1.00  0.00     0.193 C 
ATOM      7  C   UNL A   1      31.092  29.423  24.611  1.00  0.00     0.044 C 
BRANCH   6   8
ATOM      8  N   UNL A   1      31.761  27.056  24.533  1.00  0.00    -0.260 N 
ATOM      9  C   UNL A   1      30.767  26.741  23.651  1.00  0.00     0.110 A 
ATOM     10  N   UNL A   1      32.722  26.108  24.606  1.00  0.00    -0.167 NA
ATOM     11  C   UNL A   1      31.120  25.538  23.092  1.00  0.00     0.056 A 
ATOM     12  C   UNL A   1      32.338  25.168  23.720  1.00  0.00     0.150 A 
BRANCH  12  13
ATOM     13  C   UNL A   1      33.151  23.984  23.388  1.00  0.00     0.274 C 
ATOM     14  O   UNL A   1      33.676  23.894  22.276  1.00  0.00    -0.267 OA
ATOM     15  N   UNL A   1      33.291  22.967  24.342  1.00  0.00    -0.326 N 
ATOM     16  C   UNL A   1      34.131  21.831  23.978  1.00  0.00     0.181 C 
ATOM     17  C   UNL A   1      32.303  22.721  25.396  1.00  0.00     0.181 C 
ATOM     18  C   UNL A   1      34.633  21.017  25.182  1.00  0.00     0.284 C 
ATOM     19  C   UNL A   1      32.844  21.883  26.569  1.00  0.00     0.284 C 
ATOM     20  N   UNL A   1      33.638  20.705  26.213  1.00  0.00    -0.328 N 
ATOM     21  H   UNL A   1      34.173  20.474  27.050  1.00  0.00     0.348 HD
BRANCH  20  22
ATOM     22  C   UNL A   1      32.913  19.445  26.060  1.00  0.00     0.299 C 
BRANCH  22  23
ATOM     23  C   UNL A   1      33.239  18.575  24.869  1.00  0.00     0.009 A 
ATOM     24  C   UNL A   1      34.252  17.604  24.944  1.00  0.00     0.010 A 
ATOM     25  C   UNL A   1      32.557  18.739  23.655  1.00  0.00     0.048 A 
ATOM     26  C   UNL A   1      34.545  16.788  23.847  1.00  0.00     0.004 A 
ATOM     27  C   UNL A   1      32.855  17.920  22.570  1.00  0.00     0.123 A 
ATOM     28  C   UNL A   1      33.838  16.942  22.657  1.00  0.00     0.039 A 
ATOM     29  F   UNL A   1      32.178  18.075  21.424  1.00  0.00    -0.207 F 
ENDBRANCH  22  23
ENDBRANCH  20  22
ENDBRANCH  12  13
ENDBRANCH   6   8
ENDBRANCH   3   6
ENDBRANCH   1   2
BRANCH   1  30
ATOM     30  C   UNL A   1      32.128  31.675  27.301  1.00  0.00     0.042 C 
BRANCH  30  31
ATOM     31  C   UNL A   1      32.826  32.969  26.889  1.00  0.00     0.118 C 
BRANCH  31  32
ATOM     32  N   UNL A   1      32.532  34.082  27.773  1.00  0.00    -0.352 N 
ATOM     33  C   UNL A   1      33.204  34.510  28.895  1.00  0.00     0.251 C 
ATOM     34  H   UNL A   1      31.735  34.608  27.534  1.00  0.00     0.163 HD
ATOM     35  O   UNL A   1      32.727  35.402  29.581  1.00  0.00    -0.269 OA
BRANCH  33  36
ATOM     36  C   UNL A   1      34.484  33.880  29.297  1.00  0.00     0.039 A 
ATOM     37  C   UNL A   1      35.648  34.257  28.616  1.00  0.00     0.014 A 
ATOM     38  C   UNL A   1      34.544  32.898  30.290  1.00  0.00     0.014 A 
ATOM     39  C   UNL A   1      36.877  33.691  28.967  1.00  0.00     0.010 A 
ATOM     40  C   UNL A   1      35.776  32.357  30.664  1.00  0.00     0.010 A 
ATOM     41  C   UNL A   1      36.951  32.753  30.007  1.00  0.00    -0.014 A 
BRANCH  41  42
ATOM     42  C   UNL A   1      38.257  32.182  30.419  1.00  0.00     0.031 A 
ATOM     43  C   UNL A   1      38.751  30.897  29.822  1.00  0.00     0.074 A 
ATOM     44  C   UNL A   1      38.985  32.804  31.366  1.00  0.00     0.049 A 
ATOM     45  N   UNL A   1      39.838  30.223  30.104  1.00  0.00    -0.248 NA
ATOM     46  C   UNL A   1      37.908  30.281  28.786  1.00  0.00     0.031 C 
ATOM     47  C   UNL A   1      38.611  34.045  32.046  1.00  0.00     0.029 A 
ATOM     48  N   UNL A   1      40.193  32.467  31.922  1.00  0.00    -0.354 N 
ATOM     49  C   UNL A   1      39.799  29.093  29.299  1.00  0.00     0.074 A 
ATOM     50  C   UNL A   1      38.579  29.167  28.523  1.00  0.00     0.031 C 
ATOM     51  C   UNL A   1      39.577  34.371  32.921  1.00  0.00     0.029 A 
ATOM     52  C   UNL A   1      40.625  33.357  32.873  1.00  0.00     0.049 A 
ATOM     53  H   UNL A   1      40.701  31.665  31.663  1.00  0.00     0.167 HD
ATOM     54  C   UNL A   1      40.698  28.084  29.211  1.00  0.00     0.031 A 
ATOM     55  C   UNL A   1      41.741  33.356  33.625  1.00  0.00     0.031 A 
ATOM     56  C   UNL A   1      41.924  28.008  29.954  1.00  0.00     0.049 A 
ATOM     57  C   UNL A   1      42.740  32.248  33.479  1.00  0.00     0.074 A 
ATOM     58  C   UNL A   1      42.909  27.034  29.902  1.00  0.00     0.029 A 
ATOM     59  N   UNL A   1      42.340  28.948  30.882  1.00  0.00    -0.354 N 
ATOM     60  N   UNL A   1      42.695  31.196  32.700  1.00  0.00    -0.248 NA
ATOM     61  C   UNL A   1      43.947  32.333  34.315  1.00  0.00     0.031 C 
ATOM     62  C   UNL A   1      43.918  27.382  30.807  1.00  0.00     0.029 A 
ATOM     63  C   UNL A   1      43.566  28.578  31.410  1.00  0.00     0.049 A 
ATOM     64  H   UNL A   1      41.840  29.758  31.129  1.00  0.00     0.167 HD
ATOM     65  C   UNL A   1      43.867  30.496  32.945  1.00  0.00     0.074 A 
ATOM     66  C   UNL A   1      44.609  31.246  33.939  1.00  0.00     0.031 C 
ATOM     67  C   UNL A   1      44.290  29.334  32.395  1.00  0.00     0.031 A 
BRANCH  54  68
ATOM     68  C   UNL A   1      40.370  26.965  28.270  1.00  0.00    -0.014 A 
ATOM     69  C   UNL A   1      40.858  26.967  26.955  1.00  0.00     0.009 A 
ATOM     70  C   UNL A   1      39.584  25.890  28.711  1.00  0.00     0.009 A 
ATOM     71  C   UNL A   1      40.546  25.917  26.089  1.00  0.00     0.001 A 
ATOM     72  C   UNL A   1      39.283  24.837  27.845  1.00  0.00     0.001 A 
ATOM     73  C   UNL A   1      39.760  24.855  26.534  1.00  0.00     0.000 A 
ENDBRANCH  54  68
BRANCH  55  74
ATOM     74  C   UNL A   1      41.979  34.457  34.586  1.00  0.00    -0.014 A 
ATOM     75  C   UNL A   1      42.638  35.624  34.172  1.00  0.00     0.009 A 
ATOM     76  C   UNL A   1      41.546  34.347  35.914  1.00  0.00     0.009 A 
ATOM     77  C   UNL A   1      42.870  36.658  35.079  1.00  0.00     0.001 A 
ATOM     78  C   UNL A   1      41.771  35.388  36.816  1.00  0.00     0.001 A 
ATOM     79  C   UNL A   1      42.436  36.541  36.399  1.00  0.00     0.000 A 
ENDBRANCH  55  74
BRANCH  67  80
ATOM     80  C   UNL A   1      45.618  28.813  32.849  1.00  0.00    -0.014 A 
ATOM     81  C   UNL A   1      45.709  27.944  33.946  1.00  0.00     0.009 A 
ATOM     82  C   UNL A   1      46.786  29.178  32.163  1.00  0.00     0.009 A 
ATOM     83  C   UNL A   1      46.952  27.461  34.359  1.00  0.00     0.001 A 
ATOM     84  C   UNL A   1      48.026  28.688  32.574  1.00  0.00     0.001 A 
ATOM     85  C   UNL A   1      48.108  27.833  33.673  1.00  0.00     0.000 A 
ENDBRANCH  67  80
ENDBRANCH  41  42
ENDBRANCH  33  36
ENDBRANCH  31  32
ENDBRANCH  30  31
ENDBRANCH   1  30
TORSDOF 14
ENDMDL
