MODEL 1
REMARK VINA RESULT:     -10.7      0.000      0.000
REMARK SMILES C[C@@H]1CC([NH2+][C@@](C)(C(=O)NCCCNC(=O)c2ccc(-c3c4nc(c(-c5ccccc5)c5ccc([nH]5)c(-c5ccccc5)c5nc(c(-c6ccccc6)c6ccc3[nH]6)C=C5)C=C4)cc2)C(F)(F)F)C[C@@H](C)C1
REMARK SMILES IDX 12 1 11 2 10 3 8 4 9 5 6 7 7 8 5 9 4 12 1 13 2 14 3 15 72 16
REMARK SMILES IDX 70 17 69 18 71 19 65 20 66 21 67 22 68 23 13 24 14 25 15 26
REMARK SMILES IDX 16 28 17 29 18 30 64 31 19 32 63 33 20 34 21 35 22 36 57 37
REMARK SMILES IDX 23 38 62 39 56 40 58 41 24 42 61 43 55 44 54 45 25 47 47 48
REMARK SMILES IDX 32 49 46 50 33 51 36 52 45 53 59 54 34 55 35 56 44 58 60 59
REMARK SMILES IDX 37 60 26 61 27 62 31 63 28 64 30 65 29 66 48 67 49 68 53 69
REMARK SMILES IDX 50 70 52 71 51 72 38 73 39 74 43 75 40 76 42 77 41 78
REMARK H PARENT 10 6 5 10 5 11 14 27 58 46 36 57
REMARK Flexibility Score: inf
ROOT
ATOM      1  C   UNL A   1      33.914  28.322  25.836  1.00  0.00     0.042 C 
ENDROOT
BRANCH   1   2
ATOM      2  C   UNL A   1      33.020  27.324  25.110  1.00  0.00     0.118 C 
BRANCH   2   3
ATOM      3  N   UNL A   1      31.834  27.013  25.889  1.00  0.00    -0.350 N 
ATOM      4  C   UNL A   1      31.074  25.881  26.033  1.00  0.00     0.290 C 
ATOM      5  O   UNL A   1      30.078  26.020  26.746  1.00  0.00    -0.267 OA
ATOM      6  H   UNL A   1      31.507  27.771  26.425  1.00  0.00     0.163 HD
BRANCH   4   7
ATOM      7  C   UNL A   1      31.458  24.528  25.363  1.00  0.00     0.268 C 
ATOM      8  C   UNL A   1      30.639  23.415  26.054  1.00  0.00     0.101 C 
BRANCH   7   9
ATOM      9  N   UNL A   1      32.952  24.380  25.491  1.00  0.00    -0.324 N 
ATOM     10  H   UNL A   1      33.349  24.555  24.567  1.00  0.00     0.347 HD
ATOM     11  H   UNL A   1      33.198  25.039  26.229  1.00  0.00     0.347 HD
BRANCH   9  12
ATOM     12  C   UNL A   1      33.509  23.107  25.962  1.00  0.00     0.184 C 
ATOM     13  C   UNL A   1      34.189  23.261  22.640  1.00  0.00     0.008 C 
ATOM     14  C   UNL A   1      34.584  22.252  23.718  1.00  0.00    -0.008 C 
ATOM     15  C   UNL A   1      33.501  22.078  24.806  1.00  0.00     0.068 C 
ATOM     16  C   UNL A   1      35.974  22.579  24.298  1.00  0.00     0.007 C 
ATOM     17  C   UNL A   1      35.936  23.629  25.417  1.00  0.00    -0.008 C 
ATOM     18  C   UNL A   1      34.944  23.187  26.501  1.00  0.00     0.068 C 
ATOM     19  C   UNL A   1      37.323  23.871  26.009  1.00  0.00     0.008 C 
ENDBRANCH   9  12
ENDBRANCH   7   9
BRANCH   7  20
ATOM     20  C   UNL A   1      30.916  24.632  23.901  1.00  0.00     0.453 C 
ATOM     21  F   UNL A   1      30.631  23.434  23.347  1.00  0.00    -0.164 F 
ATOM     22  F   UNL A   1      29.760  25.353  23.874  1.00  0.00    -0.164 F 
ATOM     23  F   UNL A   1      31.772  25.291  23.082  1.00  0.00    -0.164 F 
ENDBRANCH   7  20
ENDBRANCH   4   7
ENDBRANCH   2   3
ENDBRANCH   1   2
BRANCH   1  24
ATOM     24  C   UNL A   1      33.504  28.589  27.277  1.00  0.00     0.118 C 
BRANCH  24  25
ATOM     25  N   UNL A   1      33.545  30.005  27.608  1.00  0.00    -0.352 N 
ATOM     26  C   UNL A   1      34.520  30.755  28.221  1.00  0.00     0.251 C 
ATOM     27  H   UNL A   1      32.742  30.511  27.349  1.00  0.00     0.163 HD
ATOM     28  O   UNL A   1      34.253  31.895  28.587  1.00  0.00    -0.269 OA
BRANCH  26  29
ATOM     29  C   UNL A   1      35.875  30.207  28.463  1.00  0.00     0.039 A 
ATOM     30  C   UNL A   1      36.801  30.221  27.415  1.00  0.00     0.014 A 
ATOM     31  C   UNL A   1      36.231  29.638  29.687  1.00  0.00     0.014 A 
ATOM     32  C   UNL A   1      38.093  29.725  27.615  1.00  0.00     0.010 A 
ATOM     33  C   UNL A   1      37.543  29.229  29.914  1.00  0.00     0.010 A 
ATOM     34  C   UNL A   1      38.487  29.258  28.878  1.00  0.00    -0.014 A 
BRANCH  34  35
ATOM     35  C   UNL A   1      39.874  28.790  29.132  1.00  0.00     0.031 A 
ATOM     36  C   UNL A   1      40.883  29.708  29.768  1.00  0.00     0.074 A 
ATOM     37  C   UNL A   1      40.248  27.560  28.730  1.00  0.00     0.049 A 
ATOM     38  N   UNL A   1      42.153  29.498  30.011  1.00  0.00    -0.248 NA
ATOM     39  C   UNL A   1      40.412  31.047  30.157  1.00  0.00     0.031 C 
ATOM     40  C   UNL A   1      39.382  26.586  28.061  1.00  0.00     0.029 A 
ATOM     41  N   UNL A   1      41.458  26.920  28.820  1.00  0.00    -0.354 N 
ATOM     42  C   UNL A   1      42.634  30.683  30.555  1.00  0.00     0.074 A 
ATOM     43  C   UNL A   1      41.535  31.622  30.562  1.00  0.00     0.031 C 
ATOM     44  C   UNL A   1      40.080  25.464  27.828  1.00  0.00     0.029 A 
ATOM     45  C   UNL A   1      41.451  25.651  28.292  1.00  0.00     0.049 A 
ATOM     46  H   UNL A   1      42.256  27.331  29.224  1.00  0.00     0.167 HD
ATOM     47  C   UNL A   1      43.875  30.961  31.025  1.00  0.00     0.031 A 
ATOM     48  C   UNL A   1      42.437  24.742  28.188  1.00  0.00     0.031 A 
ATOM     49  C   UNL A   1      44.966  30.023  31.036  1.00  0.00     0.049 A 
ATOM     50  C   UNL A   1      43.804  25.072  28.715  1.00  0.00     0.074 A 
ATOM     51  C   UNL A   1      46.239  30.188  31.553  1.00  0.00     0.029 A 
ATOM     52  N   UNL A   1      44.912  28.745  30.503  1.00  0.00    -0.354 N 
ATOM     53  N   UNL A   1      44.222  26.172  29.292  1.00  0.00    -0.248 NA
ATOM     54  C   UNL A   1      44.831  24.028  28.586  1.00  0.00     0.031 C 
ATOM     55  C   UNL A   1      46.972  29.027  31.287  1.00  0.00     0.029 A 
ATOM     56  C   UNL A   1      46.138  28.119  30.654  1.00  0.00     0.049 A 
ATOM     57  H   UNL A   1      44.120  28.343  30.079  1.00  0.00     0.167 HD
ATOM     58  C   UNL A   1      45.553  25.946  29.615  1.00  0.00     0.074 A 
ATOM     59  C   UNL A   1      45.867  24.598  29.187  1.00  0.00     0.031 C 
ATOM     60  C   UNL A   1      46.437  26.780  30.216  1.00  0.00     0.031 A 
BRANCH  47  61
ATOM     61  C   UNL A   1      44.115  32.346  31.560  1.00  0.00    -0.014 A 
ATOM     62  C   UNL A   1      43.951  32.641  32.924  1.00  0.00     0.009 A 
ATOM     63  C   UNL A   1      44.535  33.366  30.692  1.00  0.00     0.009 A 
ATOM     64  C   UNL A   1      44.159  33.938  33.397  1.00  0.00     0.001 A 
ATOM     65  C   UNL A   1      44.772  34.655  31.174  1.00  0.00     0.001 A 
ATOM     66  C   UNL A   1      44.573  34.942  32.523  1.00  0.00     0.000 A 
ENDBRANCH  47  61
BRANCH  48  67
ATOM     67  C   UNL A   1      42.159  23.418  27.573  1.00  0.00    -0.014 A 
ATOM     68  C   UNL A   1      42.493  23.173  26.233  1.00  0.00     0.009 A 
ATOM     69  C   UNL A   1      41.570  22.389  28.325  1.00  0.00     0.009 A 
ATOM     70  C   UNL A   1      42.224  21.933  25.650  1.00  0.00     0.001 A 
ATOM     71  C   UNL A   1      41.327  21.141  27.747  1.00  0.00     0.001 A 
ATOM     72  C   UNL A   1      41.646  20.916  26.410  1.00  0.00     0.000 A 
ENDBRANCH  48  67
BRANCH  60  73
ATOM     73  C   UNL A   1      47.819  26.249  30.469  1.00  0.00    -0.014 A 
ATOM     74  C   UNL A   1      48.805  26.277  29.470  1.00  0.00     0.009 A 
ATOM     75  C   UNL A   1      48.149  25.747  31.738  1.00  0.00     0.009 A 
ATOM     76  C   UNL A   1      50.085  25.782  29.728  1.00  0.00     0.001 A 
ATOM     77  C   UNL A   1      49.437  25.279  32.001  1.00  0.00     0.001 A 
ATOM     78  C   UNL A   1      50.401  25.289  30.994  1.00  0.00     0.000 A 
ENDBRANCH  60  73
ENDBRANCH  34  35
ENDBRANCH  26  29
ENDBRANCH  24  25
ENDBRANCH   1  24
TORSDOF 13
ENDMDL
MODEL 2
REMARK VINA RESULT:     -10.5      1.348      2.106
REMARK SMILES C[C@@H]1CC([NH2+][C@@](C)(C(=O)NCCCNC(=O)c2ccc(-c3c4nc(c(-c5ccccc5)c5ccc([nH]5)c(-c5ccccc5)c5nc(c(-c6ccccc6)c6ccc3[nH]6)C=C5)C=C4)cc2)C(F)(F)F)C[C@@H](C)C1
REMARK SMILES IDX 12 1 11 2 10 3 8 4 9 5 6 7 7 8 5 9 4 12 1 13 2 14 3 15 72 16
REMARK SMILES IDX 70 17 69 18 71 19 65 20 66 21 67 22 68 23 13 24 14 25 15 26
REMARK SMILES IDX 16 28 17 29 18 30 64 31 19 32 63 33 20 34 21 35 22 36 57 37
REMARK SMILES IDX 23 38 62 39 56 40 58 41 24 42 61 43 55 44 54 45 25 47 47 48
REMARK SMILES IDX 32 49 46 50 33 51 36 52 45 53 59 54 34 55 35 56 44 58 60 59
REMARK SMILES IDX 37 60 26 61 27 62 31 63 28 64 30 65 29 66 48 67 49 68 53 69
REMARK SMILES IDX 50 70 52 71 51 72 38 73 39 74 43 75 40 76 42 77 41 78
REMARK H PARENT 10 6 5 10 5 11 14 27 58 46 36 57
REMARK Flexibility Score: inf
ROOT
ATOM      1  C   UNL A   1      32.128  28.134  27.179  1.00  0.00     0.042 C 
ENDROOT
BRANCH   1   2
ATOM      2  C   UNL A   1      31.987  26.908  26.284  1.00  0.00     0.118 C 
BRANCH   2   3
ATOM      3  N   UNL A   1      30.980  27.115  25.259  1.00  0.00    -0.350 N 
ATOM      4  C   UNL A   1      30.997  27.022  23.892  1.00  0.00     0.290 C 
ATOM      5  O   UNL A   1      29.942  27.346  23.342  1.00  0.00    -0.267 OA
ATOM      6  H   UNL A   1      30.102  27.374  25.619  1.00  0.00     0.163 HD
BRANCH   4   7
ATOM      7  C   UNL A   1      32.248  26.528  23.105  1.00  0.00     0.268 C 
ATOM      8  C   UNL A   1      31.813  26.278  21.644  1.00  0.00     0.101 C 
BRANCH   7   9
ATOM      9  N   UNL A   1      32.767  25.309  23.822  1.00  0.00    -0.324 N 
ATOM     10  H   UNL A   1      33.092  25.619  24.739  1.00  0.00     0.347 HD
ATOM     11  H   UNL A   1      31.976  24.666  23.809  1.00  0.00     0.347 HD
BRANCH   9  12
ATOM     12  C   UNL A   1      33.858  24.533  23.222  1.00  0.00     0.184 C 
ATOM     13  C   UNL A   1      33.757  23.637  26.494  1.00  0.00     0.008 C 
ATOM     14  C   UNL A   1      34.589  23.124  25.320  1.00  0.00    -0.008 C 
ATOM     15  C   UNL A   1      34.930  24.229  24.295  1.00  0.00     0.068 C 
ATOM     16  C   UNL A   1      33.933  21.887  24.676  1.00  0.00     0.007 C 
ATOM     17  C   UNL A   1      32.852  22.237  23.644  1.00  0.00    -0.008 C 
ATOM     18  C   UNL A   1      33.435  23.196  22.597  1.00  0.00     0.068 C 
ATOM     19  C   UNL A   1      32.279  20.986  22.982  1.00  0.00     0.008 C 
ENDBRANCH   9  12
ENDBRANCH   7   9
BRANCH   7  20
ATOM     20  C   UNL A   1      33.217  27.753  23.074  1.00  0.00     0.453 C 
ATOM     21  F   UNL A   1      32.588  28.940  23.212  1.00  0.00    -0.164 F 
ATOM     22  F   UNL A   1      34.116  27.673  24.095  1.00  0.00    -0.164 F 
ATOM     23  F   UNL A   1      33.961  27.791  21.942  1.00  0.00    -0.164 F 
ENDBRANCH   7  20
ENDBRANCH   4   7
ENDBRANCH   2   3
ENDBRANCH   1   2
BRANCH   1  24
ATOM     24  C   UNL A   1      33.551  28.659  27.294  1.00  0.00     0.118 C 
BRANCH  24  25
ATOM     25  N   UNL A   1      33.591  30.061  27.681  1.00  0.00    -0.352 N 
ATOM     26  C   UNL A   1      34.566  30.788  28.319  1.00  0.00     0.251 C 
ATOM     27  H   UNL A   1      32.785  30.576  27.444  1.00  0.00     0.163 HD
ATOM     28  O   UNL A   1      34.299  31.913  28.730  1.00  0.00    -0.269 OA
BRANCH  26  29
ATOM     29  C   UNL A   1      35.923  30.234  28.534  1.00  0.00     0.039 A 
ATOM     30  C   UNL A   1      36.839  30.274  27.477  1.00  0.00     0.014 A 
ATOM     31  C   UNL A   1      36.290  29.633  29.740  1.00  0.00     0.014 A 
ATOM     32  C   UNL A   1      38.132  29.772  27.653  1.00  0.00     0.010 A 
ATOM     33  C   UNL A   1      37.604  29.218  29.944  1.00  0.00     0.010 A 
ATOM     34  C   UNL A   1      38.538  29.273  28.900  1.00  0.00    -0.014 A 
BRANCH  34  35
ATOM     35  C   UNL A   1      39.927  28.798  29.128  1.00  0.00     0.031 A 
ATOM     36  C   UNL A   1      40.955  29.714  29.739  1.00  0.00     0.074 A 
ATOM     37  C   UNL A   1      40.285  27.564  28.725  1.00  0.00     0.049 A 
ATOM     38  N   UNL A   1      42.228  29.497  29.958  1.00  0.00    -0.248 NA
ATOM     39  C   UNL A   1      40.499  31.057  30.130  1.00  0.00     0.031 C 
ATOM     40  C   UNL A   1      39.401  26.592  28.079  1.00  0.00     0.029 A 
ATOM     41  N   UNL A   1      41.494  26.917  28.794  1.00  0.00    -0.354 N 
ATOM     42  C   UNL A   1      42.727  30.682  30.486  1.00  0.00     0.074 A 
ATOM     43  C   UNL A   1      41.633  31.628  30.510  1.00  0.00     0.031 C 
ATOM     44  C   UNL A   1      40.088  25.464  27.838  1.00  0.00     0.029 A 
ATOM     45  C   UNL A   1      41.468  25.646  28.273  1.00  0.00     0.049 A 
ATOM     46  H   UNL A   1      42.302  27.326  29.181  1.00  0.00     0.167 HD
ATOM     47  C   UNL A   1      43.978  30.955  30.930  1.00  0.00     0.031 A 
ATOM     48  C   UNL A   1      42.447  24.730  28.154  1.00  0.00     0.031 A 
ATOM     49  C   UNL A   1      45.063  30.011  30.924  1.00  0.00     0.049 A 
ATOM     50  C   UNL A   1      43.826  25.054  28.653  1.00  0.00     0.074 A 
ATOM     51  C   UNL A   1      46.348  30.170  31.415  1.00  0.00     0.029 A 
ATOM     52  N   UNL A   1      44.991  28.730  30.398  1.00  0.00    -0.354 N 
ATOM     53  N   UNL A   1      44.263  26.155  29.215  1.00  0.00    -0.248 NA
ATOM     54  C   UNL A   1      44.845  24.004  28.509  1.00  0.00     0.031 C 
ATOM     55  C   UNL A   1      47.068  29.004  31.140  1.00  0.00     0.029 A 
ATOM     56  C   UNL A   1      46.217  28.098  30.528  1.00  0.00     0.049 A 
ATOM     57  H   UNL A   1      44.189  28.330  29.992  1.00  0.00     0.167 HD
ATOM     58  C   UNL A   1      45.598  25.923  29.513  1.00  0.00     0.074 A 
ATOM     59  C   UNL A   1      45.895  24.571  29.085  1.00  0.00     0.031 C 
ATOM     60  C   UNL A   1      46.499  26.755  30.092  1.00  0.00     0.031 A 
BRANCH  47  61
ATOM     61  C   UNL A   1      44.237  32.341  31.452  1.00  0.00    -0.014 A 
ATOM     62  C   UNL A   1      44.671  33.373  30.602  1.00  0.00     0.009 A 
ATOM     63  C   UNL A   1      44.023  32.628  32.809  1.00  0.00     0.009 A 
ATOM     64  C   UNL A   1      44.925  34.648  31.109  1.00  0.00     0.001 A 
ATOM     65  C   UNL A   1      44.249  33.912  33.308  1.00  0.00     0.001 A 
ATOM     66  C   UNL A   1      44.711  34.918  32.460  1.00  0.00     0.000 A 
ENDBRANCH  47  61
BRANCH  48  67
ATOM     67  C   UNL A   1      42.149  23.405  27.552  1.00  0.00    -0.014 A 
ATOM     68  C   UNL A   1      41.549  22.395  28.319  1.00  0.00     0.009 A 
ATOM     69  C   UNL A   1      42.452  23.146  26.206  1.00  0.00     0.009 A 
ATOM     70  C   UNL A   1      41.278  21.145  27.757  1.00  0.00     0.001 A 
ATOM     71  C   UNL A   1      42.154  21.905  25.639  1.00  0.00     0.001 A 
ATOM     72  C   UNL A   1      41.576  20.903  26.416  1.00  0.00     0.000 A 
ENDBRANCH  48  67
BRANCH  60  73
ATOM     73  C   UNL A   1      47.883  26.217  30.320  1.00  0.00    -0.014 A 
ATOM     74  C   UNL A   1      48.844  26.222  29.298  1.00  0.00     0.009 A 
ATOM     75  C   UNL A   1      48.239  25.731  31.588  1.00  0.00     0.009 A 
ATOM     76  C   UNL A   1      50.126  25.721  29.533  1.00  0.00     0.001 A 
ATOM     77  C   UNL A   1      49.529  25.257  31.827  1.00  0.00     0.001 A 
ATOM     78  C   UNL A   1      50.469  25.244  30.798  1.00  0.00     0.000 A 
ENDBRANCH  60  73
ENDBRANCH  34  35
ENDBRANCH  26  29
ENDBRANCH  24  25
ENDBRANCH   1  24
TORSDOF 13
ENDMDL
MODEL 3
REMARK VINA RESULT:     -10.5      2.830      7.731
REMARK SMILES C[C@@H]1CC([NH2+][C@@](C)(C(=O)NCCCNC(=O)c2ccc(-c3c4nc(c(-c5ccccc5)c5ccc([nH]5)c(-c5ccccc5)c5nc(c(-c6ccccc6)c6ccc3[nH]6)C=C5)C=C4)cc2)C(F)(F)F)C[C@@H](C)C1
REMARK SMILES IDX 12 1 11 2 10 3 8 4 9 5 6 7 7 8 5 9 4 12 1 13 2 14 3 15 72 16
REMARK SMILES IDX 70 17 69 18 71 19 65 20 66 21 67 22 68 23 13 24 14 25 15 26
REMARK SMILES IDX 16 28 17 29 18 30 64 31 19 32 63 33 20 34 21 35 22 36 57 37
REMARK SMILES IDX 23 38 62 39 56 40 58 41 24 42 61 43 55 44 54 45 25 47 47 48
REMARK SMILES IDX 32 49 46 50 33 51 36 52 45 53 59 54 34 55 35 56 44 58 60 59
REMARK SMILES IDX 37 60 26 61 27 62 31 63 28 64 30 65 29 66 48 67 49 68 53 69
REMARK SMILES IDX 50 70 52 71 51 72 38 73 39 74 43 75 40 76 42 77 41 78
REMARK H PARENT 10 6 5 10 5 11 14 27 58 46 36 57
REMARK Flexibility Score: inf
ROOT
ATOM      1  C   UNL A   1      36.286  23.252  23.821  1.00  0.00     0.042 C 
ENDROOT
BRANCH   1   2
ATOM      2  C   UNL A   1      34.860  23.770  23.687  1.00  0.00     0.118 C 
BRANCH   2   3
ATOM      3  N   UNL A   1      33.916  22.680  23.505  1.00  0.00    -0.350 N 
ATOM      4  C   UNL A   1      32.791  22.289  24.181  1.00  0.00     0.290 C 
ATOM      5  O   UNL A   1      32.277  21.249  23.764  1.00  0.00    -0.267 OA
ATOM      6  H   UNL A   1      34.129  22.103  22.737  1.00  0.00     0.163 HD
BRANCH   4   7
ATOM      7  C   UNL A   1      32.203  23.110  25.368  1.00  0.00     0.268 C 
ATOM      8  C   UNL A   1      30.923  22.389  25.847  1.00  0.00     0.101 C 
BRANCH   7   9
ATOM      9  N   UNL A   1      31.982  24.514  24.867  1.00  0.00    -0.324 N 
ATOM     10  H   UNL A   1      32.841  25.033  25.052  1.00  0.00     0.347 HD
ATOM     11  H   UNL A   1      31.725  24.384  23.890  1.00  0.00     0.347 HD
BRANCH   9  12
ATOM     12  C   UNL A   1      30.877  25.306  25.417  1.00  0.00     0.184 C 
ATOM     13  C   UNL A   1      33.654  27.235  25.710  1.00  0.00     0.008 C 
ATOM     14  C   UNL A   1      32.181  27.515  26.002  1.00  0.00    -0.008 C 
ATOM     15  C   UNL A   1      31.417  26.269  26.501  1.00  0.00     0.068 C 
ATOM     16  C   UNL A   1      31.499  28.196  24.798  1.00  0.00     0.007 C 
ATOM     17  C   UNL A   1      31.011  27.205  23.732  1.00  0.00    -0.008 C 
ATOM     18  C   UNL A   1      30.110  26.150  24.389  1.00  0.00     0.068 C 
ATOM     19  C   UNL A   1      30.283  27.916  22.594  1.00  0.00     0.008 C 
ENDBRANCH   9  12
ENDBRANCH   7   9
BRANCH   7  20
ATOM     20  C   UNL A   1      33.249  22.964  26.519  1.00  0.00     0.453 C 
ATOM     21  F   UNL A   1      34.032  24.053  26.675  1.00  0.00    -0.164 F 
ATOM     22  F   UNL A   1      32.618  22.770  27.712  1.00  0.00    -0.164 F 
ATOM     23  F   UNL A   1      34.047  21.881  26.354  1.00  0.00    -0.164 F 
ENDBRANCH   7  20
ENDBRANCH   4   7
ENDBRANCH   2   3
ENDBRANCH   1   2
BRANCH   1  24
ATOM     24  C   UNL A   1      36.974  23.655  25.117  1.00  0.00     0.118 C 
BRANCH  24  25
ATOM     25  N   UNL A   1      38.063  22.754  25.465  1.00  0.00    -0.352 N 
ATOM     26  C   UNL A   1      39.248  22.991  26.118  1.00  0.00     0.251 C 
ATOM     27  H   UNL A   1      37.928  21.820  25.188  1.00  0.00     0.163 HD
ATOM     28  O   UNL A   1      40.113  22.121  26.118  1.00  0.00    -0.269 OA
BRANCH  26  29
ATOM     29  C   UNL A   1      39.506  24.279  26.803  1.00  0.00     0.039 A 
ATOM     30  C   UNL A   1      39.023  24.456  28.104  1.00  0.00     0.014 A 
ATOM     31  C   UNL A   1      40.172  25.330  26.169  1.00  0.00     0.014 A 
ATOM     32  C   UNL A   1      39.262  25.654  28.783  1.00  0.00     0.010 A 
ATOM     33  C   UNL A   1      40.489  26.487  26.877  1.00  0.00     0.010 A 
ATOM     34  C   UNL A   1      40.030  26.667  28.189  1.00  0.00    -0.014 A 
BRANCH  34  35
ATOM     35  C   UNL A   1      40.354  27.920  28.918  1.00  0.00     0.031 A 
ATOM     36  C   UNL A   1      41.669  28.065  29.637  1.00  0.00     0.074 A 
ATOM     37  C   UNL A   1      39.439  28.906  28.990  1.00  0.00     0.049 A 
ATOM     38  N   UNL A   1      42.102  29.057  30.375  1.00  0.00    -0.248 NA
ATOM     39  C   UNL A   1      42.609  26.937  29.537  1.00  0.00     0.031 C 
ATOM     40  C   UNL A   1      38.109  28.876  28.378  1.00  0.00     0.029 A 
ATOM     41  N   UNL A   1      39.487  30.125  29.620  1.00  0.00    -0.354 N 
ATOM     42  C   UNL A   1      43.349  28.661  30.845  1.00  0.00     0.074 A 
ATOM     43  C   UNL A   1      43.582  27.322  30.350  1.00  0.00     0.031 C 
ATOM     44  C   UNL A   1      37.480  30.034  28.636  1.00  0.00     0.029 A 
ATOM     45  C   UNL A   1      38.343  30.869  29.465  1.00  0.00     0.049 A 
ATOM     46  H   UNL A   1      40.268  30.436  30.132  1.00  0.00     0.167 HD
ATOM     47  C   UNL A   1      44.230  29.355  31.605  1.00  0.00     0.031 A 
ATOM     48  C   UNL A   1      38.020  32.086  29.940  1.00  0.00     0.031 A 
ATOM     49  C   UNL A   1      44.009  30.693  32.084  1.00  0.00     0.049 A 
ATOM     50  C   UNL A   1      39.013  32.837  30.780  1.00  0.00     0.074 A 
ATOM     51  C   UNL A   1      44.870  31.505  32.802  1.00  0.00     0.029 A 
ATOM     52  N   UNL A   1      42.841  31.415  31.894  1.00  0.00    -0.354 N 
ATOM     53  N   UNL A   1      40.216  32.477  31.155  1.00  0.00    -0.248 NA
ATOM     54  C   UNL A   1      38.606  34.168  31.253  1.00  0.00     0.031 C 
ATOM     55  C   UNL A   1      44.203  32.701  33.091  1.00  0.00     0.029 A 
ATOM     56  C   UNL A   1      42.948  32.654  32.505  1.00  0.00     0.049 A 
ATOM     57  H   UNL A   1      42.053  31.095  31.400  1.00  0.00     0.167 HD
ATOM     58  C   UNL A   1      40.719  33.544  31.888  1.00  0.00     0.074 A 
ATOM     59  C   UNL A   1      39.697  34.570  31.889  1.00  0.00     0.031 C 
ATOM     60  C   UNL A   1      41.921  33.663  32.504  1.00  0.00     0.031 A 
BRANCH  47  61
ATOM     61  C   UNL A   1      45.516  28.667  31.971  1.00  0.00    -0.014 A 
ATOM     62  C   UNL A   1      46.658  28.769  31.157  1.00  0.00     0.009 A 
ATOM     63  C   UNL A   1      45.597  27.923  33.158  1.00  0.00     0.009 A 
ATOM     64  C   UNL A   1      47.836  28.106  31.503  1.00  0.00     0.001 A 
ATOM     65  C   UNL A   1      46.786  27.286  33.517  1.00  0.00     0.001 A 
ATOM     66  C   UNL A   1      47.901  27.368  32.684  1.00  0.00     0.000 A 
ENDBRANCH  47  61
BRANCH  48  67
ATOM     67  C   UNL A   1      36.699  32.681  29.613  1.00  0.00    -0.014 A 
ATOM     68  C   UNL A   1      35.649  32.634  30.542  1.00  0.00     0.009 A 
ATOM     69  C   UNL A   1      36.482  33.309  28.376  1.00  0.00     0.009 A 
ATOM     70  C   UNL A   1      34.403  33.183  30.233  1.00  0.00     0.001 A 
ATOM     71  C   UNL A   1      35.244  33.882  28.080  1.00  0.00     0.001 A 
ATOM     72  C   UNL A   1      34.203  33.812  29.004  1.00  0.00     0.000 A 
ENDBRANCH  48  67
BRANCH  60  73
ATOM     73  C   UNL A   1      42.206  34.959  33.207  1.00  0.00    -0.014 A 
ATOM     74  C   UNL A   1      41.695  35.221  34.488  1.00  0.00     0.009 A 
ATOM     75  C   UNL A   1      43.029  35.917  32.593  1.00  0.00     0.009 A 
ATOM     76  C   UNL A   1      41.977  36.431  35.125  1.00  0.00     0.001 A 
ATOM     77  C   UNL A   1      43.331  37.112  33.244  1.00  0.00     0.001 A 
ATOM     78  C   UNL A   1      42.798  37.373  34.505  1.00  0.00     0.000 A 
ENDBRANCH  60  73
ENDBRANCH  34  35
ENDBRANCH  26  29
ENDBRANCH  24  25
ENDBRANCH   1  24
TORSDOF 13
ENDMDL
