MODEL 1
REMARK VINA RESULT:      -8.4      0.000      0.000
REMARK SMILES COc1ccc2c(c1)[C@H]([NH2+][C@@H](C(=O)NCCCNC(=O)c1ccc(-c3c4nc(c(-c5ccccc5)c5ccc([nH]5)c(-c5ccccc5)c5nc(c(-c6ccccc6)c6ccc3[nH]6)C=C5)C=C4)cc1)C1CC1)CC2
REMARK SMILES IDX 15 1 14 2 12 3 13 4 11 6 10 7 9 10 3 11 4 12 8 13 5 14 7 15
REMARK SMILES IDX 6 16 73 17 72 18 2 19 1 20 69 21 70 22 71 23 16 24 17 25
REMARK SMILES IDX 18 26 19 27 20 29 21 30 22 31 68 32 23 33 67 34 24 35 25 36
REMARK SMILES IDX 26 37 61 38 27 39 66 40 60 41 62 42 28 43 65 44 59 45 58 46
REMARK SMILES IDX 29 48 51 49 36 50 50 51 37 52 40 53 49 54 63 55 38 56 39 57
REMARK SMILES IDX 48 59 64 60 41 61 30 62 31 63 35 64 32 65 34 66 33 67 52 68
REMARK SMILES IDX 53 69 57 70 54 71 56 72 55 73 42 74 43 75 47 76 44 77 46 78
REMARK SMILES IDX 45 79
REMARK H PARENT 14 5 10 8 10 9 18 28 62 47 40 58
REMARK Flexibility Score: inf
ROOT
ATOM      1  C   UNL A   1      35.315  34.871  33.032  1.00  0.00     0.118 C 
ENDROOT
BRANCH   1   2
ATOM      2  N   UNL A   1      35.355  34.621  34.454  1.00  0.00    -0.351 N 
ATOM      3  C   UNL A   1      36.251  33.855  35.146  1.00  0.00     0.278 C 
ATOM      4  O   UNL A   1      35.930  33.513  36.289  1.00  0.00    -0.268 OA
ATOM      5  H   UNL A   1      34.651  35.053  34.989  1.00  0.00     0.163 HD
BRANCH   3   6
ATOM      6  C   UNL A   1      37.627  33.482  34.498  1.00  0.00     0.276 C 
BRANCH   6   7
ATOM      7  N   UNL A   1      37.768  32.009  34.549  1.00  0.00    -0.330 N 
ATOM      8  H   UNL A   1      38.578  31.809  35.136  1.00  0.00     0.347 HD
ATOM      9  H   UNL A   1      36.861  31.692  34.890  1.00  0.00     0.347 HD
BRANCH   7  10
ATOM     10  C   UNL A   1      37.950  31.259  33.302  1.00  0.00     0.214 C 
ATOM     11  C   UNL A   1      41.544  29.902  33.114  1.00  0.00     0.119 A 
ATOM     12  C   UNL A   1      41.250  28.634  32.595  1.00  0.00     0.047 A 
ATOM     13  C   UNL A   1      40.519  30.809  33.384  1.00  0.00     0.056 A 
ATOM     14  C   UNL A   1      39.934  28.297  32.268  1.00  0.00     0.008 A 
ATOM     15  C   UNL A   1      39.204  30.445  33.138  1.00  0.00     0.016 A 
ATOM     16  C   UNL A   1      38.928  29.218  32.528  1.00  0.00    -0.038 A 
ATOM     17  C   UNL A   1      37.494  29.126  32.112  1.00  0.00     0.042 C 
ATOM     18  C   UNL A   1      36.842  30.242  32.937  1.00  0.00     0.075 C 
BRANCH  11  19
ATOM     19  O   UNL A   1      42.810  30.314  33.434  1.00  0.00    -0.497 OA
ATOM     20  C   UNL A   1      43.554  29.341  34.164  1.00  0.00     0.278 C 
ENDBRANCH  11  19
ENDBRANCH   7  10
ENDBRANCH   6   7
BRANCH   6  21
ATOM     21  C   UNL A   1      38.746  34.189  35.234  1.00  0.00     0.057 C 
ATOM     22  C   UNL A   1      40.180  33.961  34.801  1.00  0.00     0.011 C 
ATOM     23  C   UNL A   1      39.554  35.306  34.606  1.00  0.00     0.011 C 
ENDBRANCH   6  21
ENDBRANCH   3   6
ENDBRANCH   1   2
BRANCH   1  24
ATOM     24  C   UNL A   1      33.879  34.988  32.530  1.00  0.00     0.042 C 
BRANCH  24  25
ATOM     25  C   UNL A   1      33.726  35.940  31.347  1.00  0.00     0.118 C 
BRANCH  25  26
ATOM     26  N   UNL A   1      32.938  35.367  30.263  1.00  0.00    -0.352 N 
ATOM     27  C   UNL A   1      33.300  34.468  29.295  1.00  0.00     0.251 C 
ATOM     28  H   UNL A   1      32.003  35.671  30.222  1.00  0.00     0.163 HD
ATOM     29  O   UNL A   1      32.533  34.231  28.362  1.00  0.00    -0.269 OA
BRANCH  27  30
ATOM     30  C   UNL A   1      34.616  33.800  29.350  1.00  0.00     0.039 A 
ATOM     31  C   UNL A   1      35.640  34.265  28.522  1.00  0.00     0.014 A 
ATOM     32  C   UNL A   1      34.840  32.711  30.197  1.00  0.00     0.014 A 
ATOM     33  C   UNL A   1      36.906  33.681  28.590  1.00  0.00     0.010 A 
ATOM     34  C   UNL A   1      36.121  32.180  30.319  1.00  0.00     0.010 A 
ATOM     35  C   UNL A   1      37.167  32.658  29.516  1.00  0.00    -0.014 A 
BRANCH  35  36
ATOM     36  C   UNL A   1      38.526  32.076  29.655  1.00  0.00     0.031 A 
ATOM     37  C   UNL A   1      39.640  32.888  30.257  1.00  0.00     0.074 A 
ATOM     38  C   UNL A   1      38.768  30.830  29.199  1.00  0.00     0.049 A 
ATOM     39  N   UNL A   1      40.903  32.573  30.407  1.00  0.00    -0.248 NA
ATOM     40  C   UNL A   1      39.297  34.236  30.738  1.00  0.00     0.031 C 
ATOM     41  C   UNL A   1      37.780  29.947  28.574  1.00  0.00     0.029 A 
ATOM     42  N   UNL A   1      39.925  30.092  29.189  1.00  0.00    -0.354 N 
ATOM     43  C   UNL A   1      41.501  33.681  30.994  1.00  0.00     0.074 A 
ATOM     44  C   UNL A   1      40.479  34.698  31.120  1.00  0.00     0.031 C 
ATOM     45  C   UNL A   1      38.366  28.777  28.271  1.00  0.00     0.029 A 
ATOM     46  C   UNL A   1      39.777  28.843  28.635  1.00  0.00     0.049 A 
ATOM     47  H   UNL A   1      40.781  30.426  29.546  1.00  0.00     0.167 HD
ATOM     48  C   UNL A   1      42.778  33.831  31.418  1.00  0.00     0.031 A 
ATOM     49  C   UNL A   1      40.681  27.865  28.433  1.00  0.00     0.031 A 
ATOM     50  C   UNL A   1      43.797  32.824  31.294  1.00  0.00     0.049 A 
ATOM     51  C   UNL A   1      42.107  28.084  28.860  1.00  0.00     0.074 A 
ATOM     52  C   UNL A   1      45.117  32.877  31.709  1.00  0.00     0.029 A 
ATOM     53  N   UNL A   1      43.609  31.579  30.715  1.00  0.00    -0.354 N 
ATOM     54  N   UNL A   1      42.643  29.120  29.459  1.00  0.00    -0.248 NA
ATOM     55  C   UNL A   1      43.051  26.991  28.592  1.00  0.00     0.031 C 
ATOM     56  C   UNL A   1      45.740  31.682  31.339  1.00  0.00     0.029 A 
ATOM     57  C   UNL A   1      44.793  30.861  30.748  1.00  0.00     0.049 A 
ATOM     58  H   UNL A   1      42.761  31.254  30.336  1.00  0.00     0.167 HD
ATOM     59  C   UNL A   1      43.974  28.786  29.674  1.00  0.00     0.074 A 
ATOM     60  C   UNL A   1      44.159  27.446  29.159  1.00  0.00     0.031 C 
ATOM     61  C   UNL A   1      44.957  29.522  30.246  1.00  0.00     0.031 A 
BRANCH  48  62
ATOM     62  C   UNL A   1      43.145  35.136  32.070  1.00  0.00    -0.014 A 
ATOM     63  C   UNL A   1      43.640  36.207  31.308  1.00  0.00     0.009 A 
ATOM     64  C   UNL A   1      42.943  35.318  33.447  1.00  0.00     0.009 A 
ATOM     65  C   UNL A   1      43.952  37.424  31.917  1.00  0.00     0.001 A 
ATOM     66  C   UNL A   1      43.227  36.546  34.047  1.00  0.00     0.001 A 
ATOM     67  C   UNL A   1      43.738  37.595  33.284  1.00  0.00     0.000 A 
ENDBRANCH  48  62
BRANCH  49  68
ATOM     68  C   UNL A   1      40.281  26.581  27.796  1.00  0.00    -0.014 A 
ATOM     69  C   UNL A   1      39.626  25.589  28.543  1.00  0.00     0.009 A 
ATOM     70  C   UNL A   1      40.599  26.318  26.455  1.00  0.00     0.009 A 
ATOM     71  C   UNL A   1      39.342  24.345  27.974  1.00  0.00     0.001 A 
ATOM     72  C   UNL A   1      40.282  25.086  25.878  1.00  0.00     0.001 A 
ATOM     73  C   UNL A   1      39.669  24.095  26.643  1.00  0.00     0.000 A 
ENDBRANCH  49  68
BRANCH  61  74
ATOM     74  C   UNL A   1      46.304  28.873  30.399  1.00  0.00    -0.014 A 
ATOM     75  C   UNL A   1      47.292  28.992  29.410  1.00  0.00     0.009 A 
ATOM     76  C   UNL A   1      46.596  28.156  31.571  1.00  0.00     0.009 A 
ATOM     77  C   UNL A   1      48.533  28.373  29.576  1.00  0.00     0.001 A 
ATOM     78  C   UNL A   1      47.849  27.567  31.747  1.00  0.00     0.001 A 
ATOM     79  C   UNL A   1      48.812  27.667  30.745  1.00  0.00     0.000 A 
ENDBRANCH  61  74
ENDBRANCH  35  36
ENDBRANCH  27  30
ENDBRANCH  25  26
ENDBRANCH  24  25
ENDBRANCH   1  24
TORSDOF 14
ENDMDL
MODEL 2
REMARK VINA RESULT:      -8.4      4.573      7.787
REMARK SMILES COc1ccc2c(c1)[C@H]([NH2+][C@@H](C(=O)NCCCNC(=O)c1ccc(-c3c4nc(c(-c5ccccc5)c5ccc([nH]5)c(-c5ccccc5)c5nc(c(-c6ccccc6)c6ccc3[nH]6)C=C5)C=C4)cc1)C1CC1)CC2
REMARK SMILES IDX 15 1 14 2 12 3 13 4 11 6 10 7 9 10 3 11 4 12 8 13 5 14 7 15
REMARK SMILES IDX 6 16 73 17 72 18 2 19 1 20 69 21 70 22 71 23 16 24 17 25
REMARK SMILES IDX 18 26 19 27 20 29 21 30 22 31 68 32 23 33 67 34 24 35 25 36
REMARK SMILES IDX 26 37 61 38 27 39 66 40 60 41 62 42 28 43 65 44 59 45 58 46
REMARK SMILES IDX 29 48 51 49 36 50 50 51 37 52 40 53 49 54 63 55 38 56 39 57
REMARK SMILES IDX 48 59 64 60 41 61 30 62 31 63 35 64 32 65 34 66 33 67 52 68
REMARK SMILES IDX 53 69 57 70 54 71 56 72 55 73 42 74 43 75 47 76 44 77 46 78
REMARK SMILES IDX 45 79
REMARK H PARENT 14 5 10 8 10 9 18 28 62 47 40 58
REMARK Flexibility Score: inf
ROOT
ATOM      1  C   UNL A   1      32.887  28.934  24.709  1.00  0.00     0.118 C 
ENDROOT
BRANCH   1   2
ATOM      2  N   UNL A   1      33.234  28.595  23.348  1.00  0.00    -0.351 N 
ATOM      3  C   UNL A   1      33.395  27.349  22.809  1.00  0.00     0.278 C 
ATOM      4  O   UNL A   1      33.996  27.278  21.733  1.00  0.00    -0.268 OA
ATOM      5  H   UNL A   1      33.373  29.352  22.735  1.00  0.00     0.163 HD
BRANCH   3   6
ATOM      6  C   UNL A   1      32.796  26.098  23.536  1.00  0.00     0.276 C 
BRANCH   6   7
ATOM      7  N   UNL A   1      33.849  25.059  23.595  1.00  0.00    -0.330 N 
ATOM      8  H   UNL A   1      33.419  24.182  23.302  1.00  0.00     0.347 HD
ATOM      9  H   UNL A   1      34.589  25.432  22.999  1.00  0.00     0.347 HD
BRANCH   7  10
ATOM     10  C   UNL A   1      34.531  24.796  24.866  1.00  0.00     0.214 C 
ATOM     11  C   UNL A   1      32.131  23.006  27.282  1.00  0.00     0.119 A 
ATOM     12  C   UNL A   1      33.040  22.085  27.818  1.00  0.00     0.047 A 
ATOM     13  C   UNL A   1      32.540  23.914  26.304  1.00  0.00     0.056 A 
ATOM     14  C   UNL A   1      34.384  22.120  27.436  1.00  0.00     0.008 A 
ATOM     15  C   UNL A   1      33.855  23.895  25.863  1.00  0.00     0.016 A 
ATOM     16  C   UNL A   1      34.777  23.041  26.474  1.00  0.00    -0.038 A 
ATOM     17  C   UNL A   1      36.176  23.354  26.046  1.00  0.00     0.042 C 
ATOM     18  C   UNL A   1      35.952  24.187  24.779  1.00  0.00     0.075 C 
BRANCH  11  19
ATOM     19  O   UNL A   1      30.806  23.050  27.624  1.00  0.00    -0.497 OA
ATOM     20  C   UNL A   1      30.012  23.811  26.719  1.00  0.00     0.278 C 
ENDBRANCH  11  19
ENDBRANCH   7  10
ENDBRANCH   6   7
BRANCH   6  21
ATOM     21  C   UNL A   1      31.563  25.620  22.798  1.00  0.00     0.057 C 
ATOM     22  C   UNL A   1      30.971  24.268  23.139  1.00  0.00     0.011 C 
ATOM     23  C   UNL A   1      30.207  25.512  23.464  1.00  0.00     0.011 C 
ENDBRANCH   6  21
ENDBRANCH   3   6
ENDBRANCH   1   2
BRANCH   1  24
ATOM     24  C   UNL A   1      34.027  28.610  25.669  1.00  0.00     0.042 C 
BRANCH  24  25
ATOM     25  C   UNL A   1      33.634  28.730  27.138  1.00  0.00     0.118 C 
BRANCH  25  26
ATOM     26  N   UNL A   1      33.626  30.110  27.607  1.00  0.00    -0.352 N 
ATOM     27  C   UNL A   1      34.588  30.812  28.284  1.00  0.00     0.251 C 
ATOM     28  H   UNL A   1      32.805  30.614  27.407  1.00  0.00     0.163 HD
ATOM     29  O   UNL A   1      34.327  31.924  28.741  1.00  0.00    -0.269 OA
BRANCH  27  30
ATOM     30  C   UNL A   1      35.931  30.233  28.490  1.00  0.00     0.039 A 
ATOM     31  C   UNL A   1      36.853  30.286  27.442  1.00  0.00     0.014 A 
ATOM     32  C   UNL A   1      36.279  29.623  29.699  1.00  0.00     0.014 A 
ATOM     33  C   UNL A   1      38.143  29.787  27.628  1.00  0.00     0.010 A 
ATOM     34  C   UNL A   1      37.587  29.195  29.908  1.00  0.00     0.010 A 
ATOM     35  C   UNL A   1      38.533  29.271  28.875  1.00  0.00    -0.014 A 
BRANCH  35  36
ATOM     36  C   UNL A   1      39.922  28.806  29.114  1.00  0.00     0.031 A 
ATOM     37  C   UNL A   1      40.933  29.727  29.740  1.00  0.00     0.074 A 
ATOM     38  C   UNL A   1      40.286  27.567  28.725  1.00  0.00     0.049 A 
ATOM     39  N   UNL A   1      42.206  29.519  29.973  1.00  0.00    -0.248 NA
ATOM     40  C   UNL A   1      40.459  31.061  30.143  1.00  0.00     0.031 C 
ATOM     41  C   UNL A   1      39.408  26.584  28.085  1.00  0.00     0.029 A 
ATOM     42  N   UNL A   1      41.495  26.924  28.811  1.00  0.00    -0.354 N 
ATOM     43  C   UNL A   1      42.680  30.694  30.545  1.00  0.00     0.074 A 
ATOM     44  C   UNL A   1      41.578  31.629  30.570  1.00  0.00     0.031 C 
ATOM     45  C   UNL A   1      40.100  25.454  27.866  1.00  0.00     0.029 A 
ATOM     46  C   UNL A   1      41.478  25.646  28.303  1.00  0.00     0.049 A 
ATOM     47  H   UNL A   1      42.300  27.338  29.199  1.00  0.00     0.167 HD
ATOM     48  C   UNL A   1      43.915  30.961  31.031  1.00  0.00     0.031 A 
ATOM     49  C   UNL A   1      42.464  24.737  28.194  1.00  0.00     0.031 A 
ATOM     50  C   UNL A   1      45.015  30.034  31.007  1.00  0.00     0.049 A 
ATOM     51  C   UNL A   1      43.842  25.085  28.689  1.00  0.00     0.074 A 
ATOM     52  C   UNL A   1      46.301  30.209  31.491  1.00  0.00     0.029 A 
ATOM     53  N   UNL A   1      44.958  28.758  30.472  1.00  0.00    -0.354 N 
ATOM     54  N   UNL A   1      44.260  26.183  29.272  1.00  0.00    -0.248 NA
ATOM     55  C   UNL A   1      44.882  24.061  28.521  1.00  0.00     0.031 C 
ATOM     56  C   UNL A   1      47.034  29.054  31.208  1.00  0.00     0.029 A 
ATOM     57  C   UNL A   1      46.190  28.138  30.602  1.00  0.00     0.049 A 
ATOM     58  H   UNL A   1      44.161  28.351  30.062  1.00  0.00     0.167 HD
ATOM     59  C   UNL A   1      45.598  25.965  29.574  1.00  0.00     0.074 A 
ATOM     60  C   UNL A   1      45.916  24.625  29.127  1.00  0.00     0.031 C 
ATOM     61  C   UNL A   1      46.486  26.798  30.167  1.00  0.00     0.031 A 
BRANCH  48  62
ATOM     62  C   UNL A   1      44.141  32.315  31.646  1.00  0.00    -0.014 A 
ATOM     63  C   UNL A   1      43.922  32.530  33.016  1.00  0.00     0.009 A 
ATOM     64  C   UNL A   1      44.627  33.373  30.862  1.00  0.00     0.009 A 
ATOM     65  C   UNL A   1      44.161  33.783  33.584  1.00  0.00     0.001 A 
ATOM     66  C   UNL A   1      44.893  34.617  31.439  1.00  0.00     0.001 A 
ATOM     67  C   UNL A   1      44.653  34.823  32.797  1.00  0.00     0.000 A 
ENDBRANCH  48  62
BRANCH  49  68
ATOM     68  C   UNL A   1      42.203  23.402  27.592  1.00  0.00    -0.014 A 
ATOM     69  C   UNL A   1      42.508  23.155  26.243  1.00  0.00     0.009 A 
ATOM     70  C   UNL A   1      41.597  22.383  28.344  1.00  0.00     0.009 A 
ATOM     71  C   UNL A   1      42.168  21.936  25.651  1.00  0.00     0.001 A 
ATOM     72  C   UNL A   1      41.291  21.153  27.758  1.00  0.00     0.001 A 
ATOM     73  C   UNL A   1      41.562  20.936  26.408  1.00  0.00     0.000 A 
ENDBRANCH  49  68
BRANCH  61  74
ATOM     74  C   UNL A   1      47.868  26.265  30.422  1.00  0.00    -0.014 A 
ATOM     75  C   UNL A   1      48.229  25.732  31.669  1.00  0.00     0.009 A 
ATOM     76  C   UNL A   1      48.813  26.268  29.384  1.00  0.00     0.009 A 
ATOM     77  C   UNL A   1      49.522  25.248  31.882  1.00  0.00     0.001 A 
ATOM     78  C   UNL A   1      50.094  25.753  29.590  1.00  0.00     0.001 A 
ATOM     79  C   UNL A   1      50.450  25.254  30.841  1.00  0.00     0.000 A 
ENDBRANCH  61  74
ENDBRANCH  35  36
ENDBRANCH  27  30
ENDBRANCH  25  26
ENDBRANCH  24  25
ENDBRANCH   1  24
TORSDOF 14
ENDMDL
MODEL 3
REMARK VINA RESULT:      -8.3      5.137      8.463
REMARK SMILES COc1ccc2c(c1)[C@H]([NH2+][C@@H](C(=O)NCCCNC(=O)c1ccc(-c3c4nc(c(-c5ccccc5)c5ccc([nH]5)c(-c5ccccc5)c5nc(c(-c6ccccc6)c6ccc3[nH]6)C=C5)C=C4)cc1)C1CC1)CC2
REMARK SMILES IDX 15 1 14 2 12 3 13 4 11 6 10 7 9 10 3 11 4 12 8 13 5 14 7 15
REMARK SMILES IDX 6 16 73 17 72 18 2 19 1 20 69 21 70 22 71 23 16 24 17 25
REMARK SMILES IDX 18 26 19 27 20 29 21 30 22 31 68 32 23 33 67 34 24 35 25 36
REMARK SMILES IDX 26 37 61 38 27 39 66 40 60 41 62 42 28 43 65 44 59 45 58 46
REMARK SMILES IDX 29 48 51 49 36 50 50 51 37 52 40 53 49 54 63 55 38 56 39 57
REMARK SMILES IDX 48 59 64 60 41 61 30 62 31 63 35 64 32 65 34 66 33 67 52 68
REMARK SMILES IDX 53 69 57 70 54 71 56 72 55 73 42 74 43 75 47 76 44 77 46 78
REMARK SMILES IDX 45 79
REMARK H PARENT 14 5 10 8 10 9 18 28 62 47 40 58
REMARK Flexibility Score: inf
ROOT
ATOM      1  C   UNL A   1      33.188  26.797  25.294  1.00  0.00     0.118 C 
ENDROOT
BRANCH   1   2
ATOM      2  N   UNL A   1      32.569  26.002  26.331  1.00  0.00    -0.351 N 
ATOM      3  C   UNL A   1      32.519  24.639  26.425  1.00  0.00     0.278 C 
ATOM      4  O   UNL A   1      31.683  24.162  27.199  1.00  0.00    -0.268 OA
ATOM      5  H   UNL A   1      32.131  26.502  27.056  1.00  0.00     0.163 HD
BRANCH   3   6
ATOM      6  C   UNL A   1      33.518  23.760  25.601  1.00  0.00     0.276 C 
BRANCH   6   7
ATOM      7  N   UNL A   1      32.855  22.468  25.314  1.00  0.00    -0.330 N 
ATOM      8  H   UNL A   1      33.207  21.795  25.996  1.00  0.00     0.347 HD
ATOM      9  H   UNL A   1      31.862  22.692  25.357  1.00  0.00     0.347 HD
BRANCH   7  10
ATOM     10  C   UNL A   1      33.013  21.854  23.991  1.00  0.00     0.214 C 
ATOM     11  C   UNL A   1      33.685  18.086  24.377  1.00  0.00     0.119 A 
ATOM     12  C   UNL A   1      32.880  17.633  23.324  1.00  0.00     0.047 A 
ATOM     13  C   UNL A   1      33.768  19.449  24.666  1.00  0.00     0.056 A 
ATOM     14  C   UNL A   1      32.218  18.548  22.502  1.00  0.00     0.008 A 
ATOM     15  C   UNL A   1      33.045  20.353  23.902  1.00  0.00     0.016 A 
ATOM     16  C   UNL A   1      32.325  19.902  22.792  1.00  0.00    -0.038 A 
ATOM     17  C   UNL A   1      31.838  21.043  21.958  1.00  0.00     0.042 C 
ATOM     18  C   UNL A   1      31.959  22.229  22.922  1.00  0.00     0.075 C 
BRANCH  11  19
ATOM     19  O   UNL A   1      34.384  17.253  25.209  1.00  0.00    -0.497 OA
ATOM     20  C   UNL A   1      33.840  15.938  25.280  1.00  0.00     0.278 C 
ENDBRANCH  11  19
ENDBRANCH   7  10
ENDBRANCH   6   7
BRANCH   6  21
ATOM     21  C   UNL A   1      34.804  23.582  26.380  1.00  0.00     0.057 C 
ATOM     22  C   UNL A   1      35.765  22.478  25.985  1.00  0.00     0.011 C 
ATOM     23  C   UNL A   1      36.163  23.908  25.794  1.00  0.00     0.011 C 
ENDBRANCH   6  21
ENDBRANCH   3   6
ENDBRANCH   1   2
BRANCH   1  24
ATOM     24  C   UNL A   1      33.893  28.016  25.879  1.00  0.00     0.042 C 
BRANCH  24  25
ATOM     25  C   UNL A   1      33.426  28.370  27.288  1.00  0.00     0.118 C 
BRANCH  25  26
ATOM     26  N   UNL A   1      33.425  29.806  27.536  1.00  0.00    -0.352 N 
ATOM     27  C   UNL A   1      34.404  30.606  28.063  1.00  0.00     0.251 C 
ATOM     28  H   UNL A   1      32.595  30.272  27.286  1.00  0.00     0.163 HD
ATOM     29  O   UNL A   1      34.151  31.775  28.349  1.00  0.00    -0.269 OA
BRANCH  27  30
ATOM     30  C   UNL A   1      35.756  30.066  28.313  1.00  0.00     0.039 A 
ATOM     31  C   UNL A   1      36.695  30.102  27.279  1.00  0.00     0.014 A 
ATOM     32  C   UNL A   1      36.096  29.510  29.550  1.00  0.00     0.014 A 
ATOM     33  C   UNL A   1      37.993  29.641  27.506  1.00  0.00     0.010 A 
ATOM     34  C   UNL A   1      37.410  29.122  29.797  1.00  0.00     0.010 A 
ATOM     35  C   UNL A   1      38.372  29.182  28.778  1.00  0.00    -0.014 A 
BRANCH  35  36
ATOM     36  C   UNL A   1      39.767  28.758  29.057  1.00  0.00     0.031 A 
ATOM     37  C   UNL A   1      40.725  29.701  29.734  1.00  0.00     0.074 A 
ATOM     38  C   UNL A   1      40.186  27.539  28.661  1.00  0.00     0.049 A 
ATOM     39  N   UNL A   1      41.995  29.532  30.007  1.00  0.00    -0.248 NA
ATOM     40  C   UNL A   1      40.193  31.011  30.142  1.00  0.00     0.031 C 
ATOM     41  C   UNL A   1      39.365  26.539  27.975  1.00  0.00     0.029 A 
ATOM     42  N   UNL A   1      41.413  26.935  28.779  1.00  0.00    -0.354 N 
ATOM     43  C   UNL A   1      42.410  30.711  30.614  1.00  0.00     0.074 A 
ATOM     44  C   UNL A   1      41.276  31.609  30.616  1.00  0.00     0.031 C 
ATOM     45  C   UNL A   1      40.101  25.436  27.761  1.00  0.00     0.029 A 
ATOM     46  C   UNL A   1      41.455  25.666  28.250  1.00  0.00     0.049 A 
ATOM     47  H   UNL A   1      42.190  27.369  29.201  1.00  0.00     0.167 HD
ATOM     48  C   UNL A   1      43.618  31.011  31.148  1.00  0.00     0.031 A 
ATOM     49  C   UNL A   1      42.476  24.792  28.160  1.00  0.00     0.031 A 
ATOM     50  C   UNL A   1      44.748  30.121  31.147  1.00  0.00     0.049 A 
ATOM     51  C   UNL A   1      43.823  25.178  28.708  1.00  0.00     0.074 A 
ATOM     52  C   UNL A   1      46.010  30.330  31.678  1.00  0.00     0.029 A 
ATOM     53  N   UNL A   1      44.753  28.853  30.589  1.00  0.00    -0.354 N 
ATOM     54  N   UNL A   1      44.183  26.278  29.324  1.00  0.00    -0.248 NA
ATOM     55  C   UNL A   1      44.902  24.191  28.560  1.00  0.00     0.031 C 
ATOM     56  C   UNL A   1      46.791  29.205  31.402  1.00  0.00     0.029 A 
ATOM     57  C   UNL A   1      45.999  28.273  30.751  1.00  0.00     0.049 A 
ATOM     58  H   UNL A   1      43.984  28.427  30.145  1.00  0.00     0.167 HD
ATOM     59  C   UNL A   1      45.517  26.099  29.668  1.00  0.00     0.074 A 
ATOM     60  C   UNL A   1      45.895  24.778  29.211  1.00  0.00     0.031 C 
ATOM     61  C   UNL A   1      46.356  26.951  30.305  1.00  0.00     0.031 A 
BRANCH  48  62
ATOM     62  C   UNL A   1      43.776  32.361  31.792  1.00  0.00    -0.014 A 
ATOM     63  C   UNL A   1      44.207  33.469  31.044  1.00  0.00     0.009 A 
ATOM     64  C   UNL A   1      43.442  32.542  33.143  1.00  0.00     0.009 A 
ATOM     65  C   UNL A   1      44.325  34.724  31.643  1.00  0.00     0.001 A 
ATOM     66  C   UNL A   1      43.532  33.805  33.731  1.00  0.00     0.001 A 
ATOM     67  C   UNL A   1      43.980  34.893  32.983  1.00  0.00     0.000 A 
ENDBRANCH  48  62
BRANCH  49  68
ATOM     68  C   UNL A   1      42.280  23.460  27.527  1.00  0.00    -0.014 A 
ATOM     69  C   UNL A   1      41.823  22.371  28.285  1.00  0.00     0.009 A 
ATOM     70  C   UNL A   1      42.601  23.255  26.176  1.00  0.00     0.009 A 
ATOM     71  C   UNL A   1      41.737  21.097  27.718  1.00  0.00     0.001 A 
ATOM     72  C   UNL A   1      42.481  21.987  25.602  1.00  0.00     0.001 A 
ATOM     73  C   UNL A   1      42.064  20.907  26.377  1.00  0.00     0.000 A 
ENDBRANCH  49  68
BRANCH  61  74
ATOM     74  C   UNL A   1      47.745  26.459  30.600  1.00  0.00    -0.014 A 
ATOM     75  C   UNL A   1      48.061  25.842  31.820  1.00  0.00     0.009 A 
ATOM     76  C   UNL A   1      48.746  26.590  29.624  1.00  0.00     0.009 A 
ATOM     77  C   UNL A   1      49.361  25.399  32.071  1.00  0.00     0.001 A 
ATOM     78  C   UNL A   1      50.036  26.116  29.865  1.00  0.00     0.001 A 
ATOM     79  C   UNL A   1      50.345  25.531  31.092  1.00  0.00     0.000 A 
ENDBRANCH  61  74
ENDBRANCH  35  36
ENDBRANCH  27  30
ENDBRANCH  25  26
ENDBRANCH  24  25
ENDBRANCH   1  24
TORSDOF 14
ENDMDL
