MODEL 1
REMARK VINA RESULT:      -9.2      0.000      0.000
REMARK SMILES Cc1ccc(F)c(NC(=O)[C@@H]2CCCC[C@@H]2C(=O)NCCCNC(=O)c2ccc(-c3c4nc(c(-c5ccccc5)c5ccc([nH]5)c(-c5ccccc5)c5nc(c(-c6ccccc6)c6ccc3[nH]6)C=C5)C=C4)cc2)c1
REMARK SMILES IDX 21 1 20 2 19 3 17 4 18 5 16 7 11 8 12 9 13 10 15 11 14 12
REMARK SMILES IDX 9 13 8 14 10 16 7 17 1 18 2 19 3 20 74 21 4 22 5 23 6 24
REMARK SMILES IDX 22 25 23 26 24 27 25 29 26 30 27 31 73 32 28 33 72 34 29 35
REMARK SMILES IDX 30 36 31 37 66 38 32 39 71 40 65 41 67 42 33 43 70 44 64 45
REMARK SMILES IDX 63 46 34 48 56 49 41 50 55 51 42 52 45 53 54 54 68 55 43 56
REMARK SMILES IDX 44 57 53 59 69 60 46 61 35 62 36 63 40 64 37 65 39 66 38 67
REMARK SMILES IDX 57 68 58 69 62 70 59 71 61 72 60 73 47 74 48 75 52 76 49 77
REMARK SMILES IDX 51 78 50 79
REMARK H PARENT 19 6 8 15 23 28 67 47 45 58
REMARK Flexibility Score: inf
ROOT
ATOM      1  C   UNL A   1      41.905  20.912  26.379  1.00  0.00     0.042 C 
ENDROOT
BRANCH   1   2
ATOM      2  C   UNL A   1      42.583  22.057  25.617  1.00  0.00     0.117 C 
BRANCH   2   3
ATOM      3  N   UNL A   1      44.009  22.067  25.899  1.00  0.00    -0.356 N 
ATOM      4  C   UNL A   1      44.824  22.912  26.583  1.00  0.00     0.223 C 
ATOM      5  O   UNL A   1      46.022  22.611  26.543  1.00  0.00    -0.275 OA
ATOM      6  H   UNL A   1      44.486  21.297  25.513  1.00  0.00     0.163 HD
BRANCH   4   7
ATOM      7  C   UNL A   1      44.308  24.071  27.461  1.00  0.00     0.091 C 
ATOM      8  C   UNL A   1      45.253  25.113  28.114  1.00  0.00     0.091 C 
ATOM      9  C   UNL A   1      45.855  24.871  29.510  1.00  0.00     0.014 C 
ATOM     10  C   UNL A   1      44.960  24.080  30.455  1.00  0.00     0.001 C 
ATOM     11  C   UNL A   1      43.407  23.475  28.573  1.00  0.00     0.014 C 
ATOM     12  C   UNL A   1      44.213  22.953  29.763  1.00  0.00     0.001 C 
BRANCH   8  13
ATOM     13  C   UNL A   1      46.149  25.889  27.173  1.00  0.00     0.228 C 
ATOM     14  N   UNL A   1      45.857  27.022  26.500  1.00  0.00    -0.323 N 
ATOM     15  H   UNL A   1      46.520  27.192  25.792  1.00  0.00     0.170 HD
ATOM     16  O   UNL A   1      47.288  25.442  26.955  1.00  0.00    -0.274 OA
BRANCH  14  17
ATOM     17  C   UNL A   1      44.873  28.031  26.520  1.00  0.00     0.077 A 
ATOM     18  C   UNL A   1      44.584  31.304  28.453  1.00  0.00     0.044 C 
ATOM     19  C   UNL A   1      44.254  30.177  27.529  1.00  0.00    -0.049 A 
ATOM     20  C   UNL A   1      43.027  30.147  26.871  1.00  0.00     0.006 A 
ATOM     21  C   UNL A   1      45.181  29.142  27.320  1.00  0.00     0.032 A 
ATOM     22  C   UNL A   1      42.700  29.048  26.087  1.00  0.00     0.042 A 
ATOM     23  C   UNL A   1      43.602  27.994  25.950  1.00  0.00     0.146 A 
ATOM     24  F   UNL A   1      43.158  26.924  25.294  1.00  0.00    -0.205 F 
ENDBRANCH  14  17
ENDBRANCH   8  13
ENDBRANCH   4   7
ENDBRANCH   2   3
ENDBRANCH   1   2
BRANCH   1  25
ATOM     25  C   UNL A   1      40.662  21.306  27.175  1.00  0.00     0.118 C 
BRANCH  25  26
ATOM     26  N   UNL A   1      39.565  21.716  26.314  1.00  0.00    -0.352 N 
ATOM     27  C   UNL A   1      38.886  22.900  26.178  1.00  0.00     0.251 C 
ATOM     28  H   UNL A   1      39.249  21.005  25.710  1.00  0.00     0.163 HD
ATOM     29  O   UNL A   1      37.849  22.889  25.507  1.00  0.00    -0.269 OA
BRANCH  27  30
ATOM     30  C   UNL A   1      39.309  24.185  26.799  1.00  0.00     0.039 A 
ATOM     31  C   UNL A   1      38.838  24.471  28.090  1.00  0.00     0.014 A 
ATOM     32  C   UNL A   1      40.031  25.173  26.127  1.00  0.00     0.014 A 
ATOM     33  C   UNL A   1      39.115  25.700  28.711  1.00  0.00     0.010 A 
ATOM     34  C   UNL A   1      40.366  26.375  26.775  1.00  0.00     0.010 A 
ATOM     35  C   UNL A   1      39.915  26.659  28.077  1.00  0.00    -0.014 A 
BRANCH  35  36
ATOM     36  C   UNL A   1      40.302  27.940  28.752  1.00  0.00     0.031 A 
ATOM     37  C   UNL A   1      41.606  28.060  29.505  1.00  0.00     0.074 A 
ATOM     38  C   UNL A   1      39.451  28.990  28.775  1.00  0.00     0.049 A 
ATOM     39  N   UNL A   1      42.033  29.036  30.273  1.00  0.00    -0.248 NA
ATOM     40  C   UNL A   1      42.549  26.938  29.386  1.00  0.00     0.031 C 
ATOM     41  C   UNL A   1      38.156  29.059  28.095  1.00  0.00     0.029 A 
ATOM     42  N   UNL A   1      39.531  30.191  29.443  1.00  0.00    -0.354 N 
ATOM     43  C   UNL A   1      43.284  28.641  30.733  1.00  0.00     0.074 A 
ATOM     44  C   UNL A   1      43.526  27.316  30.200  1.00  0.00     0.031 C 
ATOM     45  C   UNL A   1      37.542  30.207  28.421  1.00  0.00     0.029 A 
ATOM     46  C   UNL A   1      38.395  30.960  29.334  1.00  0.00     0.049 A 
ATOM     47  H   UNL A   1      40.325  30.473  29.951  1.00  0.00     0.167 HD
ATOM     48  C   UNL A   1      44.168  29.321  31.505  1.00  0.00     0.031 A 
ATOM     49  C   UNL A   1      38.054  32.128  29.911  1.00  0.00     0.031 A 
ATOM     50  C   UNL A   1      43.967  30.651  32.018  1.00  0.00     0.049 A 
ATOM     51  C   UNL A   1      39.019  32.836  30.815  1.00  0.00     0.074 A 
ATOM     52  C   UNL A   1      44.853  31.442  32.732  1.00  0.00     0.029 A 
ATOM     53  N   UNL A   1      42.804  31.387  31.877  1.00  0.00    -0.354 N 
ATOM     54  N   UNL A   1      40.221  32.470  31.185  1.00  0.00    -0.248 NA
ATOM     55  C   UNL A   1      38.588  34.132  31.361  1.00  0.00     0.031 C 
ATOM     56  C   UNL A   1      44.209  32.639  33.063  1.00  0.00     0.029 A 
ATOM     57  C   UNL A   1      42.937  32.609  32.517  1.00  0.00     0.049 A 
ATOM     58  H   UNL A   1      42.000  31.087  31.393  1.00  0.00     0.167 HD
ATOM     59  C   UNL A   1      40.703  33.506  31.973  1.00  0.00     0.074 A 
ATOM     60  C   UNL A   1      39.667  34.514  32.032  1.00  0.00     0.031 C 
ATOM     61  C   UNL A   1      41.908  33.612  32.581  1.00  0.00     0.031 A 
BRANCH  48  62
ATOM     62  C   UNL A   1      45.464  28.636  31.841  1.00  0.00    -0.014 A 
ATOM     63  C   UNL A   1      45.611  27.911  33.035  1.00  0.00     0.009 A 
ATOM     64  C   UNL A   1      46.529  28.666  30.928  1.00  0.00     0.009 A 
ATOM     65  C   UNL A   1      46.812  27.261  33.323  1.00  0.00     0.001 A 
ATOM     66  C   UNL A   1      47.721  27.994  31.209  1.00  0.00     0.001 A 
ATOM     67  C   UNL A   1      47.864  27.300  32.410  1.00  0.00     0.000 A 
ENDBRANCH  48  62
BRANCH  49  68
ATOM     68  C   UNL A   1      36.721  32.721  29.637  1.00  0.00    -0.014 A 
ATOM     69  C   UNL A   1      35.666  32.539  30.544  1.00  0.00     0.009 A 
ATOM     70  C   UNL A   1      36.496  33.461  28.466  1.00  0.00     0.009 A 
ATOM     71  C   UNL A   1      34.403  33.069  30.271  1.00  0.00     0.001 A 
ATOM     72  C   UNL A   1      35.238  34.007  28.207  1.00  0.00     0.001 A 
ATOM     73  C   UNL A   1      34.191  33.804  29.106  1.00  0.00     0.000 A 
ENDBRANCH  49  68
BRANCH  61  74
ATOM     74  C   UNL A   1      42.192  34.877  33.338  1.00  0.00    -0.014 A 
ATOM     75  C   UNL A   1      42.918  35.926  32.754  1.00  0.00     0.009 A 
ATOM     76  C   UNL A   1      41.691  35.037  34.640  1.00  0.00     0.009 A 
ATOM     77  C   UNL A   1      43.158  37.101  33.469  1.00  0.00     0.001 A 
ATOM     78  C   UNL A   1      41.913  36.222  35.344  1.00  0.00     0.001 A 
ATOM     79  C   UNL A   1      42.651  37.250  34.761  1.00  0.00     0.000 A 
ENDBRANCH  61  74
ENDBRANCH  35  36
ENDBRANCH  27  30
ENDBRANCH  25  26
ENDBRANCH   1  25
TORSDOF 12
ENDMDL
MODEL 2
REMARK VINA RESULT:      -9.1      3.545      9.644
REMARK SMILES Cc1ccc(F)c(NC(=O)[C@@H]2CCCC[C@@H]2C(=O)NCCCNC(=O)c2ccc(-c3c4nc(c(-c5ccccc5)c5ccc([nH]5)c(-c5ccccc5)c5nc(c(-c6ccccc6)c6ccc3[nH]6)C=C5)C=C4)cc2)c1
REMARK SMILES IDX 21 1 20 2 19 3 17 4 18 5 16 7 11 8 12 9 13 10 15 11 14 12
REMARK SMILES IDX 9 13 8 14 10 16 7 17 1 18 2 19 3 20 74 21 4 22 5 23 6 24
REMARK SMILES IDX 22 25 23 26 24 27 25 29 26 30 27 31 73 32 28 33 72 34 29 35
REMARK SMILES IDX 30 36 31 37 66 38 32 39 71 40 65 41 67 42 33 43 70 44 64 45
REMARK SMILES IDX 63 46 34 48 56 49 41 50 55 51 42 52 45 53 54 54 68 55 43 56
REMARK SMILES IDX 44 57 53 59 69 60 46 61 35 62 36 63 40 64 37 65 39 66 38 67
REMARK SMILES IDX 57 68 58 69 62 70 59 71 61 72 60 73 47 74 48 75 52 76 49 77
REMARK SMILES IDX 51 78 50 79
REMARK H PARENT 19 6 8 15 23 28 67 47 45 58
REMARK Flexibility Score: inf
ROOT
ATOM      1  C   UNL A   1      34.304  33.582  29.654  1.00  0.00     0.042 C 
ENDROOT
BRANCH   1   2
ATOM      2  C   UNL A   1      34.826  32.922  30.935  1.00  0.00     0.117 C 
BRANCH   2   3
ATOM      3  N   UNL A   1      35.467  33.915  31.781  1.00  0.00    -0.356 N 
ATOM      4  C   UNL A   1      36.746  34.105  32.200  1.00  0.00     0.223 C 
ATOM      5  O   UNL A   1      36.891  35.048  32.987  1.00  0.00    -0.275 OA
ATOM      6  H   UNL A   1      34.843  34.596  32.123  1.00  0.00     0.163 HD
BRANCH   4   7
ATOM      7  C   UNL A   1      37.951  33.320  31.646  1.00  0.00     0.091 C 
ATOM      8  C   UNL A   1      39.371  33.417  32.263  1.00  0.00     0.091 C 
ATOM      9  C   UNL A   1      40.371  34.483  31.782  1.00  0.00     0.014 C 
ATOM     10  C   UNL A   1      40.244  34.851  30.309  1.00  0.00     0.001 C 
ATOM     11  C   UNL A   1      38.065  33.610  30.128  1.00  0.00     0.014 C 
ATOM     12  C   UNL A   1      38.803  34.918  29.835  1.00  0.00     0.001 C 
BRANCH   8  13
ATOM     13  C   UNL A   1      39.492  33.062  33.729  1.00  0.00     0.228 C 
ATOM     14  N   UNL A   1      39.541  31.831  34.280  1.00  0.00    -0.323 N 
ATOM     15  H   UNL A   1      39.391  31.875  35.253  1.00  0.00     0.170 HD
ATOM     16  O   UNL A   1      39.528  33.995  34.550  1.00  0.00    -0.274 OA
BRANCH  14  17
ATOM     17  C   UNL A   1      39.744  30.501  33.862  1.00  0.00     0.077 A 
ATOM     18  C   UNL A   1      42.878  28.350  33.563  1.00  0.00     0.044 C 
ATOM     19  C   UNL A   1      41.446  28.776  33.499  1.00  0.00    -0.049 A 
ATOM     20  C   UNL A   1      40.485  27.922  32.965  1.00  0.00     0.006 A 
ATOM     21  C   UNL A   1      41.065  30.040  33.978  1.00  0.00     0.032 A 
ATOM     22  C   UNL A   1      39.176  28.367  32.829  1.00  0.00     0.042 A 
ATOM     23  C   UNL A   1      38.829  29.653  33.241  1.00  0.00     0.146 A 
ATOM     24  F   UNL A   1      37.591  30.046  32.953  1.00  0.00    -0.205 F 
ENDBRANCH  14  17
ENDBRANCH   8  13
ENDBRANCH   4   7
ENDBRANCH   2   3
ENDBRANCH   1   2
BRANCH   1  25
ATOM     25  C   UNL A   1      34.797  32.954  28.350  1.00  0.00     0.118 C 
BRANCH  25  26
ATOM     26  N   UNL A   1      34.090  31.724  28.032  1.00  0.00    -0.352 N 
ATOM     27  C   UNL A   1      34.517  30.439  27.815  1.00  0.00     0.251 C 
ATOM     28  H   UNL A   1      33.114  31.837  27.959  1.00  0.00     0.163 HD
ATOM     29  O   UNL A   1      33.701  29.638  27.348  1.00  0.00    -0.269 OA
BRANCH  27  30
ATOM     30  C   UNL A   1      35.900  29.957  28.088  1.00  0.00     0.039 A 
ATOM     31  C   UNL A   1      36.181  29.485  29.380  1.00  0.00     0.014 A 
ATOM     32  C   UNL A   1      36.956  30.071  27.183  1.00  0.00     0.014 A 
ATOM     33  C   UNL A   1      37.480  29.097  29.746  1.00  0.00     0.010 A 
ATOM     34  C   UNL A   1      38.241  29.620  27.528  1.00  0.00     0.010 A 
ATOM     35  C   UNL A   1      38.526  29.124  28.814  1.00  0.00    -0.014 A 
BRANCH  35  36
ATOM     36  C   UNL A   1      39.901  28.631  29.152  1.00  0.00     0.031 A 
ATOM     37  C   UNL A   1      40.935  29.558  29.747  1.00  0.00     0.074 A 
ATOM     38  C   UNL A   1      40.272  27.367  28.851  1.00  0.00     0.049 A 
ATOM     39  N   UNL A   1      42.213  29.345  29.960  1.00  0.00    -0.248 NA
ATOM     40  C   UNL A   1      40.478  30.896  30.148  1.00  0.00     0.031 C 
ATOM     41  C   UNL A   1      39.405  26.332  28.285  1.00  0.00     0.029 A 
ATOM     42  N   UNL A   1      41.500  26.752  28.934  1.00  0.00    -0.354 N 
ATOM     43  C   UNL A   1      42.711  30.522  30.508  1.00  0.00     0.074 A 
ATOM     44  C   UNL A   1      41.610  31.461  30.548  1.00  0.00     0.031 C 
ATOM     45  C   UNL A   1      40.134  25.236  28.022  1.00  0.00     0.029 A 
ATOM     46  C   UNL A   1      41.521  25.485  28.399  1.00  0.00     0.049 A 
ATOM     47  H   UNL A   1      42.290  27.178  29.338  1.00  0.00     0.167 HD
ATOM     48  C   UNL A   1      43.959  30.795  30.964  1.00  0.00     0.031 A 
ATOM     49  C   UNL A   1      42.533  24.617  28.207  1.00  0.00     0.031 A 
ATOM     50  C   UNL A   1      45.060  29.869  30.967  1.00  0.00     0.049 A 
ATOM     51  C   UNL A   1      43.921  24.963  28.658  1.00  0.00     0.074 A 
ATOM     52  C   UNL A   1      46.330  30.042  31.494  1.00  0.00     0.029 A 
ATOM     53  N   UNL A   1      45.029  28.599  30.419  1.00  0.00    -0.354 N 
ATOM     54  N   UNL A   1      44.352  26.059  29.230  1.00  0.00    -0.248 NA
ATOM     55  C   UNL A   1      44.958  23.938  28.459  1.00  0.00     0.031 C 
ATOM     56  C   UNL A   1      47.082  28.894  31.224  1.00  0.00     0.029 A 
ATOM     57  C   UNL A   1      46.265  27.990  30.566  1.00  0.00     0.049 A 
ATOM     58  H   UNL A   1      44.245  28.189  29.988  1.00  0.00     0.167 HD
ATOM     59  C   UNL A   1      45.698  25.840  29.494  1.00  0.00     0.074 A 
ATOM     60  C   UNL A   1      46.015  24.511  29.018  1.00  0.00     0.031 C 
ATOM     61  C   UNL A   1      46.585  26.671  30.091  1.00  0.00     0.031 A 
BRANCH  48  62
ATOM     62  C   UNL A   1      44.207  32.171  31.519  1.00  0.00    -0.014 A 
ATOM     63  C   UNL A   1      43.991  32.455  32.877  1.00  0.00     0.009 A 
ATOM     64  C   UNL A   1      44.717  33.179  30.686  1.00  0.00     0.009 A 
ATOM     65  C   UNL A   1      44.247  33.732  33.381  1.00  0.00     0.001 A 
ATOM     66  C   UNL A   1      44.995  34.448  31.199  1.00  0.00     0.001 A 
ATOM     67  C   UNL A   1      44.751  34.725  32.544  1.00  0.00     0.000 A 
ENDBRANCH  48  62
BRANCH  49  68
ATOM     68  C   UNL A   1      42.267  23.309  27.557  1.00  0.00    -0.014 A 
ATOM     69  C   UNL A   1      42.511  23.137  26.187  1.00  0.00     0.009 A 
ATOM     70  C   UNL A   1      41.758  22.234  28.302  1.00  0.00     0.009 A 
ATOM     71  C   UNL A   1      42.230  21.917  25.569  1.00  0.00     0.001 A 
ATOM     72  C   UNL A   1      41.498  21.009  27.685  1.00  0.00     0.001 A 
ATOM     73  C   UNL A   1      41.727  20.854  26.318  1.00  0.00     0.000 A 
ENDBRANCH  49  68
BRANCH  61  74
ATOM     74  C   UNL A   1      47.980  26.157  30.300  1.00  0.00    -0.014 A 
ATOM     75  C   UNL A   1      48.409  25.707  31.557  1.00  0.00     0.009 A 
ATOM     76  C   UNL A   1      48.866  26.085  29.212  1.00  0.00     0.009 A 
ATOM     77  C   UNL A   1      49.706  25.218  31.728  1.00  0.00     0.001 A 
ATOM     78  C   UNL A   1      50.155  25.575  29.380  1.00  0.00     0.001 A 
ATOM     79  C   UNL A   1      50.575  25.147  30.639  1.00  0.00     0.000 A 
ENDBRANCH  61  74
ENDBRANCH  35  36
ENDBRANCH  27  30
ENDBRANCH  25  26
ENDBRANCH   1  25
TORSDOF 12
ENDMDL
MODEL 3
REMARK VINA RESULT:      -9.1      3.957      9.867
REMARK SMILES Cc1ccc(F)c(NC(=O)[C@@H]2CCCC[C@@H]2C(=O)NCCCNC(=O)c2ccc(-c3c4nc(c(-c5ccccc5)c5ccc([nH]5)c(-c5ccccc5)c5nc(c(-c6ccccc6)c6ccc3[nH]6)C=C5)C=C4)cc2)c1
REMARK SMILES IDX 21 1 20 2 19 3 17 4 18 5 16 7 11 8 12 9 13 10 15 11 14 12
REMARK SMILES IDX 9 13 8 14 10 16 7 17 1 18 2 19 3 20 74 21 4 22 5 23 6 24
REMARK SMILES IDX 22 25 23 26 24 27 25 29 26 30 27 31 73 32 28 33 72 34 29 35
REMARK SMILES IDX 30 36 31 37 66 38 32 39 71 40 65 41 67 42 33 43 70 44 64 45
REMARK SMILES IDX 63 46 34 48 56 49 41 50 55 51 42 52 45 53 54 54 68 55 43 56
REMARK SMILES IDX 44 57 53 59 69 60 46 61 35 62 36 63 40 64 37 65 39 66 38 67
REMARK SMILES IDX 57 68 58 69 62 70 59 71 61 72 60 73 47 74 48 75 52 76 49 77
REMARK SMILES IDX 51 78 50 79
REMARK H PARENT 19 6 8 15 23 28 67 47 45 58
REMARK Flexibility Score: inf
ROOT
ATOM      1  C   UNL A   1      31.987  28.280  27.276  1.00  0.00     0.042 C 
ENDROOT
BRANCH   1   2
ATOM      2  C   UNL A   1      31.772  26.943  26.558  1.00  0.00     0.117 C 
BRANCH   2   3
ATOM      3  N   UNL A   1      33.023  26.479  25.985  1.00  0.00    -0.356 N 
ATOM      4  C   UNL A   1      33.359  25.429  25.190  1.00  0.00     0.223 C 
ATOM      5  O   UNL A   1      34.570  25.326  24.963  1.00  0.00    -0.275 OA
ATOM      6  H   UNL A   1      33.793  27.045  26.223  1.00  0.00     0.163 HD
BRANCH   4   7
ATOM      7  C   UNL A   1      32.325  24.516  24.500  1.00  0.00     0.091 C 
ATOM      8  C   UNL A   1      32.504  22.980  24.390  1.00  0.00     0.091 C 
ATOM      9  C   UNL A   1      33.242  22.353  23.193  1.00  0.00     0.014 C 
ATOM     10  C   UNL A   1      33.081  23.114  21.883  1.00  0.00     0.001 C 
ATOM     11  C   UNL A   1      32.056  25.073  23.079  1.00  0.00     0.014 C 
ATOM     12  C   UNL A   1      33.107  24.622  22.064  1.00  0.00     0.001 C 
BRANCH   8  13
ATOM     13  C   UNL A   1      32.675  22.228  25.692  1.00  0.00     0.228 C 
ATOM     14  N   UNL A   1      33.762  21.553  26.120  1.00  0.00    -0.323 N 
ATOM     15  H   UNL A   1      33.539  20.972  26.883  1.00  0.00     0.170 HD
ATOM     16  O   UNL A   1      31.707  22.188  26.471  1.00  0.00    -0.274 OA
BRANCH  14  17
ATOM     17  C   UNL A   1      35.127  21.442  25.787  1.00  0.00     0.077 A 
ATOM     18  C   UNL A   1      38.026  23.912  25.957  1.00  0.00     0.044 C 
ATOM     19  C   UNL A   1      37.253  22.657  25.704  1.00  0.00    -0.049 A 
ATOM     20  C   UNL A   1      37.868  21.566  25.097  1.00  0.00     0.006 A 
ATOM     21  C   UNL A   1      35.902  22.575  26.079  1.00  0.00     0.032 A 
ATOM     22  C   UNL A   1      37.114  20.442  24.787  1.00  0.00     0.042 A 
ATOM     23  C   UNL A   1      35.755  20.405  25.098  1.00  0.00     0.146 A 
ATOM     24  F   UNL A   1      35.079  19.351  24.648  1.00  0.00    -0.205 F 
ENDBRANCH  14  17
ENDBRANCH   8  13
ENDBRANCH   4   7
ENDBRANCH   2   3
ENDBRANCH   1   2
BRANCH   1  25
ATOM     25  C   UNL A   1      33.430  28.782  27.301  1.00  0.00     0.118 C 
BRANCH  25  26
ATOM     26  N   UNL A   1      33.518  30.181  27.682  1.00  0.00    -0.352 N 
ATOM     27  C   UNL A   1      34.478  30.903  28.346  1.00  0.00     0.251 C 
ATOM     28  H   UNL A   1      32.736  30.715  27.411  1.00  0.00     0.163 HD
ATOM     29  O   UNL A   1      34.180  32.042  28.719  1.00  0.00    -0.269 OA
BRANCH  27  30
ATOM     30  C   UNL A   1      35.843  30.395  28.658  1.00  0.00     0.039 A 
ATOM     31  C   UNL A   1      36.787  30.383  27.618  1.00  0.00     0.014 A 
ATOM     32  C   UNL A   1      36.196  29.812  29.875  1.00  0.00     0.014 A 
ATOM     33  C   UNL A   1      38.068  29.838  27.804  1.00  0.00     0.010 A 
ATOM     34  C   UNL A   1      37.499  29.327  30.081  1.00  0.00     0.010 A 
ATOM     35  C   UNL A   1      38.458  29.332  29.051  1.00  0.00    -0.014 A 
BRANCH  35  36
ATOM     36  C   UNL A   1      39.846  28.827  29.302  1.00  0.00     0.031 A 
ATOM     37  C   UNL A   1      40.930  29.750  29.808  1.00  0.00     0.074 A 
ATOM     38  C   UNL A   1      40.181  27.554  28.999  1.00  0.00     0.049 A 
ATOM     39  N   UNL A   1      42.217  29.525  29.937  1.00  0.00    -0.248 NA
ATOM     40  C   UNL A   1      40.518  31.101  30.216  1.00  0.00     0.031 C 
ATOM     41  C   UNL A   1      39.265  26.520  28.511  1.00  0.00     0.029 A 
ATOM     42  N   UNL A   1      41.405  26.924  29.008  1.00  0.00    -0.354 N 
ATOM     43  C   UNL A   1      42.765  30.704  30.430  1.00  0.00     0.074 A 
ATOM     44  C   UNL A   1      41.680  31.658  30.529  1.00  0.00     0.031 C 
ATOM     45  C   UNL A   1      39.961  25.411  28.219  1.00  0.00     0.029 A 
ATOM     46  C   UNL A   1      41.373  25.648  28.495  1.00  0.00     0.049 A 
ATOM     47  H   UNL A   1      42.225  27.347  29.350  1.00  0.00     0.167 HD
ATOM     48  C   UNL A   1      44.044  30.968  30.794  1.00  0.00     0.031 A 
ATOM     49  C   UNL A   1      42.360  24.764  28.249  1.00  0.00     0.031 A 
ATOM     50  C   UNL A   1      45.132  30.028  30.738  1.00  0.00     0.049 A 
ATOM     51  C   UNL A   1      43.780  25.099  28.598  1.00  0.00     0.074 A 
ATOM     52  C   UNL A   1      46.438  30.194  31.174  1.00  0.00     0.029 A 
ATOM     53  N   UNL A   1      45.048  28.750  30.215  1.00  0.00    -0.354 N 
ATOM     54  N   UNL A   1      44.262  26.199  29.120  1.00  0.00    -0.248 NA
ATOM     55  C   UNL A   1      44.788  24.058  28.346  1.00  0.00     0.031 C 
ATOM     56  C   UNL A   1      47.155  29.031  30.872  1.00  0.00     0.029 A 
ATOM     57  C   UNL A   1      46.285  28.127  30.288  1.00  0.00     0.049 A 
ATOM     58  H   UNL A   1      44.232  28.342  29.846  1.00  0.00     0.167 HD
ATOM     59  C   UNL A   1      45.620  25.968  29.295  1.00  0.00     0.074 A 
ATOM     60  C   UNL A   1      45.888  24.627  28.822  1.00  0.00     0.031 C 
ATOM     61  C   UNL A   1      46.555  26.796  29.816  1.00  0.00     0.031 A 
BRANCH  48  62
ATOM     62  C   UNL A   1      44.346  32.350  31.306  1.00  0.00    -0.014 A 
ATOM     63  C   UNL A   1      44.266  32.649  32.676  1.00  0.00     0.009 A 
ATOM     64  C   UNL A   1      44.771  33.348  30.416  1.00  0.00     0.009 A 
ATOM     65  C   UNL A   1      44.571  33.931  33.138  1.00  0.00     0.001 A 
ATOM     66  C   UNL A   1      45.099  34.622  30.885  1.00  0.00     0.001 A 
ATOM     67  C   UNL A   1      44.989  34.914  32.244  1.00  0.00     0.000 A 
ENDBRANCH  48  62
BRANCH  49  68
ATOM     68  C   UNL A   1      42.034  23.449  27.642  1.00  0.00    -0.014 A 
ATOM     69  C   UNL A   1      42.047  23.290  26.249  1.00  0.00     0.009 A 
ATOM     70  C   UNL A   1      41.700  22.354  28.453  1.00  0.00     0.009 A 
ATOM     71  C   UNL A   1      41.708  22.063  25.677  1.00  0.00     0.001 A 
ATOM     72  C   UNL A   1      41.383  21.121  27.878  1.00  0.00     0.001 A 
ATOM     73  C   UNL A   1      41.380  20.979  26.490  1.00  0.00     0.000 A 
ENDBRANCH  49  68
BRANCH  61  74
ATOM     74  C   UNL A   1      47.956  26.268  29.937  1.00  0.00    -0.014 A 
ATOM     75  C   UNL A   1      48.837  26.290  28.846  1.00  0.00     0.009 A 
ATOM     76  C   UNL A   1      48.411  25.778  31.171  1.00  0.00     0.009 A 
ATOM     77  C   UNL A   1      50.141  25.807  28.982  1.00  0.00     0.001 A 
ATOM     78  C   UNL A   1      49.722  25.318  31.311  1.00  0.00     0.001 A 
ATOM     79  C   UNL A   1      50.584  25.328  30.215  1.00  0.00     0.000 A 
ENDBRANCH  61  74
ENDBRANCH  35  36
ENDBRANCH  27  30
ENDBRANCH  25  26
ENDBRANCH   1  25
TORSDOF 12
ENDMDL
