MODEL 1
REMARK VINA RESULT:     -10.9      0.000      0.000
REMARK SMILES CC1(C)CCN(c2ncccc2C(=O)NCCCNC(=O)c2ccc(-c3c4nc(c(-c5ccccc5)c5ccc([nH]5)c(-c5ccccc5)c5nc(c(-c6ccccc6)c6ccc3[nH]6)C=C5)C=C4)cc2)C1
REMARK SMILES IDX 17 1 16 2 15 3 13 4 14 5 12 7 7 8 8 9 9 10 11 11 10 12 6 13
REMARK SMILES IDX 1 14 2 15 3 16 4 17 70 18 5 19 18 20 19 21 20 22 21 24 22 25
REMARK SMILES IDX 23 26 69 27 24 28 68 29 25 30 26 31 27 32 62 33 28 34 67 35
REMARK SMILES IDX 61 36 63 37 29 38 66 39 60 40 59 41 30 43 52 44 37 45 51 46
REMARK SMILES IDX 38 47 41 48 50 49 64 50 39 51 40 52 49 54 65 55 42 56 31 57
REMARK SMILES IDX 32 58 36 59 33 60 35 61 34 62 53 63 54 64 58 65 55 66 57 67
REMARK SMILES IDX 56 68 43 69 44 70 48 71 45 72 47 73 46 74
REMARK H PARENT 15 6 19 23 63 42 41 53
REMARK Flexibility Score: inf
ROOT
ATOM      1  C   UNL A   1      34.033  28.096  25.881  1.00  0.00     0.042 C 
ENDROOT
BRANCH   1   2
ATOM      2  C   UNL A   1      33.312  28.794  24.726  1.00  0.00     0.118 C 
BRANCH   2   3
ATOM      3  N   UNL A   1      33.657  28.173  23.464  1.00  0.00    -0.352 N 
ATOM      4  C   UNL A   1      33.439  26.958  22.865  1.00  0.00     0.255 C 
ATOM      5  O   UNL A   1      34.033  26.847  21.794  1.00  0.00    -0.269 OA
ATOM      6  H   UNL A   1      34.182  28.776  22.890  1.00  0.00     0.163 HD
BRANCH   4   7
ATOM      7  C   UNL A   1      32.544  25.883  23.416  1.00  0.00     0.082 A 
ATOM      8  C   UNL A   1      33.053  24.604  23.737  1.00  0.00     0.141 A 
ATOM      9  N   UNL A   1      32.221  23.566  24.036  1.00  0.00    -0.238 NA
ATOM     10  C   UNL A   1      30.896  23.784  24.108  1.00  0.00     0.113 A 
ATOM     11  C   UNL A   1      31.166  26.082  23.588  1.00  0.00     0.019 A 
ATOM     12  C   UNL A   1      30.327  25.023  23.924  1.00  0.00     0.021 A 
BRANCH   8  13
ATOM     13  N   UNL A   1      34.398  24.326  23.863  1.00  0.00    -0.355 N 
ATOM     14  C   UNL A   1      35.568  22.069  25.919  1.00  0.00     0.013 C 
ATOM     15  C   UNL A   1      36.089  23.349  25.246  1.00  0.00    -0.016 C 
ATOM     16  C   UNL A   1      37.332  23.843  25.991  1.00  0.00     0.013 C 
ATOM     17  C   UNL A   1      36.381  23.115  23.754  1.00  0.00     0.030 C 
ATOM     18  C   UNL A   1      34.987  24.433  25.205  1.00  0.00     0.124 C 
ATOM     19  C   UNL A   1      35.010  23.252  23.099  1.00  0.00     0.119 C 
ENDBRANCH   8  13
ENDBRANCH   4   7
ENDBRANCH   2   3
ENDBRANCH   1   2
BRANCH   1  20
ATOM     20  C   UNL A   1      33.497  28.488  27.262  1.00  0.00     0.118 C 
BRANCH  20  21
ATOM     21  N   UNL A   1      33.512  29.928  27.469  1.00  0.00    -0.352 N 
ATOM     22  C   UNL A   1      34.455  30.729  28.059  1.00  0.00     0.251 C 
ATOM     23  H   UNL A   1      32.718  30.404  27.131  1.00  0.00     0.163 HD
ATOM     24  O   UNL A   1      34.174  31.888  28.348  1.00  0.00    -0.269 OA
BRANCH  22  25
ATOM     25  C   UNL A   1      35.807  30.209  28.356  1.00  0.00     0.039 A 
ATOM     26  C   UNL A   1      36.771  30.229  27.344  1.00  0.00     0.014 A 
ATOM     27  C   UNL A   1      36.109  29.651  29.601  1.00  0.00     0.014 A 
ATOM     28  C   UNL A   1      38.054  29.738  27.596  1.00  0.00     0.010 A 
ATOM     29  C   UNL A   1      37.405  29.220  29.871  1.00  0.00     0.010 A 
ATOM     30  C   UNL A   1      38.389  29.254  28.872  1.00  0.00    -0.014 A 
BRANCH  30  31
ATOM     31  C   UNL A   1      39.762  28.783  29.178  1.00  0.00     0.031 A 
ATOM     32  C   UNL A   1      40.744  29.693  29.860  1.00  0.00     0.074 A 
ATOM     33  C   UNL A   1      40.146  27.555  28.777  1.00  0.00     0.049 A 
ATOM     34  N   UNL A   1      42.005  29.483  30.144  1.00  0.00    -0.248 NA
ATOM     35  C   UNL A   1      40.252  31.022  30.255  1.00  0.00     0.031 C 
ATOM     36  C   UNL A   1      39.298  26.590  28.074  1.00  0.00     0.029 A 
ATOM     37  N   UNL A   1      41.352  26.913  28.898  1.00  0.00    -0.354 N 
ATOM     38  C   UNL A   1      42.461  30.658  30.728  1.00  0.00     0.074 A 
ATOM     39  C   UNL A   1      41.355  31.590  30.721  1.00  0.00     0.031 C 
ATOM     40  C   UNL A   1      40.005  25.471  27.845  1.00  0.00     0.029 A 
ATOM     41  C   UNL A   1      41.362  25.654  28.350  1.00  0.00     0.049 A 
ATOM     42  H   UNL A   1      42.136  27.317  29.336  1.00  0.00     0.167 HD
ATOM     43  C   UNL A   1      43.687  30.932  31.237  1.00  0.00     0.031 A 
ATOM     44  C   UNL A   1      42.355  24.750  28.255  1.00  0.00     0.031 A 
ATOM     45  C   UNL A   1      44.783  30.000  31.256  1.00  0.00     0.049 A 
ATOM     46  C   UNL A   1      43.705  25.078  28.825  1.00  0.00     0.074 A 
ATOM     47  C   UNL A   1      46.045  30.164  31.801  1.00  0.00     0.029 A 
ATOM     48  N   UNL A   1      44.747  28.730  30.702  1.00  0.00    -0.354 N 
ATOM     49  N   UNL A   1      44.102  26.172  29.429  1.00  0.00    -0.248 NA
ATOM     50  C   UNL A   1      44.741  24.042  28.709  1.00  0.00     0.031 C 
ATOM     51  C   UNL A   1      46.787  29.008  31.539  1.00  0.00     0.029 A 
ATOM     52  C   UNL A   1      45.971  28.106  30.875  1.00  0.00     0.049 A 
ATOM     53  H   UNL A   1      43.967  28.331  30.254  1.00  0.00     0.167 HD
ATOM     54  C   UNL A   1      45.425  25.946  29.787  1.00  0.00     0.074 A 
ATOM     55  C   UNL A   1      45.757  24.607  29.346  1.00  0.00     0.031 C 
ATOM     56  C   UNL A   1      46.286  26.774  30.428  1.00  0.00     0.031 A 
BRANCH  43  57
ATOM     57  C   UNL A   1      43.906  32.305  31.809  1.00  0.00    -0.014 A 
ATOM     58  C   UNL A   1      44.321  33.373  30.997  1.00  0.00     0.009 A 
ATOM     59  C   UNL A   1      43.667  32.541  33.171  1.00  0.00     0.009 A 
ATOM     60  C   UNL A   1      44.530  34.640  31.546  1.00  0.00     0.001 A 
ATOM     61  C   UNL A   1      43.850  33.816  33.712  1.00  0.00     0.001 A 
ATOM     62  C   UNL A   1      44.291  34.861  32.902  1.00  0.00     0.000 A 
ENDBRANCH  43  57
BRANCH  44  63
ATOM     63  C   UNL A   1      42.102  23.437  27.611  1.00  0.00    -0.014 A 
ATOM     64  C   UNL A   1      42.482  23.215  26.279  1.00  0.00     0.009 A 
ATOM     65  C   UNL A   1      41.487  22.396  28.325  1.00  0.00     0.009 A 
ATOM     66  C   UNL A   1      42.230  21.985  25.666  1.00  0.00     0.001 A 
ATOM     67  C   UNL A   1      41.260  21.159  27.718  1.00  0.00     0.001 A 
ATOM     68  C   UNL A   1      41.624  20.957  26.387  1.00  0.00     0.000 A 
ENDBRANCH  44  63
BRANCH  56  69
ATOM     69  C   UNL A   1      47.660  26.242  30.717  1.00  0.00    -0.014 A 
ATOM     70  C   UNL A   1      48.668  26.261  29.741  1.00  0.00     0.009 A 
ATOM     71  C   UNL A   1      47.958  25.750  31.997  1.00  0.00     0.009 A 
ATOM     72  C   UNL A   1      49.942  25.768  30.034  1.00  0.00     0.001 A 
ATOM     73  C   UNL A   1      49.239  25.282  32.294  1.00  0.00     0.001 A 
ATOM     74  C   UNL A   1      50.227  25.284  31.310  1.00  0.00     0.000 A 
ENDBRANCH  56  69
ENDBRANCH  30  31
ENDBRANCH  22  25
ENDBRANCH  20  21
ENDBRANCH   1  20
TORSDOF 11
ENDMDL
MODEL 2
REMARK VINA RESULT:     -10.8      1.906      3.478
REMARK SMILES CC1(C)CCN(c2ncccc2C(=O)NCCCNC(=O)c2ccc(-c3c4nc(c(-c5ccccc5)c5ccc([nH]5)c(-c5ccccc5)c5nc(c(-c6ccccc6)c6ccc3[nH]6)C=C5)C=C4)cc2)C1
REMARK SMILES IDX 17 1 16 2 15 3 13 4 14 5 12 7 7 8 8 9 9 10 11 11 10 12 6 13
REMARK SMILES IDX 1 14 2 15 3 16 4 17 70 18 5 19 18 20 19 21 20 22 21 24 22 25
REMARK SMILES IDX 23 26 69 27 24 28 68 29 25 30 26 31 27 32 62 33 28 34 67 35
REMARK SMILES IDX 61 36 63 37 29 38 66 39 60 40 59 41 30 43 52 44 37 45 51 46
REMARK SMILES IDX 38 47 41 48 50 49 64 50 39 51 40 52 49 54 65 55 42 56 31 57
REMARK SMILES IDX 32 58 36 59 33 60 35 61 34 62 53 63 54 64 58 65 55 66 57 67
REMARK SMILES IDX 56 68 43 69 44 70 48 71 45 72 47 73 46 74
REMARK H PARENT 15 6 19 23 63 42 41 53
REMARK Flexibility Score: inf
ROOT
ATOM      1  C   UNL A   1      33.227  27.896  26.895  1.00  0.00     0.042 C 
ENDROOT
BRANCH   1   2
ATOM      2  C   UNL A   1      31.743  28.216  27.078  1.00  0.00     0.118 C 
BRANCH   2   3
ATOM      3  N   UNL A   1      30.942  27.022  26.905  1.00  0.00    -0.352 N 
ATOM      4  C   UNL A   1      30.639  26.175  25.868  1.00  0.00     0.255 C 
ATOM      5  O   UNL A   1      29.806  25.326  26.182  1.00  0.00    -0.269 OA
ATOM      6  H   UNL A   1      30.504  26.748  27.742  1.00  0.00     0.163 HD
BRANCH   4   7
ATOM      7  C   UNL A   1      31.270  26.231  24.506  1.00  0.00     0.082 A 
ATOM      8  C   UNL A   1      30.716  27.028  23.477  1.00  0.00     0.141 A 
ATOM      9  N   UNL A   1      31.154  26.926  22.190  1.00  0.00    -0.238 NA
ATOM     10  C   UNL A   1      32.188  26.114  21.909  1.00  0.00     0.113 A 
ATOM     11  C   UNL A   1      32.399  25.466  24.180  1.00  0.00     0.019 A 
ATOM     12  C   UNL A   1      32.859  25.392  22.868  1.00  0.00     0.021 A 
BRANCH   8  13
ATOM     13  N   UNL A   1      29.778  28.014  23.696  1.00  0.00    -0.355 N 
ATOM     14  C   UNL A   1      29.207  30.436  21.574  1.00  0.00     0.013 C 
ATOM     15  C   UNL A   1      29.044  30.208  23.086  1.00  0.00    -0.016 C 
ATOM     16  C   UNL A   1      28.893  31.561  23.788  1.00  0.00     0.013 C 
ATOM     17  C   UNL A   1      27.852  29.283  23.385  1.00  0.00     0.030 C 
ATOM     18  C   UNL A   1      30.240  29.409  23.651  1.00  0.00     0.124 C 
ATOM     19  C   UNL A   1      28.429  27.885  23.173  1.00  0.00     0.119 C 
ENDBRANCH   8  13
ENDBRANCH   4   7
ENDBRANCH   2   3
ENDBRANCH   1   2
BRANCH   1  20
ATOM     20  C   UNL A   1      33.982  28.946  26.073  1.00  0.00     0.118 C 
BRANCH  20  21
ATOM     21  N   UNL A   1      33.846  30.284  26.632  1.00  0.00    -0.352 N 
ATOM     22  C   UNL A   1      34.569  30.912  27.612  1.00  0.00     0.251 C 
ATOM     23  H   UNL A   1      33.120  30.824  26.242  1.00  0.00     0.163 HD
ATOM     24  O   UNL A   1      34.148  31.954  28.105  1.00  0.00    -0.269 OA
BRANCH  22  25
ATOM     25  C   UNL A   1      35.850  30.345  28.085  1.00  0.00     0.039 A 
ATOM     26  C   UNL A   1      36.958  30.384  27.233  1.00  0.00     0.014 A 
ATOM     27  C   UNL A   1      35.947  29.726  29.334  1.00  0.00     0.014 A 
ATOM     28  C   UNL A   1      38.178  29.849  27.654  1.00  0.00     0.010 A 
ATOM     29  C   UNL A   1      37.179  29.249  29.778  1.00  0.00     0.010 A 
ATOM     30  C   UNL A   1      38.305  29.302  28.942  1.00  0.00    -0.014 A 
BRANCH  30  31
ATOM     31  C   UNL A   1      39.606  28.783  29.430  1.00  0.00     0.031 A 
ATOM     32  C   UNL A   1      40.452  29.605  30.361  1.00  0.00     0.074 A 
ATOM     33  C   UNL A   1      40.057  27.597  28.978  1.00  0.00     0.049 A 
ATOM     34  N   UNL A   1      41.645  29.349  30.835  1.00  0.00    -0.248 NA
ATOM     35  C   UNL A   1      39.894  30.894  30.800  1.00  0.00     0.031 C 
ATOM     36  C   UNL A   1      39.348  26.720  28.044  1.00  0.00     0.029 A 
ATOM     37  N   UNL A   1      41.227  26.929  29.239  1.00  0.00    -0.354 N 
ATOM     38  C   UNL A   1      41.989  30.452  31.607  1.00  0.00     0.074 A 
ATOM     39  C   UNL A   1      40.898  31.396  31.505  1.00  0.00     0.031 C 
ATOM     40  C   UNL A   1      40.088  25.620  27.826  1.00  0.00     0.029 A 
ATOM     41  C   UNL A   1      41.336  25.732  28.574  1.00  0.00     0.049 A 
ATOM     42  H   UNL A   1      41.922  27.275  29.844  1.00  0.00     0.167 HD
ATOM     43  C   UNL A   1      43.107  30.656  32.345  1.00  0.00     0.031 A 
ATOM     44  C   UNL A   1      42.334  24.829  28.560  1.00  0.00     0.031 A 
ATOM     45  C   UNL A   1      44.187  29.712  32.457  1.00  0.00     0.049 A 
ATOM     46  C   UNL A   1      43.563  25.078  29.385  1.00  0.00     0.074 A 
ATOM     47  C   UNL A   1      45.334  29.801  33.225  1.00  0.00     0.029 A 
ATOM     48  N   UNL A   1      44.252  28.505  31.778  1.00  0.00    -0.354 N 
ATOM     49  N   UNL A   1      43.847  26.099  30.157  1.00  0.00    -0.248 NA
ATOM     50  C   UNL A   1      44.608  24.045  29.343  1.00  0.00     0.031 C 
ATOM     51  C   UNL A   1      46.115  28.667  32.978  1.00  0.00     0.029 A 
ATOM     52  C   UNL A   1      45.430  27.849  32.094  1.00  0.00     0.049 A 
ATOM     53  H   UNL A   1      43.563  28.165  31.163  1.00  0.00     0.167 HD
ATOM     54  C   UNL A   1      45.088  25.819  30.713  1.00  0.00     0.074 A 
ATOM     55  C   UNL A   1      45.497  24.527  30.200  1.00  0.00     0.031 C 
ATOM     56  C   UNL A   1      45.822  26.565  31.574  1.00  0.00     0.031 A 
BRANCH  43  57
ATOM     57  C   UNL A   1      43.219  31.961  33.083  1.00  0.00    -0.014 A 
ATOM     58  C   UNL A   1      43.813  33.085  32.487  1.00  0.00     0.009 A 
ATOM     59  C   UNL A   1      42.699  32.076  34.381  1.00  0.00     0.009 A 
ATOM     60  C   UNL A   1      43.919  34.287  33.192  1.00  0.00     0.001 A 
ATOM     61  C   UNL A   1      42.780  33.286  35.072  1.00  0.00     0.001 A 
ATOM     62  C   UNL A   1      43.399  34.387  34.481  1.00  0.00     0.000 A 
ENDBRANCH  43  57
BRANCH  44  63
ATOM     63  C   UNL A   1      42.201  23.591  27.750  1.00  0.00    -0.014 A 
ATOM     64  C   UNL A   1      42.676  23.552  26.431  1.00  0.00     0.009 A 
ATOM     65  C   UNL A   1      41.606  22.441  28.293  1.00  0.00     0.009 A 
ATOM     66  C   UNL A   1      42.537  22.394  25.663  1.00  0.00     0.001 A 
ATOM     67  C   UNL A   1      41.493  21.276  27.531  1.00  0.00     0.001 A 
ATOM     68  C   UNL A   1      41.950  21.256  26.215  1.00  0.00     0.000 A 
ENDBRANCH  44  63
BRANCH  56  69
ATOM     69  C   UNL A   1      47.127  25.987  32.039  1.00  0.00    -0.014 A 
ATOM     70  C   UNL A   1      47.217  25.265  33.239  1.00  0.00     0.009 A 
ATOM     71  C   UNL A   1      48.274  26.136  31.245  1.00  0.00     0.009 A 
ATOM     72  C   UNL A   1      48.441  24.729  33.649  1.00  0.00     0.001 A 
ATOM     73  C   UNL A   1      49.489  25.578  31.644  1.00  0.00     0.001 A 
ATOM     74  C   UNL A   1      49.573  24.882  32.849  1.00  0.00     0.000 A 
ENDBRANCH  56  69
ENDBRANCH  30  31
ENDBRANCH  22  25
ENDBRANCH  20  21
ENDBRANCH   1  20
TORSDOF 11
ENDMDL
MODEL 3
REMARK VINA RESULT:     -10.8      2.461      7.426
REMARK SMILES CC1(C)CCN(c2ncccc2C(=O)NCCCNC(=O)c2ccc(-c3c4nc(c(-c5ccccc5)c5ccc([nH]5)c(-c5ccccc5)c5nc(c(-c6ccccc6)c6ccc3[nH]6)C=C5)C=C4)cc2)C1
REMARK SMILES IDX 17 1 16 2 15 3 13 4 14 5 12 7 7 8 8 9 9 10 11 11 10 12 6 13
REMARK SMILES IDX 1 14 2 15 3 16 4 17 70 18 5 19 18 20 19 21 20 22 21 24 22 25
REMARK SMILES IDX 23 26 69 27 24 28 68 29 25 30 26 31 27 32 62 33 28 34 67 35
REMARK SMILES IDX 61 36 63 37 29 38 66 39 60 40 59 41 30 43 52 44 37 45 51 46
REMARK SMILES IDX 38 47 41 48 50 49 64 50 39 51 40 52 49 54 65 55 42 56 31 57
REMARK SMILES IDX 32 58 36 59 33 60 35 61 34 62 53 63 54 64 58 65 55 66 57 67
REMARK SMILES IDX 56 68 43 69 44 70 48 71 45 72 47 73 46 74
REMARK H PARENT 15 6 19 23 63 42 41 53
REMARK Flexibility Score: inf
ROOT
ATOM      1  C   UNL A   1      38.494  20.422  25.011  1.00  0.00     0.042 C 
ENDROOT
BRANCH   1   2
ATOM      2  C   UNL A   1      37.825  21.772  25.274  1.00  0.00     0.118 C 
BRANCH   2   3
ATOM      3  N   UNL A   1      37.256  22.301  24.052  1.00  0.00    -0.352 N 
ATOM      4  C   UNL A   1      36.049  22.831  23.669  1.00  0.00     0.255 C 
ATOM      5  O   UNL A   1      35.995  23.056  22.461  1.00  0.00    -0.269 OA
ATOM      6  H   UNL A   1      37.897  22.275  23.306  1.00  0.00     0.163 HD
BRANCH   4   7
ATOM      7  C   UNL A   1      34.919  23.149  24.608  1.00  0.00     0.082 A 
ATOM      8  C   UNL A   1      33.765  22.334  24.663  1.00  0.00     0.141 A 
ATOM      9  N   UNL A   1      32.655  22.725  25.352  1.00  0.00    -0.238 NA
ATOM     10  C   UNL A   1      32.689  23.868  26.060  1.00  0.00     0.113 A 
ATOM     11  C   UNL A   1      34.936  24.285  25.429  1.00  0.00     0.019 A 
ATOM     12  C   UNL A   1      33.808  24.661  26.155  1.00  0.00     0.021 A 
BRANCH   8  13
ATOM     13  N   UNL A   1      33.696  21.069  24.119  1.00  0.00    -0.355 N 
ATOM     14  C   UNL A   1      32.762  18.441  25.827  1.00  0.00     0.013 C 
ATOM     15  C   UNL A   1      33.624  18.723  24.586  1.00  0.00    -0.016 C 
ATOM     16  C   UNL A   1      34.513  17.509  24.302  1.00  0.00     0.013 C 
ATOM     17  C   UNL A   1      32.751  19.079  23.370  1.00  0.00     0.030 C 
ATOM     18  C   UNL A   1      34.464  20.005  24.782  1.00  0.00     0.124 C 
ATOM     19  C   UNL A   1      32.449  20.561  23.574  1.00  0.00     0.119 C 
ENDBRANCH   8  13
ENDBRANCH   4   7
ENDBRANCH   2   3
ENDBRANCH   1   2
BRANCH   1  20
ATOM     20  C   UNL A   1      39.213  19.848  26.236  1.00  0.00     0.118 C 
BRANCH  20  21
ATOM     21  N   UNL A   1      40.471  19.204  25.884  1.00  0.00    -0.352 N 
ATOM     22  C   UNL A   1      41.740  19.717  25.818  1.00  0.00     0.251 C 
ATOM     23  H   UNL A   1      40.398  18.248  25.658  1.00  0.00     0.163 HD
ATOM     24  O   UNL A   1      42.629  19.071  25.273  1.00  0.00    -0.269 OA
BRANCH  22  25
ATOM     25  C   UNL A   1      42.049  21.042  26.395  1.00  0.00     0.039 A 
ATOM     26  C   UNL A   1      42.399  22.086  25.533  1.00  0.00     0.014 A 
ATOM     27  C   UNL A   1      42.052  21.245  27.778  1.00  0.00     0.014 A 
ATOM     28  C   UNL A   1      42.702  23.346  26.053  1.00  0.00     0.010 A 
ATOM     29  C   UNL A   1      42.293  22.517  28.292  1.00  0.00     0.010 A 
ATOM     30  C   UNL A   1      42.623  23.579  27.436  1.00  0.00    -0.014 A 
BRANCH  30  31
ATOM     31  C   UNL A   1      42.883  24.925  28.004  1.00  0.00     0.031 A 
ATOM     32  C   UNL A   1      44.263  25.301  28.467  1.00  0.00     0.074 A 
ATOM     33  C   UNL A   1      41.859  25.784  28.167  1.00  0.00     0.049 A 
ATOM     34  N   UNL A   1      44.665  26.401  29.054  1.00  0.00    -0.248 NA
ATOM     35  C   UNL A   1      45.325  24.303  28.266  1.00  0.00     0.031 C 
ATOM     36  C   UNL A   1      40.467  25.525  27.793  1.00  0.00     0.029 A 
ATOM     37  N   UNL A   1      41.831  27.048  28.699  1.00  0.00    -0.354 N 
ATOM     38  C   UNL A   1      46.018  26.217  29.311  1.00  0.00     0.074 A 
ATOM     39  C   UNL A   1      46.358  24.888  28.855  1.00  0.00     0.031 C 
ATOM     40  C   UNL A   1      39.725  26.605  28.087  1.00  0.00     0.029 A 
ATOM     41  C   UNL A   1      40.579  27.614  28.705  1.00  0.00     0.049 A 
ATOM     42  H   UNL A   1      42.631  27.506  29.045  1.00  0.00     0.167 HD
ATOM     43  C   UNL A   1      46.901  27.083  29.865  1.00  0.00     0.031 A 
ATOM     44  C   UNL A   1      40.163  28.810  29.162  1.00  0.00     0.031 A 
ATOM     45  C   UNL A   1      46.566  28.410  30.307  1.00  0.00     0.049 A 
ATOM     46  C   UNL A   1      41.161  29.751  29.774  1.00  0.00     0.074 A 
ATOM     47  C   UNL A   1      47.402  29.383  30.827  1.00  0.00     0.029 A 
ATOM     48  N   UNL A   1      45.290  28.950  30.281  1.00  0.00    -0.354 N 
ATOM     49  N   UNL A   1      42.449  29.585  29.955  1.00  0.00    -0.248 NA
ATOM     50  C   UNL A   1      40.648  31.048  30.237  1.00  0.00     0.031 C 
ATOM     51  C   UNL A   1      46.623  30.497  31.157  1.00  0.00     0.029 A 
ATOM     52  C   UNL A   1      45.311  30.236  30.795  1.00  0.00     0.049 A 
ATOM     53  H   UNL A   1      44.487  28.488  29.947  1.00  0.00     0.167 HD
ATOM     54  C   UNL A   1      42.904  30.766  30.527  1.00  0.00     0.074 A 
ATOM     55  C   UNL A   1      41.758  31.643  30.650  1.00  0.00     0.031 C 
ATOM     56  C   UNL A   1      44.161  31.094  30.912  1.00  0.00     0.031 A 
BRANCH  43  57
ATOM     57  C   UNL A   1      48.319  26.611  30.031  1.00  0.00    -0.014 A 
ATOM     58  C   UNL A   1      49.292  26.870  29.052  1.00  0.00     0.009 A 
ATOM     59  C   UNL A   1      48.694  25.924  31.195  1.00  0.00     0.009 A 
ATOM     60  C   UNL A   1      50.602  26.415  29.218  1.00  0.00     0.001 A 
ATOM     61  C   UNL A   1      50.011  25.496  31.372  1.00  0.00     0.001 A 
ATOM     62  C   UNL A   1      50.961  25.732  30.379  1.00  0.00     0.000 A 
ENDBRANCH  43  57
BRANCH  44  63
ATOM     63  C   UNL A   1      38.734  29.193  29.040  1.00  0.00    -0.014 A 
ATOM     64  C   UNL A   1      38.243  29.728  27.840  1.00  0.00     0.009 A 
ATOM     65  C   UNL A   1      37.852  29.018  30.119  1.00  0.00     0.009 A 
ATOM     66  C   UNL A   1      36.902  30.103  27.729  1.00  0.00     0.001 A 
ATOM     67  C   UNL A   1      36.506  29.370  29.996  1.00  0.00     0.001 A 
ATOM     68  C   UNL A   1      36.034  29.920  28.805  1.00  0.00     0.000 A 
ENDBRANCH  44  63
BRANCH  56  69
ATOM     69  C   UNL A   1      44.367  32.471  31.475  1.00  0.00    -0.014 A 
ATOM     70  C   UNL A   1      44.279  32.715  32.854  1.00  0.00     0.009 A 
ATOM     71  C   UNL A   1      44.691  33.531  30.614  1.00  0.00     0.009 A 
ATOM     72  C   UNL A   1      44.481  34.003  33.356  1.00  0.00     0.001 A 
ATOM     73  C   UNL A   1      44.918  34.811  31.122  1.00  0.00     0.001 A 
ATOM     74  C   UNL A   1      44.805  35.047  32.491  1.00  0.00     0.000 A 
ENDBRANCH  56  69
ENDBRANCH  30  31
ENDBRANCH  22  25
ENDBRANCH  20  21
ENDBRANCH   1  20
TORSDOF 11
ENDMDL
