MODEL 1
REMARK VINA RESULT:     -11.5      0.000      0.000
REMARK SMILES O=C(Cc1cccc(-c2ccn(C(F)F)c(=O)c2)c1)NCCCNC(=O)c1ccc(-c2c3nc(c(-c4ccccc4)c4ccc([nH]4)c(-c4ccccc4)c4nc(c(-c5ccccc5)c5ccc2[nH]5)C=C4)C=C3)cc1
REMARK SMILES IDX 21 1 20 2 1 3 2 4 3 6 4 7 5 8 19 9 6 10 8 11 7 12 9 13 10 14
REMARK SMILES IDX 18 15 11 16 16 17 12 18 17 19 13 20 14 21 15 22 22 23 23 24
REMARK SMILES IDX 24 25 25 26 26 28 27 29 28 30 74 31 29 32 73 33 30 34 31 35
REMARK SMILES IDX 32 36 67 37 33 38 72 39 66 40 68 41 34 42 71 43 65 44 64 45
REMARK SMILES IDX 35 47 57 48 42 49 56 50 43 51 46 52 55 53 69 54 44 55 45 56
REMARK SMILES IDX 54 58 70 59 47 60 36 61 37 62 41 63 38 64 40 65 39 66 58 67
REMARK SMILES IDX 59 68 63 69 60 70 62 71 61 72 48 73 49 74 53 75 50 76 52 77
REMARK SMILES IDX 51 78
REMARK H PARENT 20 5 24 27 68 46 46 57
REMARK Flexibility Score: inf
ROOT
ATOM      1  C   UNL A   1      31.622  28.498  25.587  1.00  0.00     0.117 C 
ENDROOT
BRANCH   1   2
ATOM      2  N   UNL A   1      31.466  27.131  25.139  1.00  0.00    -0.356 N 
ATOM      3  O   UNL A   1      32.710  27.366  23.217  1.00  0.00    -0.275 OA
ATOM      4  C   UNL A   1      32.104  26.655  24.010  1.00  0.00     0.224 C 
ATOM      5  H   UNL A   1      30.886  26.524  25.653  1.00  0.00     0.163 HD
BRANCH   4   6
ATOM      6  C   UNL A   1      32.020  25.145  23.866  1.00  0.00     0.135 C 
BRANCH   6   7
ATOM      7  C   UNL A   1      33.212  24.402  24.436  1.00  0.00    -0.038 A 
ATOM      8  C   UNL A   1      34.290  25.055  25.054  1.00  0.00     0.004 A 
ATOM      9  C   UNL A   1      33.216  23.000  24.402  1.00  0.00     0.013 A 
ATOM     10  C   UNL A   1      35.352  24.331  25.596  1.00  0.00     0.001 A 
ATOM     11  C   UNL A   1      34.286  22.264  24.935  1.00  0.00    -0.018 A 
ATOM     12  C   UNL A   1      35.354  22.940  25.532  1.00  0.00     0.009 A 
BRANCH  11  13
ATOM     13  C   UNL A   1      34.293  20.795  24.813  1.00  0.00    -0.011 A 
ATOM     14  C   UNL A   1      35.525  20.030  24.815  1.00  0.00     0.027 A 
ATOM     15  C   UNL A   1      33.122  20.149  24.689  1.00  0.00     0.080 A 
ATOM     16  C   UNL A   1      35.499  18.698  24.690  1.00  0.00     0.095 A 
ATOM     17  C   UNL A   1      33.076  18.666  24.555  1.00  0.00     0.255 A 
ATOM     18  N   UNL A   1      34.302  18.020  24.560  1.00  0.00    -0.258 N 
ATOM     19  O   UNL A   1      31.982  18.122  24.449  1.00  0.00    -0.269 OA
BRANCH  18  20
ATOM     20  C   UNL A   1      34.288  16.587  24.421  1.00  0.00     0.451 C 
ATOM     21  F   UNL A   1      34.336  16.222  23.117  1.00  0.00    -0.185 F 
ATOM     22  F   UNL A   1      35.347  16.027  25.055  1.00  0.00    -0.185 F 
ENDBRANCH  18  20
ENDBRANCH  11  13
ENDBRANCH   6   7
ENDBRANCH   4   6
ENDBRANCH   1   2
BRANCH   1  23
ATOM     23  C   UNL A   1      32.063  28.594  27.040  1.00  0.00     0.042 C 
BRANCH  23  24
ATOM     24  C   UNL A   1      33.501  29.058  27.249  1.00  0.00     0.118 C 
BRANCH  24  25
ATOM     25  N   UNL A   1      33.614  30.415  27.763  1.00  0.00    -0.352 N 
ATOM     26  C   UNL A   1      34.681  31.019  28.389  1.00  0.00     0.251 C 
ATOM     27  H   UNL A   1      32.817  30.980  27.647  1.00  0.00     0.163 HD
ATOM     28  O   UNL A   1      34.567  32.151  28.850  1.00  0.00    -0.269 OA
BRANCH  26  29
ATOM     29  C   UNL A   1      35.955  30.284  28.545  1.00  0.00     0.039 A 
ATOM     30  C   UNL A   1      36.857  30.266  27.478  1.00  0.00     0.014 A 
ATOM     31  C   UNL A   1      36.278  29.653  29.749  1.00  0.00     0.014 A 
ATOM     32  C   UNL A   1      38.122  29.700  27.651  1.00  0.00     0.010 A 
ATOM     33  C   UNL A   1      37.561  29.150  29.941  1.00  0.00     0.010 A 
ATOM     34  C   UNL A   1      38.502  29.183  28.899  1.00  0.00    -0.014 A 
BRANCH  34  35
ATOM     35  C   UNL A   1      39.886  28.711  29.155  1.00  0.00     0.031 A 
ATOM     36  C   UNL A   1      40.910  29.638  29.745  1.00  0.00     0.074 A 
ATOM     37  C   UNL A   1      40.247  27.469  28.773  1.00  0.00     0.049 A 
ATOM     38  N   UNL A   1      42.189  29.438  29.941  1.00  0.00    -0.248 NA
ATOM     39  C   UNL A   1      40.441  30.974  30.145  1.00  0.00     0.031 C 
ATOM     40  C   UNL A   1      39.362  26.478  28.156  1.00  0.00     0.029 A 
ATOM     41  N   UNL A   1      41.463  26.834  28.833  1.00  0.00    -0.354 N 
ATOM     42  C   UNL A   1      42.680  30.626  30.468  1.00  0.00     0.074 A 
ATOM     43  C   UNL A   1      41.570  31.554  30.524  1.00  0.00     0.031 C 
ATOM     44  C   UNL A   1      40.059  25.356  27.914  1.00  0.00     0.029 A 
ATOM     45  C   UNL A   1      41.447  25.562  28.314  1.00  0.00     0.049 A 
ATOM     46  H   UNL A   1      42.271  27.250  29.213  1.00  0.00     0.167 HD
ATOM     47  C   UNL A   1      43.936  30.914  30.882  1.00  0.00     0.031 A 
ATOM     48  C   UNL A   1      42.439  24.665  28.161  1.00  0.00     0.031 A 
ATOM     49  C   UNL A   1      45.039  29.992  30.840  1.00  0.00     0.049 A 
ATOM     50  C   UNL A   1      43.830  25.019  28.604  1.00  0.00     0.074 A 
ATOM     51  C   UNL A   1      46.334  30.175  31.293  1.00  0.00     0.029 A 
ATOM     52  N   UNL A   1      44.979  28.713  30.309  1.00  0.00    -0.354 N 
ATOM     53  N   UNL A   1      44.263  26.126  29.156  1.00  0.00    -0.248 NA
ATOM     54  C   UNL A   1      44.869  23.997  28.404  1.00  0.00     0.031 C 
ATOM     55  C   UNL A   1      47.070  29.024  30.994  1.00  0.00     0.029 A 
ATOM     56  C   UNL A   1      46.220  28.106  30.399  1.00  0.00     0.049 A 
ATOM     57  H   UNL A   1      44.173  28.297  29.925  1.00  0.00     0.167 HD
ATOM     58  C   UNL A   1      45.618  25.926  29.391  1.00  0.00     0.074 A 
ATOM     59  C   UNL A   1      45.931  24.587  28.935  1.00  0.00     0.031 C 
ATOM     60  C   UNL A   1      46.520  26.776  29.938  1.00  0.00     0.031 A 
BRANCH  47  61
ATOM     61  C   UNL A   1      44.188  32.298  31.412  1.00  0.00    -0.014 A 
ATOM     62  C   UNL A   1      44.047  32.589  32.778  1.00  0.00     0.009 A 
ATOM     63  C   UNL A   1      44.608  33.314  30.540  1.00  0.00     0.009 A 
ATOM     64  C   UNL A   1      44.288  33.879  33.254  1.00  0.00     0.001 A 
ATOM     65  C   UNL A   1      44.874  34.597  31.022  1.00  0.00     0.001 A 
ATOM     66  C   UNL A   1      44.705  34.881  32.377  1.00  0.00     0.000 A 
ENDBRANCH  47  61
BRANCH  48  67
ATOM     67  C   UNL A   1      42.155  23.336  27.560  1.00  0.00    -0.014 A 
ATOM     68  C   UNL A   1      42.432  23.096  26.206  1.00  0.00     0.009 A 
ATOM     69  C   UNL A   1      41.598  22.305  28.333  1.00  0.00     0.009 A 
ATOM     70  C   UNL A   1      42.137  21.857  25.632  1.00  0.00     0.001 A 
ATOM     71  C   UNL A   1      41.329  21.059  27.764  1.00  0.00     0.001 A 
ATOM     72  C   UNL A   1      41.590  20.839  26.412  1.00  0.00     0.000 A 
ENDBRANCH  48  67
BRANCH  60  73
ATOM     73  C   UNL A   1      47.927  26.276  30.098  1.00  0.00    -0.014 A 
ATOM     74  C   UNL A   1      48.851  26.359  29.046  1.00  0.00     0.009 A 
ATOM     75  C   UNL A   1      48.344  25.757  31.334  1.00  0.00     0.009 A 
ATOM     76  C   UNL A   1      50.161  25.907  29.221  1.00  0.00     0.001 A 
ATOM     77  C   UNL A   1      49.660  25.331  31.514  1.00  0.00     0.001 A 
ATOM     78  C   UNL A   1      50.566  25.399  30.456  1.00  0.00     0.000 A 
ENDBRANCH  60  73
ENDBRANCH  34  35
ENDBRANCH  26  29
ENDBRANCH  24  25
ENDBRANCH  23  24
ENDBRANCH   1  23
TORSDOF 13
ENDMDL
MODEL 2
REMARK VINA RESULT:     -11.5      3.247      4.915
REMARK SMILES O=C(Cc1cccc(-c2ccn(C(F)F)c(=O)c2)c1)NCCCNC(=O)c1ccc(-c2c3nc(c(-c4ccccc4)c4ccc([nH]4)c(-c4ccccc4)c4nc(c(-c5ccccc5)c5ccc2[nH]5)C=C4)C=C3)cc1
REMARK SMILES IDX 21 1 20 2 1 3 2 4 3 6 4 7 5 8 19 9 6 10 8 11 7 12 9 13 10 14
REMARK SMILES IDX 18 15 11 16 16 17 12 18 17 19 13 20 14 21 15 22 22 23 23 24
REMARK SMILES IDX 24 25 25 26 26 28 27 29 28 30 74 31 29 32 73 33 30 34 31 35
REMARK SMILES IDX 32 36 67 37 33 38 72 39 66 40 68 41 34 42 71 43 65 44 64 45
REMARK SMILES IDX 35 47 57 48 42 49 56 50 43 51 46 52 55 53 69 54 44 55 45 56
REMARK SMILES IDX 54 58 70 59 47 60 36 61 37 62 41 63 38 64 40 65 39 66 58 67
REMARK SMILES IDX 59 68 63 69 60 70 62 71 61 72 48 73 49 74 53 75 50 76 52 77
REMARK SMILES IDX 51 78
REMARK H PARENT 20 5 24 27 68 46 46 57
REMARK Flexibility Score: inf
ROOT
ATOM      1  C   UNL A   1      34.534  33.710  29.741  1.00  0.00     0.117 C 
ENDROOT
BRANCH   1   2
ATOM      2  N   UNL A   1      34.443  32.336  29.294  1.00  0.00    -0.356 N 
ATOM      3  O   UNL A   1      35.876  32.571  27.508  1.00  0.00    -0.275 OA
ATOM      4  C   UNL A   1      35.201  31.858  28.243  1.00  0.00     0.224 C 
ATOM      5  H   UNL A   1      33.823  31.725  29.753  1.00  0.00     0.163 HD
BRANCH   4   6
ATOM      6  C   UNL A   1      35.154  30.346  28.108  1.00  0.00     0.135 C 
BRANCH   6   7
ATOM      7  C   UNL A   1      34.109  29.843  27.132  1.00  0.00    -0.038 A 
ATOM      8  C   UNL A   1      32.926  30.546  26.856  1.00  0.00     0.004 A 
ATOM      9  C   UNL A   1      34.357  28.657  26.427  1.00  0.00     0.013 A 
ATOM     10  C   UNL A   1      32.006  30.064  25.925  1.00  0.00     0.001 A 
ATOM     11  C   UNL A   1      33.431  28.159  25.496  1.00  0.00    -0.018 A 
ATOM     12  C   UNL A   1      32.254  28.872  25.251  1.00  0.00     0.009 A 
BRANCH  11  13
ATOM     13  C   UNL A   1      33.688  26.870  24.829  1.00  0.00    -0.011 A 
ATOM     14  C   UNL A   1      34.147  25.704  25.560  1.00  0.00     0.027 A 
ATOM     15  C   UNL A   1      33.498  26.777  23.502  1.00  0.00     0.080 A 
ATOM     16  C   UNL A   1      34.383  24.552  24.923  1.00  0.00     0.095 A 
ATOM     17  C   UNL A   1      33.750  25.499  22.780  1.00  0.00     0.255 A 
ATOM     18  N   UNL A   1      34.193  24.441  23.559  1.00  0.00    -0.258 N 
ATOM     19  O   UNL A   1      33.557  25.463  21.569  1.00  0.00    -0.269 OA
BRANCH  18  20
ATOM     20  C   UNL A   1      34.455  23.197  22.885  1.00  0.00     0.451 C 
ATOM     21  F   UNL A   1      35.338  22.441  23.581  1.00  0.00    -0.185 F 
ATOM     22  F   UNL A   1      33.316  22.479  22.728  1.00  0.00    -0.185 F 
ENDBRANCH  18  20
ENDBRANCH  11  13
ENDBRANCH   6   7
ENDBRANCH   4   6
ENDBRANCH   1   2
BRANCH   1  23
ATOM     23  C   UNL A   1      34.372  33.851  31.247  1.00  0.00     0.042 C 
BRANCH  23  24
ATOM     24  C   UNL A   1      34.634  32.578  32.047  1.00  0.00     0.118 C 
BRANCH  24  25
ATOM     25  N   UNL A   1      35.264  32.813  33.338  1.00  0.00    -0.352 N 
ATOM     26  C   UNL A   1      36.508  32.423  33.779  1.00  0.00     0.251 C 
ATOM     27  H   UNL A   1      34.726  33.322  33.986  1.00  0.00     0.163 HD
ATOM     28  O   UNL A   1      36.841  32.623  34.944  1.00  0.00    -0.269 OA
BRANCH  26  29
ATOM     29  C   UNL A   1      37.428  31.719  32.859  1.00  0.00     0.039 A 
ATOM     30  C   UNL A   1      37.536  32.170  31.541  1.00  0.00     0.014 A 
ATOM     31  C   UNL A   1      38.210  30.650  33.303  1.00  0.00     0.014 A 
ATOM     32  C   UNL A   1      38.499  31.613  30.696  1.00  0.00     0.010 A 
ATOM     33  C   UNL A   1      39.213  30.142  32.482  1.00  0.00     0.010 A 
ATOM     34  C   UNL A   1      39.379  30.630  31.176  1.00  0.00    -0.014 A 
BRANCH  34  35
ATOM     35  C   UNL A   1      40.505  30.126  30.349  1.00  0.00     0.031 A 
ATOM     36  C   UNL A   1      41.712  30.986  30.101  1.00  0.00     0.074 A 
ATOM     37  C   UNL A   1      40.403  28.924  29.747  1.00  0.00     0.049 A 
ATOM     38  N   UNL A   1      42.741  30.760  29.324  1.00  0.00    -0.248 NA
ATOM     39  C   UNL A   1      41.756  32.281  30.799  1.00  0.00     0.031 C 
ATOM     40  C   UNL A   1      39.272  28.002  29.875  1.00  0.00     0.029 A 
ATOM     41  N   UNL A   1      41.261  28.278  28.892  1.00  0.00    -0.354 N 
ATOM     42  C   UNL A   1      43.544  31.889  29.425  1.00  0.00     0.074 A 
ATOM     43  C   UNL A   1      42.864  32.815  30.305  1.00  0.00     0.031 C 
ATOM     44  C   UNL A   1      39.515  26.904  29.142  1.00  0.00     0.029 A 
ATOM     45  C   UNL A   1      40.794  27.061  28.457  1.00  0.00     0.049 A 
ATOM     46  H   UNL A   1      42.130  28.651  28.616  1.00  0.00     0.167 HD
ATOM     47  C   UNL A   1      44.745  32.128  28.848  1.00  0.00     0.031 A 
ATOM     48  C   UNL A   1      41.325  26.176  27.593  1.00  0.00     0.031 A 
ATOM     49  C   UNL A   1      45.430  31.206  27.981  1.00  0.00     0.049 A 
ATOM     50  C   UNL A   1      42.647  26.477  26.946  1.00  0.00     0.074 A 
ATOM     51  C   UNL A   1      46.679  31.337  27.399  1.00  0.00     0.029 A 
ATOM     52  N   UNL A   1      44.923  29.984  27.570  1.00  0.00    -0.354 N 
ATOM     53  N   UNL A   1      43.420  27.523  27.099  1.00  0.00    -0.248 NA
ATOM     54  C   UNL A   1      43.168  25.472  26.008  1.00  0.00     0.031 C 
ATOM     55  C   UNL A   1      46.907  30.215  26.596  1.00  0.00     0.029 A 
ATOM     56  C   UNL A   1      45.822  29.363  26.718  1.00  0.00     0.049 A 
ATOM     57  H   UNL A   1      44.052  29.612  27.841  1.00  0.00     0.167 HD
ATOM     58  C   UNL A   1      44.531  27.293  26.296  1.00  0.00     0.074 A 
ATOM     59  C   UNL A   1      44.336  26.002  25.669  1.00  0.00     0.031 C 
ATOM     60  C   UNL A   1      45.614  28.080  26.099  1.00  0.00     0.031 A 
BRANCH  47  61
ATOM     61  C   UNL A   1      45.395  33.453  29.130  1.00  0.00    -0.014 A 
ATOM     62  C   UNL A   1      46.280  33.613  30.208  1.00  0.00     0.009 A 
ATOM     63  C   UNL A   1      45.149  34.547  28.285  1.00  0.00     0.009 A 
ATOM     64  C   UNL A   1      46.877  34.850  30.455  1.00  0.00     0.001 A 
ATOM     65  C   UNL A   1      45.768  35.776  28.518  1.00  0.00     0.001 A 
ATOM     66  C   UNL A   1      46.624  35.929  29.608  1.00  0.00     0.000 A 
ENDBRANCH  47  61
BRANCH  48  67
ATOM     67  C   UNL A   1      40.605  24.912  27.286  1.00  0.00    -0.014 A 
ATOM     68  C   UNL A   1      39.440  24.931  26.505  1.00  0.00     0.009 A 
ATOM     69  C   UNL A   1      41.074  23.684  27.779  1.00  0.00     0.009 A 
ATOM     70  C   UNL A   1      38.746  23.747  26.242  1.00  0.00     0.001 A 
ATOM     71  C   UNL A   1      40.394  22.500  27.491  1.00  0.00     0.001 A 
ATOM     72  C   UNL A   1      39.226  22.533  26.731  1.00  0.00     0.000 A 
ENDBRANCH  48  67
BRANCH  60  73
ATOM     73  C   UNL A   1      46.687  27.558  25.187  1.00  0.00    -0.014 A 
ATOM     74  C   UNL A   1      46.790  27.999  23.859  1.00  0.00     0.009 A 
ATOM     75  C   UNL A   1      47.636  26.647  25.679  1.00  0.00     0.009 A 
ATOM     76  C   UNL A   1      47.807  27.516  23.033  1.00  0.00     0.001 A 
ATOM     77  C   UNL A   1      48.666  26.187  24.860  1.00  0.00     0.001 A 
ATOM     78  C   UNL A   1      48.747  26.615  23.535  1.00  0.00     0.000 A 
ENDBRANCH  60  73
ENDBRANCH  34  35
ENDBRANCH  26  29
ENDBRANCH  24  25
ENDBRANCH  23  24
ENDBRANCH   1  23
TORSDOF 13
ENDMDL
MODEL 3
REMARK VINA RESULT:     -11.4      3.274      7.556
REMARK SMILES O=C(Cc1cccc(-c2ccn(C(F)F)c(=O)c2)c1)NCCCNC(=O)c1ccc(-c2c3nc(c(-c4ccccc4)c4ccc([nH]4)c(-c4ccccc4)c4nc(c(-c5ccccc5)c5ccc2[nH]5)C=C4)C=C3)cc1
REMARK SMILES IDX 21 1 20 2 1 3 2 4 3 6 4 7 5 8 19 9 6 10 8 11 7 12 9 13 10 14
REMARK SMILES IDX 18 15 11 16 16 17 12 18 17 19 13 20 14 21 15 22 22 23 23 24
REMARK SMILES IDX 24 25 25 26 26 28 27 29 28 30 74 31 29 32 73 33 30 34 31 35
REMARK SMILES IDX 32 36 67 37 33 38 72 39 66 40 68 41 34 42 71 43 65 44 64 45
REMARK SMILES IDX 35 47 57 48 42 49 56 50 43 51 46 52 55 53 69 54 44 55 45 56
REMARK SMILES IDX 54 58 70 59 47 60 36 61 37 62 41 63 38 64 40 65 39 66 58 67
REMARK SMILES IDX 59 68 63 69 60 70 62 71 61 72 48 73 49 74 53 75 50 76 52 77
REMARK SMILES IDX 51 78
REMARK H PARENT 20 5 24 27 68 46 46 57
REMARK Flexibility Score: inf
ROOT
ATOM      1  C   UNL A   1      34.389  33.670  29.747  1.00  0.00     0.117 C 
ENDROOT
BRANCH   1   2
ATOM      2  N   UNL A   1      34.406  32.307  29.260  1.00  0.00    -0.356 N 
ATOM      3  O   UNL A   1      35.895  32.685  27.545  1.00  0.00    -0.275 OA
ATOM      4  C   UNL A   1      35.237  31.909  28.230  1.00  0.00     0.224 C 
ATOM      5  H   UNL A   1      33.807  31.645  29.673  1.00  0.00     0.163 HD
BRANCH   4   6
ATOM      6  C   UNL A   1      35.293  30.402  28.053  1.00  0.00     0.135 C 
BRANCH   6   7
ATOM      7  C   UNL A   1      34.139  29.829  27.255  1.00  0.00    -0.038 A 
ATOM      8  C   UNL A   1      32.899  30.478  27.137  1.00  0.00     0.004 A 
ATOM      9  C   UNL A   1      34.330  28.631  26.552  1.00  0.00     0.013 A 
ATOM     10  C   UNL A   1      31.874  29.931  26.365  1.00  0.00     0.001 A 
ATOM     11  C   UNL A   1      33.301  28.068  25.781  1.00  0.00    -0.018 A 
ATOM     12  C   UNL A   1      32.071  28.728  25.693  1.00  0.00     0.009 A 
BRANCH  11  13
ATOM     13  C   UNL A   1      33.511  26.769  25.119  1.00  0.00    -0.011 A 
ATOM     14  C   UNL A   1      33.624  25.532  25.868  1.00  0.00     0.027 A 
ATOM     15  C   UNL A   1      33.609  26.733  23.779  1.00  0.00     0.080 A 
ATOM     16  C   UNL A   1      33.827  24.371  25.238  1.00  0.00     0.095 A 
ATOM     17  C   UNL A   1      33.830  25.446  23.062  1.00  0.00     0.255 A 
ATOM     18  N   UNL A   1      33.931  24.318  23.861  1.00  0.00    -0.258 N 
ATOM     19  O   UNL A   1      33.908  25.464  21.838  1.00  0.00    -0.269 OA
BRANCH  18  20
ATOM     20  C   UNL A   1      34.156  23.062  23.195  1.00  0.00     0.451 C 
ATOM     21  F   UNL A   1      33.315  22.909  22.143  1.00  0.00    -0.185 F 
ATOM     22  F   UNL A   1      35.427  22.977  22.733  1.00  0.00    -0.185 F 
ENDBRANCH  18  20
ENDBRANCH  11  13
ENDBRANCH   6   7
ENDBRANCH   4   6
ENDBRANCH   1   2
BRANCH   1  23
ATOM     23  C   UNL A   1      34.553  33.757  31.257  1.00  0.00     0.042 C 
BRANCH  23  24
ATOM     24  C   UNL A   1      34.788  32.424  31.959  1.00  0.00     0.118 C 
BRANCH  24  25
ATOM     25  N   UNL A   1      35.456  32.545  33.246  1.00  0.00    -0.352 N 
ATOM     26  C   UNL A   1      36.708  32.109  33.618  1.00  0.00     0.251 C 
ATOM     27  H   UNL A   1      34.942  33.003  33.949  1.00  0.00     0.163 HD
ATOM     28  O   UNL A   1      37.075  32.209  34.785  1.00  0.00    -0.269 OA
BRANCH  26  29
ATOM     29  C   UNL A   1      37.594  31.477  32.617  1.00  0.00     0.039 A 
ATOM     30  C   UNL A   1      37.542  31.924  31.294  1.00  0.00     0.014 A 
ATOM     31  C   UNL A   1      38.501  30.481  32.987  1.00  0.00     0.014 A 
ATOM     32  C   UNL A   1      38.465  31.442  30.364  1.00  0.00     0.010 A 
ATOM     33  C   UNL A   1      39.462  30.051  32.077  1.00  0.00     0.010 A 
ATOM     34  C   UNL A   1      39.465  30.540  30.760  1.00  0.00    -0.014 A 
BRANCH  34  35
ATOM     35  C   UNL A   1      40.548  30.125  29.833  1.00  0.00     0.031 A 
ATOM     36  C   UNL A   1      40.497  28.787  29.152  1.00  0.00     0.074 A 
ATOM     37  C   UNL A   1      41.627  30.918  29.672  1.00  0.00     0.049 A 
ATOM     38  N   UNL A   1      41.396  28.210  28.395  1.00  0.00    -0.248 NA
ATOM     39  C   UNL A   1      39.286  27.980  29.369  1.00  0.00     0.031 C 
ATOM     40  C   UNL A   1      41.821  32.227  30.300  1.00  0.00     0.029 A 
ATOM     41  N   UNL A   1      42.773  30.730  28.938  1.00  0.00    -0.354 N 
ATOM     42  C   UNL A   1      40.869  26.969  28.062  1.00  0.00     0.074 A 
ATOM     43  C   UNL A   1      39.591  26.860  28.732  1.00  0.00     0.031 C 
ATOM     44  C   UNL A   1      43.004  32.730  29.911  1.00  0.00     0.029 A 
ATOM     45  C   UNL A   1      43.671  31.765  29.044  1.00  0.00     0.049 A 
ATOM     46  H   UNL A   1      42.935  29.930  28.388  1.00  0.00     0.167 HD
ATOM     47  C   UNL A   1      41.395  26.013  27.261  1.00  0.00     0.031 A 
ATOM     48  C   UNL A   1      44.900  31.916  28.517  1.00  0.00     0.031 A 
ATOM     49  C   UNL A   1      42.660  26.122  26.585  1.00  0.00     0.049 A 
ATOM     50  C   UNL A   1      45.472  30.828  27.652  1.00  0.00     0.074 A 
ATOM     51  C   UNL A   1      43.247  25.229  25.704  1.00  0.00     0.029 A 
ATOM     52  N   UNL A   1      43.536  27.187  26.717  1.00  0.00    -0.354 N 
ATOM     53  N   UNL A   1      44.933  29.687  27.300  1.00  0.00    -0.248 NA
ATOM     54  C   UNL A   1      46.820  31.052  27.112  1.00  0.00     0.031 C 
ATOM     55  C   UNL A   1      44.499  25.733  25.341  1.00  0.00     0.029 A 
ATOM     56  C   UNL A   1      44.671  26.962  25.956  1.00  0.00     0.049 A 
ATOM     57  H   UNL A   1      43.376  27.987  27.270  1.00  0.00     0.167 HD
ATOM     58  C   UNL A   1      45.867  29.067  26.478  1.00  0.00     0.074 A 
ATOM     59  C   UNL A   1      46.998  29.965  26.374  1.00  0.00     0.031 C 
ATOM     60  C   UNL A   1      45.791  27.862  25.864  1.00  0.00     0.031 A 
BRANCH  47  61
ATOM     61  C   UNL A   1      40.600  24.751  27.080  1.00  0.00    -0.014 A 
ATOM     62  C   UNL A   1      39.427  24.736  26.309  1.00  0.00     0.009 A 
ATOM     63  C   UNL A   1      41.049  23.552  27.655  1.00  0.00     0.009 A 
ATOM     64  C   UNL A   1      38.701  23.555  26.148  1.00  0.00     0.001 A 
ATOM     65  C   UNL A   1      40.337  22.367  27.471  1.00  0.00     0.001 A 
ATOM     66  C   UNL A   1      39.159  22.370  26.725  1.00  0.00     0.000 A 
ENDBRANCH  47  61
BRANCH  48  67
ATOM     67  C   UNL A   1      45.680  33.151  28.790  1.00  0.00    -0.014 A 
ATOM     68  C   UNL A   1      46.534  33.220  29.901  1.00  0.00     0.009 A 
ATOM     69  C   UNL A   1      45.569  34.268  27.947  1.00  0.00     0.009 A 
ATOM     70  C   UNL A   1      47.245  34.391  30.175  1.00  0.00     0.001 A 
ATOM     71  C   UNL A   1      46.301  35.427  28.208  1.00  0.00     0.001 A 
ATOM     72  C   UNL A   1      47.131  35.491  29.326  1.00  0.00     0.000 A 
ENDBRANCH  48  67
BRANCH  60  73
ATOM     73  C   UNL A   1      46.952  27.455  25.003  1.00  0.00    -0.014 A 
ATOM     74  C   UNL A   1      47.056  27.885  23.672  1.00  0.00     0.009 A 
ATOM     75  C   UNL A   1      47.978  26.666  25.548  1.00  0.00     0.009 A 
ATOM     76  C   UNL A   1      48.154  27.512  22.894  1.00  0.00     0.001 A 
ATOM     77  C   UNL A   1      49.086  26.316  24.776  1.00  0.00     0.001 A 
ATOM     78  C   UNL A   1      49.170  26.733  23.448  1.00  0.00     0.000 A 
ENDBRANCH  60  73
ENDBRANCH  34  35
ENDBRANCH  26  29
ENDBRANCH  24  25
ENDBRANCH  23  24
ENDBRANCH   1  23
TORSDOF 13
ENDMDL
