MODEL 1
REMARK VINA RESULT:     -12.3      0.000      0.000
REMARK SMILES O=C(NCCCNC(=O)[C@H]1CC2(CCN(C(=O)c3cccc(O)c3)CC2)CN1C(=O)C1CC1)c1ccc(-c2c3nc(c(-c4ccccc4)c4ccc([nH]4)c(-c4ccccc4)c4nc(c(-c5ccccc5)c5ccc2[nH]5)C=C4)C=C3)cc1
REMARK SMILES IDX 5 1 4 2 3 3 1 4 2 5 34 7 35 8 81 9 36 10 80 11 37 12 38 13
REMARK SMILES IDX 39 14 74 15 40 16 79 17 73 18 75 19 41 20 78 21 72 22 71 23
REMARK SMILES IDX 42 25 64 26 49 27 63 28 50 29 53 30 62 31 76 32 51 33 52 34
REMARK SMILES IDX 61 36 77 37 54 38 43 39 44 40 48 41 45 42 47 43 46 44 65 45
REMARK SMILES IDX 66 46 70 47 67 48 69 49 68 50 55 51 56 52 60 53 57 54 59 55
REMARK SMILES IDX 58 56 6 57 7 58 8 59 9 61 10 62 11 63 28 64 12 65 27 66
REMARK SMILES IDX 13 67 26 68 14 69 25 70 15 71 16 72 17 73 29 74 30 75 31 76
REMARK SMILES IDX 32 77 33 78 18 79 19 80 24 81 20 82 22 83 21 84 23 85
REMARK H PARENT 3 6 75 24 53 35 7 60 23 86
REMARK Flexibility Score: inf
ROOT
ATOM      1  C   UNL A   1      38.238  20.349  24.866  1.00  0.00     0.042 C 
ENDROOT
BRANCH   1   2
ATOM      2  C   UNL A   1      39.009  20.058  26.145  1.00  0.00     0.118 C 
BRANCH   2   3
ATOM      3  N   UNL A   1      40.193  19.250  25.901  1.00  0.00    -0.352 N 
ATOM      4  O   UNL A   1      42.390  18.897  25.519  1.00  0.00    -0.269 OA
ATOM      5  C   UNL A   1      41.511  19.638  25.933  1.00  0.00     0.251 C 
ATOM      6  H   UNL A   1      40.030  18.304  25.683  1.00  0.00     0.163 HD
BRANCH   5   7
ATOM      7  C   UNL A   1      41.846  20.977  26.459  1.00  0.00     0.039 A 
ATOM      8  C   UNL A   1      42.090  22.038  25.582  1.00  0.00     0.014 A 
ATOM      9  C   UNL A   1      41.922  21.167  27.841  1.00  0.00     0.014 A 
ATOM     10  C   UNL A   1      42.525  23.257  26.083  1.00  0.00     0.010 A 
ATOM     11  C   UNL A   1      42.278  22.418  28.345  1.00  0.00     0.010 A 
ATOM     12  C   UNL A   1      42.598  23.467  27.469  1.00  0.00    -0.014 A 
BRANCH  12  13
ATOM     13  C   UNL A   1      42.920  24.821  27.979  1.00  0.00     0.031 A 
ATOM     14  C   UNL A   1      44.333  25.226  28.282  1.00  0.00     0.074 A 
ATOM     15  C   UNL A   1      41.907  25.693  28.152  1.00  0.00     0.049 A 
ATOM     16  N   UNL A   1      44.777  26.372  28.734  1.00  0.00    -0.248 NA
ATOM     17  C   UNL A   1      45.382  24.220  28.058  1.00  0.00     0.031 C 
ATOM     18  C   UNL A   1      40.493  25.404  27.893  1.00  0.00     0.029 A 
ATOM     19  N   UNL A   1      41.908  26.997  28.568  1.00  0.00    -0.354 N 
ATOM     20  C   UNL A   1      46.151  26.220  28.868  1.00  0.00     0.074 A 
ATOM     21  C   UNL A   1      46.467  24.866  28.467  1.00  0.00     0.031 C 
ATOM     22  C   UNL A   1      39.771  26.513  28.110  1.00  0.00     0.029 A 
ATOM     23  C   UNL A   1      40.659  27.565  28.588  1.00  0.00     0.049 A 
ATOM     24  H   UNL A   1      42.726  27.481  28.828  1.00  0.00     0.167 HD
ATOM     25  C   UNL A   1      47.063  27.131  29.286  1.00  0.00     0.031 A 
ATOM     26  C   UNL A   1      40.263  28.793  28.967  1.00  0.00     0.031 A 
ATOM     27  C   UNL A   1      46.740  28.478  29.683  1.00  0.00     0.049 A 
ATOM     28  C   UNL A   1      41.292  29.768  29.455  1.00  0.00     0.074 A 
ATOM     29  C   UNL A   1      47.598  29.484  30.094  1.00  0.00     0.029 A 
ATOM     30  N   UNL A   1      45.459  29.006  29.720  1.00  0.00    -0.354 N 
ATOM     31  N   UNL A   1      42.591  29.617  29.548  1.00  0.00    -0.248 NA
ATOM     32  C   UNL A   1      40.800  31.081  29.889  1.00  0.00     0.031 C 
ATOM     33  C   UNL A   1      46.829  30.604  30.427  1.00  0.00     0.029 A 
ATOM     34  C   UNL A   1      45.500  30.315  30.170  1.00  0.00     0.049 A 
ATOM     35  H   UNL A   1      44.641  28.522  29.463  1.00  0.00     0.167 HD
ATOM     36  C   UNL A   1      43.075  30.821  30.038  1.00  0.00     0.074 A 
ATOM     37  C   UNL A   1      41.932  31.698  30.199  1.00  0.00     0.031 C 
ATOM     38  C   UNL A   1      44.351  31.169  30.329  1.00  0.00     0.031 A 
BRANCH  25  39
ATOM     39  C   UNL A   1      48.500  26.696  29.365  1.00  0.00    -0.014 A 
ATOM     40  C   UNL A   1      49.393  26.929  28.308  1.00  0.00     0.009 A 
ATOM     41  C   UNL A   1      48.981  26.096  30.540  1.00  0.00     0.009 A 
ATOM     42  C   UNL A   1      50.733  26.547  28.417  1.00  0.00     0.001 A 
ATOM     43  C   UNL A   1      50.326  25.738  30.656  1.00  0.00     0.001 A 
ATOM     44  C   UNL A   1      51.199  25.958  29.592  1.00  0.00     0.000 A 
ENDBRANCH  25  39
BRANCH  26  45
ATOM     45  C   UNL A   1      38.823  29.155  28.916  1.00  0.00    -0.014 A 
ATOM     46  C   UNL A   1      38.005  28.993  30.043  1.00  0.00     0.009 A 
ATOM     47  C   UNL A   1      38.265  29.678  27.739  1.00  0.00     0.009 A 
ATOM     48  C   UNL A   1      36.651  29.328  29.985  1.00  0.00     0.001 A 
ATOM     49  C   UNL A   1      36.919  30.041  27.693  1.00  0.00     0.001 A 
ATOM     50  C   UNL A   1      36.111  29.857  28.813  1.00  0.00     0.000 A 
ENDBRANCH  26  45
BRANCH  38  51
ATOM     51  C   UNL A   1      44.575  32.568  30.825  1.00  0.00    -0.014 A 
ATOM     52  C   UNL A   1      44.568  32.863  32.197  1.00  0.00     0.009 A 
ATOM     53  C   UNL A   1      44.817  33.600  29.906  1.00  0.00     0.009 A 
ATOM     54  C   UNL A   1      44.765  34.173  32.637  1.00  0.00     0.001 A 
ATOM     55  C   UNL A   1      45.041  34.904  30.349  1.00  0.00     0.001 A 
ATOM     56  C   UNL A   1      45.006  35.191  31.713  1.00  0.00     0.000 A 
ENDBRANCH  38  51
ENDBRANCH  12  13
ENDBRANCH   5   7
ENDBRANCH   2   3
ENDBRANCH   1   2
BRANCH   1  57
ATOM     57  C   UNL A   1      36.924  21.073  25.121  1.00  0.00     0.117 C 
BRANCH  57  58
ATOM     58  N   UNL A   1      36.563  21.877  23.973  1.00  0.00    -0.354 N 
ATOM     59  C   UNL A   1      35.621  22.844  23.843  1.00  0.00     0.242 C 
ATOM     60  H   UNL A   1      37.083  21.692  23.157  1.00  0.00     0.163 HD
ATOM     61  O   UNL A   1      35.328  23.190  22.693  1.00  0.00    -0.273 OA
BRANCH  59  62
ATOM     62  C   UNL A   1      34.832  23.385  25.034  1.00  0.00     0.175 C 
ATOM     63  C   UNL A   1      34.378  24.808  24.631  1.00  0.00     0.044 C 
ATOM     64  N   UNL A   1      33.622  22.750  25.541  1.00  0.00    -0.330 N 
ATOM     65  C   UNL A   1      33.005  25.067  25.288  1.00  0.00    -0.006 C 
ATOM     66  C   UNL A   1      32.716  23.771  26.050  1.00  0.00     0.127 C 
ATOM     67  C   UNL A   1      31.872  25.320  24.260  1.00  0.00     0.030 C 
ATOM     68  C   UNL A   1      33.077  26.283  26.237  1.00  0.00     0.030 C 
ATOM     69  C   UNL A   1      31.990  26.664  23.545  1.00  0.00     0.120 C 
ATOM     70  C   UNL A   1      33.207  27.605  25.476  1.00  0.00     0.120 C 
ATOM     71  N   UNL A   1      32.131  27.757  24.504  1.00  0.00    -0.339 N 
ATOM     72  C   UNL A   1      31.498  28.996  24.407  1.00  0.00     0.253 C 
ATOM     73  O   UNL A   1      31.866  29.993  25.025  1.00  0.00    -0.269 OA
BRANCH  64  74
ATOM     74  C   UNL A   1      33.417  21.468  26.044  1.00  0.00     0.226 C 
ATOM     75  O   UNL A   1      33.672  21.240  27.229  1.00  0.00    -0.275 OA
BRANCH  74  76
ATOM     76  C   UNL A   1      32.854  20.305  25.304  1.00  0.00     0.079 C 
ATOM     77  C   UNL A   1      32.527  19.988  23.880  1.00  0.00     0.014 C 
ATOM     78  C   UNL A   1      33.792  19.457  24.472  1.00  0.00     0.014 C 
ENDBRANCH  74  76
ENDBRANCH  64  74
BRANCH  72  79
ATOM     79  C   UNL A   1      30.306  29.139  23.545  1.00  0.00     0.043 A 
ATOM     80  C   UNL A   1      29.173  28.345  23.764  1.00  0.00     0.014 A 
ATOM     81  C   UNL A   1      30.286  30.146  22.576  1.00  0.00     0.060 A 
ATOM     82  C   UNL A   1      28.032  28.535  22.982  1.00  0.00     0.005 A 
ATOM     83  C   UNL A   1      29.142  30.326  21.809  1.00  0.00     0.116 A 
ATOM     84  C   UNL A   1      28.017  29.527  21.998  1.00  0.00     0.046 A 
BRANCH  83  85
ATOM     85  O   UNL A   1      29.156  31.316  20.870  1.00  0.00    -0.508 OA
ATOM     86  H   UNL A   1      28.632  31.236  20.098  1.00  0.00     0.293 HD
ENDBRANCH  83  85
ENDBRANCH  72  79
ENDBRANCH  59  62
ENDBRANCH  57  58
ENDBRANCH   1  57
TORSDOF 14
ENDMDL
MODEL 2
REMARK VINA RESULT:     -12.1      3.272      9.490
REMARK SMILES O=C(NCCCNC(=O)[C@H]1CC2(CCN(C(=O)c3cccc(O)c3)CC2)CN1C(=O)C1CC1)c1ccc(-c2c3nc(c(-c4ccccc4)c4ccc([nH]4)c(-c4ccccc4)c4nc(c(-c5ccccc5)c5ccc2[nH]5)C=C4)C=C3)cc1
REMARK SMILES IDX 5 1 4 2 3 3 1 4 2 5 34 7 35 8 81 9 36 10 80 11 37 12 38 13
REMARK SMILES IDX 39 14 74 15 40 16 79 17 73 18 75 19 41 20 78 21 72 22 71 23
REMARK SMILES IDX 42 25 64 26 49 27 63 28 50 29 53 30 62 31 76 32 51 33 52 34
REMARK SMILES IDX 61 36 77 37 54 38 43 39 44 40 48 41 45 42 47 43 46 44 65 45
REMARK SMILES IDX 66 46 70 47 67 48 69 49 68 50 55 51 56 52 60 53 57 54 59 55
REMARK SMILES IDX 58 56 6 57 7 58 8 59 9 61 10 62 11 63 28 64 12 65 27 66
REMARK SMILES IDX 13 67 26 68 14 69 25 70 15 71 16 72 17 73 29 74 30 75 31 76
REMARK SMILES IDX 32 77 33 78 18 79 19 80 24 81 20 82 22 83 21 84 23 85
REMARK H PARENT 3 6 75 24 53 35 7 60 23 86
REMARK Flexibility Score: inf
ROOT
ATOM      1  C   UNL A   1      31.359  32.223  26.845  1.00  0.00     0.042 C 
ENDROOT
BRANCH   1   2
ATOM      2  C   UNL A   1      32.684  32.850  27.252  1.00  0.00     0.118 C 
BRANCH   2   3
ATOM      3  N   UNL A   1      32.517  34.193  27.781  1.00  0.00    -0.352 N 
ATOM      4  O   UNL A   1      32.865  35.877  29.244  1.00  0.00    -0.269 OA
ATOM      5  C   UNL A   1      33.241  34.816  28.770  1.00  0.00     0.251 C 
ATOM      6  H   UNL A   1      31.791  34.725  27.381  1.00  0.00     0.163 HD
BRANCH   5   7
ATOM      7  C   UNL A   1      34.474  34.169  29.264  1.00  0.00     0.039 A 
ATOM      8  C   UNL A   1      35.713  34.502  28.712  1.00  0.00     0.014 A 
ATOM      9  C   UNL A   1      34.383  33.218  30.283  1.00  0.00     0.014 A 
ATOM     10  C   UNL A   1      36.848  33.801  29.096  1.00  0.00     0.010 A 
ATOM     11  C   UNL A   1      35.538  32.573  30.727  1.00  0.00     0.010 A 
ATOM     12  C   UNL A   1      36.775  32.848  30.125  1.00  0.00    -0.014 A 
BRANCH  12  13
ATOM     13  C   UNL A   1      38.025  32.222  30.619  1.00  0.00     0.031 A 
ATOM     14  C   UNL A   1      38.790  32.806  31.771  1.00  0.00     0.074 A 
ATOM     15  C   UNL A   1      38.455  31.098  30.012  1.00  0.00     0.049 A 
ATOM     16  N   UNL A   1      39.898  32.377  32.319  1.00  0.00    -0.248 NA
ATOM     17  C   UNL A   1      38.249  34.029  32.384  1.00  0.00     0.031 C 
ATOM     18  C   UNL A   1      37.793  30.445  28.879  1.00  0.00     0.029 A 
ATOM     19  N   UNL A   1      39.536  30.298  30.271  1.00  0.00    -0.354 N 
ATOM     20  C   UNL A   1      40.201  33.286  33.325  1.00  0.00     0.074 A 
ATOM     21  C   UNL A   1      39.169  34.299  33.301  1.00  0.00     0.031 C 
ATOM     22  C   UNL A   1      38.454  29.320  28.573  1.00  0.00     0.029 A 
ATOM     23  C   UNL A   1      39.621  29.210  29.438  1.00  0.00     0.049 A 
ATOM     24  H   UNL A   1      40.188  30.485  30.984  1.00  0.00     0.167 HD
ATOM     25  C   UNL A   1      41.244  33.270  34.189  1.00  0.00     0.031 A 
ATOM     26  C   UNL A   1      40.547  28.237  29.363  1.00  0.00     0.031 A 
ATOM     27  C   UNL A   1      42.268  32.256  34.207  1.00  0.00     0.049 A 
ATOM     28  C   UNL A   1      41.706  28.265  30.312  1.00  0.00     0.074 A 
ATOM     29  C   UNL A   1      43.349  32.137  35.063  1.00  0.00     0.029 A 
ATOM     30  N   UNL A   1      42.336  31.187  33.326  1.00  0.00    -0.354 N 
ATOM     31  N   UNL A   1      41.961  29.116  31.276  1.00  0.00    -0.248 NA
ATOM     32  C   UNL A   1      42.705  27.200  30.163  1.00  0.00     0.031 C 
ATOM     33  C   UNL A   1      44.099  31.024  34.667  1.00  0.00     0.029 A 
ATOM     34  C   UNL A   1      43.455  30.419  33.602  1.00  0.00     0.049 A 
ATOM     35  H   UNL A   1      41.686  31.001  32.610  1.00  0.00     0.167 HD
ATOM     36  C   UNL A   1      43.141  28.681  31.860  1.00  0.00     0.074 A 
ATOM     37  C   UNL A   1      43.538  27.478  31.155  1.00  0.00     0.031 C 
ATOM     38  C   UNL A   1      43.836  29.228  32.885  1.00  0.00     0.031 A 
BRANCH  25  39
ATOM     39  C   UNL A   1      41.353  34.400  35.174  1.00  0.00    -0.014 A 
ATOM     40  C   UNL A   1      42.047  35.578  34.861  1.00  0.00     0.009 A 
ATOM     41  C   UNL A   1      40.700  34.307  36.414  1.00  0.00     0.009 A 
ATOM     42  C   UNL A   1      42.106  36.630  35.779  1.00  0.00     0.001 A 
ATOM     43  C   UNL A   1      40.738  35.369  37.320  1.00  0.00     0.001 A 
ATOM     44  C   UNL A   1      41.447  36.528  37.004  1.00  0.00     0.000 A 
ENDBRANCH  25  39
BRANCH  26  45
ATOM     45  C   UNL A   1      40.417  27.171  28.337  1.00  0.00    -0.014 A 
ATOM     46  C   UNL A   1      39.700  25.998  28.611  1.00  0.00     0.009 A 
ATOM     47  C   UNL A   1      41.002  27.331  27.071  1.00  0.00     0.009 A 
ATOM     48  C   UNL A   1      39.589  24.997  27.644  1.00  0.00     0.001 A 
ATOM     49  C   UNL A   1      40.864  26.343  26.096  1.00  0.00     0.001 A 
ATOM     50  C   UNL A   1      40.166  25.173  26.386  1.00  0.00     0.000 A 
ENDBRANCH  26  45
BRANCH  38  51
ATOM     51  C   UNL A   1      45.080  28.511  33.321  1.00  0.00    -0.014 A 
ATOM     52  C   UNL A   1      46.339  28.861  32.809  1.00  0.00     0.009 A 
ATOM     53  C   UNL A   1      44.992  27.483  34.273  1.00  0.00     0.009 A 
ATOM     54  C   UNL A   1      47.482  28.172  33.217  1.00  0.00     0.001 A 
ATOM     55  C   UNL A   1      46.139  26.814  34.699  1.00  0.00     0.001 A 
ATOM     56  C   UNL A   1      47.382  27.153  34.165  1.00  0.00     0.000 A 
ENDBRANCH  38  51
ENDBRANCH  12  13
ENDBRANCH   5   7
ENDBRANCH   2   3
ENDBRANCH   1   2
BRANCH   1  57
ATOM     57  C   UNL A   1      31.534  30.981  25.983  1.00  0.00     0.117 C 
BRANCH  57  58
ATOM     58  N   UNL A   1      31.407  29.788  26.791  1.00  0.00    -0.354 N 
ATOM     59  C   UNL A   1      31.624  28.487  26.472  1.00  0.00     0.242 C 
ATOM     60  H   UNL A   1      31.116  29.944  27.719  1.00  0.00     0.163 HD
ATOM     61  O   UNL A   1      31.188  27.637  27.256  1.00  0.00    -0.273 OA
BRANCH  59  62
ATOM     62  C   UNL A   1      32.235  28.062  25.138  1.00  0.00     0.175 C 
ATOM     63  C   UNL A   1      32.878  26.677  25.388  1.00  0.00     0.044 C 
ATOM     64  N   UNL A   1      31.448  27.879  23.925  1.00  0.00    -0.330 N 
ATOM     65  C   UNL A   1      32.749  25.856  24.088  1.00  0.00    -0.006 C 
ATOM     66  C   UNL A   1      32.027  26.806  23.128  1.00  0.00     0.127 C 
ATOM     67  C   UNL A   1      31.907  24.565  24.258  1.00  0.00     0.030 C 
ATOM     68  C   UNL A   1      34.142  25.457  23.554  1.00  0.00     0.030 C 
ATOM     69  C   UNL A   1      32.607  23.490  25.085  1.00  0.00     0.120 C 
ATOM     70  C   UNL A   1      34.809  24.387  24.422  1.00  0.00     0.120 C 
ATOM     71  N   UNL A   1      33.947  23.220  24.569  1.00  0.00    -0.339 N 
ATOM     72  C   UNL A   1      34.520  21.955  24.445  1.00  0.00     0.253 C 
ATOM     73  O   UNL A   1      35.728  21.770  24.319  1.00  0.00    -0.269 OA
BRANCH  64  74
ATOM     74  C   UNL A   1      30.649  28.778  23.221  1.00  0.00     0.226 C 
ATOM     75  O   UNL A   1      31.114  29.346  22.230  1.00  0.00    -0.275 OA
BRANCH  74  76
ATOM     76  C   UNL A   1      29.226  29.109  23.506  1.00  0.00     0.079 C 
ATOM     77  C   UNL A   1      28.036  29.533  22.707  1.00  0.00     0.014 C 
ATOM     78  C   UNL A   1      28.162  28.103  23.124  1.00  0.00     0.014 C 
ENDBRANCH  74  76
ENDBRANCH  64  74
BRANCH  72  79
ATOM     79  C   UNL A   1      33.650  20.760  24.435  1.00  0.00     0.043 A 
ATOM     80  C   UNL A   1      32.955  20.399  23.273  1.00  0.00     0.014 A 
ATOM     81  C   UNL A   1      33.611  19.939  25.565  1.00  0.00     0.060 A 
ATOM     82  C   UNL A   1      32.187  19.232  23.260  1.00  0.00     0.005 A 
ATOM     83  C   UNL A   1      32.846  18.780  25.535  1.00  0.00     0.116 A 
ATOM     84  C   UNL A   1      32.130  18.421  24.396  1.00  0.00     0.046 A 
BRANCH  83  85
ATOM     85  O   UNL A   1      32.828  18.002  26.656  1.00  0.00    -0.508 OA
ATOM     86  H   UNL A   1      32.168  17.346  26.760  1.00  0.00     0.293 HD
ENDBRANCH  83  85
ENDBRANCH  72  79
ENDBRANCH  59  62
ENDBRANCH  57  58
ENDBRANCH   1  57
TORSDOF 14
ENDMDL
MODEL 3
REMARK VINA RESULT:     -12.1      3.006      9.265
REMARK SMILES O=C(NCCCNC(=O)[C@H]1CC2(CCN(C(=O)c3cccc(O)c3)CC2)CN1C(=O)C1CC1)c1ccc(-c2c3nc(c(-c4ccccc4)c4ccc([nH]4)c(-c4ccccc4)c4nc(c(-c5ccccc5)c5ccc2[nH]5)C=C4)C=C3)cc1
REMARK SMILES IDX 5 1 4 2 3 3 1 4 2 5 34 7 35 8 81 9 36 10 80 11 37 12 38 13
REMARK SMILES IDX 39 14 74 15 40 16 79 17 73 18 75 19 41 20 78 21 72 22 71 23
REMARK SMILES IDX 42 25 64 26 49 27 63 28 50 29 53 30 62 31 76 32 51 33 52 34
REMARK SMILES IDX 61 36 77 37 54 38 43 39 44 40 48 41 45 42 47 43 46 44 65 45
REMARK SMILES IDX 66 46 70 47 67 48 69 49 68 50 55 51 56 52 60 53 57 54 59 55
REMARK SMILES IDX 58 56 6 57 7 58 8 59 9 61 10 62 11 63 28 64 12 65 27 66
REMARK SMILES IDX 13 67 26 68 14 69 25 70 15 71 16 72 17 73 29 74 30 75 31 76
REMARK SMILES IDX 32 77 33 78 18 79 19 80 24 81 20 82 22 83 21 84 23 85
REMARK H PARENT 3 6 75 24 53 35 7 60 23 86
REMARK Flexibility Score: inf
ROOT
ATOM      1  C   UNL A   1      31.512  31.704  26.650  1.00  0.00     0.042 C 
ENDROOT
BRANCH   1   2
ATOM      2  C   UNL A   1      32.784  32.487  26.940  1.00  0.00     0.118 C 
BRANCH   2   3
ATOM      3  N   UNL A   1      32.511  33.757  27.592  1.00  0.00    -0.352 N 
ATOM      4  O   UNL A   1      32.729  35.320  29.206  1.00  0.00    -0.269 OA
ATOM      5  C   UNL A   1      33.187  34.342  28.635  1.00  0.00     0.251 C 
ATOM      6  H   UNL A   1      31.742  34.262  27.242  1.00  0.00     0.163 HD
BRANCH   5   7
ATOM      7  C   UNL A   1      34.472  33.755  29.069  1.00  0.00     0.039 A 
ATOM      8  C   UNL A   1      34.504  32.822  30.109  1.00  0.00     0.014 A 
ATOM      9  C   UNL A   1      35.650  34.150  28.433  1.00  0.00     0.014 A 
ATOM     10  C   UNL A   1      35.725  32.371  30.591  1.00  0.00     0.010 A 
ATOM     11  C   UNL A   1      36.872  33.631  28.864  1.00  0.00     0.010 A 
ATOM     12  C   UNL A   1      36.919  32.751  29.957  1.00  0.00    -0.014 A 
BRANCH  12  13
ATOM     13  C   UNL A   1      38.196  32.140  30.395  1.00  0.00     0.031 A 
ATOM     14  C   UNL A   1      38.692  30.854  29.800  1.00  0.00     0.074 A 
ATOM     15  C   UNL A   1      38.915  32.778  31.340  1.00  0.00     0.049 A 
ATOM     16  N   UNL A   1      39.787  30.192  30.078  1.00  0.00    -0.248 NA
ATOM     17  C   UNL A   1      37.853  30.225  28.769  1.00  0.00     0.031 C 
ATOM     18  C   UNL A   1      38.526  34.032  31.992  1.00  0.00     0.029 A 
ATOM     19  N   UNL A   1      40.125  32.472  31.904  1.00  0.00    -0.354 N 
ATOM     20  C   UNL A   1      39.760  29.060  29.273  1.00  0.00     0.074 A 
ATOM     21  C   UNL A   1      38.533  29.115  28.509  1.00  0.00     0.031 C 
ATOM     22  C   UNL A   1      39.500  34.413  32.829  1.00  0.00     0.029 A 
ATOM     23  C   UNL A   1      40.546  33.398  32.826  1.00  0.00     0.049 A 
ATOM     24  H   UNL A   1      40.642  31.668  31.671  1.00  0.00     0.167 HD
ATOM     25  C   UNL A   1      40.680  28.070  29.181  1.00  0.00     0.031 A 
ATOM     26  C   UNL A   1      41.645  33.422  33.600  1.00  0.00     0.031 A 
ATOM     27  C   UNL A   1      41.901  28.023  29.946  1.00  0.00     0.049 A 
ATOM     28  C   UNL A   1      42.629  32.296  33.498  1.00  0.00     0.074 A 
ATOM     29  C   UNL A   1      42.910  27.076  29.902  1.00  0.00     0.029 A 
ATOM     30  N   UNL A   1      42.277  28.964  30.892  1.00  0.00    -0.354 N 
ATOM     31  N   UNL A   1      42.602  31.248  32.711  1.00  0.00    -0.248 NA
ATOM     32  C   UNL A   1      43.792  32.355  34.391  1.00  0.00     0.031 C 
ATOM     33  C   UNL A   1      43.871  27.418  30.859  1.00  0.00     0.029 A 
ATOM     34  C   UNL A   1      43.490  28.607  31.458  1.00  0.00     0.049 A 
ATOM     35  H   UNL A   1      41.759  29.767  31.128  1.00  0.00     0.167 HD
ATOM     36  C   UNL A   1      43.752  30.530  33.002  1.00  0.00     0.074 A 
ATOM     37  C   UNL A   1      44.465  31.274  34.021  1.00  0.00     0.031 C 
ATOM     38  C   UNL A   1      44.179  29.358  32.475  1.00  0.00     0.031 A 
BRANCH  25  39
ATOM     39  C   UNL A   1      40.392  26.934  28.240  1.00  0.00    -0.014 A 
ATOM     40  C   UNL A   1      40.909  26.917  26.936  1.00  0.00     0.009 A 
ATOM     41  C   UNL A   1      39.640  25.835  28.686  1.00  0.00     0.009 A 
ATOM     42  C   UNL A   1      40.657  25.833  26.089  1.00  0.00     0.001 A 
ATOM     43  C   UNL A   1      39.411  24.743  27.847  1.00  0.00     0.001 A 
ATOM     44  C   UNL A   1      39.914  24.746  26.547  1.00  0.00     0.000 A 
ENDBRANCH  25  39
BRANCH  26  45
ATOM     45  C   UNL A   1      41.856  34.545  34.549  1.00  0.00    -0.014 A 
ATOM     46  C   UNL A   1      41.373  34.470  35.864  1.00  0.00     0.009 A 
ATOM     47  C   UNL A   1      42.557  35.693  34.146  1.00  0.00     0.009 A 
ATOM     48  C   UNL A   1      41.569  35.532  36.748  1.00  0.00     0.001 A 
ATOM     49  C   UNL A   1      42.778  36.739  35.041  1.00  0.00     0.001 A 
ATOM     50  C   UNL A   1      42.276  36.663  36.339  1.00  0.00     0.000 A 
ENDBRANCH  26  45
BRANCH  38  51
ATOM     51  C   UNL A   1      45.492  28.828  32.975  1.00  0.00    -0.014 A 
ATOM     52  C   UNL A   1      45.561  28.012  34.114  1.00  0.00     0.009 A 
ATOM     53  C   UNL A   1      46.674  29.135  32.282  1.00  0.00     0.009 A 
ATOM     54  C   UNL A   1      46.793  27.541  34.570  1.00  0.00     0.001 A 
ATOM     55  C   UNL A   1      47.901  28.641  32.724  1.00  0.00     0.001 A 
ATOM     56  C   UNL A   1      47.961  27.853  33.872  1.00  0.00     0.000 A 
ENDBRANCH  38  51
ENDBRANCH  12  13
ENDBRANCH   5   7
ENDBRANCH   2   3
ENDBRANCH   1   2
BRANCH   1  57
ATOM     57  C   UNL A   1      31.766  30.447  25.830  1.00  0.00     0.117 C 
BRANCH  57  58
ATOM     58  N   UNL A   1      31.413  29.270  26.593  1.00  0.00    -0.354 N 
ATOM     59  C   UNL A   1      31.693  27.962  26.365  1.00  0.00     0.242 C 
ATOM     60  H   UNL A   1      30.886  29.445  27.406  1.00  0.00     0.163 HD
ATOM     61  O   UNL A   1      31.053  27.130  27.017  1.00  0.00    -0.273 OA
BRANCH  59  62
ATOM     62  C   UNL A   1      32.636  27.508  25.251  1.00  0.00     0.175 C 
ATOM     63  C   UNL A   1      33.096  26.083  25.640  1.00  0.00     0.044 C 
ATOM     64  N   UNL A   1      32.221  27.387  23.859  1.00  0.00    -0.330 N 
ATOM     65  C   UNL A   1      33.297  25.282  24.336  1.00  0.00    -0.006 C 
ATOM     66  C   UNL A   1      32.940  26.284  23.234  1.00  0.00     0.127 C 
ATOM     67  C   UNL A   1      32.366  24.047  24.225  1.00  0.00     0.030 C 
ATOM     68  C   UNL A   1      34.758  24.798  24.214  1.00  0.00     0.030 C 
ATOM     69  C   UNL A   1      32.733  22.922  25.190  1.00  0.00     0.120 C 
ATOM     70  C   UNL A   1      35.083  23.681  25.209  1.00  0.00     0.120 C 
ATOM     71  N   UNL A   1      34.146  22.571  25.072  1.00  0.00    -0.339 N 
ATOM     72  C   UNL A   1      34.654  21.272  25.084  1.00  0.00     0.253 C 
ATOM     73  O   UNL A   1      35.834  21.010  25.305  1.00  0.00    -0.269 OA
BRANCH  64  74
ATOM     74  C   UNL A   1      31.714  28.341  22.980  1.00  0.00     0.226 C 
ATOM     75  O   UNL A   1      32.491  29.129  22.436  1.00  0.00    -0.275 OA
BRANCH  74  76
ATOM     76  C   UNL A   1      30.293  28.493  22.563  1.00  0.00     0.079 C 
ATOM     77  C   UNL A   1      28.955  28.185  23.154  1.00  0.00     0.014 C 
ATOM     78  C   UNL A   1      29.467  29.588  23.203  1.00  0.00     0.014 C 
ENDBRANCH  74  76
ENDBRANCH  64  74
BRANCH  72  79
ATOM     79  C   UNL A   1      33.754  20.136  24.795  1.00  0.00     0.043 A 
ATOM     80  C   UNL A   1      33.066  20.069  23.576  1.00  0.00     0.014 A 
ATOM     81  C   UNL A   1      33.678  19.080  25.706  1.00  0.00     0.060 A 
ATOM     82  C   UNL A   1      32.269  18.959  23.290  1.00  0.00     0.005 A 
ATOM     83  C   UNL A   1      32.885  17.980  25.406  1.00  0.00     0.116 A 
ATOM     84  C   UNL A   1      32.175  17.912  24.210  1.00  0.00     0.046 A 
BRANCH  83  85
ATOM     85  O   UNL A   1      32.831  16.968  26.320  1.00  0.00    -0.508 OA
ATOM     86  H   UNL A   1      32.068  16.858  26.853  1.00  0.00     0.293 HD
ENDBRANCH  83  85
ENDBRANCH  72  79
ENDBRANCH  59  62
ENDBRANCH  57  58
ENDBRANCH   1  57
TORSDOF 14
ENDMDL
