MODEL 1
REMARK VINA RESULT:     -11.3      0.000      0.000
REMARK SMILES C[C@@H](C(=O)NCCCNC(=O)c1ccc(-c2c3nc(c(-c4ccccc4)c4ccc([nH]4)c(-c4ccccc4)c4nc(c(-c5ccccc5)c5ccc2[nH]5)C=C4)C=C3)cc1)[N@@H+](C)Cc1ccc(-c2ccccc2)cc1
REMARK SMILES IDX 6 1 5 2 3 3 4 4 2 6 1 7 60 8 61 9 62 11 63 12 64 13 74 14
REMARK SMILES IDX 65 15 73 16 66 17 67 18 68 19 72 20 69 21 71 22 70 23 7 24
REMARK SMILES IDX 8 25 9 26 10 27 11 29 12 30 13 31 59 32 14 33 58 34 15 35
REMARK SMILES IDX 16 36 17 37 52 38 18 39 57 40 51 41 53 42 19 43 56 44 50 45
REMARK SMILES IDX 49 46 20 48 42 49 27 50 41 51 28 52 31 53 40 54 54 55 29 56
REMARK SMILES IDX 30 57 39 59 55 60 32 61 21 62 22 63 26 64 23 65 25 66 24 67
REMARK SMILES IDX 43 68 44 69 48 70 45 71 47 72 46 73 33 74 34 75 38 76 35 77
REMARK SMILES IDX 37 78 36 79
REMARK H PARENT 5 5 60 10 9 28 53 47 31 58
REMARK Flexibility Score: inf
ROOT
ATOM      1  C   UNL A   1      36.487  20.413  25.033  1.00  0.00     0.118 C 
ENDROOT
BRANCH   1   2
ATOM      2  N   UNL A   1      35.282  19.617  24.988  1.00  0.00    -0.351 N 
ATOM      3  C   UNL A   1      33.987  19.962  24.743  1.00  0.00     0.278 C 
ATOM      4  O   UNL A   1      33.271  19.010  24.425  1.00  0.00    -0.268 OA
ATOM      5  H   UNL A   1      35.421  18.658  25.167  1.00  0.00     0.163 HD
BRANCH   3   6
ATOM      6  C   UNL A   1      33.530  21.451  24.751  1.00  0.00     0.271 C 
ATOM      7  C   UNL A   1      32.123  21.673  25.312  1.00  0.00     0.086 C 
BRANCH   6   8
ATOM      8  N   UNL A   1      33.655  22.138  23.439  1.00  0.00    -0.324 N 
ATOM      9  C   UNL A   1      32.397  22.273  22.718  1.00  0.00     0.333 C 
ATOM     10  H   UNL A   1      34.203  21.448  22.925  1.00  0.00     0.348 HD
BRANCH   8  11
ATOM     11  C   UNL A   1      34.567  23.285  23.319  1.00  0.00     0.299 C 
BRANCH  11  12
ATOM     12  C   UNL A   1      34.148  24.612  23.910  1.00  0.00     0.006 A 
ATOM     13  C   UNL A   1      34.254  24.844  25.285  1.00  0.00     0.010 A 
ATOM     14  C   UNL A   1      33.633  25.638  23.101  1.00  0.00     0.010 A 
ATOM     15  C   UNL A   1      33.943  26.093  25.826  1.00  0.00     0.009 A 
ATOM     16  C   UNL A   1      33.294  26.884  23.648  1.00  0.00     0.009 A 
ATOM     17  C   UNL A   1      33.475  27.135  25.014  1.00  0.00    -0.018 A 
BRANCH  17  18
ATOM     18  C   UNL A   1      33.204  28.445  25.615  1.00  0.00    -0.018 A 
ATOM     19  C   UNL A   1      34.056  28.955  26.610  1.00  0.00     0.009 A 
ATOM     20  C   UNL A   1      32.057  29.175  25.280  1.00  0.00     0.009 A 
ATOM     21  C   UNL A   1      33.752  30.144  27.274  1.00  0.00     0.001 A 
ATOM     22  C   UNL A   1      31.750  30.364  25.946  1.00  0.00     0.001 A 
ATOM     23  C   UNL A   1      32.594  30.844  26.947  1.00  0.00     0.000 A 
ENDBRANCH  17  18
ENDBRANCH  11  12
ENDBRANCH   8  11
ENDBRANCH   6   8
ENDBRANCH   3   6
ENDBRANCH   1   2
BRANCH   1  24
ATOM     24  C   UNL A   1      37.750  19.565  24.951  1.00  0.00     0.042 C 
BRANCH  24  25
ATOM     25  C   UNL A   1      38.927  20.101  25.762  1.00  0.00     0.118 C 
BRANCH  25  26
ATOM     26  N   UNL A   1      40.018  19.148  25.880  1.00  0.00    -0.352 N 
ATOM     27  C   UNL A   1      41.357  19.352  26.097  1.00  0.00     0.251 C 
ATOM     28  H   UNL A   1      39.754  18.204  25.790  1.00  0.00     0.163 HD
ATOM     29  O   UNL A   1      42.136  18.409  25.991  1.00  0.00    -0.269 OA
BRANCH  27  30
ATOM     30  C   UNL A   1      41.875  20.694  26.445  1.00  0.00     0.039 A 
ATOM     31  C   UNL A   1      42.030  21.020  27.796  1.00  0.00     0.014 A 
ATOM     32  C   UNL A   1      42.151  21.648  25.463  1.00  0.00     0.014 A 
ATOM     33  C   UNL A   1      42.490  22.288  28.157  1.00  0.00     0.010 A 
ATOM     34  C   UNL A   1      42.691  22.881  25.820  1.00  0.00     0.010 A 
ATOM     35  C   UNL A   1      42.840  23.224  27.171  1.00  0.00    -0.014 A 
BRANCH  35  36
ATOM     36  C   UNL A   1      43.306  24.584  27.542  1.00  0.00     0.031 A 
ATOM     37  C   UNL A   1      42.309  25.642  27.932  1.00  0.00     0.074 A 
ATOM     38  C   UNL A   1      44.619  24.880  27.499  1.00  0.00     0.049 A 
ATOM     39  N   UNL A   1      42.518  26.888  28.277  1.00  0.00    -0.248 NA
ATOM     40  C   UNL A   1      40.888  25.258  27.908  1.00  0.00     0.031 C 
ATOM     41  C   UNL A   1      45.683  23.959  27.093  1.00  0.00     0.029 A 
ATOM     42  N   UNL A   1      45.281  26.043  27.801  1.00  0.00    -0.354 N 
ATOM     43  C   UNL A   1      41.258  27.435  28.493  1.00  0.00     0.074 A 
ATOM     44  C   UNL A   1      40.291  26.408  28.179  1.00  0.00     0.031 C 
ATOM     45  C   UNL A   1      46.867  24.584  27.199  1.00  0.00     0.029 A 
ATOM     46  C   UNL A   1      46.643  25.954  27.651  1.00  0.00     0.049 A 
ATOM     47  H   UNL A   1      44.824  26.863  28.097  1.00  0.00     0.167 HD
ATOM     48  C   UNL A   1      40.933  28.672  28.940  1.00  0.00     0.031 A 
ATOM     49  C   UNL A   1      47.606  26.873  27.858  1.00  0.00     0.031 A 
ATOM     50  C   UNL A   1      41.893  29.693  29.259  1.00  0.00     0.049 A 
ATOM     51  C   UNL A   1      47.223  28.235  28.364  1.00  0.00     0.074 A 
ATOM     52  C   UNL A   1      41.668  30.965  29.755  1.00  0.00     0.029 A 
ATOM     53  N   UNL A   1      43.265  29.555  29.116  1.00  0.00    -0.354 N 
ATOM     54  N   UNL A   1      46.032  28.717  28.623  1.00  0.00    -0.248 NA
ATOM     55  C   UNL A   1      48.324  29.171  28.631  1.00  0.00     0.031 C 
ATOM     56  C   UNL A   1      42.904  31.613  29.872  1.00  0.00     0.029 A 
ATOM     57  C   UNL A   1      43.900  30.722  29.505  1.00  0.00     0.049 A 
ATOM     58  H   UNL A   1      43.720  28.746  28.788  1.00  0.00     0.167 HD
ATOM     59  C   UNL A   1      46.240  30.001  29.111  1.00  0.00     0.074 A 
ATOM     60  C   UNL A   1      47.673  30.214  29.128  1.00  0.00     0.031 C 
ATOM     61  C   UNL A   1      45.327  30.919  29.514  1.00  0.00     0.031 A 
BRANCH  48  62
ATOM     62  C   UNL A   1      39.468  28.977  29.104  1.00  0.00    -0.014 A 
ATOM     63  C   UNL A   1      38.805  28.728  30.317  1.00  0.00     0.009 A 
ATOM     64  C   UNL A   1      38.742  29.524  28.035  1.00  0.00     0.009 A 
ATOM     65  C   UNL A   1      37.437  28.975  30.442  1.00  0.00     0.001 A 
ATOM     66  C   UNL A   1      37.380  29.802  28.174  1.00  0.00     0.001 A 
ATOM     67  C   UNL A   1      36.726  29.515  29.371  1.00  0.00     0.000 A 
ENDBRANCH  48  62
BRANCH  49  68
ATOM     68  C   UNL A   1      49.029  26.520  27.618  1.00  0.00    -0.014 A 
ATOM     69  C   UNL A   1      49.840  26.067  28.669  1.00  0.00     0.009 A 
ATOM     70  C   UNL A   1      49.582  26.627  26.332  1.00  0.00     0.009 A 
ATOM     71  C   UNL A   1      51.183  25.755  28.445  1.00  0.00     0.001 A 
ATOM     72  C   UNL A   1      50.917  26.287  26.105  1.00  0.00     0.001 A 
ATOM     73  C   UNL A   1      51.719  25.860  27.162  1.00  0.00     0.000 A 
ENDBRANCH  49  68
BRANCH  61  74
ATOM     74  C   UNL A   1      45.855  32.222  30.047  1.00  0.00    -0.014 A 
ATOM     75  C   UNL A   1      46.064  33.326  29.209  1.00  0.00     0.009 A 
ATOM     76  C   UNL A   1      46.120  32.348  31.420  1.00  0.00     0.009 A 
ATOM     77  C   UNL A   1      46.567  34.521  29.729  1.00  0.00     0.001 A 
ATOM     78  C   UNL A   1      46.593  33.553  31.942  1.00  0.00     0.001 A 
ATOM     79  C   UNL A   1      46.827  34.634  31.095  1.00  0.00     0.000 A 
ENDBRANCH  61  74
ENDBRANCH  35  36
ENDBRANCH  27  30
ENDBRANCH  25  26
ENDBRANCH  24  25
ENDBRANCH   1  24
TORSDOF 14
ENDMDL
MODEL 2
REMARK VINA RESULT:     -11.3      1.125      6.059
REMARK SMILES C[C@@H](C(=O)NCCCNC(=O)c1ccc(-c2c3nc(c(-c4ccccc4)c4ccc([nH]4)c(-c4ccccc4)c4nc(c(-c5ccccc5)c5ccc2[nH]5)C=C4)C=C3)cc1)[N@@H+](C)Cc1ccc(-c2ccccc2)cc1
REMARK SMILES IDX 6 1 5 2 3 3 4 4 2 6 1 7 60 8 61 9 62 11 63 12 64 13 74 14
REMARK SMILES IDX 65 15 73 16 66 17 67 18 68 19 72 20 69 21 71 22 70 23 7 24
REMARK SMILES IDX 8 25 9 26 10 27 11 29 12 30 13 31 59 32 14 33 58 34 15 35
REMARK SMILES IDX 16 36 17 37 52 38 18 39 57 40 51 41 53 42 19 43 56 44 50 45
REMARK SMILES IDX 49 46 20 48 42 49 27 50 41 51 28 52 31 53 40 54 54 55 29 56
REMARK SMILES IDX 30 57 39 59 55 60 32 61 21 62 22 63 26 64 23 65 25 66 24 67
REMARK SMILES IDX 43 68 44 69 48 70 45 71 47 72 46 73 33 74 34 75 38 76 35 77
REMARK SMILES IDX 37 78 36 79
REMARK H PARENT 5 5 60 10 9 28 53 47 31 58
REMARK Flexibility Score: inf
ROOT
ATOM      1  C   UNL A   1      36.429  20.325  24.955  1.00  0.00     0.118 C 
ENDROOT
BRANCH   1   2
ATOM      2  N   UNL A   1      35.251  19.488  24.947  1.00  0.00    -0.351 N 
ATOM      3  C   UNL A   1      33.941  19.786  24.723  1.00  0.00     0.278 C 
ATOM      4  O   UNL A   1      33.250  18.807  24.435  1.00  0.00    -0.268 OA
ATOM      5  H   UNL A   1      35.425  18.538  25.139  1.00  0.00     0.163 HD
BRANCH   3   6
ATOM      6  C   UNL A   1      33.435  21.260  24.716  1.00  0.00     0.271 C 
ATOM      7  C   UNL A   1      32.024  21.442  25.284  1.00  0.00     0.086 C 
BRANCH   6   8
ATOM      8  N   UNL A   1      33.528  21.935  23.396  1.00  0.00    -0.324 N 
ATOM      9  C   UNL A   1      32.246  22.127  22.735  1.00  0.00     0.333 C 
ATOM     10  H   UNL A   1      34.019  21.217  22.861  1.00  0.00     0.348 HD
BRANCH   8  11
ATOM     11  C   UNL A   1      34.488  23.037  23.225  1.00  0.00     0.299 C 
BRANCH  11  12
ATOM     12  C   UNL A   1      34.153  24.389  23.812  1.00  0.00     0.006 A 
ATOM     13  C   UNL A   1      33.659  25.415  22.999  1.00  0.00     0.010 A 
ATOM     14  C   UNL A   1      34.338  24.655  25.178  1.00  0.00     0.010 A 
ATOM     15  C   UNL A   1      33.275  26.639  23.548  1.00  0.00     0.009 A 
ATOM     16  C   UNL A   1      33.977  25.895  25.726  1.00  0.00     0.009 A 
ATOM     17  C   UNL A   1      33.412  26.891  24.920  1.00  0.00    -0.018 A 
BRANCH  17  18
ATOM     18  C   UNL A   1      32.952  28.173  25.463  1.00  0.00    -0.018 A 
ATOM     19  C   UNL A   1      33.350  28.578  26.749  1.00  0.00     0.009 A 
ATOM     20  C   UNL A   1      32.047  28.978  24.760  1.00  0.00     0.009 A 
ATOM     21  C   UNL A   1      32.832  29.738  27.328  1.00  0.00     0.001 A 
ATOM     22  C   UNL A   1      31.525  30.137  25.339  1.00  0.00     0.001 A 
ATOM     23  C   UNL A   1      31.913  30.512  26.625  1.00  0.00     0.000 A 
ENDBRANCH  17  18
ENDBRANCH  11  12
ENDBRANCH   8  11
ENDBRANCH   6   8
ENDBRANCH   3   6
ENDBRANCH   1   2
BRANCH   1  24
ATOM     24  C   UNL A   1      37.719  19.514  24.943  1.00  0.00     0.042 C 
BRANCH  24  25
ATOM     25  C   UNL A   1      38.876  20.154  25.705  1.00  0.00     0.118 C 
BRANCH  25  26
ATOM     26  N   UNL A   1      40.067  19.321  25.736  1.00  0.00    -0.352 N 
ATOM     27  C   UNL A   1      41.370  19.642  26.023  1.00  0.00     0.251 C 
ATOM     28  H   UNL A   1      39.915  18.373  25.516  1.00  0.00     0.163 HD
ATOM     29  O   UNL A   1      42.253  18.814  25.823  1.00  0.00    -0.269 OA
BRANCH  27  30
ATOM     30  C   UNL A   1      41.724  20.975  26.560  1.00  0.00     0.039 A 
ATOM     31  C   UNL A   1      41.607  21.193  27.936  1.00  0.00     0.014 A 
ATOM     32  C   UNL A   1      42.109  22.022  25.719  1.00  0.00     0.014 A 
ATOM     33  C   UNL A   1      41.905  22.448  28.469  1.00  0.00     0.010 A 
ATOM     34  C   UNL A   1      42.490  23.246  26.261  1.00  0.00     0.010 A 
ATOM     35  C   UNL A   1      42.366  23.482  27.638  1.00  0.00    -0.014 A 
BRANCH  35  36
ATOM     36  C   UNL A   1      42.663  24.828  28.189  1.00  0.00     0.031 A 
ATOM     37  C   UNL A   1      44.070  25.186  28.586  1.00  0.00     0.074 A 
ATOM     38  C   UNL A   1      41.668  25.718  28.363  1.00  0.00     0.049 A 
ATOM     39  N   UNL A   1      44.527  26.303  29.095  1.00  0.00    -0.248 NA
ATOM     40  C   UNL A   1      45.095  24.144  28.412  1.00  0.00     0.031 C 
ATOM     41  C   UNL A   1      40.254  25.479  28.062  1.00  0.00     0.029 A 
ATOM     42  N   UNL A   1      41.696  27.005  28.838  1.00  0.00    -0.354 N 
ATOM     43  C   UNL A   1      45.883  26.089  29.315  1.00  0.00     0.074 A 
ATOM     44  C   UNL A   1      46.161  24.720  28.945  1.00  0.00     0.031 C 
ATOM     45  C   UNL A   1      39.555  26.594  28.332  1.00  0.00     0.029 A 
ATOM     46  C   UNL A   1      40.463  27.612  28.851  1.00  0.00     0.049 A 
ATOM     47  H   UNL A   1      42.520  27.451  29.139  1.00  0.00     0.167 HD
ATOM     48  C   UNL A   1      46.821  26.961  29.757  1.00  0.00     0.031 A 
ATOM     49  C   UNL A   1      40.106  28.852  29.235  1.00  0.00     0.031 A 
ATOM     50  C   UNL A   1      46.548  28.326  30.118  1.00  0.00     0.049 A 
ATOM     51  C   UNL A   1      41.165  29.806  29.712  1.00  0.00     0.074 A 
ATOM     52  C   UNL A   1      47.434  29.300  30.542  1.00  0.00     0.029 A 
ATOM     53  N   UNL A   1      45.291  28.909  30.095  1.00  0.00    -0.354 N 
ATOM     54  N   UNL A   1      42.452  29.609  29.856  1.00  0.00    -0.248 NA
ATOM     55  C   UNL A   1      40.721  31.164  30.056  1.00  0.00     0.031 C 
ATOM     56  C   UNL A   1      46.704  30.464  30.815  1.00  0.00     0.029 A 
ATOM     57  C   UNL A   1      45.375  30.228  30.505  1.00  0.00     0.049 A 
ATOM     58  H   UNL A   1      44.461  28.452  29.825  1.00  0.00     0.167 HD
ATOM     59  C   UNL A   1      42.978  30.824  30.277  1.00  0.00     0.074 A 
ATOM     60  C   UNL A   1      41.871  31.756  30.349  1.00  0.00     0.031 C 
ATOM     61  C   UNL A   1      44.263  31.141  30.573  1.00  0.00     0.031 A 
BRANCH  48  62
ATOM     62  C   UNL A   1      48.231  26.448  29.872  1.00  0.00    -0.014 A 
ATOM     63  C   UNL A   1      48.686  25.830  31.049  1.00  0.00     0.009 A 
ATOM     64  C   UNL A   1      49.116  26.578  28.791  1.00  0.00     0.009 A 
ATOM     65  C   UNL A   1      50.009  25.398  31.158  1.00  0.00     0.001 A 
ATOM     66  C   UNL A   1      50.430  26.114  28.891  1.00  0.00     0.001 A 
ATOM     67  C   UNL A   1      50.879  25.537  30.078  1.00  0.00     0.000 A 
ENDBRANCH  48  62
BRANCH  49  68
ATOM     68  C   UNL A   1      38.683  29.271  29.150  1.00  0.00    -0.014 A 
ATOM     69  C   UNL A   1      38.146  29.735  27.940  1.00  0.00     0.009 A 
ATOM     70  C   UNL A   1      37.852  29.202  30.280  1.00  0.00     0.009 A 
ATOM     71  C   UNL A   1      36.813  30.147  27.869  1.00  0.00     0.001 A 
ATOM     72  C   UNL A   1      36.513  29.587  30.197  1.00  0.00     0.001 A 
ATOM     73  C   UNL A   1      35.996  30.069  28.995  1.00  0.00     0.000 A 
ENDBRANCH  49  68
BRANCH  61  74
ATOM     74  C   UNL A   1      44.545  32.566  30.960  1.00  0.00    -0.014 A 
ATOM     75  C   UNL A   1      44.533  32.978  32.301  1.00  0.00     0.009 A 
ATOM     76  C   UNL A   1      44.854  33.504  29.962  1.00  0.00     0.009 A 
ATOM     77  C   UNL A   1      44.787  34.311  32.632  1.00  0.00     0.001 A 
ATOM     78  C   UNL A   1      45.137  34.828  30.298  1.00  0.00     0.001 A 
ATOM     79  C   UNL A   1      45.092  35.234  31.631  1.00  0.00     0.000 A 
ENDBRANCH  61  74
ENDBRANCH  35  36
ENDBRANCH  27  30
ENDBRANCH  25  26
ENDBRANCH  24  25
ENDBRANCH   1  24
TORSDOF 14
ENDMDL
MODEL 3
REMARK VINA RESULT:     -11.2      2.625      7.035
REMARK SMILES C[C@@H](C(=O)NCCCNC(=O)c1ccc(-c2c3nc(c(-c4ccccc4)c4ccc([nH]4)c(-c4ccccc4)c4nc(c(-c5ccccc5)c5ccc2[nH]5)C=C4)C=C3)cc1)[N@@H+](C)Cc1ccc(-c2ccccc2)cc1
REMARK SMILES IDX 6 1 5 2 3 3 4 4 2 6 1 7 60 8 61 9 62 11 63 12 64 13 74 14
REMARK SMILES IDX 65 15 73 16 66 17 67 18 68 19 72 20 69 21 71 22 70 23 7 24
REMARK SMILES IDX 8 25 9 26 10 27 11 29 12 30 13 31 59 32 14 33 58 34 15 35
REMARK SMILES IDX 16 36 17 37 52 38 18 39 57 40 51 41 53 42 19 43 56 44 50 45
REMARK SMILES IDX 49 46 20 48 42 49 27 50 41 51 28 52 31 53 40 54 54 55 29 56
REMARK SMILES IDX 30 57 39 59 55 60 32 61 21 62 22 63 26 64 23 65 25 66 24 67
REMARK SMILES IDX 43 68 44 69 48 70 45 71 47 72 46 73 33 74 34 75 38 76 35 77
REMARK SMILES IDX 37 78 36 79
REMARK H PARENT 5 5 60 10 9 28 53 47 31 58
REMARK Flexibility Score: inf
ROOT
ATOM      1  C   UNL A   1      35.500  21.644  24.550  1.00  0.00     0.118 C 
ENDROOT
BRANCH   1   2
ATOM      2  N   UNL A   1      34.902  21.709  25.864  1.00  0.00    -0.351 N 
ATOM      3  C   UNL A   1      33.681  21.307  26.315  1.00  0.00     0.278 C 
ATOM      4  O   UNL A   1      33.622  21.175  27.540  1.00  0.00    -0.268 OA
ATOM      5  H   UNL A   1      35.477  22.116  26.553  1.00  0.00     0.163 HD
BRANCH   3   6
ATOM      6  C   UNL A   1      32.535  20.937  25.328  1.00  0.00     0.271 C 
ATOM      7  C   UNL A   1      32.746  19.613  24.589  1.00  0.00     0.086 C 
BRANCH   6   8
ATOM      8  N   UNL A   1      32.200  22.004  24.348  1.00  0.00    -0.324 N 
ATOM      9  C   UNL A   1      32.169  21.551  22.965  1.00  0.00     0.333 C 
ATOM     10  H   UNL A   1      33.028  22.594  24.435  1.00  0.00     0.348 HD
BRANCH   8  11
ATOM     11  C   UNL A   1      31.176  22.999  24.701  1.00  0.00     0.299 C 
BRANCH  11  12
ATOM     12  C   UNL A   1      31.617  24.402  25.051  1.00  0.00     0.006 A 
ATOM     13  C   UNL A   1      30.675  25.381  25.388  1.00  0.00     0.010 A 
ATOM     14  C   UNL A   1      32.974  24.764  25.036  1.00  0.00     0.010 A 
ATOM     15  C   UNL A   1      31.080  26.655  25.788  1.00  0.00     0.009 A 
ATOM     16  C   UNL A   1      33.379  26.053  25.412  1.00  0.00     0.009 A 
ATOM     17  C   UNL A   1      32.437  27.004  25.822  1.00  0.00    -0.018 A 
BRANCH  17  18
ATOM     18  C   UNL A   1      32.822  28.338  26.293  1.00  0.00    -0.018 A 
ATOM     19  C   UNL A   1      34.123  28.568  26.773  1.00  0.00     0.009 A 
ATOM     20  C   UNL A   1      31.892  29.383  26.357  1.00  0.00     0.009 A 
ATOM     21  C   UNL A   1      34.474  29.799  27.332  1.00  0.00     0.001 A 
ATOM     22  C   UNL A   1      32.241  30.614  26.918  1.00  0.00     0.001 A 
ATOM     23  C   UNL A   1      33.529  30.818  27.412  1.00  0.00     0.000 A 
ENDBRANCH  17  18
ENDBRANCH  11  12
ENDBRANCH   8  11
ENDBRANCH   6   8
ENDBRANCH   3   6
ENDBRANCH   1   2
BRANCH   1  24
ATOM     24  C   UNL A   1      36.026  22.996  24.082  1.00  0.00     0.042 C 
BRANCH  24  25
ATOM     25  C   UNL A   1      37.118  23.591  24.967  1.00  0.00     0.118 C 
BRANCH  25  26
ATOM     26  N   UNL A   1      38.098  22.610  25.402  1.00  0.00    -0.352 N 
ATOM     27  C   UNL A   1      39.249  22.765  26.131  1.00  0.00     0.251 C 
ATOM     28  H   UNL A   1      37.905  21.683  25.129  1.00  0.00     0.163 HD
ATOM     29  O   UNL A   1      40.026  21.821  26.241  1.00  0.00    -0.269 OA
BRANCH  27  30
ATOM     30  C   UNL A   1      39.572  24.057  26.776  1.00  0.00     0.039 A 
ATOM     31  C   UNL A   1      40.319  24.995  26.055  1.00  0.00     0.014 A 
ATOM     32  C   UNL A   1      39.201  24.329  28.094  1.00  0.00     0.014 A 
ATOM     33  C   UNL A   1      40.664  26.212  26.645  1.00  0.00     0.010 A 
ATOM     34  C   UNL A   1      39.470  25.576  28.652  1.00  0.00     0.010 A 
ATOM     35  C   UNL A   1      40.228  26.520  27.944  1.00  0.00    -0.014 A 
BRANCH  35  36
ATOM     36  C   UNL A   1      40.609  27.800  28.592  1.00  0.00     0.031 A 
ATOM     37  C   UNL A   1      42.014  28.003  29.091  1.00  0.00     0.074 A 
ATOM     38  C   UNL A   1      39.688  28.767  28.762  1.00  0.00     0.049 A 
ATOM     39  N   UNL A   1      42.536  29.043  29.693  1.00  0.00    -0.248 NA
ATOM     40  C   UNL A   1      42.951  26.881  28.915  1.00  0.00     0.031 C 
ATOM     41  C   UNL A   1      38.281  28.678  28.365  1.00  0.00     0.029 A 
ATOM     42  N   UNL A   1      39.801  30.018  29.315  1.00  0.00    -0.354 N 
ATOM     43  C   UNL A   1      43.850  28.692  29.978  1.00  0.00     0.074 A 
ATOM     44  C   UNL A   1      44.028  27.326  29.543  1.00  0.00     0.031 C 
ATOM     45  C   UNL A   1      37.669  29.837  28.662  1.00  0.00     0.029 A 
ATOM     46  C   UNL A   1      38.629  30.736  29.293  1.00  0.00     0.049 A 
ATOM     47  H   UNL A   1      40.641  30.369  29.690  1.00  0.00     0.167 HD
ATOM     48  C   UNL A   1      44.833  29.447  30.526  1.00  0.00     0.031 A 
ATOM     49  C   UNL A   1      38.361  31.981  29.731  1.00  0.00     0.031 A 
ATOM     50  C   UNL A   1      44.661  30.809  30.953  1.00  0.00     0.049 A 
ATOM     51  C   UNL A   1      39.468  32.804  30.325  1.00  0.00     0.074 A 
ATOM     52  C   UNL A   1      45.601  31.673  31.486  1.00  0.00     0.029 A 
ATOM     53  N   UNL A   1      43.465  31.507  30.892  1.00  0.00    -0.354 N 
ATOM     54  N   UNL A   1      40.721  32.481  30.531  1.00  0.00    -0.248 NA
ATOM     55  C   UNL A   1      39.127  34.177  30.725  1.00  0.00     0.031 C 
ATOM     56  C   UNL A   1      44.963  32.882  31.787  1.00  0.00     0.029 A 
ATOM     57  C   UNL A   1      43.640  32.789  31.386  1.00  0.00     0.049 A 
ATOM     58  H   UNL A   1      42.617  31.146  30.548  1.00  0.00     0.167 HD
ATOM     59  C   UNL A   1      41.326  33.617  31.055  1.00  0.00     0.074 A 
ATOM     60  C   UNL A   1      40.304  34.642  31.119  1.00  0.00     0.031 C 
ATOM     61  C   UNL A   1      42.613  33.796  31.444  1.00  0.00     0.031 A 
BRANCH  48  62
ATOM     62  C   UNL A   1      46.182  28.800  30.692  1.00  0.00    -0.014 A 
ATOM     63  C   UNL A   1      47.148  28.864  29.675  1.00  0.00     0.009 A 
ATOM     64  C   UNL A   1      46.494  28.123  31.880  1.00  0.00     0.009 A 
ATOM     65  C   UNL A   1      48.379  28.222  29.824  1.00  0.00     0.001 A 
ATOM     66  C   UNL A   1      47.739  27.510  32.041  1.00  0.00     0.001 A 
ATOM     67  C   UNL A   1      48.675  27.549  31.008  1.00  0.00     0.000 A 
ENDBRANCH  48  62
BRANCH  49  68
ATOM     68  C   UNL A   1      36.990  32.534  29.589  1.00  0.00    -0.014 A 
ATOM     69  C   UNL A   1      36.026  32.320  30.585  1.00  0.00     0.009 A 
ATOM     70  C   UNL A   1      36.640  33.288  28.457  1.00  0.00     0.009 A 
ATOM     71  C   UNL A   1      34.731  32.825  30.440  1.00  0.00     0.001 A 
ATOM     72  C   UNL A   1      35.353  33.816  28.328  1.00  0.00     0.001 A 
ATOM     73  C   UNL A   1      34.397  33.576  29.314  1.00  0.00     0.000 A 
ENDBRANCH  49  68
BRANCH  61  74
ATOM     74  C   UNL A   1      42.995  35.165  31.933  1.00  0.00    -0.014 A 
ATOM     75  C   UNL A   1      43.573  36.115  31.077  1.00  0.00     0.009 A 
ATOM     76  C   UNL A   1      42.745  35.515  33.270  1.00  0.00     0.009 A 
ATOM     77  C   UNL A   1      43.930  37.376  31.562  1.00  0.00     0.001 A 
ATOM     78  C   UNL A   1      43.075  36.786  33.743  1.00  0.00     0.001 A 
ATOM     79  C   UNL A   1      43.677  37.711  32.892  1.00  0.00     0.000 A 
ENDBRANCH  61  74
ENDBRANCH  35  36
ENDBRANCH  27  30
ENDBRANCH  25  26
ENDBRANCH  24  25
ENDBRANCH   1  24
TORSDOF 14
ENDMDL
