MODEL 1
REMARK VINA RESULT:     -12.5      0.000      0.000
REMARK SMILES COc1ccc(NC2=[NH+]C(=O)/C(=C\c3ccccc3C(=O)NCCCNC(=O)c3ccc(-c4c5nc(c(-c6ccccc6)c6ccc([nH]6)c(-c6ccccc6)c6nc(c(-c7ccccc7)c7ccc4[nH]7)C=C6)C=C5)cc3)S2)cc1
REMARK SMILES IDX 23 1 22 2 20 3 21 4 19 6 14 7 15 8 16 9 18 10 17 11 13 12
REMARK SMILES IDX 7 13 8 14 9 16 77 17 10 18 12 20 11 21 6 22 3 23 4 24 79 25
REMARK SMILES IDX 5 26 78 27 2 28 1 29 24 30 25 31 26 32 27 33 28 35 29 36
REMARK SMILES IDX 30 37 76 38 31 39 75 40 32 41 33 42 34 43 69 44 35 45 74 46
REMARK SMILES IDX 68 47 70 48 36 49 73 50 67 51 66 52 37 54 59 55 44 56 58 57
REMARK SMILES IDX 45 58 48 59 57 60 71 61 46 62 47 63 56 65 72 66 49 67 38 68
REMARK SMILES IDX 39 69 43 70 40 71 42 72 41 73 60 74 61 75 65 76 62 77 64 78
REMARK SMILES IDX 63 79 50 80 51 81 55 82 52 83 54 84 53 85
REMARK H PARENT 22 5 7 15 9 19 26 34 70 53 48 64
REMARK Flexibility Score: inf
ROOT
ATOM      1  C   UNL A   1      31.419  28.532  27.623  1.00  0.00     0.118 C 
ENDROOT
BRANCH   1   2
ATOM      2  N   UNL A   1      30.862  27.270  27.214  1.00  0.00    -0.352 N 
ATOM      3  C   UNL A   1      31.050  26.607  26.020  1.00  0.00     0.251 C 
ATOM      4  O   UNL A   1      30.478  25.527  25.870  1.00  0.00    -0.269 OA
ATOM      5  H   UNL A   1      30.275  26.825  27.867  1.00  0.00     0.163 HD
BRANCH   3   6
ATOM      6  C   UNL A   1      31.791  27.221  24.871  1.00  0.00     0.047 A 
ATOM      7  C   UNL A   1      33.139  27.016  24.496  1.00  0.00    -0.011 A 
ATOM      8  C   UNL A   1      33.690  27.867  23.513  1.00  0.00     0.009 A 
ATOM      9  C   UNL A   1      32.916  28.814  22.840  1.00  0.00     0.001 A 
ATOM     10  C   UNL A   1      31.009  28.139  24.136  1.00  0.00     0.014 A 
ATOM     11  C   UNL A   1      31.563  28.923  23.125  1.00  0.00     0.001 A 
BRANCH   7  12
ATOM     12  C   UNL A   1      34.108  26.043  25.045  1.00  0.00     0.032 C 
ATOM     13  N   UNL A   1      35.574  21.295  24.522  1.00  0.00    -0.235 N 
ATOM     14  C   UNL A   1      35.134  22.544  24.206  1.00  0.00     0.322 C 
ATOM     15  H   UNL A   1      36.550  21.175  24.563  1.00  0.00     0.313 HD
ATOM     16  N   UNL A   1      34.436  22.939  23.196  1.00  0.00    -0.199 N 
ATOM     17  S   UNL A   1      35.598  23.805  25.344  1.00  0.00     0.006 SA
ATOM     18  C   UNL A   1      34.251  24.306  23.176  1.00  0.00     0.346 C 
ATOM     19  H   UNL A   1      34.075  22.330  22.512  1.00  0.00     0.316 HD
ATOM     20  C   UNL A   1      34.578  24.912  24.496  1.00  0.00     0.110 C 
ATOM     21  O   UNL A   1      33.915  24.965  22.203  1.00  0.00    -0.240 OA
BRANCH  13  22
ATOM     22  C   UNL A   1      34.794  20.152  24.797  1.00  0.00     0.125 A 
ATOM     23  C   UNL A   1      33.003  17.985  25.093  1.00  0.00     0.119 A 
ATOM     24  C   UNL A   1      34.345  17.764  24.775  1.00  0.00     0.051 A 
ATOM     25  C   UNL A   1      32.582  19.280  25.372  1.00  0.00     0.051 A 
ATOM     26  C   UNL A   1      35.243  18.838  24.651  1.00  0.00     0.055 A 
ATOM     27  C   UNL A   1      33.474  20.350  25.230  1.00  0.00     0.055 A 
BRANCH  23  28
ATOM     28  O   UNL A   1      32.205  16.873  25.117  1.00  0.00    -0.497 OA
ATOM     29  C   UNL A   1      32.801  15.697  25.664  1.00  0.00     0.278 C 
ENDBRANCH  23  28
ENDBRANCH  13  22
ENDBRANCH   7  12
ENDBRANCH   3   6
ENDBRANCH   1   2
BRANCH   1  30
ATOM     30  C   UNL A   1      32.924  28.650  27.606  1.00  0.00     0.042 C 
BRANCH  30  31
ATOM     31  C   UNL A   1      33.461  29.964  27.055  1.00  0.00     0.118 C 
BRANCH  31  32
ATOM     32  N   UNL A   1      33.761  30.993  28.052  1.00  0.00    -0.352 N 
ATOM     33  C   UNL A   1      34.879  31.222  28.825  1.00  0.00     0.251 C 
ATOM     34  H   UNL A   1      33.033  31.640  28.196  1.00  0.00     0.163 HD
ATOM     35  O   UNL A   1      34.882  32.166  29.611  1.00  0.00    -0.269 OA
BRANCH  33  36
ATOM     36  C   UNL A   1      36.020  30.282  28.800  1.00  0.00     0.039 A 
ATOM     37  C   UNL A   1      36.845  30.280  27.673  1.00  0.00     0.014 A 
ATOM     38  C   UNL A   1      36.364  29.515  29.910  1.00  0.00     0.014 A 
ATOM     39  C   UNL A   1      38.092  29.663  27.733  1.00  0.00     0.010 A 
ATOM     40  C   UNL A   1      37.661  29.041  30.029  1.00  0.00     0.010 A 
ATOM     41  C   UNL A   1      38.547  29.130  28.949  1.00  0.00    -0.014 A 
BRANCH  41  42
ATOM     42  C   UNL A   1      39.955  28.701  29.114  1.00  0.00     0.031 A 
ATOM     43  C   UNL A   1      40.967  29.651  29.686  1.00  0.00     0.074 A 
ATOM     44  C   UNL A   1      40.327  27.477  28.683  1.00  0.00     0.049 A 
ATOM     45  N   UNL A   1      42.248  29.471  29.878  1.00  0.00    -0.248 NA
ATOM     46  C   UNL A   1      40.488  30.993  30.061  1.00  0.00     0.031 C 
ATOM     47  C   UNL A   1      39.446  26.497  28.037  1.00  0.00     0.029 A 
ATOM     48  N   UNL A   1      41.542  26.843  28.726  1.00  0.00    -0.354 N 
ATOM     49  C   UNL A   1      42.722  30.674  30.388  1.00  0.00     0.074 A 
ATOM     50  C   UNL A   1      41.615  31.600  30.397  1.00  0.00     0.031 C 
ATOM     51  C   UNL A   1      40.136  25.371  27.796  1.00  0.00     0.029 A 
ATOM     52  C   UNL A   1      41.515  25.563  28.223  1.00  0.00     0.049 A 
ATOM     53  H   UNL A   1      42.358  27.264  29.083  1.00  0.00     0.167 HD
ATOM     54  C   UNL A   1      43.960  30.968  30.848  1.00  0.00     0.031 A 
ATOM     55  C   UNL A   1      42.496  24.646  28.122  1.00  0.00     0.031 A 
ATOM     56  C   UNL A   1      45.055  30.039  30.840  1.00  0.00     0.049 A 
ATOM     57  C   UNL A   1      43.864  25.001  28.636  1.00  0.00     0.074 A 
ATOM     58  C   UNL A   1      46.343  30.218  31.307  1.00  0.00     0.029 A 
ATOM     59  N   UNL A   1      44.982  28.746  30.342  1.00  0.00    -0.354 N 
ATOM     60  N   UNL A   1      44.276  26.119  29.184  1.00  0.00    -0.248 NA
ATOM     61  C   UNL A   1      44.898  23.963  28.533  1.00  0.00     0.031 C 
ATOM     62  C   UNL A   1      47.064  29.047  31.052  1.00  0.00     0.029 A 
ATOM     63  C   UNL A   1      46.207  28.119  30.481  1.00  0.00     0.049 A 
ATOM     64  H   UNL A   1      44.178  28.336  29.949  1.00  0.00     0.167 HD
ATOM     65  C   UNL A   1      45.606  25.908  29.521  1.00  0.00     0.074 A 
ATOM     66  C   UNL A   1      45.923  24.549  29.133  1.00  0.00     0.031 C 
ATOM     67  C   UNL A   1      46.489  26.762  30.094  1.00  0.00     0.031 A 
BRANCH  54  68
ATOM     68  C   UNL A   1      44.173  32.347  31.407  1.00  0.00    -0.014 A 
ATOM     69  C   UNL A   1      44.012  32.602  32.779  1.00  0.00     0.009 A 
ATOM     70  C   UNL A   1      44.549  33.401  30.561  1.00  0.00     0.009 A 
ATOM     71  C   UNL A   1      44.182  33.892  33.286  1.00  0.00     0.001 A 
ATOM     72  C   UNL A   1      44.749  34.684  31.076  1.00  0.00     0.001 A 
ATOM     73  C   UNL A   1      44.555  34.930  32.435  1.00  0.00     0.000 A 
ENDBRANCH  54  68
BRANCH  55  74
ATOM     74  C   UNL A   1      42.225  23.305  27.534  1.00  0.00    -0.014 A 
ATOM     75  C   UNL A   1      42.599  23.014  26.211  1.00  0.00     0.009 A 
ATOM     76  C   UNL A   1      41.570  22.316  28.282  1.00  0.00     0.009 A 
ATOM     77  C   UNL A   1      42.282  21.779  25.639  1.00  0.00     0.001 A 
ATOM     78  C   UNL A   1      41.284  21.070  27.718  1.00  0.00     0.001 A 
ATOM     79  C   UNL A   1      41.627  20.808  26.393  1.00  0.00     0.000 A 
ENDBRANCH  55  74
BRANCH  67  80
ATOM     80  C   UNL A   1      47.864  26.228  30.380  1.00  0.00    -0.014 A 
ATOM     81  C   UNL A   1      48.851  26.180  29.383  1.00  0.00     0.009 A 
ATOM     82  C   UNL A   1      48.183  25.805  31.679  1.00  0.00     0.009 A 
ATOM     83  C   UNL A   1      50.121  25.682  29.676  1.00  0.00     0.001 A 
ATOM     84  C   UNL A   1      49.463  25.340  31.976  1.00  0.00     0.001 A 
ATOM     85  C   UNL A   1      50.428  25.267  30.972  1.00  0.00     0.000 A 
ENDBRANCH  67  80
ENDBRANCH  41  42
ENDBRANCH  33  36
ENDBRANCH  31  32
ENDBRANCH  30  31
ENDBRANCH   1  30
TORSDOF 13
ENDMDL
MODEL 2
REMARK VINA RESULT:     -12.5      1.425      6.040
REMARK SMILES COc1ccc(NC2=[NH+]C(=O)/C(=C\c3ccccc3C(=O)NCCCNC(=O)c3ccc(-c4c5nc(c(-c6ccccc6)c6ccc([nH]6)c(-c6ccccc6)c6nc(c(-c7ccccc7)c7ccc4[nH]7)C=C6)C=C5)cc3)S2)cc1
REMARK SMILES IDX 23 1 22 2 20 3 21 4 19 6 14 7 15 8 16 9 18 10 17 11 13 12
REMARK SMILES IDX 7 13 8 14 9 16 77 17 10 18 12 20 11 21 6 22 3 23 4 24 79 25
REMARK SMILES IDX 5 26 78 27 2 28 1 29 24 30 25 31 26 32 27 33 28 35 29 36
REMARK SMILES IDX 30 37 76 38 31 39 75 40 32 41 33 42 34 43 69 44 35 45 74 46
REMARK SMILES IDX 68 47 70 48 36 49 73 50 67 51 66 52 37 54 59 55 44 56 58 57
REMARK SMILES IDX 45 58 48 59 57 60 71 61 46 62 47 63 56 65 72 66 49 67 38 68
REMARK SMILES IDX 39 69 43 70 40 71 42 72 41 73 60 74 61 75 65 76 62 77 64 78
REMARK SMILES IDX 63 79 50 80 51 81 55 82 52 83 54 84 53 85
REMARK H PARENT 22 5 7 15 9 19 26 34 70 53 48 64
REMARK Flexibility Score: inf
ROOT
ATOM      1  C   UNL A   1      31.746  30.198  25.820  1.00  0.00     0.118 C 
ENDROOT
BRANCH   1   2
ATOM      2  N   UNL A   1      32.412  29.767  24.619  1.00  0.00    -0.352 N 
ATOM      3  C   UNL A   1      31.987  28.827  23.704  1.00  0.00     0.251 C 
ATOM      4  O   UNL A   1      32.713  28.605  22.734  1.00  0.00    -0.269 OA
ATOM      5  H   UNL A   1      33.276  30.197  24.427  1.00  0.00     0.163 HD
BRANCH   3   6
ATOM      6  C   UNL A   1      30.772  27.980  23.933  1.00  0.00     0.047 A 
ATOM      7  C   UNL A   1      30.693  26.734  24.598  1.00  0.00    -0.011 A 
ATOM      8  C   UNL A   1      29.486  26.007  24.502  1.00  0.00     0.009 A 
ATOM      9  C   UNL A   1      28.357  26.534  23.871  1.00  0.00     0.001 A 
ATOM     10  C   UNL A   1      29.603  28.522  23.356  1.00  0.00     0.014 A 
ATOM     11  C   UNL A   1      28.404  27.810  23.331  1.00  0.00     0.001 A 
BRANCH   7  12
ATOM     12  C   UNL A   1      31.748  26.028  25.356  1.00  0.00     0.032 C 
ATOM     13  N   UNL A   1      34.797  22.083  25.029  1.00  0.00    -0.235 N 
ATOM     14  C   UNL A   1      34.066  23.174  24.667  1.00  0.00     0.322 C 
ATOM     15  H   UNL A   1      35.709  22.259  25.355  1.00  0.00     0.313 HD
ATOM     16  N   UNL A   1      33.572  23.488  23.518  1.00  0.00    -0.199 N 
ATOM     17  S   UNL A   1      33.762  24.327  25.962  1.00  0.00     0.006 SA
ATOM     18  C   UNL A   1      32.954  24.721  23.521  1.00  0.00     0.346 C 
ATOM     19  H   UNL A   1      33.630  22.909  22.723  1.00  0.00     0.316 HD
ATOM     20  C   UNL A   1      32.697  25.190  24.911  1.00  0.00     0.110 C 
ATOM     21  O   UNL A   1      32.689  25.388  22.532  1.00  0.00    -0.240 OA
BRANCH  13  22
ATOM     22  C   UNL A   1      34.399  20.730  24.991  1.00  0.00     0.125 A 
ATOM     23  C   UNL A   1      33.403  18.110  24.624  1.00  0.00     0.119 A 
ATOM     24  C   UNL A   1      34.778  18.358  24.624  1.00  0.00     0.051 A 
ATOM     25  C   UNL A   1      32.531  19.153  24.918  1.00  0.00     0.051 A 
ATOM     26  C   UNL A   1      35.276  19.656  24.830  1.00  0.00     0.055 A 
ATOM     27  C   UNL A   1      33.029  20.447  25.105  1.00  0.00     0.055 A 
BRANCH  23  28
ATOM     28  O   UNL A   1      33.029  16.823  24.343  1.00  0.00    -0.497 OA
ATOM     29  C   UNL A   1      32.682  16.021  25.470  1.00  0.00     0.278 C 
ENDBRANCH  23  28
ENDBRANCH  13  22
ENDBRANCH   7  12
ENDBRANCH   3   6
ENDBRANCH   1   2
BRANCH   1  30
ATOM     30  C   UNL A   1      32.248  29.619  27.121  1.00  0.00     0.042 C 
BRANCH  30  31
ATOM     31  C   UNL A   1      33.742  29.785  27.367  1.00  0.00     0.118 C 
BRANCH  31  32
ATOM     32  N   UNL A   1      34.111  30.772  28.384  1.00  0.00    -0.352 N 
ATOM     33  C   UNL A   1      35.281  30.972  29.083  1.00  0.00     0.251 C 
ATOM     34  H   UNL A   1      33.393  31.407  28.608  1.00  0.00     0.163 HD
ATOM     35  O   UNL A   1      35.339  31.881  29.908  1.00  0.00    -0.269 OA
BRANCH  33  36
ATOM     36  C   UNL A   1      36.420  30.040  28.935  1.00  0.00     0.039 A 
ATOM     37  C   UNL A   1      37.064  29.982  27.696  1.00  0.00     0.014 A 
ATOM     38  C   UNL A   1      36.940  29.339  30.019  1.00  0.00     0.014 A 
ATOM     39  C   UNL A   1      38.314  29.378  27.598  1.00  0.00     0.010 A 
ATOM     40  C   UNL A   1      38.248  28.881  29.963  1.00  0.00     0.010 A 
ATOM     41  C   UNL A   1      38.958  28.916  28.757  1.00  0.00    -0.014 A 
BRANCH  41  42
ATOM     42  C   UNL A   1      40.381  28.507  28.727  1.00  0.00     0.031 A 
ATOM     43  C   UNL A   1      40.748  27.089  28.397  1.00  0.00     0.074 A 
ATOM     44  C   UNL A   1      41.332  29.403  29.064  1.00  0.00     0.049 A 
ATOM     45  N   UNL A   1      41.932  26.535  28.352  1.00  0.00    -0.248 NA
ATOM     46  C   UNL A   1      39.640  26.160  28.113  1.00  0.00     0.031 C 
ATOM     47  C   UNL A   1      41.088  30.789  29.481  1.00  0.00     0.029 A 
ATOM     48  N   UNL A   1      42.698  29.288  29.109  1.00  0.00    -0.354 N 
ATOM     49  C   UNL A   1      41.707  25.199  28.042  1.00  0.00     0.074 A 
ATOM     50  C   UNL A   1      40.277  25.006  27.993  1.00  0.00     0.031 C 
ATOM     51  C   UNL A   1      42.263  31.406  29.684  1.00  0.00     0.029 A 
ATOM     52  C   UNL A   1      43.340  30.451  29.460  1.00  0.00     0.049 A 
ATOM     53  H   UNL A   1      43.174  28.449  28.908  1.00  0.00     0.167 HD
ATOM     54  C   UNL A   1      42.612  24.228  27.780  1.00  0.00     0.031 A 
ATOM     55  C   UNL A   1      44.654  30.718  29.585  1.00  0.00     0.031 A 
ATOM     56  C   UNL A   1      44.033  24.429  27.826  1.00  0.00     0.049 A 
ATOM     57  C   UNL A   1      45.638  29.619  29.292  1.00  0.00     0.074 A 
ATOM     58  C   UNL A   1      45.042  23.527  27.550  1.00  0.00     0.029 A 
ATOM     59  N   UNL A   1      44.644  25.628  28.165  1.00  0.00    -0.354 N 
ATOM     60  N   UNL A   1      45.409  28.380  28.928  1.00  0.00    -0.248 NA
ATOM     61  C   UNL A   1      47.062  29.958  29.412  1.00  0.00     0.031 C 
ATOM     62  C   UNL A   1      46.267  24.167  27.765  1.00  0.00     0.029 A 
ATOM     63  C   UNL A   1      46.019  25.485  28.116  1.00  0.00     0.049 A 
ATOM     64  H   UNL A   1      44.169  26.456  28.405  1.00  0.00     0.167 HD
ATOM     65  C   UNL A   1      46.658  27.802  28.743  1.00  0.00     0.074 A 
ATOM     66  C   UNL A   1      47.638  28.833  29.017  1.00  0.00     0.031 C 
ATOM     67  C   UNL A   1      46.968  26.532  28.385  1.00  0.00     0.031 A 
BRANCH  54  68
ATOM     68  C   UNL A   1      42.075  22.874  27.408  1.00  0.00    -0.014 A 
ATOM     69  C   UNL A   1      41.889  21.879  28.383  1.00  0.00     0.009 A 
ATOM     70  C   UNL A   1      41.741  22.589  26.076  1.00  0.00     0.009 A 
ATOM     71  C   UNL A   1      41.418  20.615  28.025  1.00  0.00     0.001 A 
ATOM     72  C   UNL A   1      41.241  21.333  25.726  1.00  0.00     0.001 A 
ATOM     73  C   UNL A   1      41.090  20.344  26.698  1.00  0.00     0.000 A 
ENDBRANCH  54  68
BRANCH  55  74
ATOM     74  C   UNL A   1      45.120  32.074  29.983  1.00  0.00    -0.014 A 
ATOM     75  C   UNL A   1      45.185  32.442  31.338  1.00  0.00     0.009 A 
ATOM     76  C   UNL A   1      45.480  33.020  29.011  1.00  0.00     0.009 A 
ATOM     77  C   UNL A   1      45.556  33.738  31.705  1.00  0.00     0.001 A 
ATOM     78  C   UNL A   1      45.883  34.305  29.382  1.00  0.00     0.001 A 
ATOM     79  C   UNL A   1      45.907  34.667  30.728  1.00  0.00     0.000 A 
ENDBRANCH  55  74
BRANCH  67  80
ATOM     80  C   UNL A   1      48.426  26.209  28.221  1.00  0.00    -0.014 A 
ATOM     81  C   UNL A   1      49.186  25.699  29.285  1.00  0.00     0.009 A 
ATOM     82  C   UNL A   1      49.034  26.383  26.968  1.00  0.00     0.009 A 
ATOM     83  C   UNL A   1      50.538  25.404  29.105  1.00  0.00     0.001 A 
ATOM     84  C   UNL A   1      50.377  26.056  26.784  1.00  0.00     0.001 A 
ATOM     85  C   UNL A   1      51.131  25.578  27.854  1.00  0.00     0.000 A 
ENDBRANCH  67  80
ENDBRANCH  41  42
ENDBRANCH  33  36
ENDBRANCH  31  32
ENDBRANCH  30  31
ENDBRANCH   1  30
TORSDOF 13
ENDMDL
MODEL 3
REMARK VINA RESULT:     -12.5      2.778      4.226
REMARK SMILES COc1ccc(NC2=[NH+]C(=O)/C(=C\c3ccccc3C(=O)NCCCNC(=O)c3ccc(-c4c5nc(c(-c6ccccc6)c6ccc([nH]6)c(-c6ccccc6)c6nc(c(-c7ccccc7)c7ccc4[nH]7)C=C6)C=C5)cc3)S2)cc1
REMARK SMILES IDX 23 1 22 2 20 3 21 4 19 6 14 7 15 8 16 9 18 10 17 11 13 12
REMARK SMILES IDX 7 13 8 14 9 16 77 17 10 18 12 20 11 21 6 22 3 23 4 24 79 25
REMARK SMILES IDX 5 26 78 27 2 28 1 29 24 30 25 31 26 32 27 33 28 35 29 36
REMARK SMILES IDX 30 37 76 38 31 39 75 40 32 41 33 42 34 43 69 44 35 45 74 46
REMARK SMILES IDX 68 47 70 48 36 49 73 50 67 51 66 52 37 54 59 55 44 56 58 57
REMARK SMILES IDX 45 58 48 59 57 60 71 61 46 62 47 63 56 65 72 66 49 67 38 68
REMARK SMILES IDX 39 69 43 70 40 71 42 72 41 73 60 74 61 75 65 76 62 77 64 78
REMARK SMILES IDX 63 79 50 80 51 81 55 82 52 83 54 84 53 85
REMARK H PARENT 22 5 7 15 9 19 26 34 70 53 48 64
REMARK Flexibility Score: inf
ROOT
ATOM      1  C   UNL A   1      32.965  29.524  26.442  1.00  0.00     0.118 C 
ENDROOT
BRANCH   1   2
ATOM      2  N   UNL A   1      33.517  29.483  25.114  1.00  0.00    -0.352 N 
ATOM      3  C   UNL A   1      32.928  29.000  23.965  1.00  0.00     0.251 C 
ATOM      4  O   UNL A   1      33.579  29.060  22.921  1.00  0.00    -0.269 OA
ATOM      5  H   UNL A   1      34.427  29.844  25.014  1.00  0.00     0.163 HD
BRANCH   3   6
ATOM      6  C   UNL A   1      31.611  28.284  23.981  1.00  0.00     0.047 A 
ATOM      7  C   UNL A   1      31.326  27.001  24.502  1.00  0.00    -0.011 A 
ATOM      8  C   UNL A   1      30.066  26.432  24.211  1.00  0.00     0.009 A 
ATOM      9  C   UNL A   1      29.078  27.142  23.526  1.00  0.00     0.001 A 
ATOM     10  C   UNL A   1      30.579  29.009  23.347  1.00  0.00     0.014 A 
ATOM     11  C   UNL A   1      29.322  28.448  23.128  1.00  0.00     0.001 A 
BRANCH   7  12
ATOM     12  C   UNL A   1      32.208  26.110  25.287  1.00  0.00     0.032 C 
ATOM     13  N   UNL A   1      34.860  21.897  24.857  1.00  0.00    -0.235 N 
ATOM     14  C   UNL A   1      34.292  23.094  24.540  1.00  0.00     0.322 C 
ATOM     15  H   UNL A   1      35.741  21.937  25.295  1.00  0.00     0.313 HD
ATOM     16  N   UNL A   1      33.970  23.572  23.386  1.00  0.00    -0.199 N 
ATOM     17  S   UNL A   1      33.955  24.142  25.915  1.00  0.00     0.006 SA
ATOM     18  C   UNL A   1      33.483  24.861  23.459  1.00  0.00     0.346 C 
ATOM     19  H   UNL A   1      34.063  23.071  22.544  1.00  0.00     0.316 HD
ATOM     20  C   UNL A   1      33.113  25.218  24.857  1.00  0.00     0.110 C 
ATOM     21  O   UNL A   1      33.405  25.646  22.526  1.00  0.00    -0.240 OA
BRANCH  13  22
ATOM     22  C   UNL A   1      34.336  20.608  24.628  1.00  0.00     0.125 A 
ATOM     23  C   UNL A   1      33.406  17.942  24.504  1.00  0.00     0.119 A 
ATOM     24  C   UNL A   1      32.527  19.013  24.334  1.00  0.00     0.051 A 
ATOM     25  C   UNL A   1      34.767  18.201  24.624  1.00  0.00     0.051 A 
ATOM     26  C   UNL A   1      32.990  20.339  24.372  1.00  0.00     0.055 A 
ATOM     27  C   UNL A   1      35.224  19.522  24.680  1.00  0.00     0.055 A 
BRANCH  23  28
ATOM     28  O   UNL A   1      32.835  16.698  24.519  1.00  0.00    -0.497 OA
ATOM     29  C   UNL A   1      33.551  15.697  25.242  1.00  0.00     0.278 C 
ENDBRANCH  23  28
ENDBRANCH  13  22
ENDBRANCH   7  12
ENDBRANCH   3   6
ENDBRANCH   1   2
BRANCH   1  30
ATOM     30  C   UNL A   1      32.350  30.831  26.883  1.00  0.00     0.042 C 
BRANCH  30  31
ATOM     31  C   UNL A   1      33.348  31.922  27.251  1.00  0.00     0.118 C 
BRANCH  31  32
ATOM     32  N   UNL A   1      32.765  33.208  27.638  1.00  0.00    -0.352 N 
ATOM     33  C   UNL A   1      33.220  34.204  28.475  1.00  0.00     0.251 C 
ATOM     34  H   UNL A   1      31.892  33.396  27.226  1.00  0.00     0.163 HD
ATOM     35  O   UNL A   1      32.528  35.204  28.648  1.00  0.00    -0.269 OA
BRANCH  33  36
ATOM     36  C   UNL A   1      34.467  34.030  29.250  1.00  0.00     0.039 A 
ATOM     37  C   UNL A   1      34.399  33.321  30.452  1.00  0.00     0.014 A 
ATOM     38  C   UNL A   1      35.704  34.427  28.750  1.00  0.00     0.014 A 
ATOM     39  C   UNL A   1      35.570  32.859  31.046  1.00  0.00     0.010 A 
ATOM     40  C   UNL A   1      36.856  33.835  29.246  1.00  0.00     0.010 A 
ATOM     41  C   UNL A   1      36.798  33.025  30.387  1.00  0.00    -0.014 A 
BRANCH  41  42
ATOM     42  C   UNL A   1      38.017  32.327  30.857  1.00  0.00     0.031 A 
ATOM     43  C   UNL A   1      38.784  32.864  32.032  1.00  0.00     0.074 A 
ATOM     44  C   UNL A   1      38.464  31.250  30.178  1.00  0.00     0.049 A 
ATOM     45  N   UNL A   1      39.887  32.413  32.569  1.00  0.00    -0.248 NA
ATOM     46  C   UNL A   1      38.264  34.087  32.667  1.00  0.00     0.031 C 
ATOM     47  C   UNL A   1      37.845  30.686  28.973  1.00  0.00     0.029 A 
ATOM     48  N   UNL A   1      39.540  30.431  30.404  1.00  0.00    -0.354 N 
ATOM     49  C   UNL A   1      40.192  33.298  33.595  1.00  0.00     0.074 A 
ATOM     50  C   UNL A   1      39.210  34.356  33.554  1.00  0.00     0.031 C 
ATOM     51  C   UNL A   1      38.519  29.586  28.601  1.00  0.00     0.029 A 
ATOM     52  C   UNL A   1      39.643  29.393  29.508  1.00  0.00     0.049 A 
ATOM     53  H   UNL A   1      40.181  30.573  31.138  1.00  0.00     0.167 HD
ATOM     54  C   UNL A   1      41.178  33.216  34.518  1.00  0.00     0.031 A 
ATOM     55  C   UNL A   1      40.543  28.395  29.430  1.00  0.00     0.031 A 
ATOM     56  C   UNL A   1      42.148  32.158  34.557  1.00  0.00     0.049 A 
ATOM     57  C   UNL A   1      41.632  28.331  30.465  1.00  0.00     0.074 A 
ATOM     58  C   UNL A   1      43.172  31.957  35.463  1.00  0.00     0.029 A 
ATOM     59  N   UNL A   1      42.205  31.115  33.644  1.00  0.00    -0.354 N 
ATOM     60  N   UNL A   1      41.861  29.136  31.475  1.00  0.00    -0.248 NA
ATOM     61  C   UNL A   1      42.576  27.211  30.362  1.00  0.00     0.031 C 
ATOM     62  C   UNL A   1      43.877  30.814  35.074  1.00  0.00     0.029 A 
ATOM     63  C   UNL A   1      43.255  30.271  33.960  1.00  0.00     0.049 A 
ATOM     64  H   UNL A   1      41.590  30.992  32.886  1.00  0.00     0.167 HD
ATOM     65  C   UNL A   1      42.954  28.603  32.144  1.00  0.00     0.074 A 
ATOM     66  C   UNL A   1      43.327  27.395  31.437  1.00  0.00     0.031 C 
ATOM     67  C   UNL A   1      43.595  29.071  33.243  1.00  0.00     0.031 A 
BRANCH  54  68
ATOM     68  C   UNL A   1      41.231  34.297  35.561  1.00  0.00    -0.014 A 
ATOM     69  C   UNL A   1      42.083  35.405  35.409  1.00  0.00     0.009 A 
ATOM     70  C   UNL A   1      40.418  34.219  36.701  1.00  0.00     0.009 A 
ATOM     71  C   UNL A   1      42.149  36.390  36.396  1.00  0.00     0.001 A 
ATOM     72  C   UNL A   1      40.464  35.222  37.673  1.00  0.00     0.001 A 
ATOM     73  C   UNL A   1      41.336  36.300  37.524  1.00  0.00     0.000 A 
ENDBRANCH  54  68
BRANCH  55  74
ATOM     74  C   UNL A   1      40.449  27.369  28.355  1.00  0.00    -0.014 A 
ATOM     75  C   UNL A   1      39.711  26.190  28.551  1.00  0.00     0.009 A 
ATOM     76  C   UNL A   1      41.119  27.549  27.135  1.00  0.00     0.009 A 
ATOM     77  C   UNL A   1      39.681  25.198  27.568  1.00  0.00     0.001 A 
ATOM     78  C   UNL A   1      41.060  26.570  26.140  1.00  0.00     0.001 A 
ATOM     79  C   UNL A   1      40.354  25.390  26.362  1.00  0.00     0.000 A 
ENDBRANCH  55  74
BRANCH  67  80
ATOM     80  C   UNL A   1      44.733  28.244  33.769  1.00  0.00    -0.014 A 
ATOM     81  C   UNL A   1      46.057  28.482  33.370  1.00  0.00     0.009 A 
ATOM     82  C   UNL A   1      44.475  27.237  34.712  1.00  0.00     0.009 A 
ATOM     83  C   UNL A   1      47.096  27.701  33.877  1.00  0.00     0.001 A 
ATOM     84  C   UNL A   1      45.519  26.480  35.242  1.00  0.00     0.001 A 
ATOM     85  C   UNL A   1      46.827  26.705  34.816  1.00  0.00     0.000 A 
ENDBRANCH  67  80
ENDBRANCH  41  42
ENDBRANCH  33  36
ENDBRANCH  31  32
ENDBRANCH  30  31
ENDBRANCH   1  30
TORSDOF 13
ENDMDL
