MODEL 1
REMARK VINA RESULT:     -11.8      0.000      0.000
REMARK SMILES C[N@H+]1CCO[C@H](CNC(=O)N2CC[C@@](C)(C(=O)NCCCNC(=O)c3ccc(-c4c5nc(c(-c6ccccc6)c6ccc([nH]6)c(-c6ccccc6)c6nc(c(-c7ccccc7)c7ccc4[nH]7)C=C6)C=C5)cc3)C2)C1
REMARK SMILES IDX 19 1 18 2 16 3 17 4 14 6 11 7 12 8 73 9 13 10 15 11 9 12
REMARK SMILES IDX 8 13 10 15 7 16 6 17 1 18 2 19 3 20 74 21 4 23 5 24 20 25
REMARK SMILES IDX 21 26 22 27 23 28 24 30 25 31 26 32 72 33 27 34 71 35 28 36
REMARK SMILES IDX 29 37 30 38 65 39 31 40 70 41 64 42 66 43 32 44 69 45 63 46
REMARK SMILES IDX 62 47 33 49 55 50 40 51 54 52 41 53 44 54 53 55 67 56 42 57
REMARK SMILES IDX 43 58 52 60 68 61 45 62 34 63 35 64 39 65 36 66 38 67 37 68
REMARK SMILES IDX 56 69 57 70 61 71 58 72 60 73 59 74 46 75 47 76 51 77 48 78
REMARK SMILES IDX 50 79 49 80
REMARK H PARENT 18 5 8 14 2 22 22 29 66 48 44 59
REMARK Flexibility Score: inf
ROOT
ATOM      1  C   UNL A   1      36.470  21.061  25.169  1.00  0.00     0.117 C 
ENDROOT
BRANCH   1   2
ATOM      2  N   UNL A   1      35.242  20.292  25.260  1.00  0.00    -0.356 N 
ATOM      3  C   UNL A   1      33.930  20.593  25.392  1.00  0.00     0.227 C 
ATOM      4  O   UNL A   1      33.211  19.618  25.656  1.00  0.00    -0.274 OA
ATOM      5  H   UNL A   1      35.402  19.321  25.212  1.00  0.00     0.163 HD
BRANCH   3   6
ATOM      6  C   UNL A   1      33.285  21.965  25.138  1.00  0.00     0.066 C 
ATOM      7  N   UNL A   1      31.508  22.702  26.583  1.00  0.00    -0.324 N 
ATOM      8  C   UNL A   1      32.739  23.000  27.284  1.00  0.00     0.122 C 
ATOM      9  C   UNL A   1      31.775  21.822  25.460  1.00  0.00     0.138 C 
ATOM     10  C   UNL A   1      33.811  22.957  26.212  1.00  0.00     0.040 C 
ATOM     11  C   UNL A   1      33.472  22.614  23.769  1.00  0.00     0.024 C 
BRANCH   7  12
ATOM     12  C   UNL A   1      30.361  23.362  26.891  1.00  0.00     0.317 C 
ATOM     13  N   UNL A   1      30.113  24.593  26.398  1.00  0.00    -0.335 N 
ATOM     14  H   UNL A   1      29.531  25.140  26.972  1.00  0.00     0.165 HD
ATOM     15  O   UNL A   1      29.502  22.873  27.626  1.00  0.00    -0.249 OA
BRANCH  13  16
ATOM     16  C   UNL A   1      30.542  25.267  25.180  1.00  0.00     0.155 C 
BRANCH  16  17
ATOM     17  C   UNL A   1      31.244  26.605  25.480  1.00  0.00     0.192 C 
ATOM     18  C   UNL A   1      33.348  28.794  24.554  1.00  0.00     0.332 C 
ATOM     19  N   UNL A   1      33.551  27.681  25.477  1.00  0.00    -0.333 N 
ATOM     20  C   UNL A   1      33.260  28.069  26.874  1.00  0.00     0.290 C 
ATOM     21  C   UNL A   1      32.744  26.497  25.125  1.00  0.00     0.296 C 
ATOM     22  H   UNL A   1      34.538  27.432  25.394  1.00  0.00     0.348 HD
ATOM     23  C   UNL A   1      31.758  28.129  27.212  1.00  0.00     0.222 C 
ATOM     24  O   UNL A   1      31.103  26.894  26.888  1.00  0.00    -0.365 OA
ENDBRANCH  16  17
ENDBRANCH  13  16
ENDBRANCH   7  12
ENDBRANCH   3   6
ENDBRANCH   1   2
BRANCH   1  25
ATOM     25  C   UNL A   1      37.677  20.160  24.917  1.00  0.00     0.042 C 
BRANCH  25  26
ATOM     26  C   UNL A   1      38.879  20.489  25.803  1.00  0.00     0.118 C 
BRANCH  26  27
ATOM     27  N   UNL A   1      39.862  19.413  25.831  1.00  0.00    -0.352 N 
ATOM     28  C   UNL A   1      41.228  19.452  25.981  1.00  0.00     0.251 C 
ATOM     29  H   UNL A   1      39.486  18.508  25.724  1.00  0.00     0.163 HD
ATOM     30  O   UNL A   1      41.893  18.448  25.750  1.00  0.00    -0.269 OA
BRANCH  28  31
ATOM     31  C   UNL A   1      41.899  20.700  26.400  1.00  0.00     0.039 A 
ATOM     32  C   UNL A   1      42.308  21.610  25.421  1.00  0.00     0.014 A 
ATOM     33  C   UNL A   1      42.141  20.966  27.749  1.00  0.00     0.014 A 
ATOM     34  C   UNL A   1      42.873  22.830  25.802  1.00  0.00     0.010 A 
ATOM     35  C   UNL A   1      42.632  22.210  28.130  1.00  0.00     0.010 A 
ATOM     36  C   UNL A   1      42.987  23.161  27.162  1.00  0.00    -0.014 A 
BRANCH  36  37
ATOM     37  C   UNL A   1      43.428  24.509  27.600  1.00  0.00     0.031 A 
ATOM     38  C   UNL A   1      42.417  25.558  27.968  1.00  0.00     0.074 A 
ATOM     39  C   UNL A   1      44.740  24.816  27.569  1.00  0.00     0.049 A 
ATOM     40  N   UNL A   1      42.607  26.822  28.251  1.00  0.00    -0.248 NA
ATOM     41  C   UNL A   1      41.007  25.139  27.999  1.00  0.00     0.031 C 
ATOM     42  C   UNL A   1      45.819  23.896  27.204  1.00  0.00     0.029 A 
ATOM     43  N   UNL A   1      45.389  25.998  27.831  1.00  0.00    -0.354 N 
ATOM     44  C   UNL A   1      41.343  27.352  28.477  1.00  0.00     0.074 A 
ATOM     45  C   UNL A   1      40.391  26.284  28.255  1.00  0.00     0.031 C 
ATOM     46  C   UNL A   1      46.993  24.541  27.282  1.00  0.00     0.029 A 
ATOM     47  C   UNL A   1      46.750  25.931  27.647  1.00  0.00     0.049 A 
ATOM     48  H   UNL A   1      44.923  26.815  28.124  1.00  0.00     0.167 HD
ATOM     49  C   UNL A   1      41.006  28.610  28.847  1.00  0.00     0.031 A 
ATOM     50  C   UNL A   1      47.693  26.887  27.736  1.00  0.00     0.031 A 
ATOM     51  C   UNL A   1      41.954  29.670  29.065  1.00  0.00     0.049 A 
ATOM     52  C   UNL A   1      47.286  28.289  28.092  1.00  0.00     0.074 A 
ATOM     53  C   UNL A   1      41.715  30.963  29.499  1.00  0.00     0.029 A 
ATOM     54  N   UNL A   1      43.320  29.563  28.856  1.00  0.00    -0.354 N 
ATOM     55  N   UNL A   1      46.094  28.756  28.373  1.00  0.00    -0.248 NA
ATOM     56  C   UNL A   1      48.355  29.297  28.142  1.00  0.00     0.031 C 
ATOM     57  C   UNL A   1      42.929  31.658  29.488  1.00  0.00     0.029 A 
ATOM     58  C   UNL A   1      43.932  30.779  29.110  1.00  0.00     0.049 A 
ATOM     59  H   UNL A   1      43.786  28.745  28.569  1.00  0.00     0.167 HD
ATOM     60  C   UNL A   1      46.271  30.105  28.650  1.00  0.00     0.074 A 
ATOM     61  C   UNL A   1      47.689  30.377  28.526  1.00  0.00     0.031 C 
ATOM     62  C   UNL A   1      45.343  31.037  28.976  1.00  0.00     0.031 A 
BRANCH  49  63
ATOM     63  C   UNL A   1      39.544  28.915  29.024  1.00  0.00    -0.014 A 
ATOM     64  C   UNL A   1      38.759  29.375  27.954  1.00  0.00     0.009 A 
ATOM     65  C   UNL A   1      38.931  28.697  30.269  1.00  0.00     0.009 A 
ATOM     66  C   UNL A   1      37.401  29.645  28.136  1.00  0.00     0.001 A 
ATOM     67  C   UNL A   1      37.566  28.940  30.440  1.00  0.00     0.001 A 
ATOM     68  C   UNL A   1      36.805  29.423  29.377  1.00  0.00     0.000 A 
ENDBRANCH  49  63
BRANCH  50  69
ATOM     69  C   UNL A   1      49.118  26.555  27.467  1.00  0.00    -0.014 A 
ATOM     70  C   UNL A   1      49.601  26.501  26.152  1.00  0.00     0.009 A 
ATOM     71  C   UNL A   1      50.001  26.284  28.525  1.00  0.00     0.009 A 
ATOM     72  C   UNL A   1      50.932  26.158  25.899  1.00  0.00     0.001 A 
ATOM     73  C   UNL A   1      51.339  25.972  28.272  1.00  0.00     0.001 A 
ATOM     74  C   UNL A   1      51.800  25.899  26.959  1.00  0.00     0.000 A 
ENDBRANCH  50  69
BRANCH  62  75
ATOM     75  C   UNL A   1      45.828  32.435  29.236  1.00  0.00    -0.014 A 
ATOM     76  C   UNL A   1      46.273  32.823  30.508  1.00  0.00     0.009 A 
ATOM     77  C   UNL A   1      45.898  33.356  28.179  1.00  0.00     0.009 A 
ATOM     78  C   UNL A   1      46.760  34.114  30.722  1.00  0.00     0.001 A 
ATOM     79  C   UNL A   1      46.413  34.636  28.389  1.00  0.00     0.001 A 
ATOM     80  C   UNL A   1      46.837  35.016  29.661  1.00  0.00     0.000 A 
ENDBRANCH  62  75
ENDBRANCH  36  37
ENDBRANCH  28  31
ENDBRANCH  26  27
ENDBRANCH  25  26
ENDBRANCH   1  25
TORSDOF 13
ENDMDL
MODEL 2
REMARK VINA RESULT:     -11.6      1.385      6.081
REMARK SMILES C[N@H+]1CCO[C@H](CNC(=O)N2CC[C@@](C)(C(=O)NCCCNC(=O)c3ccc(-c4c5nc(c(-c6ccccc6)c6ccc([nH]6)c(-c6ccccc6)c6nc(c(-c7ccccc7)c7ccc4[nH]7)C=C6)C=C5)cc3)C2)C1
REMARK SMILES IDX 19 1 18 2 16 3 17 4 14 6 11 7 12 8 73 9 13 10 15 11 9 12
REMARK SMILES IDX 8 13 10 15 7 16 6 17 1 18 2 19 3 20 74 21 4 23 5 24 20 25
REMARK SMILES IDX 21 26 22 27 23 28 24 30 25 31 26 32 72 33 27 34 71 35 28 36
REMARK SMILES IDX 29 37 30 38 65 39 31 40 70 41 64 42 66 43 32 44 69 45 63 46
REMARK SMILES IDX 62 47 33 49 55 50 40 51 54 52 41 53 44 54 53 55 67 56 42 57
REMARK SMILES IDX 43 58 52 60 68 61 45 62 34 63 35 64 39 65 36 66 38 67 37 68
REMARK SMILES IDX 56 69 57 70 61 71 58 72 60 73 59 74 46 75 47 76 51 77 48 78
REMARK SMILES IDX 50 79 49 80
REMARK H PARENT 18 5 8 14 2 22 22 29 66 48 44 59
REMARK Flexibility Score: inf
ROOT
ATOM      1  C   UNL A   1      36.383  20.890  24.978  1.00  0.00     0.117 C 
ENDROOT
BRANCH   1   2
ATOM      2  N   UNL A   1      35.131  20.164  25.102  1.00  0.00    -0.356 N 
ATOM      3  C   UNL A   1      33.837  20.511  25.285  1.00  0.00     0.227 C 
ATOM      4  O   UNL A   1      33.093  19.559  25.562  1.00  0.00    -0.274 OA
ATOM      5  H   UNL A   1      35.254  19.189  25.037  1.00  0.00     0.163 HD
BRANCH   3   6
ATOM      6  C   UNL A   1      33.234  21.909  25.069  1.00  0.00     0.066 C 
ATOM      7  N   UNL A   1      31.481  22.659  26.538  1.00  0.00    -0.324 N 
ATOM      8  C   UNL A   1      32.721  22.900  27.245  1.00  0.00     0.122 C 
ATOM      9  C   UNL A   1      31.721  21.803  25.390  1.00  0.00     0.138 C 
ATOM     10  C   UNL A   1      33.791  22.853  26.171  1.00  0.00     0.040 C 
ATOM     11  C   UNL A   1      33.440  22.590  23.719  1.00  0.00     0.024 C 
BRANCH   7  12
ATOM     12  C   UNL A   1      30.355  23.345  26.865  1.00  0.00     0.317 C 
ATOM     13  N   UNL A   1      30.129  24.583  26.380  1.00  0.00    -0.335 N 
ATOM     14  H   UNL A   1      29.569  25.143  26.964  1.00  0.00     0.165 HD
ATOM     15  O   UNL A   1      29.496  22.875  27.612  1.00  0.00    -0.249 OA
BRANCH  13  16
ATOM     16  C   UNL A   1      30.555  25.251  25.157  1.00  0.00     0.155 C 
BRANCH  16  17
ATOM     17  C   UNL A   1      31.380  26.519  25.452  1.00  0.00     0.192 C 
ATOM     18  C   UNL A   1      31.603  29.678  25.245  1.00  0.00     0.332 C 
ATOM     19  N   UNL A   1      32.170  28.673  24.351  1.00  0.00    -0.333 N 
ATOM     20  C   UNL A   1      33.529  28.271  24.771  1.00  0.00     0.290 C 
ATOM     21  C   UNL A   1      31.321  27.471  24.237  1.00  0.00     0.296 C 
ATOM     22  H   UNL A   1      32.218  29.119  23.433  1.00  0.00     0.348 HD
ATOM     23  C   UNL A   1      33.556  27.289  25.958  1.00  0.00     0.222 C 
ATOM     24  O   UNL A   1      32.750  26.132  25.693  1.00  0.00    -0.365 OA
ENDBRANCH  16  17
ENDBRANCH  13  16
ENDBRANCH   7  12
ENDBRANCH   3   6
ENDBRANCH   1   2
BRANCH   1  25
ATOM     25  C   UNL A   1      37.578  19.939  24.943  1.00  0.00     0.042 C 
BRANCH  25  26
ATOM     26  C   UNL A   1      38.794  20.461  25.709  1.00  0.00     0.118 C 
BRANCH  26  27
ATOM     27  N   UNL A   1      39.860  19.470  25.805  1.00  0.00    -0.352 N 
ATOM     28  C   UNL A   1      41.199  19.619  26.076  1.00  0.00     0.251 C 
ATOM     29  H   UNL A   1      39.573  18.541  25.649  1.00  0.00     0.163 HD
ATOM     30  O   UNL A   1      41.965  18.682  25.887  1.00  0.00    -0.269 OA
BRANCH  28  31
ATOM     31  C   UNL A   1      41.721  20.908  26.576  1.00  0.00     0.039 A 
ATOM     32  C   UNL A   1      42.274  21.814  25.666  1.00  0.00     0.014 A 
ATOM     33  C   UNL A   1      41.684  21.217  27.938  1.00  0.00     0.014 A 
ATOM     34  C   UNL A   1      42.701  23.068  26.109  1.00  0.00     0.010 A 
ATOM     35  C   UNL A   1      42.038  22.493  28.365  1.00  0.00     0.010 A 
ATOM     36  C   UNL A   1      42.534  23.437  27.453  1.00  0.00    -0.014 A 
BRANCH  36  37
ATOM     37  C   UNL A   1      42.823  24.814  27.924  1.00  0.00     0.031 A 
ATOM     38  C   UNL A   1      44.208  25.192  28.369  1.00  0.00     0.074 A 
ATOM     39  C   UNL A   1      41.812  25.696  28.044  1.00  0.00     0.049 A 
ATOM     40  N   UNL A   1      44.621  26.302  28.925  1.00  0.00    -0.248 NA
ATOM     41  C   UNL A   1      45.263  24.182  28.185  1.00  0.00     0.031 C 
ATOM     42  C   UNL A   1      40.417  25.444  27.674  1.00  0.00     0.029 A 
ATOM     43  N   UNL A   1      41.796  26.980  28.533  1.00  0.00    -0.354 N 
ATOM     44  C   UNL A   1      45.976  26.119  29.174  1.00  0.00     0.074 A 
ATOM     45  C   UNL A   1      46.305  24.776  28.747  1.00  0.00     0.031 C 
ATOM     46  C   UNL A   1      39.687  26.541  27.931  1.00  0.00     0.029 A 
ATOM     47  C   UNL A   1      40.546  27.553  28.535  1.00  0.00     0.049 A 
ATOM     48  H   UNL A   1      42.604  27.445  28.851  1.00  0.00     0.167 HD
ATOM     49  C   UNL A   1      46.866  26.994  29.697  1.00  0.00     0.031 A 
ATOM     50  C   UNL A   1      40.131  28.748  28.995  1.00  0.00     0.031 A 
ATOM     51  C   UNL A   1      46.535  28.328  30.122  1.00  0.00     0.049 A 
ATOM     52  C   UNL A   1      41.130  29.678  29.625  1.00  0.00     0.074 A 
ATOM     53  C   UNL A   1      47.379  29.310  30.611  1.00  0.00     0.029 A 
ATOM     54  N   UNL A   1      45.257  28.864  30.118  1.00  0.00    -0.354 N 
ATOM     55  N   UNL A   1      42.420  29.517  29.786  1.00  0.00    -0.248 NA
ATOM     56  C   UNL A   1      40.613  30.955  30.139  1.00  0.00     0.031 C 
ATOM     57  C   UNL A   1      46.601  30.417  30.966  1.00  0.00     0.029 A 
ATOM     58  C   UNL A   1      45.282  30.148  30.637  1.00  0.00     0.049 A 
ATOM     59  H   UNL A   1      44.450  28.401  29.795  1.00  0.00     0.167 HD
ATOM     60  C   UNL A   1      42.873  30.676  30.402  1.00  0.00     0.074 A 
ATOM     61  C   UNL A   1      41.723  31.542  30.565  1.00  0.00     0.031 C 
ATOM     62  C   UNL A   1      44.129  30.995  30.799  1.00  0.00     0.031 A 
BRANCH  49  63
ATOM     63  C   UNL A   1      48.288  26.528  29.857  1.00  0.00    -0.014 A 
ATOM     64  C   UNL A   1      48.705  25.840  31.008  1.00  0.00     0.009 A 
ATOM     65  C   UNL A   1      49.212  26.741  28.823  1.00  0.00     0.009 A 
ATOM     66  C   UNL A   1      50.026  25.408  31.135  1.00  0.00     0.001 A 
ATOM     67  C   UNL A   1      50.526  26.281  28.939  1.00  0.00     0.001 A 
ATOM     68  C   UNL A   1      50.935  25.625  30.099  1.00  0.00     0.000 A 
ENDBRANCH  49  63
BRANCH  50  69
ATOM     69  C   UNL A   1      38.698  29.130  28.892  1.00  0.00    -0.014 A 
ATOM     70  C   UNL A   1      38.191  29.681  27.705  1.00  0.00     0.009 A 
ATOM     71  C   UNL A   1      37.830  28.952  29.980  1.00  0.00     0.009 A 
ATOM     72  C   UNL A   1      36.852  30.069  27.620  1.00  0.00     0.001 A 
ATOM     73  C   UNL A   1      36.484  29.311  29.882  1.00  0.00     0.001 A 
ATOM     74  C   UNL A   1      35.999  29.879  28.706  1.00  0.00     0.000 A 
ENDBRANCH  50  69
BRANCH  62  75
ATOM     75  C   UNL A   1      44.332  32.340  31.436  1.00  0.00    -0.014 A 
ATOM     76  C   UNL A   1      44.266  32.501  32.828  1.00  0.00     0.009 A 
ATOM     77  C   UNL A   1      44.654  33.448  30.637  1.00  0.00     0.009 A 
ATOM     78  C   UNL A   1      44.499  33.750  33.406  1.00  0.00     0.001 A 
ATOM     79  C   UNL A   1      44.916  34.689  31.220  1.00  0.00     0.001 A 
ATOM     80  C   UNL A   1      44.831  34.841  32.603  1.00  0.00     0.000 A 
ENDBRANCH  62  75
ENDBRANCH  36  37
ENDBRANCH  28  31
ENDBRANCH  26  27
ENDBRANCH  25  26
ENDBRANCH   1  25
TORSDOF 13
ENDMDL
MODEL 3
REMARK VINA RESULT:     -11.4      4.849      9.981
REMARK SMILES C[N@H+]1CCO[C@H](CNC(=O)N2CC[C@@](C)(C(=O)NCCCNC(=O)c3ccc(-c4c5nc(c(-c6ccccc6)c6ccc([nH]6)c(-c6ccccc6)c6nc(c(-c7ccccc7)c7ccc4[nH]7)C=C6)C=C5)cc3)C2)C1
REMARK SMILES IDX 19 1 18 2 16 3 17 4 14 6 11 7 12 8 73 9 13 10 15 11 9 12
REMARK SMILES IDX 8 13 10 15 7 16 6 17 1 18 2 19 3 20 74 21 4 23 5 24 20 25
REMARK SMILES IDX 21 26 22 27 23 28 24 30 25 31 26 32 72 33 27 34 71 35 28 36
REMARK SMILES IDX 29 37 30 38 65 39 31 40 70 41 64 42 66 43 32 44 69 45 63 46
REMARK SMILES IDX 62 47 33 49 55 50 40 51 54 52 41 53 44 54 53 55 67 56 42 57
REMARK SMILES IDX 43 58 52 60 68 61 45 62 34 63 35 64 39 65 36 66 38 67 37 68
REMARK SMILES IDX 56 69 57 70 61 71 58 72 60 73 59 74 46 75 47 76 51 77 48 78
REMARK SMILES IDX 50 79 49 80
REMARK H PARENT 18 5 8 14 2 22 22 29 66 48 44 59
REMARK Flexibility Score: inf
ROOT
ATOM      1  C   UNL A   1      31.833  30.339  25.934  1.00  0.00     0.117 C 
ENDROOT
BRANCH   1   2
ATOM      2  N   UNL A   1      31.081  30.165  24.703  1.00  0.00    -0.356 N 
ATOM      3  C   UNL A   1      30.951  29.175  23.792  1.00  0.00     0.227 C 
ATOM      4  O   UNL A   1      30.369  29.517  22.752  1.00  0.00    -0.274 OA
ATOM      5  H   UNL A   1      30.535  30.954  24.482  1.00  0.00     0.163 HD
BRANCH   3   6
ATOM      6  C   UNL A   1      31.349  27.703  23.989  1.00  0.00     0.066 C 
ATOM      7  N   UNL A   1      32.401  26.529  22.171  1.00  0.00    -0.324 N 
ATOM      8  C   UNL A   1      33.454  27.283  22.818  1.00  0.00     0.122 C 
ATOM      9  C   UNL A   1      31.104  26.983  22.638  1.00  0.00     0.138 C 
ATOM     10  C   UNL A   1      32.890  27.638  24.181  1.00  0.00     0.040 C 
ATOM     11  C   UNL A   1      30.701  26.920  25.128  1.00  0.00     0.024 C 
BRANCH   7  12
ATOM     12  C   UNL A   1      32.697  25.441  21.411  1.00  0.00     0.317 C 
ATOM     13  N   UNL A   1      32.611  24.194  21.918  1.00  0.00    -0.335 N 
ATOM     14  H   UNL A   1      33.219  23.550  21.490  1.00  0.00     0.165 HD
ATOM     15  O   UNL A   1      33.055  25.542  20.237  1.00  0.00    -0.249 OA
BRANCH  13  16
ATOM     16  C   UNL A   1      31.791  23.619  22.975  1.00  0.00     0.155 C 
BRANCH  16  17
ATOM     17  C   UNL A   1      32.648  23.076  24.135  1.00  0.00     0.192 C 
ATOM     18  C   UNL A   1      33.351  20.628  26.029  1.00  0.00     0.332 C 
ATOM     19  N   UNL A   1      32.449  21.744  26.295  1.00  0.00    -0.333 N 
ATOM     20  C   UNL A   1      33.152  22.874  26.939  1.00  0.00     0.290 C 
ATOM     21  C   UNL A   1      31.767  22.226  25.078  1.00  0.00     0.296 C 
ATOM     22  H   UNL A   1      31.742  21.378  26.935  1.00  0.00     0.348 HD
ATOM     23  C   UNL A   1      33.989  23.730  25.968  1.00  0.00     0.222 C 
ATOM     24  O   UNL A   1      33.195  24.194  24.868  1.00  0.00    -0.365 OA
ENDBRANCH  16  17
ENDBRANCH  13  16
ENDBRANCH   7  12
ENDBRANCH   3   6
ENDBRANCH   1   2
BRANCH   1  25
ATOM     25  C   UNL A   1      31.479  31.655  26.623  1.00  0.00     0.042 C 
BRANCH  25  26
ATOM     26  C   UNL A   1      32.680  32.345  27.271  1.00  0.00     0.118 C 
BRANCH  26  27
ATOM     27  N   UNL A   1      32.424  33.751  27.561  1.00  0.00    -0.352 N 
ATOM     28  C   UNL A   1      33.028  34.605  28.453  1.00  0.00     0.251 C 
ATOM     29  H   UNL A   1      31.700  34.156  27.030  1.00  0.00     0.163 HD
ATOM     30  O   UNL A   1      32.512  35.689  28.701  1.00  0.00    -0.269 OA
BRANCH  28  31
ATOM     31  C   UNL A   1      34.283  34.215  29.129  1.00  0.00     0.039 A 
ATOM     32  C   UNL A   1      34.213  33.531  30.346  1.00  0.00     0.014 A 
ATOM     33  C   UNL A   1      35.525  34.538  28.577  1.00  0.00     0.014 A 
ATOM     34  C   UNL A   1      35.387  33.086  30.960  1.00  0.00     0.010 A 
ATOM     35  C   UNL A   1      36.686  34.029  29.148  1.00  0.00     0.010 A 
ATOM     36  C   UNL A   1      36.629  33.284  30.336  1.00  0.00    -0.014 A 
BRANCH  36  37
ATOM     37  C   UNL A   1      37.874  32.684  30.874  1.00  0.00     0.031 A 
ATOM     38  C   UNL A   1      38.449  31.440  30.257  1.00  0.00     0.074 A 
ATOM     39  C   UNL A   1      38.432  33.206  31.985  1.00  0.00     0.049 A 
ATOM     40  N   UNL A   1      39.452  30.705  30.665  1.00  0.00    -0.248 NA
ATOM     41  C   UNL A   1      37.797  30.944  29.035  1.00  0.00     0.031 C 
ATOM     42  C   UNL A   1      37.955  34.395  32.695  1.00  0.00     0.029 A 
ATOM     43  N   UNL A   1      39.513  32.792  32.724  1.00  0.00    -0.354 N 
ATOM     44  C   UNL A   1      39.541  29.653  29.763  1.00  0.00     0.074 A 
ATOM     45  C   UNL A   1      38.463  29.821  28.811  1.00  0.00     0.031 C 
ATOM     46  C   UNL A   1      38.747  34.623  33.754  1.00  0.00     0.029 A 
ATOM     47  C   UNL A   1      39.753  33.570  33.832  1.00  0.00     0.049 A 
ATOM     48  H   UNL A   1      40.063  32.012  32.482  1.00  0.00     0.167 HD
ATOM     49  C   UNL A   1      40.445  28.646  29.723  1.00  0.00     0.031 A 
ATOM     50  C   UNL A   1      40.662  33.437  34.815  1.00  0.00     0.031 A 
ATOM     51  C   UNL A   1      41.514  28.481  30.671  1.00  0.00     0.049 A 
ATOM     52  C   UNL A   1      41.618  32.277  34.778  1.00  0.00     0.074 A 
ATOM     53  C   UNL A   1      42.516  27.526  30.681  1.00  0.00     0.029 A 
ATOM     54  N   UNL A   1      41.714  29.283  31.784  1.00  0.00    -0.354 N 
ATOM     55  N   UNL A   1      41.734  31.332  33.878  1.00  0.00    -0.248 NA
ATOM     56  C   UNL A   1      42.567  32.164  35.896  1.00  0.00     0.031 C 
ATOM     57  C   UNL A   1      43.283  27.710  31.837  1.00  0.00     0.029 A 
ATOM     58  C   UNL A   1      42.797  28.819  32.512  1.00  0.00     0.049 A 
ATOM     59  H   UNL A   1      41.167  30.066  32.022  1.00  0.00     0.167 HD
ATOM     60  C   UNL A   1      42.778  30.524  34.309  1.00  0.00     0.074 A 
ATOM     61  C   UNL A   1      43.276  31.103  35.539  1.00  0.00     0.031 C 
ATOM     62  C   UNL A   1      43.278  29.401  33.738  1.00  0.00     0.031 A 
BRANCH  49  63
ATOM     63  C   UNL A   1      40.307  27.630  28.622  1.00  0.00    -0.014 A 
ATOM     64  C   UNL A   1      40.930  27.813  27.377  1.00  0.00     0.009 A 
ATOM     65  C   UNL A   1      39.580  26.450  28.849  1.00  0.00     0.009 A 
ATOM     66  C   UNL A   1      40.798  26.855  26.371  1.00  0.00     0.001 A 
ATOM     67  C   UNL A   1      39.474  25.479  27.851  1.00  0.00     0.001 A 
ATOM     68  C   UNL A   1      40.073  25.686  26.610  1.00  0.00     0.000 A 
ENDBRANCH  49  63
BRANCH  50  69
ATOM     69  C   UNL A   1      40.705  34.420  35.929  1.00  0.00    -0.014 A 
ATOM     70  C   UNL A   1      39.944  34.216  37.090  1.00  0.00     0.009 A 
ATOM     71  C   UNL A   1      41.501  35.573  35.836  1.00  0.00     0.009 A 
ATOM     72  C   UNL A   1      39.960  35.157  38.122  1.00  0.00     0.001 A 
ATOM     73  C   UNL A   1      41.541  36.496  36.883  1.00  0.00     0.001 A 
ATOM     74  C   UNL A   1      40.762  36.292  38.021  1.00  0.00     0.000 A 
ENDBRANCH  50  69
BRANCH  62  75
ATOM     75  C   UNL A   1      44.432  28.730  34.427  1.00  0.00    -0.014 A 
ATOM     76  C   UNL A   1      45.755  29.112  34.162  1.00  0.00     0.009 A 
ATOM     77  C   UNL A   1      44.187  27.747  35.398  1.00  0.00     0.009 A 
ATOM     78  C   UNL A   1      46.814  28.506  34.843  1.00  0.00     0.001 A 
ATOM     79  C   UNL A   1      45.245  27.166  36.099  1.00  0.00     0.001 A 
ATOM     80  C   UNL A   1      46.557  27.540  35.816  1.00  0.00     0.000 A 
ENDBRANCH  62  75
ENDBRANCH  36  37
ENDBRANCH  28  31
ENDBRANCH  26  27
ENDBRANCH  25  26
ENDBRANCH   1  25
TORSDOF 13
ENDMDL
