MODEL 1
REMARK VINA RESULT:      -8.5      0.000      0.000
REMARK SMILES CC[C@H]1CC[C@](CC(C)(C)O)(C(=O)NCCCNC(=O)c2ccc(-c3c4nc(c(-c5ccccc5)c5ccc([nH]5)c(-c5ccccc5)c5nc(c(-c6ccccc6)c6ccc3[nH]6)C=C5)C=C4)cc2)C1
REMARK SMILES IDX 15 1 14 2 12 3 13 4 6 6 3 7 4 8 69 9 5 10 2 11 1 12 7 13
REMARK SMILES IDX 8 14 9 15 10 16 11 17 16 19 17 20 18 21 19 22 20 24 21 25
REMARK SMILES IDX 22 26 68 27 23 28 67 29 24 30 25 31 26 32 61 33 27 34 66 35
REMARK SMILES IDX 60 36 62 37 28 38 65 39 59 40 58 41 29 43 51 44 36 45 50 46
REMARK SMILES IDX 37 47 40 48 49 49 63 50 38 51 39 52 48 54 64 55 41 56 30 57
REMARK SMILES IDX 31 58 35 59 32 60 34 61 33 62 52 63 53 64 57 65 54 66 56 67
REMARK SMILES IDX 55 68 42 69 43 70 47 71 44 72 46 73 45 74
REMARK H PARENT 14 5 11 18 18 23 62 42 40 53
REMARK Flexibility Score: inf
ROOT
ATOM      1  C   UNL A   1      34.779  32.506  31.574  1.00  0.00     0.117 C 
ENDROOT
BRANCH   1   2
ATOM      2  N   UNL A   1      34.987  32.901  32.959  1.00  0.00    -0.356 N 
ATOM      3  C   UNL A   1      36.104  32.902  33.740  1.00  0.00     0.226 C 
ATOM      4  O   UNL A   1      36.016  33.550  34.787  1.00  0.00    -0.274 OA
ATOM      5  H   UNL A   1      34.176  33.225  33.413  1.00  0.00     0.163 HD
BRANCH   3   6
ATOM      6  C   UNL A   1      37.380  32.139  33.341  1.00  0.00     0.052 C 
ATOM      7  C   UNL A   1      38.224  29.839  33.849  1.00  0.00    -0.010 C 
ATOM      8  C   UNL A   1      38.456  30.702  35.072  1.00  0.00     0.005 C 
ATOM      9  C   UNL A   1      37.061  30.604  33.185  1.00  0.00     0.020 C 
ATOM     10  C   UNL A   1      38.399  32.121  34.532  1.00  0.00     0.017 C 
BRANCH   7  11
ATOM     11  C   UNL A   1      39.459  29.694  32.939  1.00  0.00     0.000 C 
ATOM     12  C   UNL A   1      40.771  29.520  33.691  1.00  0.00     0.004 C 
ENDBRANCH   7  11
BRANCH   6  13
ATOM     13  C   UNL A   1      38.038  32.659  32.006  1.00  0.00     0.051 C 
BRANCH  13  14
ATOM     14  C   UNL A   1      38.465  34.136  31.790  1.00  0.00     0.060 C 
ATOM     15  C   UNL A   1      39.831  34.445  32.403  1.00  0.00     0.042 C 
ATOM     16  C   UNL A   1      38.544  34.432  30.282  1.00  0.00     0.042 C 
BRANCH  14  17
ATOM     17  O   UNL A   1      37.489  35.017  32.323  1.00  0.00    -0.390 OA
ATOM     18  H   UNL A   1      37.027  35.465  31.597  1.00  0.00     0.211 HD
ENDBRANCH  14  17
ENDBRANCH  13  14
ENDBRANCH   6  13
ENDBRANCH   3   6
ENDBRANCH   1   2
BRANCH   1  19
ATOM     19  C   UNL A   1      34.789  33.666  30.588  1.00  0.00     0.042 C 
BRANCH  19  20
ATOM     20  C   UNL A   1      35.185  33.260  29.178  1.00  0.00     0.118 C 
BRANCH  20  21
ATOM     21  N   UNL A   1      34.285  32.267  28.614  1.00  0.00    -0.352 N 
ATOM     22  C   UNL A   1      34.537  31.017  28.117  1.00  0.00     0.251 C 
ATOM     23  H   UNL A   1      33.339  32.538  28.586  1.00  0.00     0.163 HD
ATOM     24  O   UNL A   1      33.647  30.434  27.492  1.00  0.00    -0.269 OA
BRANCH  22  25
ATOM     25  C   UNL A   1      35.855  30.360  28.281  1.00  0.00     0.039 A 
ATOM     26  C   UNL A   1      36.153  29.743  29.504  1.00  0.00     0.014 A 
ATOM     27  C   UNL A   1      36.840  30.417  27.293  1.00  0.00     0.014 A 
ATOM     28  C   UNL A   1      37.422  29.196  29.723  1.00  0.00     0.010 A 
ATOM     29  C   UNL A   1      38.051  29.755  27.462  1.00  0.00     0.010 A 
ATOM     30  C   UNL A   1      38.384  29.197  28.701  1.00  0.00    -0.014 A 
BRANCH  30  31
ATOM     31  C   UNL A   1      39.780  28.748  28.940  1.00  0.00     0.031 A 
ATOM     32  C   UNL A   1      40.760  29.685  29.605  1.00  0.00     0.074 A 
ATOM     33  C   UNL A   1      40.187  27.532  28.529  1.00  0.00     0.049 A 
ATOM     34  N   UNL A   1      42.041  29.523  29.833  1.00  0.00    -0.248 NA
ATOM     35  C   UNL A   1      40.246  30.999  30.029  1.00  0.00     0.031 C 
ATOM     36  C   UNL A   1      39.360  26.548  27.828  1.00  0.00     0.029 A 
ATOM     37  N   UNL A   1      41.408  26.918  28.649  1.00  0.00    -0.354 N 
ATOM     38  C   UNL A   1      42.484  30.728  30.369  1.00  0.00     0.074 A 
ATOM     39  C   UNL A   1      41.354  31.629  30.380  1.00  0.00     0.031 C 
ATOM     40  C   UNL A   1      40.086  25.435  27.621  1.00  0.00     0.029 A 
ATOM     41  C   UNL A   1      41.431  25.641  28.148  1.00  0.00     0.049 A 
ATOM     42  H   UNL A   1      42.192  27.353  29.058  1.00  0.00     0.167 HD
ATOM     43  C   UNL A   1      43.710  31.053  30.842  1.00  0.00     0.031 A 
ATOM     44  C   UNL A   1      42.424  24.732  28.130  1.00  0.00     0.031 A 
ATOM     45  C   UNL A   1      44.814  30.136  30.905  1.00  0.00     0.049 A 
ATOM     46  C   UNL A   1      43.751  25.080  28.743  1.00  0.00     0.074 A 
ATOM     47  C   UNL A   1      46.076  30.336  31.437  1.00  0.00     0.029 A 
ATOM     48  N   UNL A   1      44.774  28.831  30.442  1.00  0.00    -0.354 N 
ATOM     49  N   UNL A   1      44.139  26.208  29.288  1.00  0.00    -0.248 NA
ATOM     50  C   UNL A   1      44.768  24.019  28.758  1.00  0.00     0.031 C 
ATOM     51  C   UNL A   1      46.808  29.154  31.276  1.00  0.00     0.029 A 
ATOM     52  C   UNL A   1      45.987  28.211  30.678  1.00  0.00     0.049 A 
ATOM     53  H   UNL A   1      43.998  28.409  30.010  1.00  0.00     0.167 HD
ATOM     54  C   UNL A   1      45.435  25.986  29.734  1.00  0.00     0.074 A 
ATOM     55  C   UNL A   1      45.760  24.610  29.410  1.00  0.00     0.031 C 
ATOM     56  C   UNL A   1      46.285  26.841  30.353  1.00  0.00     0.031 A 
BRANCH  43  57
ATOM     57  C   UNL A   1      43.906  32.458  31.340  1.00  0.00    -0.014 A 
ATOM     58  C   UNL A   1      43.671  32.796  32.683  1.00  0.00     0.009 A 
ATOM     59  C   UNL A   1      44.332  33.460  30.454  1.00  0.00     0.009 A 
ATOM     60  C   UNL A   1      43.809  34.117  33.116  1.00  0.00     0.001 A 
ATOM     61  C   UNL A   1      44.498  34.773  30.897  1.00  0.00     0.001 A 
ATOM     62  C   UNL A   1      44.224  35.104  32.224  1.00  0.00     0.000 A 
ENDBRANCH  43  57
BRANCH  44  63
ATOM     63  C   UNL A   1      42.182  23.381  27.564  1.00  0.00    -0.014 A 
ATOM     64  C   UNL A   1      41.584  22.383  28.350  1.00  0.00     0.009 A 
ATOM     65  C   UNL A   1      42.541  23.081  26.241  1.00  0.00     0.009 A 
ATOM     66  C   UNL A   1      41.374  21.104  27.830  1.00  0.00     0.001 A 
ATOM     67  C   UNL A   1      42.307  21.808  25.717  1.00  0.00     0.001 A 
ATOM     68  C   UNL A   1      41.731  20.818  26.514  1.00  0.00     0.000 A 
ENDBRANCH  44  63
BRANCH  56  69
ATOM     69  C   UNL A   1      47.627  26.300  30.750  1.00  0.00    -0.014 A 
ATOM     70  C   UNL A   1      47.861  25.820  32.046  1.00  0.00     0.009 A 
ATOM     71  C   UNL A   1      48.661  26.248  29.803  1.00  0.00     0.009 A 
ATOM     72  C   UNL A   1      49.120  25.330  32.398  1.00  0.00     0.001 A 
ATOM     73  C   UNL A   1      49.911  25.737  30.151  1.00  0.00     0.001 A 
ATOM     74  C   UNL A   1      50.142  25.288  31.450  1.00  0.00     0.000 A 
ENDBRANCH  56  69
ENDBRANCH  30  31
ENDBRANCH  22  25
ENDBRANCH  20  21
ENDBRANCH  19  20
ENDBRANCH   1  19
TORSDOF 14
ENDMDL
MODEL 2
REMARK VINA RESULT:      -8.4      3.446      6.738
REMARK SMILES CC[C@H]1CC[C@](CC(C)(C)O)(C(=O)NCCCNC(=O)c2ccc(-c3c4nc(c(-c5ccccc5)c5ccc([nH]5)c(-c5ccccc5)c5nc(c(-c6ccccc6)c6ccc3[nH]6)C=C5)C=C4)cc2)C1
REMARK SMILES IDX 15 1 14 2 12 3 13 4 6 6 3 7 4 8 69 9 5 10 2 11 1 12 7 13
REMARK SMILES IDX 8 14 9 15 10 16 11 17 16 19 17 20 18 21 19 22 20 24 21 25
REMARK SMILES IDX 22 26 68 27 23 28 67 29 24 30 25 31 26 32 61 33 27 34 66 35
REMARK SMILES IDX 60 36 62 37 28 38 65 39 59 40 58 41 29 43 51 44 36 45 50 46
REMARK SMILES IDX 37 47 40 48 49 49 63 50 38 51 39 52 48 54 64 55 41 56 30 57
REMARK SMILES IDX 31 58 35 59 32 60 34 61 33 62 52 63 53 64 57 65 54 66 56 67
REMARK SMILES IDX 55 68 42 69 43 70 47 71 44 72 46 73 45 74
REMARK H PARENT 14 5 11 18 18 23 62 42 40 53
REMARK Flexibility Score: inf
ROOT
ATOM      1  C   UNL A   1      31.624  30.567  25.819  1.00  0.00     0.117 C 
ENDROOT
BRANCH   1   2
ATOM      2  N   UNL A   1      32.727  29.740  26.285  1.00  0.00    -0.356 N 
ATOM      3  C   UNL A   1      33.358  28.673  25.718  1.00  0.00     0.226 C 
ATOM      4  O   UNL A   1      34.433  28.358  26.237  1.00  0.00    -0.274 OA
ATOM      5  H   UNL A   1      33.080  29.996  27.167  1.00  0.00     0.163 HD
BRANCH   3   6
ATOM      6  C   UNL A   1      32.762  27.915  24.518  1.00  0.00     0.052 C 
ATOM      7  C   UNL A   1      33.784  26.787  22.532  1.00  0.00    -0.010 C 
ATOM      8  C   UNL A   1      33.808  28.281  22.283  1.00  0.00     0.005 C 
ATOM      9  C   UNL A   1      33.739  26.761  24.073  1.00  0.00     0.020 C 
ATOM     10  C   UNL A   1      32.762  28.826  23.242  1.00  0.00     0.017 C 
BRANCH   7  11
ATOM     11  C   UNL A   1      32.595  26.060  21.873  1.00  0.00     0.000 C 
ATOM     12  C   UNL A   1      32.330  24.667  22.427  1.00  0.00     0.004 C 
ENDBRANCH   7  11
BRANCH   6  13
ATOM     13  C   UNL A   1      31.341  27.295  24.803  1.00  0.00     0.051 C 
BRANCH  13  14
ATOM     14  C   UNL A   1      31.033  26.415  26.045  1.00  0.00     0.060 C 
ATOM     15  C   UNL A   1      29.730  25.629  25.895  1.00  0.00     0.042 C 
ATOM     16  C   UNL A   1      32.175  25.405  26.256  1.00  0.00     0.042 C 
BRANCH  14  17
ATOM     17  O   UNL A   1      30.979  27.213  27.216  1.00  0.00    -0.390 OA
ATOM     18  H   UNL A   1      30.939  28.151  26.967  1.00  0.00     0.211 HD
ENDBRANCH  14  17
ENDBRANCH  13  14
ENDBRANCH   6  13
ENDBRANCH   3   6
ENDBRANCH   1   2
BRANCH   1  19
ATOM     19  C   UNL A   1      31.414  31.837  26.631  1.00  0.00     0.042 C 
BRANCH  19  20
ATOM     20  C   UNL A   1      32.709  32.470  27.113  1.00  0.00     0.118 C 
BRANCH  20  21
ATOM     21  N   UNL A   1      32.496  33.773  27.723  1.00  0.00    -0.352 N 
ATOM     22  C   UNL A   1      33.190  34.420  28.710  1.00  0.00     0.251 C 
ATOM     23  H   UNL A   1      31.726  34.273  27.367  1.00  0.00     0.163 HD
ATOM     24  O   UNL A   1      32.700  35.430  29.219  1.00  0.00    -0.269 OA
BRANCH  22  25
ATOM     25  C   UNL A   1      34.496  33.921  29.203  1.00  0.00     0.039 A 
ATOM     26  C   UNL A   1      35.664  34.317  28.537  1.00  0.00     0.014 A 
ATOM     27  C   UNL A   1      34.591  33.000  30.248  1.00  0.00     0.014 A 
ATOM     28  C   UNL A   1      36.902  33.791  28.919  1.00  0.00     0.010 A 
ATOM     29  C   UNL A   1      35.833  32.584  30.714  1.00  0.00     0.010 A 
ATOM     30  C   UNL A   1      36.998  32.918  30.014  1.00  0.00    -0.014 A 
BRANCH  30  31
ATOM     31  C   UNL A   1      38.271  32.238  30.364  1.00  0.00     0.031 A 
ATOM     32  C   UNL A   1      39.204  32.873  31.369  1.00  0.00     0.074 A 
ATOM     33  C   UNL A   1      38.618  31.085  29.762  1.00  0.00     0.049 A 
ATOM     34  N   UNL A   1      40.396  32.489  31.755  1.00  0.00    -0.248 NA
ATOM     35  C   UNL A   1      38.759  34.134  31.989  1.00  0.00     0.031 C 
ATOM     36  C   UNL A   1      37.838  30.389  28.737  1.00  0.00     0.029 A 
ATOM     37  N   UNL A   1      39.726  30.293  29.934  1.00  0.00    -0.354 N 
ATOM     38  C   UNL A   1      40.855  33.486  32.610  1.00  0.00     0.074 A 
ATOM     39  C   UNL A   1      39.843  34.516  32.643  1.00  0.00     0.031 C 
ATOM     40  C   UNL A   1      38.470  29.250  28.404  1.00  0.00     0.029 A 
ATOM     41  C   UNL A   1      39.708  29.153  29.170  1.00  0.00     0.049 A 
ATOM     42  H   UNL A   1      40.461  30.520  30.548  1.00  0.00     0.167 HD
ATOM     43  C   UNL A   1      41.999  33.531  33.332  1.00  0.00     0.031 A 
ATOM     44  C   UNL A   1      40.587  28.136  29.107  1.00  0.00     0.031 A 
ATOM     45  C   UNL A   1      42.971  32.474  33.363  1.00  0.00     0.049 A 
ATOM     46  C   UNL A   1      41.806  28.161  29.985  1.00  0.00     0.074 A 
ATOM     47  C   UNL A   1      44.126  32.382  34.118  1.00  0.00     0.029 A 
ATOM     48  N   UNL A   1      42.882  31.309  32.619  1.00  0.00    -0.354 N 
ATOM     49  N   UNL A   1      42.202  29.089  30.823  1.00  0.00    -0.248 NA
ATOM     50  C   UNL A   1      42.687  26.986  29.924  1.00  0.00     0.031 C 
ATOM     51  C   UNL A   1      44.748  31.165  33.816  1.00  0.00     0.029 A 
ATOM     52  C   UNL A   1      43.959  30.488  32.900  1.00  0.00     0.049 A 
ATOM     53  H   UNL A   1      42.159  31.096  31.986  1.00  0.00     0.167 HD
ATOM     54  C   UNL A   1      43.363  28.601  31.407  1.00  0.00     0.074 A 
ATOM     55  C   UNL A   1      43.597  27.287  30.840  1.00  0.00     0.031 C 
ATOM     56  C   UNL A   1      44.167  29.184  32.328  1.00  0.00     0.031 A 
BRANCH  43  57
ATOM     57  C   UNL A   1      42.245  34.765  34.156  1.00  0.00    -0.014 A 
ATOM     58  C   UNL A   1      41.831  34.842  35.496  1.00  0.00     0.009 A 
ATOM     59  C   UNL A   1      42.899  35.868  33.584  1.00  0.00     0.009 A 
ATOM     60  C   UNL A   1      42.021  36.015  36.231  1.00  0.00     0.001 A 
ATOM     61  C   UNL A   1      43.116  37.027  34.331  1.00  0.00     0.001 A 
ATOM     62  C   UNL A   1      42.665  37.105  35.649  1.00  0.00     0.000 A 
ENDBRANCH  43  57
BRANCH  44  63
ATOM     63  C   UNL A   1      40.315  26.974  28.222  1.00  0.00    -0.014 A 
ATOM     64  C   UNL A   1      40.839  26.941  26.921  1.00  0.00     0.009 A 
ATOM     65  C   UNL A   1      39.538  25.896  28.671  1.00  0.00     0.009 A 
ATOM     66  C   UNL A   1      40.569  25.862  26.076  1.00  0.00     0.001 A 
ATOM     67  C   UNL A   1      39.290  24.807  27.832  1.00  0.00     0.001 A 
ATOM     68  C   UNL A   1      39.799  24.795  26.533  1.00  0.00     0.000 A 
ENDBRANCH  44  63
BRANCH  56  69
ATOM     69  C   UNL A   1      45.349  28.390  32.802  1.00  0.00    -0.014 A 
ATOM     70  C   UNL A   1      46.575  28.438  32.122  1.00  0.00     0.009 A 
ATOM     71  C   UNL A   1      45.238  27.604  33.959  1.00  0.00     0.009 A 
ATOM     72  C   UNL A   1      47.659  27.683  32.573  1.00  0.00     0.001 A 
ATOM     73  C   UNL A   1      46.330  26.869  34.421  1.00  0.00     0.001 A 
ATOM     74  C   UNL A   1      47.536  26.902  33.721  1.00  0.00     0.000 A 
ENDBRANCH  56  69
ENDBRANCH  30  31
ENDBRANCH  22  25
ENDBRANCH  20  21
ENDBRANCH  19  20
ENDBRANCH   1  19
TORSDOF 14
ENDMDL
MODEL 3
REMARK VINA RESULT:      -8.4      3.828      7.021
REMARK SMILES CC[C@H]1CC[C@](CC(C)(C)O)(C(=O)NCCCNC(=O)c2ccc(-c3c4nc(c(-c5ccccc5)c5ccc([nH]5)c(-c5ccccc5)c5nc(c(-c6ccccc6)c6ccc3[nH]6)C=C5)C=C4)cc2)C1
REMARK SMILES IDX 15 1 14 2 12 3 13 4 6 6 3 7 4 8 69 9 5 10 2 11 1 12 7 13
REMARK SMILES IDX 8 14 9 15 10 16 11 17 16 19 17 20 18 21 19 22 20 24 21 25
REMARK SMILES IDX 22 26 68 27 23 28 67 29 24 30 25 31 26 32 61 33 27 34 66 35
REMARK SMILES IDX 60 36 62 37 28 38 65 39 59 40 58 41 29 43 51 44 36 45 50 46
REMARK SMILES IDX 37 47 40 48 49 49 63 50 38 51 39 52 48 54 64 55 41 56 30 57
REMARK SMILES IDX 31 58 35 59 32 60 34 61 33 62 52 63 53 64 57 65 54 66 56 67
REMARK SMILES IDX 55 68 42 69 43 70 47 71 44 72 46 73 45 74
REMARK H PARENT 14 5 11 18 18 23 62 42 40 53
REMARK Flexibility Score: inf
ROOT
ATOM      1  C   UNL A   1      31.549  30.198  25.306  1.00  0.00     0.117 C 
ENDROOT
BRANCH   1   2
ATOM      2  N   UNL A   1      30.634  30.044  24.185  1.00  0.00    -0.356 N 
ATOM      3  C   UNL A   1      30.143  28.933  23.567  1.00  0.00     0.226 C 
ATOM      4  O   UNL A   1      29.176  29.126  22.822  1.00  0.00    -0.274 OA
ATOM      5  H   UNL A   1      30.313  30.893  23.806  1.00  0.00     0.163 HD
BRANCH   3   6
ATOM      6  C   UNL A   1      30.760  27.539  23.780  1.00  0.00     0.052 C 
ATOM      7  C   UNL A   1      30.136  25.599  25.231  1.00  0.00    -0.010 C 
ATOM      8  C   UNL A   1      30.806  26.639  26.106  1.00  0.00     0.005 C 
ATOM      9  C   UNL A   1      29.624  26.489  24.081  1.00  0.00     0.020 C 
ATOM     10  C   UNL A   1      31.575  27.503  25.119  1.00  0.00     0.017 C 
BRANCH   7  11
ATOM     11  C   UNL A   1      31.077  24.474  24.761  1.00  0.00     0.000 C 
ATOM     12  C   UNL A   1      30.645  23.797  23.467  1.00  0.00     0.004 C 
ENDBRANCH   7  11
BRANCH   6  13
ATOM     13  C   UNL A   1      31.610  27.028  22.555  1.00  0.00     0.051 C 
BRANCH  13  14
ATOM     14  C   UNL A   1      33.155  27.171  22.476  1.00  0.00     0.060 C 
ATOM     15  C   UNL A   1      33.622  28.605  22.729  1.00  0.00     0.042 C 
ATOM     16  C   UNL A   1      33.810  26.265  23.532  1.00  0.00     0.042 C 
BRANCH  14  17
ATOM     17  O   UNL A   1      33.629  26.728  21.213  1.00  0.00    -0.390 OA
ATOM     18  H   UNL A   1      33.586  27.461  20.577  1.00  0.00     0.211 HD
ENDBRANCH  14  17
ENDBRANCH  13  14
ENDBRANCH   6  13
ENDBRANCH   3   6
ENDBRANCH   1   2
BRANCH   1  19
ATOM     19  C   UNL A   1      31.229  31.379  26.212  1.00  0.00     0.042 C 
BRANCH  19  20
ATOM     20  C   UNL A   1      32.435  31.905  26.972  1.00  0.00     0.118 C 
BRANCH  20  21
ATOM     21  N   UNL A   1      32.272  33.291  27.381  1.00  0.00    -0.352 N 
ATOM     22  C   UNL A   1      33.022  34.065  28.225  1.00  0.00     0.251 C 
ATOM     23  H   UNL A   1      31.495  33.748  26.985  1.00  0.00     0.163 HD
ATOM     24  O   UNL A   1      32.573  35.154  28.592  1.00  0.00    -0.269 OA
BRANCH  22  25
ATOM     25  C   UNL A   1      34.340  33.618  28.733  1.00  0.00     0.039 A 
ATOM     26  C   UNL A   1      35.489  33.926  27.990  1.00  0.00     0.014 A 
ATOM     27  C   UNL A   1      34.465  32.824  29.874  1.00  0.00     0.014 A 
ATOM     28  C   UNL A   1      36.737  33.439  28.393  1.00  0.00     0.010 A 
ATOM     29  C   UNL A   1      35.720  32.456  30.347  1.00  0.00     0.010 A 
ATOM     30  C   UNL A   1      36.863  32.699  29.578  1.00  0.00    -0.014 A 
BRANCH  30  31
ATOM     31  C   UNL A   1      38.145  32.055  29.967  1.00  0.00     0.031 A 
ATOM     32  C   UNL A   1      39.059  32.748  30.949  1.00  0.00     0.074 A 
ATOM     33  C   UNL A   1      38.514  30.883  29.418  1.00  0.00     0.049 A 
ATOM     34  N   UNL A   1      40.254  32.401  31.359  1.00  0.00    -0.248 NA
ATOM     35  C   UNL A   1      38.590  34.028  31.509  1.00  0.00     0.031 C 
ATOM     36  C   UNL A   1      37.753  30.131  28.419  1.00  0.00     0.029 A 
ATOM     37  N   UNL A   1      39.632  30.117  29.632  1.00  0.00    -0.354 N 
ATOM     38  C   UNL A   1      40.691  33.441  32.172  1.00  0.00     0.074 A 
ATOM     39  C   UNL A   1      39.663  34.456  32.153  1.00  0.00     0.031 C 
ATOM     40  C   UNL A   1      38.404  28.989  28.141  1.00  0.00     0.029 A 
ATOM     41  C   UNL A   1      39.638  28.944  28.918  1.00  0.00     0.049 A 
ATOM     42  H   UNL A   1      40.359  30.383  30.240  1.00  0.00     0.167 HD
ATOM     43  C   UNL A   1      41.830  33.537  32.899  1.00  0.00     0.031 A 
ATOM     44  C   UNL A   1      40.533  27.940  28.905  1.00  0.00     0.031 A 
ATOM     45  C   UNL A   1      42.818  32.497  32.983  1.00  0.00     0.049 A 
ATOM     46  C   UNL A   1      41.746  28.023  29.789  1.00  0.00     0.074 A 
ATOM     47  C   UNL A   1      43.969  32.457  33.749  1.00  0.00     0.029 A 
ATOM     48  N   UNL A   1      42.752  31.299  32.290  1.00  0.00    -0.354 N 
ATOM     49  N   UNL A   1      42.121  28.993  30.588  1.00  0.00    -0.248 NA
ATOM     50  C   UNL A   1      42.646  26.861  29.785  1.00  0.00     0.031 C 
ATOM     51  C   UNL A   1      44.612  31.238  33.504  1.00  0.00     0.029 A 
ATOM     52  C   UNL A   1      43.841  30.509  32.614  1.00  0.00     0.049 A 
ATOM     53  H   UNL A   1      42.038  31.048  31.662  1.00  0.00     0.167 HD
ATOM     54  C   UNL A   1      43.285  28.549  31.201  1.00  0.00     0.074 A 
ATOM     55  C   UNL A   1      43.544  27.215  30.693  1.00  0.00     0.031 C 
ATOM     56  C   UNL A   1      44.073  29.185  32.101  1.00  0.00     0.031 A 
BRANCH  43  57
ATOM     57  C   UNL A   1      42.050  34.809  33.670  1.00  0.00    -0.014 A 
ATOM     58  C   UNL A   1      41.490  34.996  34.945  1.00  0.00     0.009 A 
ATOM     59  C   UNL A   1      42.828  35.836  33.114  1.00  0.00     0.009 A 
ATOM     60  C   UNL A   1      41.662  36.204  35.624  1.00  0.00     0.001 A 
ATOM     61  C   UNL A   1      43.025  37.031  33.809  1.00  0.00     0.001 A 
ATOM     62  C   UNL A   1      42.431  37.220  35.057  1.00  0.00     0.000 A 
ENDBRANCH  43  57
BRANCH  44  63
ATOM     63  C   UNL A   1      40.286  26.737  28.070  1.00  0.00    -0.014 A 
ATOM     64  C   UNL A   1      40.852  26.639  26.790  1.00  0.00     0.009 A 
ATOM     65  C   UNL A   1      39.492  25.683  28.546  1.00  0.00     0.009 A 
ATOM     66  C   UNL A   1      40.605  25.520  25.991  1.00  0.00     0.001 A 
ATOM     67  C   UNL A   1      39.268  24.555  27.754  1.00  0.00     0.001 A 
ATOM     68  C   UNL A   1      39.817  24.477  26.475  1.00  0.00     0.000 A 
ENDBRANCH  44  63
BRANCH  56  69
ATOM     69  C   UNL A   1      45.264  28.432  32.617  1.00  0.00    -0.014 A 
ATOM     70  C   UNL A   1      46.522  28.559  32.010  1.00  0.00     0.009 A 
ATOM     71  C   UNL A   1      45.127  27.603  33.741  1.00  0.00     0.009 A 
ATOM     72  C   UNL A   1      47.615  27.840  32.498  1.00  0.00     0.001 A 
ATOM     73  C   UNL A   1      46.226  26.905  34.241  1.00  0.00     0.001 A 
ATOM     74  C   UNL A   1      47.466  27.017  33.614  1.00  0.00     0.000 A 
ENDBRANCH  56  69
ENDBRANCH  30  31
ENDBRANCH  22  25
ENDBRANCH  20  21
ENDBRANCH  19  20
ENDBRANCH   1  19
TORSDOF 14
ENDMDL
