MODEL 1
REMARK VINA RESULT:     -12.2      0.000      0.000
REMARK SMILES Cc1ccc(/C=C2\SC(=S)N([C@H](C(=O)NCCCNC(=O)c3ccc(-c4c5nc(c(-c6ccccc6)c6ccc([nH]6)c(-c6ccccc6)c6nc(c(-c7ccccc7)c7ccc4[nH]7)C=C6)C=C5)cc3)C(C)C)C2=O)cc1
REMARK SMILES IDX 17 1 16 2 15 3 13 4 14 5 12 7 11 8 6 9 7 10 8 11 73 12 9 13
REMARK SMILES IDX 74 14 10 15 5 16 1 17 2 18 3 19 76 20 4 21 75 22 70 23 71 24
REMARK SMILES IDX 72 25 18 26 19 27 20 28 21 30 22 31 23 32 69 33 24 34 68 35
REMARK SMILES IDX 25 36 26 37 27 38 62 39 28 40 67 41 61 42 63 43 29 44 66 45
REMARK SMILES IDX 60 46 59 47 30 49 52 50 37 51 51 52 38 53 41 54 50 55 64 56
REMARK SMILES IDX 39 57 40 58 49 60 65 61 42 62 31 63 32 64 36 65 33 66 35 67
REMARK SMILES IDX 34 68 53 69 54 70 58 71 55 72 57 73 56 74 43 75 44 76 48 77
REMARK SMILES IDX 45 78 47 79 46 80
REMARK H PARENT 15 6 19 29 63 48 41 59
REMARK Flexibility Score: inf
ROOT
ATOM      1  C   UNL A   1      33.679  29.804  26.467  1.00  0.00     0.042 C 
ENDROOT
BRANCH   1   2
ATOM      2  C   UNL A   1      33.449  28.352  26.844  1.00  0.00     0.117 C 
BRANCH   2   3
ATOM      3  N   UNL A   1      32.248  27.792  26.227  1.00  0.00    -0.354 N 
ATOM      4  C   UNL A   1      32.105  27.095  25.052  1.00  0.00     0.243 C 
ATOM      5  O   UNL A   1      31.014  26.583  24.800  1.00  0.00    -0.273 OA
ATOM      6  H   UNL A   1      31.416  27.936  26.732  1.00  0.00     0.163 HD
BRANCH   4   7
ATOM      7  C   UNL A   1      33.309  26.966  24.096  1.00  0.00     0.184 C 
BRANCH   7   8
ATOM      8  N   UNL A   1      33.536  25.508  23.828  1.00  0.00    -0.280 N 
ATOM      9  C   UNL A   1      33.906  22.198  25.203  1.00  0.00     0.029 C 
ATOM     10  C   UNL A   1      33.857  23.226  24.347  1.00  0.00     0.081 C 
ATOM     11  S   UNL A   1      33.558  23.181  22.669  1.00  0.00    -0.054 SA
ATOM     12  C   UNL A   1      33.990  24.632  24.810  1.00  0.00     0.266 C 
ATOM     13  C   UNL A   1      33.206  24.902  22.619  1.00  0.00     0.149 C 
ATOM     14  O   UNL A   1      34.406  24.884  25.920  1.00  0.00    -0.268 OA
ATOM     15  S   UNL A   1      32.530  25.553  21.237  1.00  0.00    -0.052 S 
BRANCH   9  16
ATOM     16  C   UNL A   1      33.862  20.794  24.797  1.00  0.00    -0.024 A 
ATOM     17  C   UNL A   1      33.587  16.668  23.609  1.00  0.00     0.044 C 
ATOM     18  C   UNL A   1      33.684  18.106  24.020  1.00  0.00    -0.051 A 
ATOM     19  C   UNL A   1      34.900  18.634  24.476  1.00  0.00     0.004 A 
ATOM     20  C   UNL A   1      32.562  18.935  23.950  1.00  0.00     0.004 A 
ATOM     21  C   UNL A   1      34.992  19.974  24.864  1.00  0.00     0.008 A 
ATOM     22  C   UNL A   1      32.652  20.271  24.331  1.00  0.00     0.008 A 
ENDBRANCH   9  16
ENDBRANCH   7   8
BRANCH   7  23
ATOM     23  C   UNL A   1      33.088  27.903  22.862  1.00  0.00     0.015 C 
ATOM     24  C   UNL A   1      32.016  28.986  23.045  1.00  0.00     0.010 C 
ATOM     25  C   UNL A   1      34.393  28.629  22.499  1.00  0.00     0.010 C 
ENDBRANCH   7  23
ENDBRANCH   4   7
ENDBRANCH   2   3
ENDBRANCH   1   2
BRANCH   1  26
ATOM     26  C   UNL A   1      33.473  30.743  27.632  1.00  0.00     0.118 C 
BRANCH  26  27
ATOM     27  N   UNL A   1      34.527  31.728  27.795  1.00  0.00    -0.352 N 
ATOM     28  C   UNL A   1      35.826  31.570  28.242  1.00  0.00     0.251 C 
ATOM     29  H   UNL A   1      34.280  32.648  27.550  1.00  0.00     0.163 HD
ATOM     30  O   UNL A   1      36.504  32.573  28.449  1.00  0.00    -0.269 OA
BRANCH  28  31
ATOM     31  C   UNL A   1      36.470  30.226  28.267  1.00  0.00     0.039 A 
ATOM     32  C   UNL A   1      36.556  29.615  29.528  1.00  0.00     0.014 A 
ATOM     33  C   UNL A   1      37.333  29.831  27.258  1.00  0.00     0.014 A 
ATOM     34  C   UNL A   1      37.707  28.921  29.863  1.00  0.00     0.010 A 
ATOM     35  C   UNL A   1      38.550  29.337  27.627  1.00  0.00     0.010 A 
ATOM     36  C   UNL A   1      38.745  28.938  28.946  1.00  0.00    -0.014 A 
BRANCH  36  37
ATOM     37  C   UNL A   1      40.087  28.482  29.197  1.00  0.00     0.031 A 
ATOM     38  C   UNL A   1      40.434  27.160  28.672  1.00  0.00     0.074 A 
ATOM     39  C   UNL A   1      40.982  29.379  29.659  1.00  0.00     0.049 A 
ATOM     40  N   UNL A   1      41.436  26.474  29.075  1.00  0.00    -0.248 NA
ATOM     41  C   UNL A   1      39.630  26.468  27.664  1.00  0.00     0.031 C 
ATOM     42  C   UNL A   1      42.437  29.315  29.641  1.00  0.00     0.029 A 
ATOM     43  N   UNL A   1      40.701  30.499  30.439  1.00  0.00    -0.354 N 
ATOM     44  C   UNL A   1      41.622  25.473  28.152  1.00  0.00     0.074 A 
ATOM     45  C   UNL A   1      40.402  25.414  27.391  1.00  0.00     0.031 C 
ATOM     46  C   UNL A   1      42.916  30.157  30.577  1.00  0.00     0.029 A 
ATOM     47  C   UNL A   1      41.778  30.657  31.332  1.00  0.00     0.049 A 
ATOM     48  H   UNL A   1      39.901  31.070  30.377  1.00  0.00     0.167 HD
ATOM     49  C   UNL A   1      42.868  24.942  28.033  1.00  0.00     0.031 A 
ATOM     50  C   UNL A   1      41.562  30.429  32.666  1.00  0.00     0.031 A 
ATOM     51  C   UNL A   1      43.772  25.532  29.023  1.00  0.00     0.049 A 
ATOM     52  C   UNL A   1      42.257  29.178  33.179  1.00  0.00     0.074 A 
ATOM     53  C   UNL A   1      44.759  26.504  28.963  1.00  0.00     0.029 A 
ATOM     54  N   UNL A   1      43.443  25.409  30.362  1.00  0.00    -0.354 N 
ATOM     55  N   UNL A   1      42.836  28.292  32.411  1.00  0.00    -0.248 NA
ATOM     56  C   UNL A   1      42.323  28.799  34.588  1.00  0.00     0.031 C 
ATOM     57  C   UNL A   1      45.009  26.961  30.292  1.00  0.00     0.029 A 
ATOM     58  C   UNL A   1      44.196  26.247  31.155  1.00  0.00     0.049 A 
ATOM     59  H   UNL A   1      42.752  24.797  30.706  1.00  0.00     0.167 HD
ATOM     60  C   UNL A   1      43.334  27.262  33.162  1.00  0.00     0.074 A 
ATOM     61  C   UNL A   1      42.961  27.614  34.523  1.00  0.00     0.031 C 
ATOM     62  C   UNL A   1      43.991  26.201  32.597  1.00  0.00     0.031 A 
BRANCH  49  63
ATOM     63  C   UNL A   1      43.337  24.089  26.885  1.00  0.00    -0.014 A 
ATOM     64  C   UNL A   1      43.842  24.723  25.737  1.00  0.00     0.009 A 
ATOM     65  C   UNL A   1      43.289  22.685  26.842  1.00  0.00     0.009 A 
ATOM     66  C   UNL A   1      44.221  24.008  24.596  1.00  0.00     0.001 A 
ATOM     67  C   UNL A   1      43.650  21.961  25.696  1.00  0.00     0.001 A 
ATOM     68  C   UNL A   1      44.111  22.625  24.570  1.00  0.00     0.000 A 
ENDBRANCH  49  63
BRANCH  50  69
ATOM     69  C   UNL A   1      40.217  30.942  33.095  1.00  0.00    -0.014 A 
ATOM     70  C   UNL A   1      39.923  32.293  32.799  1.00  0.00     0.009 A 
ATOM     71  C   UNL A   1      39.144  30.056  33.275  1.00  0.00     0.009 A 
ATOM     72  C   UNL A   1      38.617  32.694  32.495  1.00  0.00     0.001 A 
ATOM     73  C   UNL A   1      37.834  30.473  32.994  1.00  0.00     0.001 A 
ATOM     74  C   UNL A   1      37.579  31.770  32.547  1.00  0.00     0.000 A 
ENDBRANCH  50  69
BRANCH  62  75
ATOM     75  C   UNL A   1      44.477  24.969  33.329  1.00  0.00    -0.014 A 
ATOM     76  C   UNL A   1      43.643  23.943  33.780  1.00  0.00     0.009 A 
ATOM     77  C   UNL A   1      45.849  24.848  33.667  1.00  0.00     0.009 A 
ATOM     78  C   UNL A   1      44.166  22.817  34.435  1.00  0.00     0.001 A 
ATOM     79  C   UNL A   1      46.373  23.743  34.334  1.00  0.00     0.001 A 
ATOM     80  C   UNL A   1      45.529  22.712  34.700  1.00  0.00     0.000 A 
ENDBRANCH  62  75
ENDBRANCH  36  37
ENDBRANCH  28  31
ENDBRANCH  26  27
ENDBRANCH   1  26
TORSDOF 13
ENDMDL
MODEL 2
REMARK VINA RESULT:     -12.0      2.016      3.028
REMARK SMILES Cc1ccc(/C=C2\SC(=S)N([C@H](C(=O)NCCCNC(=O)c3ccc(-c4c5nc(c(-c6ccccc6)c6ccc([nH]6)c(-c6ccccc6)c6nc(c(-c7ccccc7)c7ccc4[nH]7)C=C6)C=C5)cc3)C(C)C)C2=O)cc1
REMARK SMILES IDX 17 1 16 2 15 3 13 4 14 5 12 7 11 8 6 9 7 10 8 11 73 12 9 13
REMARK SMILES IDX 74 14 10 15 5 16 1 17 2 18 3 19 76 20 4 21 75 22 70 23 71 24
REMARK SMILES IDX 72 25 18 26 19 27 20 28 21 30 22 31 23 32 69 33 24 34 68 35
REMARK SMILES IDX 25 36 26 37 27 38 62 39 28 40 67 41 61 42 63 43 29 44 66 45
REMARK SMILES IDX 60 46 59 47 30 49 52 50 37 51 51 52 38 53 41 54 50 55 64 56
REMARK SMILES IDX 39 57 40 58 49 60 65 61 42 62 31 63 32 64 36 65 33 66 35 67
REMARK SMILES IDX 34 68 53 69 54 70 58 71 55 72 57 73 56 74 43 75 44 76 48 77
REMARK SMILES IDX 45 78 47 79 46 80
REMARK H PARENT 15 6 19 29 63 48 41 59
REMARK Flexibility Score: inf
ROOT
ATOM      1  C   UNL A   1      35.012  29.800  28.166  1.00  0.00     0.042 C 
ENDROOT
BRANCH   1   2
ATOM      2  C   UNL A   1      34.351  28.946  27.099  1.00  0.00     0.117 C 
BRANCH   2   3
ATOM      3  N   UNL A   1      33.026  28.472  27.496  1.00  0.00    -0.354 N 
ATOM      4  C   UNL A   1      32.048  27.865  26.746  1.00  0.00     0.243 C 
ATOM      5  O   UNL A   1      31.060  27.411  27.324  1.00  0.00    -0.273 OA
ATOM      6  H   UNL A   1      32.801  28.609  28.444  1.00  0.00     0.163 HD
BRANCH   4   7
ATOM      7  C   UNL A   1      32.219  27.763  25.216  1.00  0.00     0.184 C 
BRANCH   7   8
ATOM      8  N   UNL A   1      32.125  26.315  24.834  1.00  0.00    -0.280 N 
ATOM      9  C   UNL A   1      33.573  23.024  25.054  1.00  0.00     0.029 C 
ATOM     10  C   UNL A   1      32.779  24.048  24.721  1.00  0.00     0.081 C 
ATOM     11  S   UNL A   1      31.167  23.991  24.168  1.00  0.00    -0.054 SA
ATOM     12  C   UNL A   1      33.220  25.459  24.881  1.00  0.00     0.266 C 
ATOM     13  C   UNL A   1      30.919  25.697  24.515  1.00  0.00     0.149 C 
ATOM     14  O   UNL A   1      34.388  25.727  25.063  1.00  0.00    -0.268 OA
ATOM     15  S   UNL A   1      29.370  26.319  24.461  1.00  0.00    -0.052 S 
BRANCH   9  16
ATOM     16  C   UNL A   1      33.224  21.619  24.845  1.00  0.00    -0.024 A 
ATOM     17  C   UNL A   1      32.268  17.453  24.352  1.00  0.00     0.044 C 
ATOM     18  C   UNL A   1      32.597  18.905  24.524  1.00  0.00    -0.051 A 
ATOM     19  C   UNL A   1      32.483  19.792  23.445  1.00  0.00     0.004 A 
ATOM     20  C   UNL A   1      33.021  19.387  25.765  1.00  0.00     0.004 A 
ATOM     21  C   UNL A   1      32.794  21.146  23.602  1.00  0.00     0.008 A 
ATOM     22  C   UNL A   1      33.327  20.736  25.925  1.00  0.00     0.008 A 
ENDBRANCH   9  16
ENDBRANCH   7   8
BRANCH   7  23
ATOM     23  C   UNL A   1      31.236  28.761  24.521  1.00  0.00     0.015 C 
ATOM     24  C   UNL A   1      31.175  30.163  25.144  1.00  0.00     0.010 C 
ATOM     25  C   UNL A   1      31.618  28.950  23.044  1.00  0.00     0.010 C 
ENDBRANCH   7  23
ENDBRANCH   4   7
ENDBRANCH   2   3
ENDBRANCH   1   2
BRANCH   1  26
ATOM     26  C   UNL A   1      35.414  31.161  27.648  1.00  0.00     0.118 C 
BRANCH  26  27
ATOM     27  N   UNL A   1      34.486  32.224  27.994  1.00  0.00    -0.352 N 
ATOM     28  C   UNL A   1      34.487  33.084  29.075  1.00  0.00     0.251 C 
ATOM     29  H   UNL A   1      33.744  32.353  27.360  1.00  0.00     0.163 HD
ATOM     30  O   UNL A   1      33.512  33.811  29.252  1.00  0.00    -0.269 OA
BRANCH  28  31
ATOM     31  C   UNL A   1      35.718  33.293  29.888  1.00  0.00     0.039 A 
ATOM     32  C   UNL A   1      36.812  33.848  29.207  1.00  0.00     0.014 A 
ATOM     33  C   UNL A   1      35.935  32.570  31.051  1.00  0.00     0.014 A 
ATOM     34  C   UNL A   1      38.086  33.370  29.472  1.00  0.00     0.010 A 
ATOM     35  C   UNL A   1      37.136  31.939  31.186  1.00  0.00     0.010 A 
ATOM     36  C   UNL A   1      38.190  32.306  30.352  1.00  0.00    -0.014 A 
BRANCH  36  37
ATOM     37  C   UNL A   1      39.377  31.525  30.580  1.00  0.00     0.031 A 
ATOM     38  C   UNL A   1      39.463  30.248  29.867  1.00  0.00     0.074 A 
ATOM     39  C   UNL A   1      40.411  32.118  31.211  1.00  0.00     0.049 A 
ATOM     40  N   UNL A   1      40.259  29.302  30.196  1.00  0.00    -0.248 NA
ATOM     41  C   UNL A   1      38.604  29.911  28.732  1.00  0.00     0.031 C 
ATOM     42  C   UNL A   1      41.814  31.728  31.240  1.00  0.00     0.029 A 
ATOM     43  N   UNL A   1      40.325  33.147  32.147  1.00  0.00    -0.354 N 
ATOM     44  C   UNL A   1      40.289  28.429  29.135  1.00  0.00     0.074 A 
ATOM     45  C   UNL A   1      39.144  28.760  28.327  1.00  0.00     0.031 C 
ATOM     46  C   UNL A   1      42.396  32.294  32.315  1.00  0.00     0.029 A 
ATOM     47  C   UNL A   1      41.342  32.926  33.095  1.00  0.00     0.049 A 
ATOM     48  H   UNL A   1      39.677  33.888  32.144  1.00  0.00     0.167 HD
ATOM     49  C   UNL A   1      41.393  27.651  28.982  1.00  0.00     0.031 A 
ATOM     50  C   UNL A   1      40.985  32.563  34.367  1.00  0.00     0.031 A 
ATOM     51  C   UNL A   1      42.330  27.871  30.087  1.00  0.00     0.049 A 
ATOM     52  C   UNL A   1      41.350  31.125  34.703  1.00  0.00     0.074 A 
ATOM     53  C   UNL A   1      43.507  28.591  30.218  1.00  0.00     0.029 A 
ATOM     54  N   UNL A   1      41.884  27.634  31.376  1.00  0.00    -0.354 N 
ATOM     55  N   UNL A   1      41.776  30.252  33.828  1.00  0.00    -0.248 NA
ATOM     56  C   UNL A   1      41.228  30.541  36.036  1.00  0.00     0.031 C 
ATOM     57  C   UNL A   1      43.753  28.782  31.612  1.00  0.00     0.029 A 
ATOM     58  C   UNL A   1      42.743  28.154  32.319  1.00  0.00     0.049 A 
ATOM     59  H   UNL A   1      41.053  27.151  31.592  1.00  0.00     0.167 HD
ATOM     60  C   UNL A   1      41.979  29.037  34.426  1.00  0.00     0.074 A 
ATOM     61  C   UNL A   1      41.594  29.264  35.810  1.00  0.00     0.031 C 
ATOM     62  C   UNL A   1      42.427  27.949  33.727  1.00  0.00     0.031 A 
BRANCH  49  63
ATOM     63  C   UNL A   1      41.746  26.890  27.733  1.00  0.00    -0.014 A 
ATOM     64  C   UNL A   1      42.235  25.578  27.859  1.00  0.00     0.009 A 
ATOM     65  C   UNL A   1      41.658  27.390  26.422  1.00  0.00     0.009 A 
ATOM     66  C   UNL A   1      42.663  24.832  26.755  1.00  0.00     0.001 A 
ATOM     67  C   UNL A   1      42.102  26.657  25.312  1.00  0.00     0.001 A 
ATOM     68  C   UNL A   1      42.610  25.378  25.481  1.00  0.00     0.000 A 
ENDBRANCH  49  63
BRANCH  50  69
ATOM     69  C   UNL A   1      39.758  33.301  34.818  1.00  0.00    -0.014 A 
ATOM     70  C   UNL A   1      38.508  32.707  34.525  1.00  0.00     0.009 A 
ATOM     71  C   UNL A   1      39.826  34.200  35.893  1.00  0.00     0.009 A 
ATOM     72  C   UNL A   1      37.422  32.850  35.396  1.00  0.00     0.001 A 
ATOM     73  C   UNL A   1      38.723  34.359  36.747  1.00  0.00     0.001 A 
ATOM     74  C   UNL A   1      37.547  33.640  36.534  1.00  0.00     0.000 A 
ENDBRANCH  50  69
BRANCH  62  75
ATOM     75  C   UNL A   1      42.578  26.545  34.274  1.00  0.00    -0.014 A 
ATOM     76  C   UNL A   1      41.653  25.930  35.121  1.00  0.00     0.009 A 
ATOM     77  C   UNL A   1      43.755  25.805  33.997  1.00  0.00     0.009 A 
ATOM     78  C   UNL A   1      41.846  24.616  35.575  1.00  0.00     0.001 A 
ATOM     79  C   UNL A   1      43.963  24.508  34.460  1.00  0.00     0.001 A 
ATOM     80  C   UNL A   1      42.993  23.902  35.235  1.00  0.00     0.000 A 
ENDBRANCH  62  75
ENDBRANCH  36  37
ENDBRANCH  28  31
ENDBRANCH  26  27
ENDBRANCH   1  26
TORSDOF 13
ENDMDL
MODEL 3
REMARK VINA RESULT:     -11.8      2.980      8.586
REMARK SMILES Cc1ccc(/C=C2\SC(=S)N([C@H](C(=O)NCCCNC(=O)c3ccc(-c4c5nc(c(-c6ccccc6)c6ccc([nH]6)c(-c6ccccc6)c6nc(c(-c7ccccc7)c7ccc4[nH]7)C=C6)C=C5)cc3)C(C)C)C2=O)cc1
REMARK SMILES IDX 17 1 16 2 15 3 13 4 14 5 12 7 11 8 6 9 7 10 8 11 73 12 9 13
REMARK SMILES IDX 74 14 10 15 5 16 1 17 2 18 3 19 76 20 4 21 75 22 70 23 71 24
REMARK SMILES IDX 72 25 18 26 19 27 20 28 21 30 22 31 23 32 69 33 24 34 68 35
REMARK SMILES IDX 25 36 26 37 27 38 62 39 28 40 67 41 61 42 63 43 29 44 66 45
REMARK SMILES IDX 60 46 59 47 30 49 52 50 37 51 51 52 38 53 41 54 50 55 64 56
REMARK SMILES IDX 39 57 40 58 49 60 65 61 42 62 31 63 32 64 36 65 33 66 35 67
REMARK SMILES IDX 34 68 53 69 54 70 58 71 55 72 57 73 56 74 43 75 44 76 48 77
REMARK SMILES IDX 45 78 47 79 46 80
REMARK H PARENT 15 6 19 29 63 48 41 59
REMARK Flexibility Score: inf
ROOT
ATOM      1  C   UNL A   1      37.032  21.919  24.183  1.00  0.00     0.042 C 
ENDROOT
BRANCH   1   2
ATOM      2  C   UNL A   1      36.143  23.026  23.648  1.00  0.00     0.117 C 
BRANCH   2   3
ATOM      3  N   UNL A   1      34.813  22.551  23.270  1.00  0.00    -0.354 N 
ATOM      4  C   UNL A   1      33.607  22.712  23.909  1.00  0.00     0.243 C 
ATOM      5  O   UNL A   1      32.582  22.351  23.329  1.00  0.00    -0.273 OA
ATOM      6  H   UNL A   1      34.777  22.037  22.432  1.00  0.00     0.163 HD
BRANCH   4   7
ATOM      7  C   UNL A   1      33.573  23.342  25.317  1.00  0.00     0.184 C 
BRANCH   7   8
ATOM      8  N   UNL A   1      32.661  24.532  25.270  1.00  0.00    -0.280 N 
ATOM      9  C   UNL A   1      31.821  27.644  23.659  1.00  0.00     0.029 C 
ATOM     10  C   UNL A   1      31.832  26.609  24.508  1.00  0.00     0.081 C 
ATOM     11  S   UNL A   1      30.560  26.048  25.496  1.00  0.00    -0.054 SA
ATOM     12  C   UNL A   1      33.016  25.719  24.636  1.00  0.00     0.266 C 
ATOM     13  C   UNL A   1      31.357  24.502  25.756  1.00  0.00     0.149 C 
ATOM     14  O   UNL A   1      34.091  26.047  24.183  1.00  0.00    -0.268 OA
ATOM     15  S   UNL A   1      30.502  23.259  26.471  1.00  0.00    -0.052 S 
BRANCH   9  16
ATOM     16  C   UNL A   1      30.719  28.598  23.549  1.00  0.00    -0.024 A 
ATOM     17  C   UNL A   1      27.529  31.478  23.340  1.00  0.00     0.044 C 
ATOM     18  C   UNL A   1      28.641  30.476  23.409  1.00  0.00    -0.051 A 
ATOM     19  C   UNL A   1      28.548  29.261  22.716  1.00  0.00     0.004 A 
ATOM     20  C   UNL A   1      29.784  30.745  24.167  1.00  0.00     0.004 A 
ATOM     21  C   UNL A   1      29.583  28.324  22.783  1.00  0.00     0.008 A 
ATOM     22  C   UNL A   1      30.818  29.815  24.232  1.00  0.00     0.008 A 
ENDBRANCH   9  16
ENDBRANCH   7   8
BRANCH   7  23
ATOM     23  C   UNL A   1      33.259  22.229  26.371  1.00  0.00     0.015 C 
ATOM     24  C   UNL A   1      33.626  20.801  25.946  1.00  0.00     0.010 C 
ATOM     25  C   UNL A   1      34.009  22.507  27.683  1.00  0.00     0.010 C 
ENDBRANCH   7  23
ENDBRANCH   4   7
ENDBRANCH   2   3
ENDBRANCH   1   2
BRANCH   1  26
ATOM     26  C   UNL A   1      37.168  21.964  25.687  1.00  0.00     0.118 C 
BRANCH  26  27
ATOM     27  N   UNL A   1      38.500  21.644  26.172  1.00  0.00    -0.352 N 
ATOM     28  C   UNL A   1      39.552  22.481  26.491  1.00  0.00     0.251 C 
ATOM     29  H   UNL A   1      38.680  20.684  26.294  1.00  0.00     0.163 HD
ATOM     30  O   UNL A   1      40.648  21.984  26.737  1.00  0.00    -0.269 OA
BRANCH  28  31
ATOM     31  C   UNL A   1      39.327  23.932  26.746  1.00  0.00     0.039 A 
ATOM     32  C   UNL A   1      39.925  24.812  25.831  1.00  0.00     0.014 A 
ATOM     33  C   UNL A   1      38.990  24.389  28.011  1.00  0.00     0.014 A 
ATOM     34  C   UNL A   1      40.505  25.980  26.299  1.00  0.00     0.010 A 
ATOM     35  C   UNL A   1      39.724  25.416  28.526  1.00  0.00     0.010 A 
ATOM     36  C   UNL A   1      40.524  26.170  27.671  1.00  0.00    -0.014 A 
BRANCH  36  37
ATOM     37  C   UNL A   1      41.273  27.187  28.362  1.00  0.00     0.031 A 
ATOM     38  C   UNL A   1      40.587  28.461  28.585  1.00  0.00     0.074 A 
ATOM     39  C   UNL A   1      42.424  26.824  28.964  1.00  0.00     0.049 A 
ATOM     40  N   UNL A   1      41.189  29.554  28.871  1.00  0.00    -0.248 NA
ATOM     41  C   UNL A   1      39.138  28.620  28.451  1.00  0.00     0.031 C 
ATOM     42  C   UNL A   1      43.166  27.509  30.013  1.00  0.00     0.029 A 
ATOM     43  N   UNL A   1      43.268  25.788  28.572  1.00  0.00    -0.354 N 
ATOM     44  C   UNL A   1      40.226  30.427  29.317  1.00  0.00     0.074 A 
ATOM     45  C   UNL A   1      38.968  29.867  28.896  1.00  0.00     0.031 C 
ATOM     46  C   UNL A   1      44.438  27.068  29.999  1.00  0.00     0.029 A 
ATOM     47  C   UNL A   1      44.586  26.212  28.832  1.00  0.00     0.049 A 
ATOM     48  H   UNL A   1      42.996  24.923  28.187  1.00  0.00     0.167 HD
ATOM     49  C   UNL A   1      40.613  31.428  30.151  1.00  0.00     0.031 A 
ATOM     50  C   UNL A   1      45.412  26.471  27.770  1.00  0.00     0.031 A 
ATOM     51  C   UNL A   1      42.065  31.402  30.342  1.00  0.00     0.049 A 
ATOM     52  C   UNL A   1      45.734  27.948  27.610  1.00  0.00     0.074 A 
ATOM     53  C   UNL A   1      42.891  30.953  31.361  1.00  0.00     0.029 A 
ATOM     54  N   UNL A   1      42.872  31.518  29.223  1.00  0.00    -0.354 N 
ATOM     55  N   UNL A   1      45.141  28.905  28.274  1.00  0.00    -0.248 NA
ATOM     56  C   UNL A   1      46.716  28.473  26.664  1.00  0.00     0.031 C 
ATOM     57  C   UNL A   1      44.206  30.800  30.827  1.00  0.00     0.029 A 
ATOM     58  C   UNL A   1      44.180  31.184  29.497  1.00  0.00     0.049 A 
ATOM     59  H   UNL A   1      42.549  31.806  28.338  1.00  0.00     0.167 HD
ATOM     60  C   UNL A   1      45.618  30.127  27.880  1.00  0.00     0.074 A 
ATOM     61  C   UNL A   1      46.587  29.802  26.845  1.00  0.00     0.031 C 
ATOM     62  C   UNL A   1      45.160  31.296  28.424  1.00  0.00     0.031 A 
BRANCH  49  63
ATOM     63  C   UNL A   1      39.681  32.265  30.984  1.00  0.00    -0.014 A 
ATOM     64  C   UNL A   1      39.058  33.377  30.389  1.00  0.00     0.009 A 
ATOM     65  C   UNL A   1      39.389  32.052  32.343  1.00  0.00     0.009 A 
ATOM     66  C   UNL A   1      38.244  34.253  31.115  1.00  0.00     0.001 A 
ATOM     67  C   UNL A   1      38.589  32.935  33.083  1.00  0.00     0.001 A 
ATOM     68  C   UNL A   1      38.021  34.040  32.468  1.00  0.00     0.000 A 
ENDBRANCH  49  63
BRANCH  50  69
ATOM     69  C   UNL A   1      45.204  25.477  26.664  1.00  0.00    -0.014 A 
ATOM     70  C   UNL A   1      45.521  24.129  26.945  1.00  0.00     0.009 A 
ATOM     71  C   UNL A   1      44.281  25.739  25.640  1.00  0.00     0.009 A 
ATOM     72  C   UNL A   1      44.793  23.083  26.366  1.00  0.00     0.001 A 
ATOM     73  C   UNL A   1      43.574  24.683  25.044  1.00  0.00     0.001 A 
ATOM     74  C   UNL A   1      43.785  23.365  25.450  1.00  0.00     0.000 A 
ENDBRANCH  50  69
BRANCH  62  75
ATOM     75  C   UNL A   1      45.545  32.691  27.979  1.00  0.00    -0.014 A 
ATOM     76  C   UNL A   1      46.357  33.554  28.718  1.00  0.00     0.009 A 
ATOM     77  C   UNL A   1      45.004  33.220  26.780  1.00  0.00     0.009 A 
ATOM     78  C   UNL A   1      46.691  34.829  28.234  1.00  0.00     0.001 A 
ATOM     79  C   UNL A   1      45.316  34.491  26.303  1.00  0.00     0.001 A 
ATOM     80  C   UNL A   1      46.181  35.291  27.023  1.00  0.00     0.000 A 
ENDBRANCH  62  75
ENDBRANCH  36  37
ENDBRANCH  28  31
ENDBRANCH  26  27
ENDBRANCH   1  26
TORSDOF 13
ENDMDL
