MODEL 1
REMARK VINA RESULT:     -11.9      0.000      0.000
REMARK SMILES CC1CC[NH+](CC(=O)N[C@H](Cc2cccc(F)c2)C(=O)NCCCNC(=O)c2ccc(-c3c4nc(c(-c5ccccc5)c5ccc([nH]5)c(-c5ccccc5)c5nc(c(-c6ccccc6)c6ccc3[nH]6)C=C5)C=C4)cc2)CC1
REMARK SMILES IDX 22 1 21 2 19 3 20 4 10 6 9 7 7 8 8 9 6 11 5 12 1 13 2 14
REMARK SMILES IDX 3 15 77 16 4 17 76 18 11 20 12 21 13 22 18 23 14 24 16 25
REMARK SMILES IDX 15 26 17 27 23 28 24 29 25 30 26 31 27 33 28 34 29 35 75 36
REMARK SMILES IDX 30 37 74 38 31 39 32 40 33 41 68 42 34 43 73 44 67 45 69 46
REMARK SMILES IDX 35 47 72 48 66 49 65 50 36 52 58 53 43 54 57 55 44 56 47 57
REMARK SMILES IDX 56 58 70 59 45 60 46 61 55 63 71 64 48 65 37 66 38 67 42 68
REMARK SMILES IDX 39 69 41 70 40 71 59 72 60 73 64 74 61 75 63 76 62 77 49 78
REMARK SMILES IDX 50 79 54 80 51 81 53 82 52 83
REMARK H PARENT 21 5 9 10 5 19 25 32 69 51 47 62
REMARK Flexibility Score: inf
ROOT
ATOM      1  C   UNL A   1      36.093  21.818  25.069  1.00  0.00     0.117 C 
ENDROOT
BRANCH   1   2
ATOM      2  N   UNL A   1      35.673  21.881  26.463  1.00  0.00    -0.354 N 
ATOM      3  C   UNL A   1      34.402  21.979  26.964  1.00  0.00     0.242 C 
ATOM      4  O   UNL A   1      34.240  22.559  28.038  1.00  0.00    -0.273 OA
ATOM      5  H   UNL A   1      36.395  21.847  27.130  1.00  0.00     0.163 HD
BRANCH   3   6
ATOM      6  C   UNL A   1      33.218  21.422  26.153  1.00  0.00     0.175 C 
BRANCH   6   7
ATOM      7  N   UNL A   1      32.032  22.102  26.712  1.00  0.00    -0.339 N 
ATOM      8  C   UNL A   1      31.327  23.223  26.425  1.00  0.00     0.275 C 
ATOM      9  O   UNL A   1      30.464  23.538  27.252  1.00  0.00    -0.268 OA
ATOM     10  H   UNL A   1      31.661  21.620  27.487  1.00  0.00     0.164 HD
BRANCH   8  11
ATOM     11  C   UNL A   1      31.519  24.000  25.140  1.00  0.00     0.363 C 
BRANCH  11  12
ATOM     12  N   UNL A   1      32.491  25.101  25.111  1.00  0.00    -0.327 N 
ATOM     13  C   UNL A   1      32.661  25.614  20.946  1.00  0.00     0.008 C 
ATOM     14  C   UNL A   1      33.113  25.963  22.367  1.00  0.00    -0.003 C 
ATOM     15  C   UNL A   1      33.762  24.728  23.013  1.00  0.00     0.065 C 
ATOM     16  C   UNL A   1      31.926  26.547  23.148  1.00  0.00     0.065 C 
ATOM     17  C   UNL A   1      33.783  24.767  24.533  1.00  0.00     0.262 C 
ATOM     18  C   UNL A   1      32.052  26.411  24.663  1.00  0.00     0.262 C 
ATOM     19  H   UNL A   1      32.602  25.214  26.119  1.00  0.00     0.348 HD
ENDBRANCH  11  12
ENDBRANCH   8  11
ENDBRANCH   6   7
BRANCH   6  20
ATOM     20  C   UNL A   1      33.232  19.877  26.148  1.00  0.00     0.070 C 
BRANCH  20  21
ATOM     21  C   UNL A   1      33.198  19.287  24.751  1.00  0.00    -0.043 A 
ATOM     22  C   UNL A   1      32.422  19.881  23.741  1.00  0.00     0.004 A 
ATOM     23  C   UNL A   1      33.840  18.071  24.478  1.00  0.00     0.043 A 
ATOM     24  C   UNL A   1      32.172  19.201  22.545  1.00  0.00     0.003 A 
ATOM     25  C   UNL A   1      33.558  17.390  23.296  1.00  0.00     0.123 A 
ATOM     26  C   UNL A   1      32.711  17.933  22.339  1.00  0.00     0.039 A 
ATOM     27  F   UNL A   1      34.051  16.156  23.120  1.00  0.00    -0.207 F 
ENDBRANCH  20  21
ENDBRANCH   6  20
ENDBRANCH   3   6
ENDBRANCH   1   2
BRANCH   1  28
ATOM     28  C   UNL A   1      37.130  20.723  24.883  1.00  0.00     0.042 C 
BRANCH  28  29
ATOM     29  C   UNL A   1      38.446  21.067  25.560  1.00  0.00     0.118 C 
BRANCH  29  30
ATOM     30  N   UNL A   1      39.312  19.899  25.673  1.00  0.00    -0.352 N 
ATOM     31  C   UNL A   1      40.652  19.850  25.963  1.00  0.00     0.251 C 
ATOM     32  H   UNL A   1      38.877  19.030  25.518  1.00  0.00     0.163 HD
ATOM     33  O   UNL A   1      41.306  18.838  25.728  1.00  0.00    -0.269 OA
BRANCH  31  34
ATOM     34  C   UNL A   1      41.296  21.040  26.545  1.00  0.00     0.039 A 
ATOM     35  C   UNL A   1      41.895  21.981  25.707  1.00  0.00     0.014 A 
ATOM     36  C   UNL A   1      41.251  21.240  27.926  1.00  0.00     0.014 A 
ATOM     37  C   UNL A   1      42.375  23.171  26.255  1.00  0.00     0.010 A 
ATOM     38  C   UNL A   1      41.629  22.466  28.451  1.00  0.00     0.010 A 
ATOM     39  C   UNL A   1      42.197  23.443  27.621  1.00  0.00    -0.014 A 
BRANCH  39  40
ATOM     40  C   UNL A   1      42.583  24.742  28.219  1.00  0.00     0.031 A 
ATOM     41  C   UNL A   1      41.541  25.807  28.423  1.00  0.00     0.074 A 
ATOM     42  C   UNL A   1      43.880  24.995  28.479  1.00  0.00     0.049 A 
ATOM     43  N   UNL A   1      41.694  27.044  28.819  1.00  0.00    -0.248 NA
ATOM     44  C   UNL A   1      40.148  25.442  28.113  1.00  0.00     0.031 C 
ATOM     45  C   UNL A   1      44.986  24.054  28.287  1.00  0.00     0.029 A 
ATOM     46  N   UNL A   1      44.490  26.130  28.949  1.00  0.00    -0.354 N 
ATOM     47  C   UNL A   1      40.427  27.609  28.778  1.00  0.00     0.074 A 
ATOM     48  C   UNL A   1      39.523  26.599  28.276  1.00  0.00     0.031 C 
ATOM     49  C   UNL A   1      46.133  24.639  28.666  1.00  0.00     0.029 A 
ATOM     50  C   UNL A   1      45.854  26.013  29.071  1.00  0.00     0.049 A 
ATOM     51  H   UNL A   1      43.999  26.951  29.178  1.00  0.00     0.167 HD
ATOM     52  C   UNL A   1      40.046  28.856  29.142  1.00  0.00     0.031 A 
ATOM     53  C   UNL A   1      46.778  26.916  29.450  1.00  0.00     0.031 A 
ATOM     54  C   UNL A   1      40.947  29.852  29.656  1.00  0.00     0.049 A 
ATOM     55  C   UNL A   1      46.331  28.306  29.812  1.00  0.00     0.074 A 
ATOM     56  C   UNL A   1      40.651  31.118  30.125  1.00  0.00     0.029 A 
ATOM     57  N   UNL A   1      42.320  29.694  29.758  1.00  0.00    -0.354 N 
ATOM     58  N   UNL A   1      45.117  28.800  29.850  1.00  0.00    -0.248 NA
ATOM     59  C   UNL A   1      47.383  29.263  30.183  1.00  0.00     0.031 C 
ATOM     60  C   UNL A   1      41.854  31.754  30.446  1.00  0.00     0.029 A 
ATOM     61  C   UNL A   1      42.891  30.859  30.241  1.00  0.00     0.049 A 
ATOM     62  H   UNL A   1      42.816  28.876  29.523  1.00  0.00     0.167 HD
ATOM     63  C   UNL A   1      45.256  30.114  30.273  1.00  0.00     0.074 A 
ATOM     64  C   UNL A   1      46.671  30.335  30.499  1.00  0.00     0.031 C 
ATOM     65  C   UNL A   1      44.301  31.057  30.458  1.00  0.00     0.031 A 
BRANCH  52  66
ATOM     66  C   UNL A   1      38.596  29.220  28.983  1.00  0.00    -0.014 A 
ATOM     67  C   UNL A   1      37.698  29.138  30.058  1.00  0.00     0.009 A 
ATOM     68  C   UNL A   1      38.134  29.702  27.748  1.00  0.00     0.009 A 
ATOM     69  C   UNL A   1      36.359  29.499  29.891  1.00  0.00     0.001 A 
ATOM     70  C   UNL A   1      36.803  30.091  27.592  1.00  0.00     0.001 A 
ATOM     71  C   UNL A   1      35.915  29.982  28.660  1.00  0.00     0.000 A 
ENDBRANCH  52  66
BRANCH  53  72
ATOM     72  C   UNL A   1      48.216  26.544  29.506  1.00  0.00    -0.014 A 
ATOM     73  C   UNL A   1      49.044  26.739  28.389  1.00  0.00     0.009 A 
ATOM     74  C   UNL A   1      48.767  25.973  30.664  1.00  0.00     0.009 A 
ATOM     75  C   UNL A   1      50.383  26.343  28.422  1.00  0.00     0.001 A 
ATOM     76  C   UNL A   1      50.115  25.608  30.704  1.00  0.00     0.001 A 
ATOM     77  C   UNL A   1      50.918  25.782  29.580  1.00  0.00     0.000 A 
ENDBRANCH  53  72
BRANCH  65  78
ATOM     78  C   UNL A   1      44.746  32.405  30.953  1.00  0.00    -0.014 A 
ATOM     79  C   UNL A   1      44.886  32.664  32.324  1.00  0.00     0.009 A 
ATOM     80  C   UNL A   1      45.087  33.406  30.030  1.00  0.00     0.009 A 
ATOM     81  C   UNL A   1      45.336  33.912  32.762  1.00  0.00     0.001 A 
ATOM     82  C   UNL A   1      45.567  34.640  30.470  1.00  0.00     0.001 A 
ATOM     83  C   UNL A   1      45.684  34.894  31.836  1.00  0.00     0.000 A 
ENDBRANCH  65  78
ENDBRANCH  39  40
ENDBRANCH  31  34
ENDBRANCH  29  30
ENDBRANCH  28  29
ENDBRANCH   1  28
TORSDOF 15
ENDMDL
MODEL 2
REMARK VINA RESULT:     -11.8      3.870      8.912
REMARK SMILES CC1CC[NH+](CC(=O)N[C@H](Cc2cccc(F)c2)C(=O)NCCCNC(=O)c2ccc(-c3c4nc(c(-c5ccccc5)c5ccc([nH]5)c(-c5ccccc5)c5nc(c(-c6ccccc6)c6ccc3[nH]6)C=C5)C=C4)cc2)CC1
REMARK SMILES IDX 22 1 21 2 19 3 20 4 10 6 9 7 7 8 8 9 6 11 5 12 1 13 2 14
REMARK SMILES IDX 3 15 77 16 4 17 76 18 11 20 12 21 13 22 18 23 14 24 16 25
REMARK SMILES IDX 15 26 17 27 23 28 24 29 25 30 26 31 27 33 28 34 29 35 75 36
REMARK SMILES IDX 30 37 74 38 31 39 32 40 33 41 68 42 34 43 73 44 67 45 69 46
REMARK SMILES IDX 35 47 72 48 66 49 65 50 36 52 58 53 43 54 57 55 44 56 47 57
REMARK SMILES IDX 56 58 70 59 45 60 46 61 55 63 71 64 48 65 37 66 38 67 42 68
REMARK SMILES IDX 39 69 41 70 40 71 59 72 60 73 64 74 61 75 63 76 62 77 49 78
REMARK SMILES IDX 50 79 54 80 51 81 53 82 52 83
REMARK H PARENT 21 5 9 10 5 19 25 32 69 51 47 62
REMARK Flexibility Score: inf
ROOT
ATOM      1  C   UNL A   1      32.474  29.284  25.709  1.00  0.00     0.117 C 
ENDROOT
BRANCH   1   2
ATOM      2  N   UNL A   1      33.323  29.564  24.557  1.00  0.00    -0.354 N 
ATOM      3  C   UNL A   1      33.312  28.961  23.328  1.00  0.00     0.242 C 
ATOM      4  O   UNL A   1      34.369  28.895  22.699  1.00  0.00    -0.273 OA
ATOM      5  H   UNL A   1      33.988  30.278  24.678  1.00  0.00     0.163 HD
BRANCH   3   6
ATOM      6  C   UNL A   1      32.009  28.335  22.797  1.00  0.00     0.175 C 
BRANCH   6   7
ATOM      7  N   UNL A   1      32.451  27.372  21.768  1.00  0.00    -0.339 N 
ATOM      8  C   UNL A   1      32.907  26.096  21.761  1.00  0.00     0.275 C 
ATOM      9  O   UNL A   1      33.331  25.685  20.674  1.00  0.00    -0.268 OA
ATOM     10  H   UNL A   1      32.403  27.752  20.861  1.00  0.00     0.164 HD
BRANCH   8  11
ATOM     11  C   UNL A   1      32.832  25.197  22.977  1.00  0.00     0.363 C 
BRANCH  11  12
ATOM     12  N   UNL A   1      34.037  25.003  23.794  1.00  0.00    -0.327 N 
ATOM     13  C   UNL A   1      32.206  23.156  27.093  1.00  0.00     0.008 C 
ATOM     14  C   UNL A   1      33.434  23.727  26.377  1.00  0.00    -0.003 C 
ATOM     15  C   UNL A   1      33.225  25.230  26.128  1.00  0.00     0.065 C 
ATOM     16  C   UNL A   1      33.715  22.901  25.114  1.00  0.00     0.065 C 
ATOM     17  C   UNL A   1      34.089  25.796  25.012  1.00  0.00     0.262 C 
ATOM     18  C   UNL A   1      34.504  23.650  24.044  1.00  0.00     0.262 C 
ATOM     19  H   UNL A   1      34.716  25.375  23.131  1.00  0.00     0.348 HD
ENDBRANCH  11  12
ENDBRANCH   8  11
ENDBRANCH   6   7
BRANCH   6  20
ATOM     20  C   UNL A   1      31.003  29.430  22.379  1.00  0.00     0.070 C 
BRANCH  20  21
ATOM     21  C   UNL A   1      29.558  29.025  22.598  1.00  0.00    -0.043 A 
ATOM     22  C   UNL A   1      28.516  29.943  22.382  1.00  0.00     0.004 A 
ATOM     23  C   UNL A   1      29.246  27.771  23.140  1.00  0.00     0.043 A 
ATOM     24  C   UNL A   1      27.222  29.669  22.837  1.00  0.00     0.003 A 
ATOM     25  C   UNL A   1      27.961  27.522  23.616  1.00  0.00     0.123 A 
ATOM     26  C   UNL A   1      26.954  28.470  23.491  1.00  0.00     0.039 A 
ATOM     27  F   UNL A   1      27.718  26.382  24.276  1.00  0.00    -0.207 F 
ENDBRANCH  20  21
ENDBRANCH   6  20
ENDBRANCH   3   6
ENDBRANCH   1   2
BRANCH   1  28
ATOM     28  C   UNL A   1      31.892  30.576  26.257  1.00  0.00     0.042 C 
BRANCH  28  29
ATOM     29  C   UNL A   1      32.876  31.303  27.160  1.00  0.00     0.118 C 
BRANCH  29  30
ATOM     30  N   UNL A   1      32.510  32.704  27.333  1.00  0.00    -0.352 N 
ATOM     31  C   UNL A   1      33.081  33.644  28.153  1.00  0.00     0.251 C 
ATOM     32  H   UNL A   1      31.751  33.016  26.789  1.00  0.00     0.163 HD
ATOM     33  O   UNL A   1      32.486  34.685  28.419  1.00  0.00    -0.269 OA
BRANCH  31  34
ATOM     34  C   UNL A   1      34.411  33.373  28.725  1.00  0.00     0.039 A 
ATOM     35  C   UNL A   1      34.516  32.704  29.944  1.00  0.00     0.014 A 
ATOM     36  C   UNL A   1      35.553  33.742  28.012  1.00  0.00     0.014 A 
ATOM     37  C   UNL A   1      35.777  32.326  30.406  1.00  0.00     0.010 A 
ATOM     38  C   UNL A   1      36.793  33.273  28.418  1.00  0.00     0.010 A 
ATOM     39  C   UNL A   1      36.917  32.562  29.620  1.00  0.00    -0.014 A 
BRANCH  39  40
ATOM     40  C   UNL A   1      38.258  32.072  30.017  1.00  0.00     0.031 A 
ATOM     41  C   UNL A   1      38.750  30.749  29.501  1.00  0.00     0.074 A 
ATOM     42  C   UNL A   1      38.981  32.768  30.917  1.00  0.00     0.049 A 
ATOM     43  N   UNL A   1      39.836  30.092  29.821  1.00  0.00    -0.248 NA
ATOM     44  C   UNL A   1      37.895  30.058  28.522  1.00  0.00     0.031 C 
ATOM     45  C   UNL A   1      38.591  34.047  31.516  1.00  0.00     0.029 A 
ATOM     46  N   UNL A   1      40.192  32.488  31.495  1.00  0.00    -0.354 N 
ATOM     47  C   UNL A   1      39.778  28.905  29.104  1.00  0.00     0.074 A 
ATOM     48  C   UNL A   1      38.533  28.906  28.370  1.00  0.00     0.031 C 
ATOM     49  C   UNL A   1      39.559  34.454  32.352  1.00  0.00     0.029 A 
ATOM     50  C   UNL A   1      40.608  33.441  32.393  1.00  0.00     0.049 A 
ATOM     51  H   UNL A   1      40.715  31.681  31.287  1.00  0.00     0.167 HD
ATOM     52  C   UNL A   1      40.691  27.907  29.049  1.00  0.00     0.031 A 
ATOM     53  C   UNL A   1      41.703  33.486  33.175  1.00  0.00     0.031 A 
ATOM     54  C   UNL A   1      41.936  27.918  29.769  1.00  0.00     0.049 A 
ATOM     55  C   UNL A   1      42.682  32.345  33.123  1.00  0.00     0.074 A 
ATOM     56  C   UNL A   1      42.963  26.993  29.724  1.00  0.00     0.029 A 
ATOM     57  N   UNL A   1      42.315  28.899  30.671  1.00  0.00    -0.354 N 
ATOM     58  N   UNL A   1      42.656  31.268  32.375  1.00  0.00    -0.248 NA
ATOM     59  C   UNL A   1      43.841  32.426  34.023  1.00  0.00     0.031 C 
ATOM     60  C   UNL A   1      43.934  27.379  30.652  1.00  0.00     0.029 A 
ATOM     61  C   UNL A   1      43.543  28.578  31.224  1.00  0.00     0.049 A 
ATOM     62  H   UNL A   1      41.790  29.704  30.887  1.00  0.00     0.167 HD
ATOM     63  C   UNL A   1      43.804  30.557  32.695  1.00  0.00     0.074 A 
ATOM     64  C   UNL A   1      44.515  31.335  33.690  1.00  0.00     0.031 C 
ATOM     65  C   UNL A   1      44.233  29.366  32.212  1.00  0.00     0.031 A 
BRANCH  52  66
ATOM     66  C   UNL A   1      40.372  26.712  28.195  1.00  0.00    -0.014 A 
ATOM     67  C   UNL A   1      39.591  25.652  28.682  1.00  0.00     0.009 A 
ATOM     68  C   UNL A   1      40.818  26.670  26.865  1.00  0.00     0.009 A 
ATOM     69  C   UNL A   1      39.291  24.559  27.864  1.00  0.00     0.001 A 
ATOM     70  C   UNL A   1      40.491  25.593  26.040  1.00  0.00     0.001 A 
ATOM     71  C   UNL A   1      39.736  24.535  26.542  1.00  0.00     0.000 A 
ENDBRANCH  52  66
BRANCH  53  72
ATOM     72  C   UNL A   1      41.938  34.644  34.078  1.00  0.00    -0.014 A 
ATOM     73  C   UNL A   1      41.452  34.628  35.394  1.00  0.00     0.009 A 
ATOM     74  C   UNL A   1      42.628  35.779  33.625  1.00  0.00     0.009 A 
ATOM     75  C   UNL A   1      41.626  35.736  36.227  1.00  0.00     0.001 A 
ATOM     76  C   UNL A   1      42.829  36.872  34.472  1.00  0.00     0.001 A 
ATOM     77  C   UNL A   1      42.317  36.854  35.767  1.00  0.00     0.000 A 
ENDBRANCH  53  72
BRANCH  65  78
ATOM     78  C   UNL A   1      45.544  28.842  32.728  1.00  0.00    -0.014 A 
ATOM     79  C   UNL A   1      45.596  27.978  33.833  1.00  0.00     0.009 A 
ATOM     80  C   UNL A   1      46.734  29.168  32.060  1.00  0.00     0.009 A 
ATOM     81  C   UNL A   1      46.821  27.473  34.273  1.00  0.00     0.001 A 
ATOM     82  C   UNL A   1      47.952  28.637  32.484  1.00  0.00     0.001 A 
ATOM     83  C   UNL A   1      47.995  27.795  33.595  1.00  0.00     0.000 A 
ENDBRANCH  65  78
ENDBRANCH  39  40
ENDBRANCH  31  34
ENDBRANCH  29  30
ENDBRANCH  28  29
ENDBRANCH   1  28
TORSDOF 15
ENDMDL
MODEL 3
REMARK VINA RESULT:     -11.7      4.008      9.015
REMARK SMILES CC1CC[NH+](CC(=O)N[C@H](Cc2cccc(F)c2)C(=O)NCCCNC(=O)c2ccc(-c3c4nc(c(-c5ccccc5)c5ccc([nH]5)c(-c5ccccc5)c5nc(c(-c6ccccc6)c6ccc3[nH]6)C=C5)C=C4)cc2)CC1
REMARK SMILES IDX 22 1 21 2 19 3 20 4 10 6 9 7 7 8 8 9 6 11 5 12 1 13 2 14
REMARK SMILES IDX 3 15 77 16 4 17 76 18 11 20 12 21 13 22 18 23 14 24 16 25
REMARK SMILES IDX 15 26 17 27 23 28 24 29 25 30 26 31 27 33 28 34 29 35 75 36
REMARK SMILES IDX 30 37 74 38 31 39 32 40 33 41 68 42 34 43 73 44 67 45 69 46
REMARK SMILES IDX 35 47 72 48 66 49 65 50 36 52 58 53 43 54 57 55 44 56 47 57
REMARK SMILES IDX 56 58 70 59 45 60 46 61 55 63 71 64 48 65 37 66 38 67 42 68
REMARK SMILES IDX 39 69 41 70 40 71 59 72 60 73 64 74 61 75 63 76 62 77 49 78
REMARK SMILES IDX 50 79 54 80 51 81 53 82 52 83
REMARK H PARENT 21 5 9 10 5 19 25 32 69 51 47 62
REMARK Flexibility Score: inf
ROOT
ATOM      1  C   UNL A   1      32.239  29.505  25.668  1.00  0.00     0.117 C 
ENDROOT
BRANCH   1   2
ATOM      2  N   UNL A   1      33.208  29.682  24.593  1.00  0.00    -0.354 N 
ATOM      3  C   UNL A   1      33.309  28.988  23.417  1.00  0.00     0.242 C 
ATOM      4  O   UNL A   1      34.423  28.855  22.910  1.00  0.00    -0.273 OA
ATOM      5  H   UNL A   1      33.875  30.392  24.730  1.00  0.00     0.163 HD
BRANCH   3   6
ATOM      6  C   UNL A   1      32.053  28.346  22.801  1.00  0.00     0.175 C 
BRANCH   6   7
ATOM      7  N   UNL A   1      32.572  27.278  21.923  1.00  0.00    -0.339 N 
ATOM      8  C   UNL A   1      32.801  25.948  22.040  1.00  0.00     0.275 C 
ATOM      9  O   UNL A   1      33.408  25.425  21.098  1.00  0.00    -0.268 OA
ATOM     10  H   UNL A   1      32.812  27.617  21.030  1.00  0.00     0.164 HD
BRANCH   8  11
ATOM     11  C   UNL A   1      32.283  25.130  23.205  1.00  0.00     0.363 C 
BRANCH  11  12
ATOM     12  N   UNL A   1      33.133  24.961  24.391  1.00  0.00    -0.327 N 
ATOM     13  C   UNL A   1      30.297  23.113  26.877  1.00  0.00     0.008 C 
ATOM     14  C   UNL A   1      31.689  23.698  26.622  1.00  0.00    -0.003 C 
ATOM     15  C   UNL A   1      31.562  25.195  26.297  1.00  0.00     0.065 C 
ATOM     16  C   UNL A   1      32.399  22.865  25.545  1.00  0.00     0.065 C 
ATOM     17  C   UNL A   1      32.752  25.765  25.541  1.00  0.00     0.262 C 
ATOM     18  C   UNL A   1      33.501  23.618  24.804  1.00  0.00     0.262 C 
ATOM     19  H   UNL A   1      33.995  25.339  23.998  1.00  0.00     0.348 HD
ENDBRANCH  11  12
ENDBRANCH   8  11
ENDBRANCH   6   7
BRANCH   6  20
ATOM     20  C   UNL A   1      31.139  29.421  22.170  1.00  0.00     0.070 C 
BRANCH  20  21
ATOM     21  C   UNL A   1      29.753  29.459  22.786  1.00  0.00    -0.043 A 
ATOM     22  C   UNL A   1      28.990  28.285  22.906  1.00  0.00     0.004 A 
ATOM     23  C   UNL A   1      29.162  30.682  23.131  1.00  0.00     0.043 A 
ATOM     24  C   UNL A   1      27.628  28.352  23.215  1.00  0.00     0.003 A 
ATOM     25  C   UNL A   1      27.798  30.738  23.408  1.00  0.00     0.123 A 
ATOM     26  C   UNL A   1      27.022  29.587  23.428  1.00  0.00     0.039 A 
ATOM     27  F   UNL A   1      27.214  31.933  23.576  1.00  0.00    -0.207 F 
ENDBRANCH  20  21
ENDBRANCH   6  20
ENDBRANCH   3   6
ENDBRANCH   1   2
BRANCH   1  28
ATOM     28  C   UNL A   1      31.748  30.857  26.157  1.00  0.00     0.042 C 
BRANCH  28  29
ATOM     29  C   UNL A   1      32.705  31.480  27.160  1.00  0.00     0.118 C 
BRANCH  29  30
ATOM     30  N   UNL A   1      32.436  32.901  27.347  1.00  0.00    -0.352 N 
ATOM     31  C   UNL A   1      33.069  33.792  28.176  1.00  0.00     0.251 C 
ATOM     32  H   UNL A   1      31.701  33.270  26.805  1.00  0.00     0.163 HD
ATOM     33  O   UNL A   1      32.547  34.869  28.452  1.00  0.00    -0.269 OA
BRANCH  31  34
ATOM     34  C   UNL A   1      34.376  33.425  28.745  1.00  0.00     0.039 A 
ATOM     35  C   UNL A   1      34.438  32.810  29.996  1.00  0.00     0.014 A 
ATOM     36  C   UNL A   1      35.537  33.649  28.003  1.00  0.00     0.014 A 
ATOM     37  C   UNL A   1      35.665  32.338  30.463  1.00  0.00     0.010 A 
ATOM     38  C   UNL A   1      36.733  33.085  28.418  1.00  0.00     0.010 A 
ATOM     39  C   UNL A   1      36.809  32.426  29.653  1.00  0.00    -0.014 A 
BRANCH  39  40
ATOM     40  C   UNL A   1      38.105  31.831  30.059  1.00  0.00     0.031 A 
ATOM     41  C   UNL A   1      39.036  32.609  30.947  1.00  0.00     0.074 A 
ATOM     42  C   UNL A   1      38.481  30.644  29.546  1.00  0.00     0.049 A 
ATOM     43  N   UNL A   1      40.256  32.319  31.316  1.00  0.00    -0.248 NA
ATOM     44  C   UNL A   1      38.541  33.898  31.461  1.00  0.00     0.031 C 
ATOM     45  C   UNL A   1      37.678  29.813  28.645  1.00  0.00     0.029 A 
ATOM     46  N   UNL A   1      39.645  29.935  29.700  1.00  0.00    -0.354 N 
ATOM     47  C   UNL A   1      40.681  33.397  32.081  1.00  0.00     0.074 A 
ATOM     48  C   UNL A   1      39.612  34.369  32.085  1.00  0.00     0.031 C 
ATOM     49  C   UNL A   1      38.361  28.694  28.353  1.00  0.00     0.029 A 
ATOM     50  C   UNL A   1      39.669  28.755  28.996  1.00  0.00     0.049 A 
ATOM     51  H   UNL A   1      40.392  30.241  30.262  1.00  0.00     0.167 HD
ATOM     52  C   UNL A   1      41.855  33.557  32.736  1.00  0.00     0.031 A 
ATOM     53  C   UNL A   1      40.642  27.834  28.869  1.00  0.00     0.031 A 
ATOM     54  C   UNL A   1      42.910  32.579  32.741  1.00  0.00     0.049 A 
ATOM     55  C   UNL A   1      41.951  28.055  29.577  1.00  0.00     0.074 A 
ATOM     56  C   UNL A   1      44.106  32.610  33.434  1.00  0.00     0.029 A 
ATOM     57  N   UNL A   1      42.897  31.401  32.011  1.00  0.00    -0.354 N 
ATOM     58  N   UNL A   1      42.307  29.040  30.366  1.00  0.00    -0.248 NA
ATOM     59  C   UNL A   1      42.992  27.038  29.376  1.00  0.00     0.031 C 
ATOM     60  C   UNL A   1      44.848  31.483  33.068  1.00  0.00     0.029 A 
ATOM     61  C   UNL A   1      44.085  30.718  32.202  1.00  0.00     0.049 A 
ATOM     62  H   UNL A   1      42.153  31.096  31.443  1.00  0.00     0.167 HD
ATOM     63  C   UNL A   1      43.601  28.748  30.775  1.00  0.00     0.074 A 
ATOM     64  C   UNL A   1      43.960  27.485  30.163  1.00  0.00     0.031 C 
ATOM     65  C   UNL A   1      44.422  29.462  31.583  1.00  0.00     0.031 A 
BRANCH  52  66
ATOM     66  C   UNL A   1      42.069  34.841  33.487  1.00  0.00    -0.014 A 
ATOM     67  C   UNL A   1      41.565  35.023  34.785  1.00  0.00     0.009 A 
ATOM     68  C   UNL A   1      42.830  35.866  32.906  1.00  0.00     0.009 A 
ATOM     69  C   UNL A   1      41.791  36.218  35.471  1.00  0.00     0.001 A 
ATOM     70  C   UNL A   1      43.082  37.048  33.605  1.00  0.00     0.001 A 
ATOM     71  C   UNL A   1      42.555  37.226  34.883  1.00  0.00     0.000 A 
ENDBRANCH  52  66
BRANCH  53  72
ATOM     72  C   UNL A   1      40.426  26.619  28.040  1.00  0.00    -0.014 A 
ATOM     73  C   UNL A   1      39.716  25.524  28.556  1.00  0.00     0.009 A 
ATOM     74  C   UNL A   1      40.944  26.535  26.738  1.00  0.00     0.009 A 
ATOM     75  C   UNL A   1      39.555  24.361  27.799  1.00  0.00     0.001 A 
ATOM     76  C   UNL A   1      40.753  25.383  25.970  1.00  0.00     0.001 A 
ATOM     77  C   UNL A   1      40.071  24.294  26.506  1.00  0.00     0.000 A 
ENDBRANCH  53  72
BRANCH  65  78
ATOM     78  C   UNL A   1      45.777  28.883  31.877  1.00  0.00    -0.014 A 
ATOM     79  C   UNL A   1      46.893  29.212  31.093  1.00  0.00     0.009 A 
ATOM     80  C   UNL A   1      45.949  28.047  32.992  1.00  0.00     0.009 A 
ATOM     81  C   UNL A   1      48.151  28.692  31.406  1.00  0.00     0.001 A 
ATOM     82  C   UNL A   1      47.212  27.556  33.320  1.00  0.00     0.001 A 
ATOM     83  C   UNL A   1      48.311  27.873  32.522  1.00  0.00     0.000 A 
ENDBRANCH  65  78
ENDBRANCH  39  40
ENDBRANCH  31  34
ENDBRANCH  29  30
ENDBRANCH  28  29
ENDBRANCH   1  28
TORSDOF 15
ENDMDL
