MODEL 1
REMARK VINA RESULT:     -13.2      0.000      0.000
REMARK SMILES Cc1cccc(-n2ncc(C(=O)Nc3cccc(C(=O)NCCCNC(=O)c4ccc(-c5c6nc(c(-c7ccccc7)c7ccc([nH]7)c(-c7ccccc7)c7nc(c(-c8ccccc8)c8ccc5[nH]8)C=C7)C=C6)cc4)c3C)c2C)c1
REMARK SMILES IDX 22 1 21 2 19 3 20 4 18 6 14 7 15 8 76 9 16 10 77 11 17 12
REMARK SMILES IDX 13 13 11 14 12 15 10 17 7 18 8 19 78 20 9 21 79 22 6 23 1 24
REMARK SMILES IDX 2 25 3 26 80 27 4 28 5 29 23 30 24 31 25 32 26 33 27 35
REMARK SMILES IDX 28 36 29 37 75 38 30 39 74 40 31 41 32 42 33 43 68 44 34 45
REMARK SMILES IDX 73 46 67 47 69 48 35 49 72 50 66 51 65 52 36 54 58 55 43 56
REMARK SMILES IDX 57 57 44 58 47 59 56 60 70 61 45 62 46 63 55 65 71 66 48 67
REMARK SMILES IDX 37 68 38 69 42 70 39 71 41 72 40 73 59 74 60 75 64 76 61 77
REMARK SMILES IDX 63 78 62 79 49 80 50 81 54 82 51 83 53 84 52 85
REMARK H PARENT 21 5 13 16 25 34 69 53 47 64
REMARK Flexibility Score: inf
ROOT
ATOM      1  C   UNL A   1      36.954  20.792  25.251  1.00  0.00     0.118 C 
ENDROOT
BRANCH   1   2
ATOM      2  N   UNL A   1      36.204  21.709  26.096  1.00  0.00    -0.352 N 
ATOM      3  C   UNL A   1      34.987  22.345  25.983  1.00  0.00     0.251 C 
ATOM      4  O   UNL A   1      34.695  23.060  26.939  1.00  0.00    -0.269 OA
ATOM      5  H   UNL A   1      36.671  21.925  26.935  1.00  0.00     0.163 HD
BRANCH   3   6
ATOM      6  C   UNL A   1      34.037  22.189  24.815  1.00  0.00     0.044 A 
ATOM      7  C   UNL A   1      33.051  22.974  22.727  1.00  0.00     0.045 A 
ATOM      8  C   UNL A   1      32.065  21.986  22.799  1.00  0.00     0.026 A 
ATOM      9  C   UNL A   1      34.115  23.026  23.665  1.00  0.00    -0.015 A 
ATOM     10  C   UNL A   1      32.072  21.083  23.841  1.00  0.00     0.003 A 
ATOM     11  C   UNL A   1      35.201  24.056  23.463  1.00  0.00     0.047 C 
ATOM     12  C   UNL A   1      33.037  21.203  24.838  1.00  0.00     0.014 A 
BRANCH   7  13
ATOM     13  N   UNL A   1      32.947  23.946  21.719  1.00  0.00    -0.322 N 
ATOM     14  C   UNL A   1      32.357  25.192  21.783  1.00  0.00     0.259 C 
ATOM     15  O   UNL A   1      32.065  25.746  20.723  1.00  0.00    -0.269 OA
ATOM     16  H   UNL A   1      33.348  23.707  20.852  1.00  0.00     0.170 HD
BRANCH  14  17
ATOM     17  C   UNL A   1      32.207  25.867  23.076  1.00  0.00     0.081 A 
ATOM     18  N   UNL A   1      32.459  27.282  24.789  1.00  0.00    -0.237 N 
ATOM     19  N   UNL A   1      31.649  26.301  25.257  1.00  0.00    -0.175 NA
ATOM     20  C   UNL A   1      32.916  26.987  23.510  1.00  0.00     0.054 A 
ATOM     21  C   UNL A   1      31.484  25.481  24.225  1.00  0.00     0.149 A 
ATOM     22  C   UNL A   1      34.058  27.669  22.839  1.00  0.00     0.068 C 
BRANCH  18  23
ATOM     23  C   UNL A   1      32.761  28.386  25.631  1.00  0.00     0.065 A 
ATOM     24  C   UNL A   1      31.230  31.781  26.432  1.00  0.00     0.044 C 
ATOM     25  C   UNL A   1      32.159  30.604  26.431  1.00  0.00    -0.049 A 
ATOM     26  C   UNL A   1      33.224  30.548  27.339  1.00  0.00     0.003 A 
ATOM     27  C   UNL A   1      31.951  29.530  25.558  1.00  0.00     0.031 A 
ATOM     28  C   UNL A   1      34.067  29.436  27.373  1.00  0.00     0.002 A 
ATOM     29  C   UNL A   1      33.836  28.352  26.525  1.00  0.00     0.028 A 
ENDBRANCH  18  23
ENDBRANCH  14  17
ENDBRANCH   7  13
ENDBRANCH   3   6
ENDBRANCH   1   2
BRANCH   1  30
ATOM     30  C   UNL A   1      38.453  21.085  25.310  1.00  0.00     0.042 C 
BRANCH  30  31
ATOM     31  C   UNL A   1      38.820  22.356  26.055  1.00  0.00     0.118 C 
BRANCH  31  32
ATOM     32  N   UNL A   1      40.254  22.493  26.297  1.00  0.00    -0.352 N 
ATOM     33  C   UNL A   1      40.970  23.617  26.676  1.00  0.00     0.251 C 
ATOM     34  H   UNL A   1      40.785  21.674  26.172  1.00  0.00     0.163 HD
ATOM     35  O   UNL A   1      42.172  23.556  26.868  1.00  0.00    -0.269 OA
BRANCH  33  36
ATOM     36  C   UNL A   1      40.221  24.856  26.989  1.00  0.00     0.039 A 
ATOM     37  C   UNL A   1      40.530  25.990  26.233  1.00  0.00     0.014 A 
ATOM     38  C   UNL A   1      39.492  24.960  28.169  1.00  0.00     0.014 A 
ATOM     39  C   UNL A   1      40.364  27.243  26.809  1.00  0.00     0.010 A 
ATOM     40  C   UNL A   1      39.430  26.192  28.787  1.00  0.00     0.010 A 
ATOM     41  C   UNL A   1      39.947  27.320  28.136  1.00  0.00    -0.014 A 
BRANCH  41  42
ATOM     42  C   UNL A   1      40.188  28.494  28.966  1.00  0.00     0.031 A 
ATOM     43  C   UNL A   1      39.160  29.540  29.107  1.00  0.00     0.074 A 
ATOM     44  C   UNL A   1      41.343  28.584  29.663  1.00  0.00     0.049 A 
ATOM     45  N   UNL A   1      39.402  30.745  29.499  1.00  0.00    -0.248 NA
ATOM     46  C   UNL A   1      37.769  29.326  28.728  1.00  0.00     0.031 C 
ATOM     47  C   UNL A   1      41.653  29.489  30.766  1.00  0.00     0.029 A 
ATOM     48  N   UNL A   1      42.569  28.003  29.334  1.00  0.00    -0.354 N 
ATOM     49  C   UNL A   1      38.190  31.355  29.722  1.00  0.00     0.074 A 
ATOM     50  C   UNL A   1      37.219  30.480  29.113  1.00  0.00     0.031 C 
ATOM     51  C   UNL A   1      42.987  29.600  30.873  1.00  0.00     0.029 A 
ATOM     52  C   UNL A   1      43.571  28.901  29.740  1.00  0.00     0.049 A 
ATOM     53  H   UNL A   1      42.706  27.129  28.902  1.00  0.00     0.167 HD
ATOM     54  C   UNL A   1      38.139  32.449  30.532  1.00  0.00     0.031 A 
ATOM     55  C   UNL A   1      44.418  29.472  28.833  1.00  0.00     0.031 A 
ATOM     56  C   UNL A   1      39.479  32.938  30.869  1.00  0.00     0.049 A 
ATOM     57  C   UNL A   1      44.345  30.983  28.788  1.00  0.00     0.074 A 
ATOM     58  C   UNL A   1      40.268  32.853  32.003  1.00  0.00     0.029 A 
ATOM     59  N   UNL A   1      40.309  33.388  29.847  1.00  0.00    -0.354 N 
ATOM     60  N   UNL A   1      43.357  31.683  29.273  1.00  0.00    -0.248 NA
ATOM     61  C   UNL A   1      45.356  31.820  28.148  1.00  0.00     0.031 C 
ATOM     62  C   UNL A   1      41.599  33.193  31.640  1.00  0.00     0.029 A 
ATOM     63  C   UNL A   1      41.609  33.513  30.294  1.00  0.00     0.049 A 
ATOM     64  H   UNL A   1      40.010  33.590  28.932  1.00  0.00     0.167 HD
ATOM     65  C   UNL A   1      43.566  33.014  29.019  1.00  0.00     0.074 A 
ATOM     66  C   UNL A   1      44.842  33.050  28.328  1.00  0.00     0.031 C 
ATOM     67  C   UNL A   1      42.656  33.964  29.384  1.00  0.00     0.031 A 
BRANCH  54  68
ATOM     68  C   UNL A   1      36.884  32.901  31.249  1.00  0.00    -0.014 A 
ATOM     69  C   UNL A   1      36.633  32.448  32.559  1.00  0.00     0.009 A 
ATOM     70  C   UNL A   1      35.869  33.689  30.679  1.00  0.00     0.009 A 
ATOM     71  C   UNL A   1      35.417  32.692  33.215  1.00  0.00     0.001 A 
ATOM     72  C   UNL A   1      34.642  33.919  31.317  1.00  0.00     0.001 A 
ATOM     73  C   UNL A   1      34.410  33.409  32.583  1.00  0.00     0.000 A 
ENDBRANCH  54  68
BRANCH  55  74
ATOM     74  C   UNL A   1      44.711  28.609  27.655  1.00  0.00    -0.014 A 
ATOM     75  C   UNL A   1      45.581  27.513  27.826  1.00  0.00     0.009 A 
ATOM     76  C   UNL A   1      43.899  28.646  26.514  1.00  0.00     0.009 A 
ATOM     77  C   UNL A   1      45.558  26.434  26.938  1.00  0.00     0.001 A 
ATOM     78  C   UNL A   1      43.887  27.567  25.619  1.00  0.00     0.001 A 
ATOM     79  C   UNL A   1      44.689  26.450  25.850  1.00  0.00     0.000 A 
ENDBRANCH  55  74
BRANCH  67  80
ATOM     80  C   UNL A   1      42.660  35.422  28.975  1.00  0.00    -0.014 A 
ATOM     81  C   UNL A   1      43.300  36.448  29.679  1.00  0.00     0.009 A 
ATOM     82  C   UNL A   1      42.092  35.777  27.729  1.00  0.00     0.009 A 
ATOM     83  C   UNL A   1      43.335  37.763  29.187  1.00  0.00     0.001 A 
ATOM     84  C   UNL A   1      42.165  37.073  27.212  1.00  0.00     0.001 A 
ATOM     85  C   UNL A   1      42.779  38.072  27.950  1.00  0.00     0.000 A 
ENDBRANCH  67  80
ENDBRANCH  41  42
ENDBRANCH  33  36
ENDBRANCH  31  32
ENDBRANCH  30  31
ENDBRANCH   1  30
TORSDOF 13
ENDMDL
MODEL 2
REMARK VINA RESULT:     -12.5      2.473      3.920
REMARK SMILES Cc1cccc(-n2ncc(C(=O)Nc3cccc(C(=O)NCCCNC(=O)c4ccc(-c5c6nc(c(-c7ccccc7)c7ccc([nH]7)c(-c7ccccc7)c7nc(c(-c8ccccc8)c8ccc5[nH]8)C=C7)C=C6)cc4)c3C)c2C)c1
REMARK SMILES IDX 22 1 21 2 19 3 20 4 18 6 14 7 15 8 76 9 16 10 77 11 17 12
REMARK SMILES IDX 13 13 11 14 12 15 10 17 7 18 8 19 78 20 9 21 79 22 6 23 1 24
REMARK SMILES IDX 2 25 3 26 80 27 4 28 5 29 23 30 24 31 25 32 26 33 27 35
REMARK SMILES IDX 28 36 29 37 75 38 30 39 74 40 31 41 32 42 33 43 68 44 34 45
REMARK SMILES IDX 73 46 67 47 69 48 35 49 72 50 66 51 65 52 36 54 58 55 43 56
REMARK SMILES IDX 57 57 44 58 47 59 56 60 70 61 45 62 46 63 55 65 71 66 48 67
REMARK SMILES IDX 37 68 38 69 42 70 39 71 41 72 40 73 59 74 60 75 64 76 61 77
REMARK SMILES IDX 63 78 62 79 49 80 50 81 54 82 51 83 53 84 52 85
REMARK H PARENT 21 5 13 16 25 34 69 53 47 64
REMARK Flexibility Score: inf
ROOT
ATOM      1  C   UNL A   1      37.529  20.313  25.035  1.00  0.00     0.118 C 
ENDROOT
BRANCH   1   2
ATOM      2  N   UNL A   1      37.777  21.649  25.554  1.00  0.00    -0.352 N 
ATOM      3  C   UNL A   1      37.070  22.833  25.543  1.00  0.00     0.251 C 
ATOM      4  O   UNL A   1      37.634  23.768  26.109  1.00  0.00    -0.269 OA
ATOM      5  H   UNL A   1      38.643  21.726  26.016  1.00  0.00     0.163 HD
BRANCH   3   6
ATOM      6  C   UNL A   1      35.700  23.013  24.928  1.00  0.00     0.044 A 
ATOM      7  C   UNL A   1      33.264  22.992  25.061  1.00  0.00     0.045 A 
ATOM      8  C   UNL A   1      33.167  23.100  23.671  1.00  0.00     0.026 A 
ATOM      9  C   UNL A   1      34.518  23.059  25.723  1.00  0.00    -0.015 A 
ATOM     10  C   UNL A   1      34.312  23.199  22.909  1.00  0.00     0.003 A 
ATOM     11  C   UNL A   1      34.537  23.040  27.233  1.00  0.00     0.047 C 
ATOM     12  C   UNL A   1      35.554  23.137  23.536  1.00  0.00     0.014 A 
BRANCH   7  13
ATOM     13  N   UNL A   1      32.087  22.777  25.796  1.00  0.00    -0.322 N 
ATOM     14  C   UNL A   1      31.274  23.707  26.411  1.00  0.00     0.259 C 
ATOM     15  O   UNL A   1      30.499  23.307  27.280  1.00  0.00    -0.269 OA
ATOM     16  H   UNL A   1      31.806  21.837  25.885  1.00  0.00     0.170 HD
BRANCH  14  17
ATOM     17  C   UNL A   1      31.260  25.095  25.940  1.00  0.00     0.081 A 
ATOM     18  N   UNL A   1      30.941  26.927  24.698  1.00  0.00    -0.237 N 
ATOM     19  N   UNL A   1      31.738  27.327  25.719  1.00  0.00    -0.175 NA
ATOM     20  C   UNL A   1      30.732  25.553  24.733  1.00  0.00     0.054 A 
ATOM     21  C   UNL A   1      31.900  26.239  26.464  1.00  0.00     0.149 A 
ATOM     22  C   UNL A   1      30.190  24.748  23.602  1.00  0.00     0.068 C 
BRANCH  18  23
ATOM     23  C   UNL A   1      30.494  27.891  23.755  1.00  0.00     0.065 A 
ATOM     24  C   UNL A   1      27.164  29.377  22.653  1.00  0.00     0.044 C 
ATOM     25  C   UNL A   1      28.632  29.089  22.743  1.00  0.00    -0.049 A 
ATOM     26  C   UNL A   1      29.546  29.851  22.005  1.00  0.00     0.003 A 
ATOM     27  C   UNL A   1      29.113  28.088  23.595  1.00  0.00     0.031 A 
ATOM     28  C   UNL A   1      30.918  29.617  22.116  1.00  0.00     0.002 A 
ATOM     29  C   UNL A   1      31.395  28.641  22.993  1.00  0.00     0.028 A 
ENDBRANCH  18  23
ENDBRANCH  14  17
ENDBRANCH   7  13
ENDBRANCH   3   6
ENDBRANCH   1   2
BRANCH   1  30
ATOM     30  C   UNL A   1      38.837  19.554  24.814  1.00  0.00     0.042 C 
BRANCH  30  31
ATOM     31  C   UNL A   1      39.643  19.303  26.077  1.00  0.00     0.118 C 
BRANCH  31  32
ATOM     32  N   UNL A   1      41.084  19.431  25.880  1.00  0.00    -0.352 N 
ATOM     33  C   UNL A   1      41.904  20.518  26.136  1.00  0.00     0.251 C 
ATOM     34  H   UNL A   1      41.535  18.637  25.514  1.00  0.00     0.163 HD
ATOM     35  O   UNL A   1      43.106  20.452  25.942  1.00  0.00    -0.269 OA
BRANCH  33  36
ATOM     36  C   UNL A   1      41.312  21.707  26.790  1.00  0.00     0.039 A 
ATOM     37  C   UNL A   1      41.073  22.822  25.981  1.00  0.00     0.014 A 
ATOM     38  C   UNL A   1      41.298  21.815  28.177  1.00  0.00     0.014 A 
ATOM     39  C   UNL A   1      41.112  24.086  26.555  1.00  0.00     0.010 A 
ATOM     40  C   UNL A   1      41.448  23.069  28.732  1.00  0.00     0.010 A 
ATOM     41  C   UNL A   1      41.440  24.198  27.904  1.00  0.00    -0.014 A 
BRANCH  41  42
ATOM     42  C   UNL A   1      41.964  25.430  28.483  1.00  0.00     0.031 A 
ATOM     43  C   UNL A   1      41.056  26.519  28.884  1.00  0.00     0.074 A 
ATOM     44  C   UNL A   1      43.292  25.539  28.712  1.00  0.00     0.049 A 
ATOM     45  N   UNL A   1      41.424  27.744  29.052  1.00  0.00    -0.248 NA
ATOM     46  C   UNL A   1      39.622  26.321  29.045  1.00  0.00     0.031 C 
ATOM     47  C   UNL A   1      43.978  26.523  29.545  1.00  0.00     0.029 A 
ATOM     48  N   UNL A   1      44.319  24.890  28.024  1.00  0.00    -0.354 N 
ATOM     49  C   UNL A   1      40.374  28.412  29.634  1.00  0.00     0.074 A 
ATOM     50  C   UNL A   1      39.247  27.522  29.493  1.00  0.00     0.031 C 
ATOM     51  C   UNL A   1      45.262  26.596  29.160  1.00  0.00     0.029 A 
ATOM     52  C   UNL A   1      45.401  25.785  27.962  1.00  0.00     0.049 A 
ATOM     53  H   UNL A   1      44.291  23.978  27.654  1.00  0.00     0.167 HD
ATOM     54  C   UNL A   1      40.617  29.572  30.306  1.00  0.00     0.031 A 
ATOM     55  C   UNL A   1      45.869  26.246  26.766  1.00  0.00     0.031 A 
ATOM     56  C   UNL A   1      41.989  30.041  30.097  1.00  0.00     0.049 A 
ATOM     57  C   UNL A   1      45.788  27.750  26.611  1.00  0.00     0.074 A 
ATOM     58  C   UNL A   1      43.132  30.026  30.880  1.00  0.00     0.029 A 
ATOM     59  N   UNL A   1      42.401  30.374  28.811  1.00  0.00    -0.354 N 
ATOM     60  N   UNL A   1      45.040  28.523  27.350  1.00  0.00    -0.248 NA
ATOM     61  C   UNL A   1      46.505  28.494  25.580  1.00  0.00     0.031 C 
ATOM     62  C   UNL A   1      44.246  30.288  30.037  1.00  0.00     0.029 A 
ATOM     63  C   UNL A   1      43.775  30.492  28.753  1.00  0.00     0.049 A 
ATOM     64  H   UNL A   1      41.795  30.508  28.047  1.00  0.00     0.167 HD
ATOM     65  C   UNL A   1      45.147  29.819  26.917  1.00  0.00     0.074 A 
ATOM     66  C   UNL A   1      46.092  29.752  25.817  1.00  0.00     0.031 C 
ATOM     67  C   UNL A   1      44.428  30.828  27.493  1.00  0.00     0.031 A 
BRANCH  54  68
ATOM     68  C   UNL A   1      39.702  30.127  31.377  1.00  0.00    -0.014 A 
ATOM     69  C   UNL A   1      38.787  31.144  31.048  1.00  0.00     0.009 A 
ATOM     70  C   UNL A   1      39.743  29.769  32.736  1.00  0.00     0.009 A 
ATOM     71  C   UNL A   1      38.031  31.815  32.021  1.00  0.00     0.001 A 
ATOM     72  C   UNL A   1      39.009  30.448  33.719  1.00  0.00     0.001 A 
ATOM     73  C   UNL A   1      38.160  31.482  33.363  1.00  0.00     0.000 A 
ENDBRANCH  54  68
BRANCH  55  74
ATOM     74  C   UNL A   1      45.721  25.277  25.645  1.00  0.00    -0.014 A 
ATOM     75  C   UNL A   1      46.823  24.465  25.310  1.00  0.00     0.009 A 
ATOM     76  C   UNL A   1      44.454  24.916  25.168  1.00  0.00     0.009 A 
ATOM     77  C   UNL A   1      46.645  23.267  24.612  1.00  0.00     0.001 A 
ATOM     78  C   UNL A   1      44.282  23.719  24.457  1.00  0.00     0.001 A 
ATOM     79  C   UNL A   1      45.370  22.881  24.210  1.00  0.00     0.000 A 
ENDBRANCH  55  74
BRANCH  67  80
ATOM     80  C   UNL A   1      44.289  32.244  26.977  1.00  0.00    -0.014 A 
ATOM     81  C   UNL A   1      44.123  32.593  25.632  1.00  0.00     0.009 A 
ATOM     82  C   UNL A   1      44.188  33.299  27.915  1.00  0.00     0.009 A 
ATOM     83  C   UNL A   1      43.910  33.925  25.242  1.00  0.00     0.001 A 
ATOM     84  C   UNL A   1      43.928  34.618  27.537  1.00  0.00     0.001 A 
ATOM     85  C   UNL A   1      43.801  34.934  26.193  1.00  0.00     0.000 A 
ENDBRANCH  67  80
ENDBRANCH  41  42
ENDBRANCH  33  36
ENDBRANCH  31  32
ENDBRANCH  30  31
ENDBRANCH   1  30
TORSDOF 13
ENDMDL
MODEL 3
REMARK VINA RESULT:     -12.4      1.613      2.374
REMARK SMILES Cc1cccc(-n2ncc(C(=O)Nc3cccc(C(=O)NCCCNC(=O)c4ccc(-c5c6nc(c(-c7ccccc7)c7ccc([nH]7)c(-c7ccccc7)c7nc(c(-c8ccccc8)c8ccc5[nH]8)C=C7)C=C6)cc4)c3C)c2C)c1
REMARK SMILES IDX 22 1 21 2 19 3 20 4 18 6 14 7 15 8 76 9 16 10 77 11 17 12
REMARK SMILES IDX 13 13 11 14 12 15 10 17 7 18 8 19 78 20 9 21 79 22 6 23 1 24
REMARK SMILES IDX 2 25 3 26 80 27 4 28 5 29 23 30 24 31 25 32 26 33 27 35
REMARK SMILES IDX 28 36 29 37 75 38 30 39 74 40 31 41 32 42 33 43 68 44 34 45
REMARK SMILES IDX 73 46 67 47 69 48 35 49 72 50 66 51 65 52 36 54 58 55 43 56
REMARK SMILES IDX 57 57 44 58 47 59 56 60 70 61 45 62 46 63 55 65 71 66 48 67
REMARK SMILES IDX 37 68 38 69 42 70 39 71 41 72 40 73 59 74 60 75 64 76 61 77
REMARK SMILES IDX 63 78 62 79 49 80 50 81 54 82 51 83 53 84 52 85
REMARK H PARENT 21 5 13 16 25 34 69 53 47 64
REMARK Flexibility Score: inf
ROOT
ATOM      1  C   UNL A   1      37.648  20.618  24.565  1.00  0.00     0.118 C 
ENDROOT
BRANCH   1   2
ATOM      2  N   UNL A   1      37.041  21.741  23.867  1.00  0.00    -0.352 N 
ATOM      3  C   UNL A   1      35.948  22.545  24.105  1.00  0.00     0.251 C 
ATOM      4  O   UNL A   1      35.759  23.414  23.255  1.00  0.00    -0.269 OA
ATOM      5  H   UNL A   1      37.517  21.978  23.039  1.00  0.00     0.163 HD
BRANCH   3   6
ATOM      6  C   UNL A   1      35.040  22.432  25.311  1.00  0.00     0.044 A 
ATOM      7  C   UNL A   1      32.864  22.013  26.331  1.00  0.00     0.045 A 
ATOM      8  C   UNL A   1      33.327  22.493  27.560  1.00  0.00     0.026 A 
ATOM      9  C   UNL A   1      33.735  21.869  25.219  1.00  0.00    -0.015 A 
ATOM     10  C   UNL A   1      34.635  22.908  27.686  1.00  0.00     0.003 A 
ATOM     11  C   UNL A   1      33.189  21.246  23.955  1.00  0.00     0.047 C 
ATOM     12  C   UNL A   1      35.466  22.891  26.569  1.00  0.00     0.014 A 
BRANCH   7  13
ATOM     13  N   UNL A   1      31.499  21.709  26.206  1.00  0.00    -0.322 N 
ATOM     14  C   UNL A   1      30.416  22.559  26.300  1.00  0.00     0.259 C 
ATOM     15  O   UNL A   1      29.309  22.059  26.504  1.00  0.00    -0.269 OA
ATOM     16  H   UNL A   1      31.287  20.764  26.028  1.00  0.00     0.170 HD
BRANCH  14  17
ATOM     17  C   UNL A   1      30.582  23.991  26.036  1.00  0.00     0.081 A 
ATOM     18  N   UNL A   1      30.783  25.964  25.003  1.00  0.00    -0.237 N 
ATOM     19  N   UNL A   1      31.082  26.213  26.302  1.00  0.00    -0.175 NA
ATOM     20  C   UNL A   1      30.595  24.604  24.783  1.00  0.00     0.054 A 
ATOM     21  C   UNL A   1      30.934  25.042  26.911  1.00  0.00     0.149 A 
ATOM     22  C   UNL A   1      30.578  23.957  23.442  1.00  0.00     0.068 C 
BRANCH  18  23
ATOM     23  C   UNL A   1      30.755  27.047  24.083  1.00  0.00     0.065 A 
ATOM     24  C   UNL A   1      28.106  29.206  22.400  1.00  0.00     0.044 C 
ATOM     25  C   UNL A   1      29.435  28.636  22.795  1.00  0.00    -0.049 A 
ATOM     26  C   UNL A   1      30.619  29.246  22.366  1.00  0.00     0.003 A 
ATOM     27  C   UNL A   1      29.511  27.515  23.632  1.00  0.00     0.031 A 
ATOM     28  C   UNL A   1      31.860  28.746  22.765  1.00  0.00     0.002 A 
ATOM     29  C   UNL A   1      31.932  27.650  23.627  1.00  0.00     0.028 A 
ENDBRANCH  18  23
ENDBRANCH  14  17
ENDBRANCH   7  13
ENDBRANCH   3   6
ENDBRANCH   1   2
BRANCH   1  30
ATOM     30  C   UNL A   1      38.397  21.083  25.815  1.00  0.00     0.042 C 
BRANCH  30  31
ATOM     31  C   UNL A   1      38.977  22.483  25.720  1.00  0.00     0.118 C 
BRANCH  31  32
ATOM     32  N   UNL A   1      40.370  22.564  26.151  1.00  0.00    -0.352 N 
ATOM     33  C   UNL A   1      41.046  23.634  26.714  1.00  0.00     0.251 C 
ATOM     34  H   UNL A   1      40.901  21.746  26.022  1.00  0.00     0.163 HD
ATOM     35  O   UNL A   1      42.213  23.527  27.049  1.00  0.00    -0.269 OA
BRANCH  33  36
ATOM     36  C   UNL A   1      40.280  24.859  27.038  1.00  0.00     0.039 A 
ATOM     37  C   UNL A   1      40.561  26.000  26.280  1.00  0.00     0.014 A 
ATOM     38  C   UNL A   1      39.563  24.949  28.226  1.00  0.00     0.014 A 
ATOM     39  C   UNL A   1      40.381  27.249  26.861  1.00  0.00     0.010 A 
ATOM     40  C   UNL A   1      39.487  26.179  28.847  1.00  0.00     0.010 A 
ATOM     41  C   UNL A   1      39.978  27.316  28.193  1.00  0.00    -0.014 A 
BRANCH  41  42
ATOM     42  C   UNL A   1      40.208  28.492  29.022  1.00  0.00     0.031 A 
ATOM     43  C   UNL A   1      39.174  29.533  29.156  1.00  0.00     0.074 A 
ATOM     44  C   UNL A   1      41.359  28.589  29.725  1.00  0.00     0.049 A 
ATOM     45  N   UNL A   1      39.408  30.740  29.548  1.00  0.00    -0.248 NA
ATOM     46  C   UNL A   1      37.787  29.312  28.770  1.00  0.00     0.031 C 
ATOM     47  C   UNL A   1      41.659  29.497  30.829  1.00  0.00     0.029 A 
ATOM     48  N   UNL A   1      42.589  28.014  29.405  1.00  0.00    -0.354 N 
ATOM     49  C   UNL A   1      38.192  31.344  29.764  1.00  0.00     0.074 A 
ATOM     50  C   UNL A   1      37.228  30.463  29.150  1.00  0.00     0.031 C 
ATOM     51  C   UNL A   1      42.992  29.614  30.944  1.00  0.00     0.029 A 
ATOM     52  C   UNL A   1      43.585  28.918  29.814  1.00  0.00     0.049 A 
ATOM     53  H   UNL A   1      42.733  27.140  28.974  1.00  0.00     0.167 HD
ATOM     54  C   UNL A   1      38.131  32.440  30.572  1.00  0.00     0.031 A 
ATOM     55  C   UNL A   1      44.434  29.491  28.911  1.00  0.00     0.031 A 
ATOM     56  C   UNL A   1      39.466  32.935  30.915  1.00  0.00     0.049 A 
ATOM     57  C   UNL A   1      44.353  31.002  28.864  1.00  0.00     0.074 A 
ATOM     58  C   UNL A   1      40.250  32.856  32.055  1.00  0.00     0.029 A 
ATOM     59  N   UNL A   1      40.300  33.388  29.898  1.00  0.00    -0.354 N 
ATOM     60  N   UNL A   1      43.359  31.698  29.343  1.00  0.00    -0.248 NA
ATOM     61  C   UNL A   1      45.364  31.843  28.229  1.00  0.00     0.031 C 
ATOM     62  C   UNL A   1      41.581  33.202  31.698  1.00  0.00     0.029 A 
ATOM     63  C   UNL A   1      41.597  33.521  30.352  1.00  0.00     0.049 A 
ATOM     64  H   UNL A   1      40.005  33.588  28.980  1.00  0.00     0.167 HD
ATOM     65  C   UNL A   1      43.564  33.030  29.088  1.00  0.00     0.074 A 
ATOM     66  C   UNL A   1      44.843  33.071  28.404  1.00  0.00     0.031 C 
ATOM     67  C   UNL A   1      42.646  33.976  29.447  1.00  0.00     0.031 A 
BRANCH  54  68
ATOM     68  C   UNL A   1      36.870  32.886  31.282  1.00  0.00    -0.014 A 
ATOM     69  C   UNL A   1      36.631  32.461  32.603  1.00  0.00     0.009 A 
ATOM     70  C   UNL A   1      35.838  33.640  30.695  1.00  0.00     0.009 A 
ATOM     71  C   UNL A   1      35.412  32.699  33.256  1.00  0.00     0.001 A 
ATOM     72  C   UNL A   1      34.609  33.864  31.331  1.00  0.00     0.001 A 
ATOM     73  C   UNL A   1      34.391  33.381  32.610  1.00  0.00     0.000 A 
ENDBRANCH  54  68
BRANCH  55  74
ATOM     74  C   UNL A   1      44.738  28.629  27.737  1.00  0.00    -0.014 A 
ATOM     75  C   UNL A   1      45.639  27.557  27.905  1.00  0.00     0.009 A 
ATOM     76  C   UNL A   1      43.913  28.636  26.604  1.00  0.00     0.009 A 
ATOM     77  C   UNL A   1      45.635  26.471  27.025  1.00  0.00     0.001 A 
ATOM     78  C   UNL A   1      43.921  27.551  25.717  1.00  0.00     0.001 A 
ATOM     79  C   UNL A   1      44.755  26.457  25.947  1.00  0.00     0.000 A 
ENDBRANCH  55  74
BRANCH  67  80
ATOM     80  C   UNL A   1      42.645  35.433  29.036  1.00  0.00    -0.014 A 
ATOM     81  C   UNL A   1      43.384  36.441  29.665  1.00  0.00     0.009 A 
ATOM     82  C   UNL A   1      41.957  35.803  27.857  1.00  0.00     0.009 A 
ATOM     83  C   UNL A   1      43.402  37.755  29.168  1.00  0.00     0.001 A 
ATOM     84  C   UNL A   1      42.009  37.097  27.331  1.00  0.00     0.001 A 
ATOM     85  C   UNL A   1      42.725  38.079  27.998  1.00  0.00     0.000 A 
ENDBRANCH  67  80
ENDBRANCH  41  42
ENDBRANCH  33  36
ENDBRANCH  31  32
ENDBRANCH  30  31
ENDBRANCH   1  30
TORSDOF 13
ENDMDL
