MODEL 1
REMARK VINA RESULT:     -13.9      0.000      0.000
REMARK SMILES CC1(C)O[C@H]2C[C@H]3[C@@H]4CCC5=CC(=O)C=C[C@]5(C)[C@@]4(F)[C@H](O)C[C@@]3(C)[C@@]2(C(=O)NCCCNC(=O)c2ccc(-c3c4nc(c(-c5ccccc5)c5ccc([nH]5)c(-c5ccccc5)c5nc(c(-c6ccccc6)c6ccc3[nH]6)C=C5)C=C4)cc2)O1
REMARK SMILES IDX 31 1 30 2 29 3 27 4 28 5 26 7 1 8 2 9 3 10 4 11 84 12 5 13
REMARK SMILES IDX 6 14 24 15 7 16 23 17 25 18 8 19 21 20 9 21 19 22 10 23
REMARK SMILES IDX 17 24 20 25 11 26 16 27 18 28 12 29 15 30 13 31 14 32 22 33
REMARK SMILES IDX 32 35 33 36 34 37 35 39 36 40 37 41 83 42 38 43 82 44 39 45
REMARK SMILES IDX 40 46 41 47 76 48 42 49 81 50 75 51 77 52 43 53 80 54 74 55
REMARK SMILES IDX 73 56 44 58 66 59 51 60 65 61 52 62 55 63 64 64 78 65 53 66
REMARK SMILES IDX 54 67 63 69 79 70 56 71 45 72 46 73 50 74 47 75 49 76 48 77
REMARK SMILES IDX 67 78 68 79 72 80 69 81 71 82 70 83 57 84 58 85 62 86 59 87
REMARK SMILES IDX 61 88 60 89
REMARK H PARENT 29 6 22 34 33 38 77 57 55 68
REMARK Flexibility Score: inf
ROOT
ATOM      1  C   UNL A   1      37.489  20.693  24.678  1.00  0.00     0.042 C 
ENDROOT
BRANCH   1   2
ATOM      2  C   UNL A   1      36.067  20.524  25.164  1.00  0.00     0.117 C 
BRANCH   2   3
ATOM      3  N   UNL A   1      35.660  21.160  26.390  1.00  0.00    -0.353 N 
ATOM      4  C   UNL A   1      34.705  22.155  26.504  1.00  0.00     0.255 C 
ATOM      5  O   UNL A   1      34.261  22.404  27.626  1.00  0.00    -0.272 OA
ATOM      6  H   UNL A   1      36.099  20.862  27.218  1.00  0.00     0.163 HD
BRANCH   4   7
ATOM      7  C   UNL A   1      34.278  22.957  25.244  1.00  0.00     0.181 C 
ATOM      8  C   UNL A   1      31.253  22.488  23.458  1.00  0.00     0.075 C 
ATOM      9  C   UNL A   1      32.364  21.940  24.363  1.00  0.00     0.164 C 
ATOM     10  C   UNL A   1      31.822  20.757  25.153  1.00  0.00     0.075 C 
ATOM     11  O   UNL A   1      33.434  21.480  23.538  1.00  0.00    -0.344 OA
ATOM     12  O   UNL A   1      32.815  22.971  25.271  1.00  0.00    -0.331 OA
ATOM     13  C   UNL A   1      34.594  22.246  23.868  1.00  0.00     0.164 C 
ATOM     14  C   UNL A   1      34.783  23.406  22.774  1.00  0.00     0.040 C 
ATOM     15  C   UNL A   1      34.936  24.392  24.971  1.00  0.00     0.014 C 
ATOM     16  C   UNL A   1      34.289  24.628  23.564  1.00  0.00     0.008 C 
ATOM     17  C   UNL A   1      34.803  25.683  25.795  1.00  0.00     0.046 C 
ATOM     18  C   UNL A   1      36.489  24.165  24.981  1.00  0.00     0.015 C 
ATOM     19  C   UNL A   1      33.193  25.736  23.346  1.00  0.00     0.035 C 
ATOM     20  C   UNL A   1      33.474  26.411  25.754  1.00  0.00     0.154 C 
ATOM     21  C   UNL A   1      32.947  26.173  21.910  1.00  0.00     0.012 C 
ATOM     22  C   UNL A   1      33.132  26.923  24.332  1.00  0.00     0.152 C 
ATOM     23  C   UNL A   1      31.497  26.668  21.809  1.00  0.00     0.032 C 
ATOM     24  C   UNL A   1      31.699  27.630  24.268  1.00  0.00     0.044 C 
ATOM     25  F   UNL A   1      34.097  27.811  23.938  1.00  0.00    -0.239 F 
ATOM     26  C   UNL A   1      31.128  27.719  22.832  1.00  0.00    -0.053 C 
ATOM     27  C   UNL A   1      31.706  29.029  24.887  1.00  0.00    -0.009 C 
ATOM     28  C   UNL A   1      30.648  26.823  25.103  1.00  0.00     0.024 C 
ATOM     29  C   UNL A   1      30.226  28.668  22.507  1.00  0.00     0.052 C 
ATOM     30  C   UNL A   1      30.821  29.981  24.560  1.00  0.00     0.048 C 
ATOM     31  C   UNL A   1      29.855  29.729  23.472  1.00  0.00     0.178 C 
ATOM     32  O   UNL A   1      28.834  30.390  23.345  1.00  0.00    -0.290 OA
BRANCH  20  33
ATOM     33  O   UNL A   1      33.519  27.476  26.708  1.00  0.00    -0.390 OA
ATOM     34  H   UNL A   1      34.348  27.423  27.211  1.00  0.00     0.211 HD
ENDBRANCH  20  33
ENDBRANCH   4   7
ENDBRANCH   2   3
ENDBRANCH   1   2
BRANCH   1  35
ATOM     35  C   UNL A   1      38.520  20.822  25.785  1.00  0.00     0.118 C 
BRANCH  35  36
ATOM     36  N   UNL A   1      39.548  19.779  25.767  1.00  0.00    -0.352 N 
ATOM     37  C   UNL A   1      40.891  19.806  26.068  1.00  0.00     0.251 C 
ATOM     38  H   UNL A   1      39.217  18.895  25.488  1.00  0.00     0.163 HD
ATOM     39  O   UNL A   1      41.568  18.800  25.863  1.00  0.00    -0.269 OA
BRANCH  37  40
ATOM     40  C   UNL A   1      41.536  21.031  26.588  1.00  0.00     0.039 A 
ATOM     41  C   UNL A   1      42.110  21.937  25.689  1.00  0.00     0.014 A 
ATOM     42  C   UNL A   1      41.562  21.308  27.953  1.00  0.00     0.014 A 
ATOM     43  C   UNL A   1      42.581  23.170  26.149  1.00  0.00     0.010 A 
ATOM     44  C   UNL A   1      41.915  22.577  28.394  1.00  0.00     0.010 A 
ATOM     45  C   UNL A   1      42.413  23.530  27.494  1.00  0.00    -0.014 A 
BRANCH  45  46
ATOM     46  C   UNL A   1      42.703  24.899  27.990  1.00  0.00     0.031 A 
ATOM     47  C   UNL A   1      44.088  25.265  28.448  1.00  0.00     0.074 A 
ATOM     48  C   UNL A   1      41.691  25.777  28.140  1.00  0.00     0.049 A 
ATOM     49  N   UNL A   1      44.502  26.357  29.038  1.00  0.00    -0.248 NA
ATOM     50  C   UNL A   1      45.139  24.253  28.252  1.00  0.00     0.031 C 
ATOM     51  C   UNL A   1      40.292  25.535  27.778  1.00  0.00     0.029 A 
ATOM     52  N   UNL A   1      41.682  27.051  28.651  1.00  0.00    -0.354 N 
ATOM     53  C   UNL A   1      45.850  26.155  29.302  1.00  0.00     0.074 A 
ATOM     54  C   UNL A   1      46.171  24.814  28.862  1.00  0.00     0.031 C 
ATOM     55  C   UNL A   1      39.570  26.633  28.047  1.00  0.00     0.029 A 
ATOM     56  C   UNL A   1      40.438  27.636  28.651  1.00  0.00     0.049 A 
ATOM     57  H   UNL A   1      42.490  27.503  28.988  1.00  0.00     0.167 HD
ATOM     58  C   UNL A   1      46.747  27.012  29.845  1.00  0.00     0.031 A 
ATOM     59  C   UNL A   1      40.036  28.839  29.101  1.00  0.00     0.031 A 
ATOM     60  C   UNL A   1      46.429  28.348  30.272  1.00  0.00     0.049 A 
ATOM     61  C   UNL A   1      41.040  29.761  29.730  1.00  0.00     0.074 A 
ATOM     62  C   UNL A   1      47.280  29.319  30.770  1.00  0.00     0.029 A 
ATOM     63  N   UNL A   1      45.157  28.898  30.258  1.00  0.00    -0.354 N 
ATOM     64  N   UNL A   1      42.326  29.580  29.909  1.00  0.00    -0.248 NA
ATOM     65  C   UNL A   1      40.538  31.052  30.220  1.00  0.00     0.031 C 
ATOM     66  C   UNL A   1      46.512  30.437  31.113  1.00  0.00     0.029 A 
ATOM     67  C   UNL A   1      45.193  30.183  30.773  1.00  0.00     0.049 A 
ATOM     68  H   UNL A   1      44.348  28.443  29.930  1.00  0.00     0.167 HD
ATOM     69  C   UNL A   1      42.791  30.740  30.514  1.00  0.00     0.074 A 
ATOM     70  C   UNL A   1      41.652  31.624  30.655  1.00  0.00     0.031 C 
ATOM     71  C   UNL A   1      44.049  31.045  30.918  1.00  0.00     0.031 A 
BRANCH  58  72
ATOM     72  C   UNL A   1      48.158  26.519  30.011  1.00  0.00    -0.014 A 
ATOM     73  C   UNL A   1      49.117  26.694  28.999  1.00  0.00     0.009 A 
ATOM     74  C   UNL A   1      48.540  25.882  31.203  1.00  0.00     0.009 A 
ATOM     75  C   UNL A   1      50.413  26.199  29.157  1.00  0.00     0.001 A 
ATOM     76  C   UNL A   1      49.847  25.419  31.371  1.00  0.00     0.001 A 
ATOM     77  C   UNL A   1      50.778  25.566  30.345  1.00  0.00     0.000 A 
ENDBRANCH  58  72
BRANCH  59  78
ATOM     78  C   UNL A   1      38.612  29.246  28.961  1.00  0.00    -0.014 A 
ATOM     79  C   UNL A   1      38.134  29.732  27.734  1.00  0.00     0.009 A 
ATOM     80  C   UNL A   1      37.722  29.136  30.040  1.00  0.00     0.009 A 
ATOM     81  C   UNL A   1      36.799  30.116  27.597  1.00  0.00     0.001 A 
ATOM     82  C   UNL A   1      36.380  29.494  29.892  1.00  0.00     0.001 A 
ATOM     83  C   UNL A   1      35.922  29.991  28.673  1.00  0.00     0.000 A 
ENDBRANCH  59  78
BRANCH  71  84
ATOM     84  C   UNL A   1      44.262  32.397  31.537  1.00  0.00    -0.014 A 
ATOM     85  C   UNL A   1      44.176  32.579  32.926  1.00  0.00     0.009 A 
ATOM     86  C   UNL A   1      44.603  33.489  30.725  1.00  0.00     0.009 A 
ATOM     87  C   UNL A   1      44.405  33.838  33.487  1.00  0.00     0.001 A 
ATOM     88  C   UNL A   1      44.859  34.739  31.291  1.00  0.00     0.001 A 
ATOM     89  C   UNL A   1      44.752  34.914  32.671  1.00  0.00     0.000 A 
ENDBRANCH  71  84
ENDBRANCH  45  46
ENDBRANCH  37  40
ENDBRANCH  35  36
ENDBRANCH   1  35
TORSDOF 11
ENDMDL
MODEL 2
REMARK VINA RESULT:     -13.8      0.440      5.638
REMARK SMILES CC1(C)O[C@H]2C[C@H]3[C@@H]4CCC5=CC(=O)C=C[C@]5(C)[C@@]4(F)[C@H](O)C[C@@]3(C)[C@@]2(C(=O)NCCCNC(=O)c2ccc(-c3c4nc(c(-c5ccccc5)c5ccc([nH]5)c(-c5ccccc5)c5nc(c(-c6ccccc6)c6ccc3[nH]6)C=C5)C=C4)cc2)O1
REMARK SMILES IDX 31 1 30 2 29 3 27 4 28 5 26 7 1 8 2 9 3 10 4 11 84 12 5 13
REMARK SMILES IDX 6 14 24 15 7 16 23 17 25 18 8 19 21 20 9 21 19 22 10 23
REMARK SMILES IDX 17 24 20 25 11 26 16 27 18 28 12 29 15 30 13 31 14 32 22 33
REMARK SMILES IDX 32 35 33 36 34 37 35 39 36 40 37 41 83 42 38 43 82 44 39 45
REMARK SMILES IDX 40 46 41 47 76 48 42 49 81 50 75 51 77 52 43 53 80 54 74 55
REMARK SMILES IDX 73 56 44 58 66 59 51 60 65 61 52 62 55 63 64 64 78 65 53 66
REMARK SMILES IDX 54 67 63 69 79 70 56 71 45 72 46 73 50 74 47 75 49 76 48 77
REMARK SMILES IDX 67 78 68 79 72 80 69 81 71 82 70 83 57 84 58 85 62 86 59 87
REMARK SMILES IDX 61 88 60 89
REMARK H PARENT 29 6 22 34 33 38 77 57 55 68
REMARK Flexibility Score: inf
ROOT
ATOM      1  C   UNL A   1      37.442  20.991  24.691  1.00  0.00     0.042 C 
ENDROOT
BRANCH   1   2
ATOM      2  C   UNL A   1      36.087  20.617  25.246  1.00  0.00     0.117 C 
BRANCH   2   3
ATOM      3  N   UNL A   1      35.628  21.235  26.464  1.00  0.00    -0.353 N 
ATOM      4  C   UNL A   1      34.647  22.207  26.555  1.00  0.00     0.255 C 
ATOM      5  O   UNL A   1      34.164  22.438  27.664  1.00  0.00    -0.272 OA
ATOM      6  H   UNL A   1      36.049  20.941  27.303  1.00  0.00     0.163 HD
BRANCH   4   7
ATOM      7  C   UNL A   1      34.240  23.008  25.288  1.00  0.00     0.181 C 
ATOM      8  C   UNL A   1      31.260  22.513  23.434  1.00  0.00     0.075 C 
ATOM      9  C   UNL A   1      32.357  21.974  24.362  1.00  0.00     0.164 C 
ATOM     10  C   UNL A   1      31.809  20.783  25.137  1.00  0.00     0.075 C 
ATOM     11  O   UNL A   1      33.449  21.526  23.559  1.00  0.00    -0.344 OA
ATOM     12  O   UNL A   1      32.777  23.007  25.282  1.00  0.00    -0.331 OA
ATOM     13  C   UNL A   1      34.593  22.304  23.917  1.00  0.00     0.164 C 
ATOM     14  C   UNL A   1      34.795  23.468  22.830  1.00  0.00     0.040 C 
ATOM     15  C   UNL A   1      34.889  24.450  25.033  1.00  0.00     0.014 C 
ATOM     16  C   UNL A   1      34.271  24.683  23.613  1.00  0.00     0.008 C 
ATOM     17  C   UNL A   1      34.725  25.738  25.857  1.00  0.00     0.046 C 
ATOM     18  C   UNL A   1      36.444  24.239  25.077  1.00  0.00     0.015 C 
ATOM     19  C   UNL A   1      33.170  25.780  23.372  1.00  0.00     0.035 C 
ATOM     20  C   UNL A   1      33.390  26.452  25.788  1.00  0.00     0.154 C 
ATOM     21  C   UNL A   1      32.951  26.219  21.933  1.00  0.00     0.012 C 
ATOM     22  C   UNL A   1      33.075  26.964  24.360  1.00  0.00     0.152 C 
ATOM     23  C   UNL A   1      31.498  26.699  21.800  1.00  0.00     0.032 C 
ATOM     24  C   UNL A   1      31.637  27.657  24.266  1.00  0.00     0.044 C 
ATOM     25  F   UNL A   1      34.039  27.863  23.990  1.00  0.00    -0.239 F 
ATOM     26  C   UNL A   1      31.096  27.744  22.817  1.00  0.00    -0.053 C 
ATOM     27  C   UNL A   1      31.616  29.054  24.888  1.00  0.00    -0.009 C 
ATOM     28  C   UNL A   1      30.575  26.837  25.075  1.00  0.00     0.024 C 
ATOM     29  C   UNL A   1      30.192  28.685  22.475  1.00  0.00     0.052 C 
ATOM     30  C   UNL A   1      30.728  29.999  24.543  1.00  0.00     0.048 C 
ATOM     31  C   UNL A   1      29.790  29.739  23.434  1.00  0.00     0.178 C 
ATOM     32  O   UNL A   1      28.765  30.390  23.286  1.00  0.00    -0.290 OA
BRANCH  20  33
ATOM     33  O   UNL A   1      33.404  27.515  26.745  1.00  0.00    -0.390 OA
ATOM     34  H   UNL A   1      33.100  28.334  26.322  1.00  0.00     0.211 HD
ENDBRANCH  20  33
ENDBRANCH   4   7
ENDBRANCH   2   3
ENDBRANCH   1   2
BRANCH   1  35
ATOM     35  C   UNL A   1      38.539  21.102  25.734  1.00  0.00     0.118 C 
BRANCH  35  36
ATOM     36  N   UNL A   1      39.506  20.002  25.702  1.00  0.00    -0.352 N 
ATOM     37  C   UNL A   1      40.841  19.940  26.033  1.00  0.00     0.251 C 
ATOM     38  H   UNL A   1      39.132  19.149  25.385  1.00  0.00     0.163 HD
ATOM     39  O   UNL A   1      41.464  18.904  25.809  1.00  0.00    -0.269 OA
BRANCH  37  40
ATOM     40  C   UNL A   1      41.543  21.107  26.610  1.00  0.00     0.039 A 
ATOM     41  C   UNL A   1      42.085  22.072  25.754  1.00  0.00     0.014 A 
ATOM     42  C   UNL A   1      41.653  21.272  27.989  1.00  0.00     0.014 A 
ATOM     43  C   UNL A   1      42.610  23.255  26.281  1.00  0.00     0.010 A 
ATOM     44  C   UNL A   1      42.059  22.495  28.508  1.00  0.00     0.010 A 
ATOM     45  C   UNL A   1      42.528  23.508  27.658  1.00  0.00    -0.014 A 
BRANCH  45  46
ATOM     46  C   UNL A   1      42.877  24.828  28.243  1.00  0.00     0.031 A 
ATOM     47  C   UNL A   1      41.815  25.872  28.450  1.00  0.00     0.074 A 
ATOM     48  C   UNL A   1      44.171  25.128  28.475  1.00  0.00     0.049 A 
ATOM     49  N   UNL A   1      41.946  27.123  28.815  1.00  0.00    -0.248 NA
ATOM     50  C   UNL A   1      40.427  25.469  28.174  1.00  0.00     0.031 C 
ATOM     51  C   UNL A   1      45.305  24.222  28.274  1.00  0.00     0.029 A 
ATOM     52  N   UNL A   1      44.752  26.289  28.921  1.00  0.00    -0.354 N 
ATOM     53  C   UNL A   1      40.665  27.657  28.790  1.00  0.00     0.074 A 
ATOM     54  C   UNL A   1      39.779  26.614  28.319  1.00  0.00     0.031 C 
ATOM     55  C   UNL A   1      46.438  24.849  28.626  1.00  0.00     0.029 A 
ATOM     56  C   UNL A   1      46.122  26.216  29.022  1.00  0.00     0.049 A 
ATOM     57  H   UNL A   1      44.238  27.098  29.144  1.00  0.00     0.167 HD
ATOM     58  C   UNL A   1      40.256  28.899  29.144  1.00  0.00     0.031 A 
ATOM     59  C   UNL A   1      47.024  27.147  29.380  1.00  0.00     0.031 A 
ATOM     60  C   UNL A   1      41.135  29.932  29.623  1.00  0.00     0.049 A 
ATOM     61  C   UNL A   1      46.552  28.528  29.737  1.00  0.00     0.074 A 
ATOM     62  C   UNL A   1      40.812  31.199  30.073  1.00  0.00     0.029 A 
ATOM     63  N   UNL A   1      42.514  29.816  29.706  1.00  0.00    -0.354 N 
ATOM     64  N   UNL A   1      45.329  28.997  29.774  1.00  0.00    -0.248 NA
ATOM     65  C   UNL A   1      47.586  29.507  30.100  1.00  0.00     0.031 C 
ATOM     66  C   UNL A   1      42.001  31.872  30.374  1.00  0.00     0.029 A 
ATOM     67  C   UNL A   1      43.060  31.003  30.166  1.00  0.00     0.049 A 
ATOM     68  H   UNL A   1      43.029  29.010  29.473  1.00  0.00     0.167 HD
ATOM     69  C   UNL A   1      45.443  30.318  30.183  1.00  0.00     0.074 A 
ATOM     70  C   UNL A   1      46.853  30.571  30.397  1.00  0.00     0.031 C 
ATOM     71  C   UNL A   1      44.466  31.242  30.362  1.00  0.00     0.031 A 
BRANCH  58  72
ATOM     72  C   UNL A   1      38.788  29.204  29.017  1.00  0.00    -0.014 A 
ATOM     73  C   UNL A   1      37.916  29.060  30.109  1.00  0.00     0.009 A 
ATOM     74  C   UNL A   1      38.272  29.655  27.792  1.00  0.00     0.009 A 
ATOM     75  C   UNL A   1      36.551  29.316  29.963  1.00  0.00     0.001 A 
ATOM     76  C   UNL A   1      36.912  29.942  27.659  1.00  0.00     0.001 A 
ATOM     77  C   UNL A   1      36.051  29.760  28.740  1.00  0.00     0.000 A 
ENDBRANCH  58  72
BRANCH  59  78
ATOM     78  C   UNL A   1      48.469  26.800  29.429  1.00  0.00    -0.014 A 
ATOM     79  C   UNL A   1      49.019  26.228  30.587  1.00  0.00     0.009 A 
ATOM     80  C   UNL A   1      49.302  27.021  28.321  1.00  0.00     0.009 A 
ATOM     81  C   UNL A   1      50.375  25.901  30.640  1.00  0.00     0.001 A 
ATOM     82  C   UNL A   1      50.652  26.666  28.366  1.00  0.00     0.001 A 
ATOM     83  C   UNL A   1      51.189  26.113  29.528  1.00  0.00     0.000 A 
ENDBRANCH  59  78
BRANCH  71  84
ATOM     84  C   UNL A   1      44.888  32.605  30.828  1.00  0.00    -0.014 A 
ATOM     85  C   UNL A   1      45.202  33.620  29.910  1.00  0.00     0.009 A 
ATOM     86  C   UNL A   1      44.923  32.893  32.201  1.00  0.00     0.009 A 
ATOM     87  C   UNL A   1      45.566  34.891  30.362  1.00  0.00     0.001 A 
ATOM     88  C   UNL A   1      45.259  34.172  32.648  1.00  0.00     0.001 A 
ATOM     89  C   UNL A   1      45.588  35.167  31.728  1.00  0.00     0.000 A 
ENDBRANCH  71  84
ENDBRANCH  45  46
ENDBRANCH  37  40
ENDBRANCH  35  36
ENDBRANCH   1  35
TORSDOF 11
ENDMDL
MODEL 3
REMARK VINA RESULT:     -13.7      3.181      8.494
REMARK SMILES CC1(C)O[C@H]2C[C@H]3[C@@H]4CCC5=CC(=O)C=C[C@]5(C)[C@@]4(F)[C@H](O)C[C@@]3(C)[C@@]2(C(=O)NCCCNC(=O)c2ccc(-c3c4nc(c(-c5ccccc5)c5ccc([nH]5)c(-c5ccccc5)c5nc(c(-c6ccccc6)c6ccc3[nH]6)C=C5)C=C4)cc2)O1
REMARK SMILES IDX 31 1 30 2 29 3 27 4 28 5 26 7 1 8 2 9 3 10 4 11 84 12 5 13
REMARK SMILES IDX 6 14 24 15 7 16 23 17 25 18 8 19 21 20 9 21 19 22 10 23
REMARK SMILES IDX 17 24 20 25 11 26 16 27 18 28 12 29 15 30 13 31 14 32 22 33
REMARK SMILES IDX 32 35 33 36 34 37 35 39 36 40 37 41 83 42 38 43 82 44 39 45
REMARK SMILES IDX 40 46 41 47 76 48 42 49 81 50 75 51 77 52 43 53 80 54 74 55
REMARK SMILES IDX 73 56 44 58 66 59 51 60 65 61 52 62 55 63 64 64 78 65 53 66
REMARK SMILES IDX 54 67 63 69 79 70 56 71 45 72 46 73 50 74 47 75 49 76 48 77
REMARK SMILES IDX 67 78 68 79 72 80 69 81 71 82 70 83 57 84 58 85 62 86 59 87
REMARK SMILES IDX 61 88 60 89
REMARK H PARENT 29 6 22 34 33 38 77 57 55 68
REMARK Flexibility Score: inf
ROOT
ATOM      1  C   UNL A   1      31.914  30.608  26.814  1.00  0.00     0.042 C 
ENDROOT
BRANCH   1   2
ATOM      2  C   UNL A   1      31.738  30.173  25.376  1.00  0.00     0.117 C 
BRANCH   2   3
ATOM      3  N   UNL A   1      32.901  29.887  24.577  1.00  0.00    -0.353 N 
ATOM      4  C   UNL A   1      33.258  28.643  24.088  1.00  0.00     0.255 C 
ATOM      5  O   UNL A   1      34.109  28.594  23.199  1.00  0.00    -0.272 OA
ATOM      6  H   UNL A   1      33.494  30.643  24.361  1.00  0.00     0.163 HD
BRANCH   4   7
ATOM      7  C   UNL A   1      32.633  27.365  24.711  1.00  0.00     0.181 C 
ATOM      8  C   UNL A   1      30.167  25.341  23.168  1.00  0.00     0.075 C 
ATOM      9  C   UNL A   1      30.850  26.704  23.349  1.00  0.00     0.164 C 
ATOM     10  C   UNL A   1      30.631  27.540  22.096  1.00  0.00     0.075 C 
ATOM     11  O   UNL A   1      30.238  27.373  24.452  1.00  0.00    -0.344 OA
ATOM     12  O   UNL A   1      32.266  26.519  23.576  1.00  0.00    -0.331 OA
ATOM     13  C   UNL A   1      31.248  27.592  25.438  1.00  0.00     0.164 C 
ATOM     14  C   UNL A   1      31.123  26.463  26.573  1.00  0.00     0.040 C 
ATOM     15  C   UNL A   1      33.427  26.590  25.867  1.00  0.00     0.014 C 
ATOM     16  C   UNL A   1      32.303  25.552  26.201  1.00  0.00     0.008 C 
ATOM     17  C   UNL A   1      34.771  25.848  25.780  1.00  0.00     0.046 C 
ATOM     18  C   UNL A   1      33.725  27.658  26.978  1.00  0.00     0.015 C 
ATOM     19  C   UNL A   1      32.476  24.026  25.862  1.00  0.00     0.035 C 
ATOM     20  C   UNL A   1      34.799  24.529  25.033  1.00  0.00     0.154 C 
ATOM     21  C   UNL A   1      31.554  23.060  26.590  1.00  0.00     0.012 C 
ATOM     22  C   UNL A   1      33.904  23.458  25.707  1.00  0.00     0.152 C 
ATOM     23  C   UNL A   1      31.368  21.822  25.701  1.00  0.00     0.032 C 
ATOM     24  C   UNL A   1      33.874  22.086  24.885  1.00  0.00     0.044 C 
ATOM     25  F   UNL A   1      34.373  23.222  26.970  1.00  0.00    -0.239 F 
ATOM     26  C   UNL A   1      32.663  21.190  25.241  1.00  0.00    -0.053 C 
ATOM     27  C   UNL A   1      35.160  21.274  25.052  1.00  0.00    -0.009 C 
ATOM     28  C   UNL A   1      33.769  22.366  23.348  1.00  0.00     0.024 C 
ATOM     29  C   UNL A   1      32.716  19.855  25.052  1.00  0.00     0.052 C 
ATOM     30  C   UNL A   1      35.216  19.945  24.878  1.00  0.00     0.048 C 
ATOM     31  C   UNL A   1      33.971  19.194  24.625  1.00  0.00     0.178 C 
ATOM     32  O   UNL A   1      33.977  18.072  24.138  1.00  0.00    -0.290 OA
BRANCH  20  33
ATOM     33  O   UNL A   1      36.160  24.102  24.934  1.00  0.00    -0.390 OA
ATOM     34  H   UNL A   1      36.468  23.802  25.804  1.00  0.00     0.211 HD
ENDBRANCH  20  33
ENDBRANCH   4   7
ENDBRANCH   2   3
ENDBRANCH   1   2
BRANCH   1  35
ATOM     35  C   UNL A   1      33.057  31.581  27.039  1.00  0.00     0.118 C 
BRANCH  35  36
ATOM     36  N   UNL A   1      32.629  32.915  27.466  1.00  0.00    -0.352 N 
ATOM     37  C   UNL A   1      33.193  33.831  28.326  1.00  0.00     0.251 C 
ATOM     38  H   UNL A   1      31.782  33.212  27.063  1.00  0.00     0.163 HD
ATOM     39  O   UNL A   1      32.567  34.852  28.602  1.00  0.00    -0.269 OA
BRANCH  37  40
ATOM     40  C   UNL A   1      34.510  33.586  28.951  1.00  0.00     0.039 A 
ATOM     41  C   UNL A   1      34.579  32.841  30.134  1.00  0.00     0.014 A 
ATOM     42  C   UNL A   1      35.683  34.065  28.372  1.00  0.00     0.014 A 
ATOM     43  C   UNL A   1      35.823  32.467  30.650  1.00  0.00     0.010 A 
ATOM     44  C   UNL A   1      36.913  33.593  28.811  1.00  0.00     0.010 A 
ATOM     45  C   UNL A   1      36.997  32.774  29.947  1.00  0.00    -0.014 A 
BRANCH  45  46
ATOM     46  C   UNL A   1      38.320  32.225  30.337  1.00  0.00     0.031 A 
ATOM     47  C   UNL A   1      38.800  30.919  29.767  1.00  0.00     0.074 A 
ATOM     48  C   UNL A   1      39.037  32.844  31.297  1.00  0.00     0.049 A 
ATOM     49  N   UNL A   1      39.855  30.214  30.089  1.00  0.00    -0.248 NA
ATOM     50  C   UNL A   1      37.962  30.305  28.724  1.00  0.00     0.031 C 
ATOM     51  C   UNL A   1      38.665  34.093  31.966  1.00  0.00     0.029 A 
ATOM     52  N   UNL A   1      40.226  32.496  31.888  1.00  0.00    -0.354 N 
ATOM     53  C   UNL A   1      39.794  29.068  29.307  1.00  0.00     0.074 A 
ATOM     54  C   UNL A   1      38.571  29.144  28.539  1.00  0.00     0.031 C 
ATOM     55  C   UNL A   1      39.621  34.423  32.848  1.00  0.00     0.029 A 
ATOM     56  C   UNL A   1      40.644  33.384  32.851  1.00  0.00     0.049 A 
ATOM     57  H   UNL A   1      40.732  31.687  31.646  1.00  0.00     0.167 HD
ATOM     58  C   UNL A   1      40.685  28.052  29.220  1.00  0.00     0.031 A 
ATOM     59  C   UNL A   1      41.721  33.360  33.657  1.00  0.00     0.031 A 
ATOM     60  C   UNL A   1      41.907  27.983  29.976  1.00  0.00     0.049 A 
ATOM     61  C   UNL A   1      42.678  32.206  33.568  1.00  0.00     0.074 A 
ATOM     62  C   UNL A   1      42.909  27.032  29.910  1.00  0.00     0.029 A 
ATOM     63  N   UNL A   1      42.287  28.901  30.942  1.00  0.00    -0.354 N 
ATOM     64  N   UNL A   1      42.642  31.164  32.773  1.00  0.00    -0.248 NA
ATOM     65  C   UNL A   1      43.824  32.225  34.487  1.00  0.00     0.031 C 
ATOM     66  C   UNL A   1      43.869  27.342  30.879  1.00  0.00     0.029 A 
ATOM     67  C   UNL A   1      43.493  28.519  31.506  1.00  0.00     0.049 A 
ATOM     68  H   UNL A   1      41.778  29.705  31.190  1.00  0.00     0.167 HD
ATOM     69  C   UNL A   1      43.768  30.413  33.082  1.00  0.00     0.074 A 
ATOM     70  C   UNL A   1      44.476  31.128  34.125  1.00  0.00     0.031 C 
ATOM     71  C   UNL A   1      44.178  29.235  32.551  1.00  0.00     0.031 A 
BRANCH  58  72
ATOM     72  C   UNL A   1      40.359  26.929  28.275  1.00  0.00    -0.014 A 
ATOM     73  C   UNL A   1      40.866  26.906  26.965  1.00  0.00     0.009 A 
ATOM     74  C   UNL A   1      39.544  25.869  28.703  1.00  0.00     0.009 A 
ATOM     75  C   UNL A   1      40.525  25.872  26.090  1.00  0.00     0.001 A 
ATOM     76  C   UNL A   1      39.232  24.819  27.837  1.00  0.00     0.001 A 
ATOM     77  C   UNL A   1      39.712  24.828  26.528  1.00  0.00     0.000 A 
ENDBRANCH  58  72
BRANCH  59  78
ATOM     78  C   UNL A   1      41.957  34.473  34.614  1.00  0.00    -0.014 A 
ATOM     79  C   UNL A   1      42.678  35.608  34.213  1.00  0.00     0.009 A 
ATOM     80  C   UNL A   1      41.452  34.418  35.923  1.00  0.00     0.009 A 
ATOM     81  C   UNL A   1      42.904  36.656  35.107  1.00  0.00     0.001 A 
ATOM     82  C   UNL A   1      41.656  35.480  36.806  1.00  0.00     0.001 A 
ATOM     83  C   UNL A   1      42.387  36.595  36.400  1.00  0.00     0.000 A 
ENDBRANCH  59  78
BRANCH  71  84
ATOM     84  C   UNL A   1      45.459  28.654  33.078  1.00  0.00    -0.014 A 
ATOM     85  C   UNL A   1      45.458  27.761  34.161  1.00  0.00     0.009 A 
ATOM     86  C   UNL A   1      46.675  28.964  32.450  1.00  0.00     0.009 A 
ATOM     87  C   UNL A   1      46.656  27.209  34.620  1.00  0.00     0.001 A 
ATOM     88  C   UNL A   1      47.867  28.388  32.892  1.00  0.00     0.001 A 
ATOM     89  C   UNL A   1      47.857  27.517  33.982  1.00  0.00     0.000 A 
ENDBRANCH  71  84
ENDBRANCH  45  46
ENDBRANCH  37  40
ENDBRANCH  35  36
ENDBRANCH   1  35
TORSDOF 11
ENDMDL
