MODEL 1
REMARK VINA RESULT:     -11.0      0.000      0.000
REMARK SMILES Cc1cc(=O)cc(C)n1C[C@H]1CCCC[C@@H]1C(=O)NCCCNC(=O)c1ccc(-c2c3nc(c(-c4ccccc4)c4ccc([nH]4)c(-c4ccccc4)c4nc(c(-c5ccccc5)c5ccc2[nH]5)C=C4)C=C3)cc1
REMARK SMILES IDX 21 1 20 2 19 3 17 4 18 5 16 7 11 8 12 9 13 10 15 11 14 12
REMARK SMILES IDX 10 13 9 14 1 15 2 16 3 17 4 18 7 19 5 20 6 21 8 22 22 23
REMARK SMILES IDX 23 24 24 25 25 27 26 28 27 29 73 30 28 31 72 32 29 33 30 34
REMARK SMILES IDX 31 35 66 36 32 37 71 38 65 39 67 40 33 41 70 42 64 43 63 44
REMARK SMILES IDX 34 46 56 47 41 48 55 49 42 50 45 51 54 52 68 53 43 54 44 55
REMARK SMILES IDX 53 57 69 58 46 59 35 60 36 61 40 62 37 63 39 64 38 65 57 66
REMARK SMILES IDX 58 67 62 68 59 69 61 70 60 71 47 72 48 73 52 74 49 75 51 76
REMARK SMILES IDX 50 77
REMARK H PARENT 19 6 23 26 67 45 45 56
REMARK Flexibility Score: inf
ROOT
ATOM      1  C   UNL A   1      35.886  23.712  26.163  1.00  0.00     0.042 C 
ENDROOT
BRANCH   1   2
ATOM      2  C   UNL A   1      34.848  22.612  26.241  1.00  0.00     0.117 C 
BRANCH   2   3
ATOM      3  N   UNL A   1      33.656  22.801  27.006  1.00  0.00    -0.356 N 
ATOM      4  C   UNL A   1      32.609  23.610  26.670  1.00  0.00     0.223 C 
ATOM      5  O   UNL A   1      31.640  23.597  27.441  1.00  0.00    -0.275 OA
ATOM      6  H   UNL A   1      33.583  22.302  27.852  1.00  0.00     0.163 HD
BRANCH   4   7
ATOM      7  C   UNL A   1      32.609  24.609  25.470  1.00  0.00     0.083 C 
ATOM      8  C   UNL A   1      32.032  26.060  25.606  1.00  0.00     0.021 C 
ATOM      9  C   UNL A   1      30.550  26.170  25.184  1.00  0.00     0.006 C 
ATOM     10  C   UNL A   1      30.187  25.417  23.909  1.00  0.00     0.000 C 
ATOM     11  C   UNL A   1      32.182  23.896  24.177  1.00  0.00     0.014 C 
ATOM     12  C   UNL A   1      30.693  23.983  23.874  1.00  0.00     0.001 C 
BRANCH   8  13
ATOM     13  C   UNL A   1      32.855  27.081  24.732  1.00  0.00     0.126 C 
BRANCH  13  14
ATOM     14  N   UNL A   1      32.581  28.513  25.091  1.00  0.00    -0.349 N 
ATOM     15  C   UNL A   1      34.576  28.543  26.664  1.00  0.00     0.064 C 
ATOM     16  C   UNL A   1      33.263  29.114  26.184  1.00  0.00     0.018 A 
ATOM     17  C   UNL A   1      32.832  30.246  26.772  1.00  0.00     0.073 A 
ATOM     18  C   UNL A   1      31.623  30.912  26.262  1.00  0.00     0.182 A 
ATOM     19  C   UNL A   1      31.608  29.310  24.425  1.00  0.00     0.018 A 
ATOM     20  O   UNL A   1      31.128  31.875  26.835  1.00  0.00    -0.290 OA
ATOM     21  C   UNL A   1      31.098  30.428  24.977  1.00  0.00     0.073 A 
ATOM     22  C   UNL A   1      31.148  29.027  23.014  1.00  0.00     0.064 C 
ENDBRANCH  13  14
ENDBRANCH   8  13
ENDBRANCH   4   7
ENDBRANCH   2   3
ENDBRANCH   1   2
BRANCH   1  23
ATOM     23  C   UNL A   1      36.903  23.566  25.049  1.00  0.00     0.118 C 
BRANCH  23  24
ATOM     24  N   UNL A   1      38.072  22.773  25.405  1.00  0.00    -0.352 N 
ATOM     25  C   UNL A   1      39.210  22.979  26.153  1.00  0.00     0.251 C 
ATOM     26  H   UNL A   1      38.041  21.868  25.015  1.00  0.00     0.163 HD
ATOM     27  O   UNL A   1      40.036  22.076  26.187  1.00  0.00    -0.269 OA
BRANCH  25  28
ATOM     28  C   UNL A   1      39.505  24.242  26.881  1.00  0.00     0.039 A 
ATOM     29  C   UNL A   1      40.196  25.257  26.197  1.00  0.00     0.014 A 
ATOM     30  C   UNL A   1      39.194  24.446  28.219  1.00  0.00     0.014 A 
ATOM     31  C   UNL A   1      40.510  26.466  26.833  1.00  0.00     0.010 A 
ATOM     32  C   UNL A   1      39.388  25.691  28.814  1.00  0.00     0.010 A 
ATOM     33  C   UNL A   1      40.074  26.708  28.141  1.00  0.00    -0.014 A 
BRANCH  33  34
ATOM     34  C   UNL A   1      40.371  27.976  28.861  1.00  0.00     0.031 A 
ATOM     35  C   UNL A   1      41.709  28.168  29.530  1.00  0.00     0.074 A 
ATOM     36  C   UNL A   1      39.423  28.927  28.979  1.00  0.00     0.049 A 
ATOM     37  N   UNL A   1      42.121  29.148  30.294  1.00  0.00    -0.248 NA
ATOM     38  C   UNL A   1      42.701  27.093  29.353  1.00  0.00     0.031 C 
ATOM     39  C   UNL A   1      38.074  28.858  28.413  1.00  0.00     0.029 A 
ATOM     40  N   UNL A   1      39.454  30.142  29.616  1.00  0.00    -0.354 N 
ATOM     41  C   UNL A   1      43.397  28.790  30.710  1.00  0.00     0.074 A 
ATOM     42  C   UNL A   1      43.663  27.473  30.176  1.00  0.00     0.031 C 
ATOM     43  C   UNL A   1      37.427  30.003  28.682  1.00  0.00     0.029 A 
ATOM     44  C   UNL A   1      38.296  30.866  29.476  1.00  0.00     0.049 A 
ATOM     45  H   UNL A   1      40.233  30.464  30.126  1.00  0.00     0.167 HD
ATOM     46  C   UNL A   1      44.290  29.503  31.438  1.00  0.00     0.031 A 
ATOM     47  C   UNL A   1      37.970  32.091  29.931  1.00  0.00     0.031 A 
ATOM     48  C   UNL A   1      44.047  30.829  31.931  1.00  0.00     0.049 A 
ATOM     49  C   UNL A   1      38.965  32.864  30.746  1.00  0.00     0.074 A 
ATOM     50  C   UNL A   1      44.910  31.666  32.617  1.00  0.00     0.029 A 
ATOM     51  N   UNL A   1      42.854  31.517  31.780  1.00  0.00    -0.354 N 
ATOM     52  N   UNL A   1      40.186  32.529  31.090  1.00  0.00    -0.248 NA
ATOM     53  C   UNL A   1      38.540  34.182  31.237  1.00  0.00     0.031 C 
ATOM     54  C   UNL A   1      44.221  32.845  32.919  1.00  0.00     0.029 A 
ATOM     55  C   UNL A   1      42.946  32.759  32.381  1.00  0.00     0.049 A 
ATOM     56  H   UNL A   1      42.058  31.172  31.313  1.00  0.00     0.167 HD
ATOM     57  C   UNL A   1      40.678  33.598  31.829  1.00  0.00     0.074 A 
ATOM     58  C   UNL A   1      39.631  34.598  31.868  1.00  0.00     0.031 C 
ATOM     59  C   UNL A   1      41.888  33.735  32.423  1.00  0.00     0.031 A 
BRANCH  46  60
ATOM     60  C   UNL A   1      45.617  28.855  31.722  1.00  0.00    -0.014 A 
ATOM     61  C   UNL A   1      46.717  29.051  30.870  1.00  0.00     0.009 A 
ATOM     62  C   UNL A   1      45.773  28.039  32.852  1.00  0.00     0.009 A 
ATOM     63  C   UNL A   1      47.929  28.402  31.115  1.00  0.00     0.001 A 
ATOM     64  C   UNL A   1      46.996  27.416  33.113  1.00  0.00     0.001 A 
ATOM     65  C   UNL A   1      48.068  27.587  32.237  1.00  0.00     0.000 A 
ENDBRANCH  46  60
BRANCH  47  66
ATOM     66  C   UNL A   1      36.652  32.676  29.573  1.00  0.00    -0.014 A 
ATOM     67  C   UNL A   1      35.638  32.755  30.539  1.00  0.00     0.009 A 
ATOM     68  C   UNL A   1      36.415  33.202  28.294  1.00  0.00     0.009 A 
ATOM     69  C   UNL A   1      34.411  33.346  30.231  1.00  0.00     0.001 A 
ATOM     70  C   UNL A   1      35.194  33.812  27.996  1.00  0.00     0.001 A 
ATOM     71  C   UNL A   1      34.193  33.882  28.962  1.00  0.00     0.000 A 
ENDBRANCH  47  66
BRANCH  59  72
ATOM     72  C   UNL A   1      42.152  35.007  33.174  1.00  0.00    -0.014 A 
ATOM     73  C   UNL A   1      41.675  35.178  34.482  1.00  0.00     0.009 A 
ATOM     74  C   UNL A   1      42.961  36.002  32.606  1.00  0.00     0.009 A 
ATOM     75  C   UNL A   1      41.995  36.330  35.203  1.00  0.00     0.001 A 
ATOM     76  C   UNL A   1      43.299  37.141  33.337  1.00  0.00     0.001 A 
ATOM     77  C   UNL A   1      42.813  37.305  34.633  1.00  0.00     0.000 A 
ENDBRANCH  59  72
ENDBRANCH  33  34
ENDBRANCH  25  28
ENDBRANCH  23  24
ENDBRANCH   1  23
TORSDOF 12
ENDMDL
MODEL 2
REMARK VINA RESULT:     -10.9      2.404      7.945
REMARK SMILES Cc1cc(=O)cc(C)n1C[C@H]1CCCC[C@@H]1C(=O)NCCCNC(=O)c1ccc(-c2c3nc(c(-c4ccccc4)c4ccc([nH]4)c(-c4ccccc4)c4nc(c(-c5ccccc5)c5ccc2[nH]5)C=C4)C=C3)cc1
REMARK SMILES IDX 21 1 20 2 19 3 17 4 18 5 16 7 11 8 12 9 13 10 15 11 14 12
REMARK SMILES IDX 10 13 9 14 1 15 2 16 3 17 4 18 7 19 5 20 6 21 8 22 22 23
REMARK SMILES IDX 23 24 24 25 25 27 26 28 27 29 73 30 28 31 72 32 29 33 30 34
REMARK SMILES IDX 31 35 66 36 32 37 71 38 65 39 67 40 33 41 70 42 64 43 63 44
REMARK SMILES IDX 34 46 56 47 41 48 55 49 42 50 45 51 54 52 68 53 43 54 44 55
REMARK SMILES IDX 53 57 69 58 46 59 35 60 36 61 40 62 37 63 39 64 38 65 57 66
REMARK SMILES IDX 58 67 62 68 59 69 61 70 60 71 47 72 48 73 52 74 49 75 51 76
REMARK SMILES IDX 50 77
REMARK H PARENT 19 6 23 26 67 45 45 56
REMARK Flexibility Score: inf
ROOT
ATOM      1  C   UNL A   1      33.279  27.712  26.700  1.00  0.00     0.042 C 
ENDROOT
BRANCH   1   2
ATOM      2  C   UNL A   1      32.022  27.016  26.225  1.00  0.00     0.117 C 
BRANCH   2   3
ATOM      3  N   UNL A   1      31.540  25.857  26.908  1.00  0.00    -0.356 N 
ATOM      4  C   UNL A   1      31.533  24.583  26.416  1.00  0.00     0.223 C 
ATOM      5  O   UNL A   1      31.122  23.704  27.185  1.00  0.00    -0.275 OA
ATOM      6  H   UNL A   1      31.181  25.988  27.816  1.00  0.00     0.163 HD
BRANCH   4   7
ATOM      7  C   UNL A   1      31.893  24.198  24.947  1.00  0.00     0.083 C 
ATOM      8  C   UNL A   1      33.261  24.607  24.299  1.00  0.00     0.021 C 
ATOM      9  C   UNL A   1      33.192  25.937  23.516  1.00  0.00     0.006 C 
ATOM     10  C   UNL A   1      31.956  26.105  22.640  1.00  0.00     0.000 C 
ATOM     11  C   UNL A   1      30.685  24.419  24.021  1.00  0.00     0.014 C 
ATOM     12  C   UNL A   1      30.649  25.784  23.349  1.00  0.00     0.001 C 
BRANCH   8  13
ATOM     13  C   UNL A   1      33.775  23.495  23.308  1.00  0.00     0.126 C 
BRANCH  13  14
ATOM     14  N   UNL A   1      33.679  22.110  23.881  1.00  0.00    -0.349 N 
ATOM     15  C   UNL A   1      31.996  21.444  22.098  1.00  0.00     0.064 C 
ATOM     16  C   UNL A   1      32.656  21.228  23.439  1.00  0.00     0.018 A 
ATOM     17  C   UNL A   1      32.298  20.131  24.133  1.00  0.00     0.073 A 
ATOM     18  C   UNL A   1      32.995  19.807  25.387  1.00  0.00     0.182 A 
ATOM     19  C   UNL A   1      34.537  21.635  24.913  1.00  0.00     0.018 A 
ATOM     20  O   UNL A   1      32.628  18.889  26.110  1.00  0.00    -0.290 OA
ATOM     21  C   UNL A   1      34.216  20.574  25.677  1.00  0.00     0.073 A 
ATOM     22  C   UNL A   1      35.910  22.213  25.165  1.00  0.00     0.064 C 
ENDBRANCH  13  14
ENDBRANCH   8  13
ENDBRANCH   4   7
ENDBRANCH   2   3
ENDBRANCH   1   2
BRANCH   1  23
ATOM     23  C   UNL A   1      33.702  28.916  25.883  1.00  0.00     0.118 C 
BRANCH  23  24
ATOM     24  N   UNL A   1      33.651  30.180  26.607  1.00  0.00    -0.352 N 
ATOM     25  C   UNL A   1      34.464  30.830  27.509  1.00  0.00     0.251 C 
ATOM     26  H   UNL A   1      32.836  30.695  26.400  1.00  0.00     0.163 HD
ATOM     27  O   UNL A   1      34.062  31.890  27.971  1.00  0.00    -0.269 OA
BRANCH  25  28
ATOM     28  C   UNL A   1      35.773  30.299  27.977  1.00  0.00     0.039 A 
ATOM     29  C   UNL A   1      35.839  29.735  29.263  1.00  0.00     0.014 A 
ATOM     30  C   UNL A   1      36.946  30.391  27.239  1.00  0.00     0.014 A 
ATOM     31  C   UNL A   1      37.046  29.227  29.762  1.00  0.00     0.010 A 
ATOM     32  C   UNL A   1      38.114  29.772  27.677  1.00  0.00     0.010 A 
ATOM     33  C   UNL A   1      38.190  29.208  28.955  1.00  0.00    -0.014 A 
BRANCH  33  34
ATOM     34  C   UNL A   1      39.493  28.672  29.431  1.00  0.00     0.031 A 
ATOM     35  C   UNL A   1      40.314  29.455  30.425  1.00  0.00     0.074 A 
ATOM     36  C   UNL A   1      39.980  27.522  28.924  1.00  0.00     0.049 A 
ATOM     37  N   UNL A   1      41.519  29.215  30.878  1.00  0.00    -0.248 NA
ATOM     38  C   UNL A   1      39.718  30.698  30.945  1.00  0.00     0.031 C 
ATOM     39  C   UNL A   1      39.310  26.680  27.930  1.00  0.00     0.029 A 
ATOM     40  N   UNL A   1      41.157  26.862  29.179  1.00  0.00    -0.354 N 
ATOM     41  C   UNL A   1      41.831  30.289  31.703  1.00  0.00     0.074 A 
ATOM     42  C   UNL A   1      40.724  31.215  31.631  1.00  0.00     0.031 C 
ATOM     43  C   UNL A   1      40.060  25.590  27.701  1.00  0.00     0.029 A 
ATOM     44  C   UNL A   1      41.282  25.677  28.495  1.00  0.00     0.049 A 
ATOM     45  H   UNL A   1      41.845  27.205  29.793  1.00  0.00     0.167 HD
ATOM     46  C   UNL A   1      42.921  30.477  32.484  1.00  0.00     0.031 A 
ATOM     47  C   UNL A   1      42.267  24.760  28.509  1.00  0.00     0.031 A 
ATOM     48  C   UNL A   1      44.002  29.538  32.594  1.00  0.00     0.049 A 
ATOM     49  C   UNL A   1      43.475  24.988  29.371  1.00  0.00     0.074 A 
ATOM     50  C   UNL A   1      45.118  29.598  33.411  1.00  0.00     0.029 A 
ATOM     51  N   UNL A   1      44.095  28.359  31.871  1.00  0.00    -0.354 N 
ATOM     52  N   UNL A   1      43.732  25.986  30.181  1.00  0.00    -0.248 NA
ATOM     53  C   UNL A   1      44.529  23.964  29.321  1.00  0.00     0.031 C 
ATOM     54  C   UNL A   1      45.908  28.476  33.147  1.00  0.00     0.029 A 
ATOM     55  C   UNL A   1      45.262  27.695  32.201  1.00  0.00     0.049 A 
ATOM     56  H   UNL A   1      43.429  28.043  31.219  1.00  0.00     0.167 HD
ATOM     57  C   UNL A   1      44.971  25.708  30.745  1.00  0.00     0.074 A 
ATOM     58  C   UNL A   1      45.405  24.438  30.198  1.00  0.00     0.031 C 
ATOM     59  C   UNL A   1      45.684  26.440  31.634  1.00  0.00     0.031 A 
BRANCH  46  60
ATOM     60  C   UNL A   1      42.977  31.744  33.292  1.00  0.00    -0.014 A 
ATOM     61  C   UNL A   1      43.584  32.904  32.780  1.00  0.00     0.009 A 
ATOM     62  C   UNL A   1      42.418  31.783  34.578  1.00  0.00     0.009 A 
ATOM     63  C   UNL A   1      43.678  34.058  33.559  1.00  0.00     0.001 A 
ATOM     64  C   UNL A   1      42.485  32.950  35.344  1.00  0.00     0.001 A 
ATOM     65  C   UNL A   1      43.126  34.082  34.839  1.00  0.00     0.000 A 
ENDBRANCH  46  60
BRANCH  47  66
ATOM     66  C   UNL A   1      42.118  23.516  27.712  1.00  0.00    -0.014 A 
ATOM     67  C   UNL A   1      42.607  23.465  26.397  1.00  0.00     0.009 A 
ATOM     68  C   UNL A   1      41.540  22.364  28.267  1.00  0.00     0.009 A 
ATOM     69  C   UNL A   1      42.517  22.287  25.653  1.00  0.00     0.001 A 
ATOM     70  C   UNL A   1      41.471  21.181  27.526  1.00  0.00     0.001 A 
ATOM     71  C   UNL A   1      41.957  21.144  26.220  1.00  0.00     0.000 A 
ENDBRANCH  47  66
BRANCH  59  72
ATOM     72  C   UNL A   1      47.013  25.898  32.072  1.00  0.00    -0.014 A 
ATOM     73  C   UNL A   1      48.183  26.215  31.366  1.00  0.00     0.009 A 
ATOM     74  C   UNL A   1      47.109  25.142  33.250  1.00  0.00     0.009 A 
ATOM     75  C   UNL A   1      49.425  25.774  31.828  1.00  0.00     0.001 A 
ATOM     76  C   UNL A   1      48.353  24.723  33.721  1.00  0.00     0.001 A 
ATOM     77  C   UNL A   1      49.509  25.036  33.009  1.00  0.00     0.000 A 
ENDBRANCH  59  72
ENDBRANCH  33  34
ENDBRANCH  25  28
ENDBRANCH  23  24
ENDBRANCH   1  23
TORSDOF 12
ENDMDL
MODEL 3
REMARK VINA RESULT:     -10.8      3.130      7.549
REMARK SMILES Cc1cc(=O)cc(C)n1C[C@H]1CCCC[C@@H]1C(=O)NCCCNC(=O)c1ccc(-c2c3nc(c(-c4ccccc4)c4ccc([nH]4)c(-c4ccccc4)c4nc(c(-c5ccccc5)c5ccc2[nH]5)C=C4)C=C3)cc1
REMARK SMILES IDX 21 1 20 2 19 3 17 4 18 5 16 7 11 8 12 9 13 10 15 11 14 12
REMARK SMILES IDX 10 13 9 14 1 15 2 16 3 17 4 18 7 19 5 20 6 21 8 22 22 23
REMARK SMILES IDX 23 24 24 25 25 27 26 28 27 29 73 30 28 31 72 32 29 33 30 34
REMARK SMILES IDX 31 35 66 36 32 37 71 38 65 39 67 40 33 41 70 42 64 43 63 44
REMARK SMILES IDX 34 46 56 47 41 48 55 49 42 50 45 51 54 52 68 53 43 54 44 55
REMARK SMILES IDX 53 57 69 58 46 59 35 60 36 61 40 62 37 63 39 64 38 65 57 66
REMARK SMILES IDX 58 67 62 68 59 69 61 70 60 71 47 72 48 73 52 74 49 75 51 76
REMARK SMILES IDX 50 77
REMARK H PARENT 19 6 23 26 67 45 45 56
REMARK Flexibility Score: inf
ROOT
ATOM      1  C   UNL A   1      38.010  19.225  24.996  1.00  0.00     0.042 C 
ENDROOT
BRANCH   1   2
ATOM      2  C   UNL A   1      36.834  20.104  24.626  1.00  0.00     0.117 C 
BRANCH   2   3
ATOM      3  N   UNL A   1      35.508  19.728  25.002  1.00  0.00    -0.356 N 
ATOM      4  C   UNL A   1      34.441  20.571  25.126  1.00  0.00     0.223 C 
ATOM      5  O   UNL A   1      33.359  20.043  25.410  1.00  0.00    -0.275 OA
ATOM      6  H   UNL A   1      35.349  18.774  25.187  1.00  0.00     0.163 HD
BRANCH   4   7
ATOM      7  C   UNL A   1      34.528  22.128  25.047  1.00  0.00     0.083 C 
ATOM      8  C   UNL A   1      34.934  22.865  23.724  1.00  0.00     0.021 C 
ATOM      9  C   UNL A   1      36.445  23.171  23.634  1.00  0.00     0.006 C 
ATOM     10  C   UNL A   1      37.072  23.701  24.919  1.00  0.00     0.000 C 
ATOM     11  C   UNL A   1      35.217  22.693  26.300  1.00  0.00     0.014 C 
ATOM     12  C   UNL A   1      36.719  22.891  26.157  1.00  0.00     0.001 C 
BRANCH   8  13
ATOM     13  C   UNL A   1      34.160  24.230  23.575  1.00  0.00     0.126 C 
BRANCH  13  14
ATOM     14  N   UNL A   1      32.894  24.277  24.379  1.00  0.00    -0.349 N 
ATOM     15  C   UNL A   1      33.658  26.405  25.535  1.00  0.00     0.064 C 
ATOM     16  C   UNL A   1      32.779  25.180  25.471  1.00  0.00     0.018 A 
ATOM     17  C   UNL A   1      31.843  25.042  26.429  1.00  0.00     0.073 A 
ATOM     18  C   UNL A   1      30.880  23.931  26.347  1.00  0.00     0.182 A 
ATOM     19  C   UNL A   1      31.793  23.404  24.149  1.00  0.00     0.018 A 
ATOM     20  O   UNL A   1      30.089  23.697  27.251  1.00  0.00    -0.290 OA
ATOM     21  C   UNL A   1      30.848  23.182  25.082  1.00  0.00     0.073 A 
ATOM     22  C   UNL A   1      31.541  22.741  22.814  1.00  0.00     0.064 C 
ENDBRANCH  13  14
ENDBRANCH   8  13
ENDBRANCH   4   7
ENDBRANCH   2   3
ENDBRANCH   1   2
BRANCH   1  23
ATOM     23  C   UNL A   1      39.069  19.886  25.855  1.00  0.00     0.118 C 
BRANCH  23  24
ATOM     24  N   UNL A   1      40.359  19.209  25.844  1.00  0.00    -0.352 N 
ATOM     25  C   UNL A   1      41.659  19.565  26.127  1.00  0.00     0.251 C 
ATOM     26  H   UNL A   1      40.282  18.266  25.566  1.00  0.00     0.163 HD
ATOM     27  O   UNL A   1      42.529  18.722  25.945  1.00  0.00    -0.269 OA
BRANCH  25  28
ATOM     28  C   UNL A   1      42.064  20.917  26.600  1.00  0.00     0.039 A 
ATOM     29  C   UNL A   1      42.302  21.912  25.636  1.00  0.00     0.014 A 
ATOM     30  C   UNL A   1      42.284  21.228  27.935  1.00  0.00     0.014 A 
ATOM     31  C   UNL A   1      42.694  23.202  26.020  1.00  0.00     0.010 A 
ATOM     32  C   UNL A   1      42.546  22.539  28.327  1.00  0.00     0.010 A 
ATOM     33  C   UNL A   1      42.784  23.537  27.376  1.00  0.00    -0.014 A 
BRANCH  33  34
ATOM     34  C   UNL A   1      43.187  24.893  27.839  1.00  0.00     0.031 A 
ATOM     35  C   UNL A   1      42.133  25.921  28.168  1.00  0.00     0.074 A 
ATOM     36  C   UNL A   1      44.490  25.231  27.897  1.00  0.00     0.049 A 
ATOM     37  N   UNL A   1      42.276  27.184  28.480  1.00  0.00    -0.248 NA
ATOM     38  C   UNL A   1      40.729  25.481  28.092  1.00  0.00     0.031 C 
ATOM     39  C   UNL A   1      45.613  24.349  27.573  1.00  0.00     0.029 A 
ATOM     40  N   UNL A   1      45.089  26.414  28.253  1.00  0.00    -0.354 N 
ATOM     41  C   UNL A   1      40.988  27.690  28.603  1.00  0.00     0.074 A 
ATOM     42  C   UNL A   1      40.078  26.620  28.261  1.00  0.00     0.031 C 
ATOM     43  C   UNL A   1      46.763  25.003  27.797  1.00  0.00     0.029 A 
ATOM     44  C   UNL A   1      46.462  26.362  28.235  1.00  0.00     0.049 A 
ATOM     45  H   UNL A   1      44.583  27.222  28.497  1.00  0.00     0.167 HD
ATOM     46  C   UNL A   1      40.588  28.920  29.003  1.00  0.00     0.031 A 
ATOM     47  C   UNL A   1      47.376  27.301  28.543  1.00  0.00     0.031 A 
ATOM     48  C   UNL A   1      41.486  29.971  29.388  1.00  0.00     0.049 A 
ATOM     49  C   UNL A   1      46.917  28.664  28.973  1.00  0.00     0.074 A 
ATOM     50  C   UNL A   1      41.184  31.230  29.876  1.00  0.00     0.029 A 
ATOM     51  N   UNL A   1      42.869  29.880  29.339  1.00  0.00    -0.354 N 
ATOM     52  N   UNL A   1      45.694  29.111  29.129  1.00  0.00    -0.248 NA
ATOM     53  C   UNL A   1      47.963  29.654  29.268  1.00  0.00     0.031 C 
ATOM     54  C   UNL A   1      42.385  31.917  30.080  1.00  0.00     0.029 A 
ATOM     55  C   UNL A   1      43.434  31.069  29.762  1.00  0.00     0.049 A 
ATOM     56  H   UNL A   1      43.372  29.086  29.045  1.00  0.00     0.167 HD
ATOM     57  C   UNL A   1      45.822  30.428  29.549  1.00  0.00     0.074 A 
ATOM     58  C   UNL A   1      47.241  30.703  29.641  1.00  0.00     0.031 C 
ATOM     59  C   UNL A   1      44.849  31.329  29.832  1.00  0.00     0.031 A 
BRANCH  46  60
ATOM     60  C   UNL A   1      39.107  29.177  29.055  1.00  0.00    -0.014 A 
ATOM     61  C   UNL A   1      38.409  29.632  27.923  1.00  0.00     0.009 A 
ATOM     62  C   UNL A   1      38.399  28.964  30.247  1.00  0.00     0.009 A 
ATOM     63  C   UNL A   1      37.045  29.919  27.999  1.00  0.00     0.001 A 
ATOM     64  C   UNL A   1      37.027  29.220  30.311  1.00  0.00     0.001 A 
ATOM     65  C   UNL A   1      36.354  29.710  29.192  1.00  0.00     0.000 A 
ENDBRANCH  46  60
BRANCH  47  66
ATOM     66  C   UNL A   1      48.820  26.955  28.503  1.00  0.00    -0.014 A 
ATOM     67  C   UNL A   1      49.434  26.387  29.630  1.00  0.00     0.009 A 
ATOM     68  C   UNL A   1      49.577  27.138  27.336  1.00  0.00     0.009 A 
ATOM     69  C   UNL A   1      50.778  26.012  29.591  1.00  0.00     0.001 A 
ATOM     70  C   UNL A   1      50.917  26.742  27.294  1.00  0.00     0.001 A 
ATOM     71  C   UNL A   1      51.516  26.182  28.420  1.00  0.00     0.000 A 
ENDBRANCH  47  66
BRANCH  59  72
ATOM     72  C   UNL A   1      45.278  32.701  30.261  1.00  0.00    -0.014 A 
ATOM     73  C   UNL A   1      45.455  33.724  29.317  1.00  0.00     0.009 A 
ATOM     74  C   UNL A   1      45.416  32.999  31.625  1.00  0.00     0.009 A 
ATOM     75  C   UNL A   1      45.774  35.018  29.733  1.00  0.00     0.001 A 
ATOM     76  C   UNL A   1      45.711  34.298  32.039  1.00  0.00     0.001 A 
ATOM     77  C   UNL A   1      45.893  35.305  31.092  1.00  0.00     0.000 A 
ENDBRANCH  59  72
ENDBRANCH  33  34
ENDBRANCH  25  28
ENDBRANCH  23  24
ENDBRANCH   1  23
TORSDOF 12
ENDMDL
