MODEL 1
REMARK VINA RESULT:     -11.6      0.000      0.000
REMARK SMILES COc1cc(NS(=O)(=O)c2cc(C(=O)NCCCNC(=O)c3ccc(-c4c5nc(c(-c6ccccc6)c6ccc([nH]6)c(-c6ccccc6)c6nc(c(-c7ccccc7)c7ccc4[nH]7)C=C6)C=C5)cc3)cc(C)c2C)ccc1N1CCCC1=O
REMARK SMILES IDX 16 1 15 2 13 3 14 4 12 6 10 7 11 8 73 9 71 10 74 11 70 12
REMARK SMILES IDX 72 13 7 14 8 15 9 16 6 17 5 19 3 20 4 21 77 22 76 23 75 24
REMARK SMILES IDX 2 25 1 26 78 27 79 28 82 29 80 30 81 31 83 32 17 33 18 34
REMARK SMILES IDX 19 35 20 36 21 38 22 39 23 40 69 41 24 42 68 43 25 44 26 45
REMARK SMILES IDX 27 46 62 47 28 48 67 49 61 50 63 51 29 52 66 53 60 54 59 55
REMARK SMILES IDX 30 57 52 58 37 59 51 60 38 61 41 62 50 63 64 64 39 65 40 66
REMARK SMILES IDX 49 68 65 69 42 70 31 71 32 72 36 73 33 74 35 75 34 76 53 77
REMARK SMILES IDX 54 78 58 79 55 80 57 81 56 82 43 83 44 84 48 85 45 86 47 87
REMARK SMILES IDX 46 88
REMARK H PARENT 15 5 6 18 19 37 63 56 41 67
REMARK Flexibility Score: inf
ROOT
ATOM      1  C   UNL A   1      33.019  29.301  24.345  1.00  0.00     0.118 C 
ENDROOT
BRANCH   1   2
ATOM      2  N   UNL A   1      31.858  29.293  23.479  1.00  0.00    -0.352 N 
ATOM      3  C   UNL A   1      31.123  28.335  22.837  1.00  0.00     0.251 C 
ATOM      4  O   UNL A   1      30.231  28.768  22.101  1.00  0.00    -0.269 OA
ATOM      5  H   UNL A   1      31.513  30.200  23.311  1.00  0.00     0.163 HD
BRANCH   3   6
ATOM      6  C   UNL A   1      31.292  26.853  22.957  1.00  0.00     0.041 A 
ATOM      7  C   UNL A   1      30.915  24.896  24.391  1.00  0.00     0.091 A 
ATOM      8  C   UNL A   1      30.761  26.267  24.114  1.00  0.00     0.036 A 
ATOM      9  C   UNL A   1      31.536  24.038  23.464  1.00  0.00    -0.028 A 
ATOM     10  C   UNL A   1      32.146  24.632  22.338  1.00  0.00    -0.046 A 
ATOM     11  C   UNL A   1      31.608  22.548  23.662  1.00  0.00     0.046 C 
ATOM     12  C   UNL A   1      31.985  26.016  22.083  1.00  0.00     0.017 A 
ATOM     13  C   UNL A   1      33.002  23.847  21.375  1.00  0.00     0.044 C 
BRANCH   7  14
ATOM     14  S   UNL A   1      30.548  24.399  26.077  1.00  0.00     0.262 S 
ATOM     15  O   UNL A   1      30.257  22.983  26.053  1.00  0.00    -0.201 OA
ATOM     16  O   UNL A   1      29.605  25.345  26.636  1.00  0.00    -0.201 OA
BRANCH  14  17
ATOM     17  N   UNL A   1      31.987  24.580  26.915  1.00  0.00    -0.279 N 
ATOM     18  H   UNL A   1      31.988  25.221  27.662  1.00  0.00     0.180 HD
BRANCH  17  19
ATOM     19  C   UNL A   1      33.209  23.894  26.653  1.00  0.00     0.053 A 
ATOM     20  C   UNL A   1      35.248  23.511  25.399  1.00  0.00     0.144 A 
ATOM     21  C   UNL A   1      34.209  24.360  25.807  1.00  0.00     0.075 A 
ATOM     22  C   UNL A   1      35.413  22.235  25.962  1.00  0.00     0.086 A 
ATOM     23  C   UNL A   1      34.439  21.805  26.872  1.00  0.00     0.032 A 
ATOM     24  C   UNL A   1      33.347  22.620  27.206  1.00  0.00     0.029 A 
BRANCH  20  25
ATOM     25  O   UNL A   1      35.978  23.976  24.331  1.00  0.00    -0.494 OA
ATOM     26  C   UNL A   1      35.724  23.209  23.151  1.00  0.00     0.278 C 
ENDBRANCH  20  25
BRANCH  22  27
ATOM     27  N   UNL A   1      36.495  21.381  25.630  1.00  0.00    -0.309 N 
ATOM     28  C   UNL A   1      36.307  20.103  24.988  1.00  0.00     0.126 C 
ATOM     29  C   UNL A   1      37.854  21.697  25.762  1.00  0.00     0.227 C 
ATOM     30  C   UNL A   1      37.674  19.450  25.037  1.00  0.00     0.032 C 
ATOM     31  C   UNL A   1      38.636  20.623  25.048  1.00  0.00     0.102 C 
ATOM     32  O   UNL A   1      38.378  22.648  26.317  1.00  0.00    -0.275 OA
ENDBRANCH  22  27
ENDBRANCH  17  19
ENDBRANCH  14  17
ENDBRANCH   7  14
ENDBRANCH   3   6
ENDBRANCH   1   2
BRANCH   1  33
ATOM     33  C   UNL A   1      32.665  28.840  25.757  1.00  0.00     0.042 C 
BRANCH  33  34
ATOM     34  C   UNL A   1      33.828  28.997  26.741  1.00  0.00     0.118 C 
BRANCH  34  35
ATOM     35  N   UNL A   1      33.799  30.289  27.418  1.00  0.00    -0.352 N 
ATOM     36  C   UNL A   1      34.643  30.844  28.346  1.00  0.00     0.251 C 
ATOM     37  H   UNL A   1      33.040  30.863  27.164  1.00  0.00     0.163 HD
ATOM     38  O   UNL A   1      34.255  31.805  29.007  1.00  0.00    -0.269 OA
BRANCH  36  39
ATOM     39  C   UNL A   1      36.009  30.318  28.562  1.00  0.00     0.039 A 
ATOM     40  C   UNL A   1      36.340  29.801  29.820  1.00  0.00     0.014 A 
ATOM     41  C   UNL A   1      36.992  30.419  27.577  1.00  0.00     0.014 A 
ATOM     42  C   UNL A   1      37.637  29.341  30.070  1.00  0.00     0.010 A 
ATOM     43  C   UNL A   1      38.263  29.893  27.801  1.00  0.00     0.010 A 
ATOM     44  C   UNL A   1      38.602  29.358  29.052  1.00  0.00    -0.014 A 
BRANCH  44  45
ATOM     45  C   UNL A   1      39.979  28.849  29.274  1.00  0.00     0.031 A 
ATOM     46  C   UNL A   1      41.022  29.742  29.892  1.00  0.00     0.074 A 
ATOM     47  C   UNL A   1      40.314  27.614  28.855  1.00  0.00     0.049 A 
ATOM     48  N   UNL A   1      42.308  29.535  30.034  1.00  0.00    -0.248 NA
ATOM     49  C   UNL A   1      40.565  31.048  30.391  1.00  0.00     0.031 C 
ATOM     50  C   UNL A   1      39.407  26.653  28.225  1.00  0.00     0.029 A 
ATOM     51  N   UNL A   1      41.519  26.958  28.891  1.00  0.00    -0.354 N 
ATOM     52  C   UNL A   1      42.815  30.695  30.606  1.00  0.00     0.074 A 
ATOM     53  C   UNL A   1      41.706  31.614  30.756  1.00  0.00     0.031 C 
ATOM     54  C   UNL A   1      40.082  25.524  27.953  1.00  0.00     0.029 A 
ATOM     55  C   UNL A   1      41.476  25.697  28.351  1.00  0.00     0.049 A 
ATOM     56  H   UNL A   1      42.338  27.355  29.267  1.00  0.00     0.167 HD
ATOM     57  C   UNL A   1      44.086  30.970  30.984  1.00  0.00     0.031 A 
ATOM     58  C   UNL A   1      42.450  24.785  28.184  1.00  0.00     0.031 A 
ATOM     59  C   UNL A   1      45.185  30.052  30.867  1.00  0.00     0.049 A 
ATOM     60  C   UNL A   1      43.850  25.110  28.621  1.00  0.00     0.074 A 
ATOM     61  C   UNL A   1      46.504  30.229  31.251  1.00  0.00     0.029 A 
ATOM     62  N   UNL A   1      45.089  28.776  30.338  1.00  0.00    -0.354 N 
ATOM     63  N   UNL A   1      44.309  26.209  29.167  1.00  0.00    -0.248 NA
ATOM     64  C   UNL A   1      44.863  24.064  28.420  1.00  0.00     0.031 C 
ATOM     65  C   UNL A   1      47.210  29.062  30.937  1.00  0.00     0.029 A 
ATOM     66  C   UNL A   1      46.323  28.151  30.387  1.00  0.00     0.049 A 
ATOM     67  H   UNL A   1      44.265  28.372  29.980  1.00  0.00     0.167 HD
ATOM     68  C   UNL A   1      45.658  25.979  29.397  1.00  0.00     0.074 A 
ATOM     69  C   UNL A   1      45.941  24.634  28.942  1.00  0.00     0.031 C 
ATOM     70  C   UNL A   1      46.582  26.810  29.938  1.00  0.00     0.031 A 
BRANCH  57  71
ATOM     71  C   UNL A   1      44.350  32.330  31.565  1.00  0.00    -0.014 A 
ATOM     72  C   UNL A   1      44.250  32.556  32.946  1.00  0.00     0.009 A 
ATOM     73  C   UNL A   1      44.729  33.390  30.726  1.00  0.00     0.009 A 
ATOM     74  C   UNL A   1      44.491  33.827  33.473  1.00  0.00     0.001 A 
ATOM     75  C   UNL A   1      44.992  34.653  31.258  1.00  0.00     0.001 A 
ATOM     76  C   UNL A   1      44.864  34.872  32.630  1.00  0.00     0.000 A 
ENDBRANCH  57  71
BRANCH  58  77
ATOM     77  C   UNL A   1      42.137  23.462  27.587  1.00  0.00    -0.014 A 
ATOM     78  C   UNL A   1      41.564  22.452  28.374  1.00  0.00     0.009 A 
ATOM     79  C   UNL A   1      42.420  23.198  26.239  1.00  0.00     0.009 A 
ATOM     80  C   UNL A   1      41.302  21.195  27.828  1.00  0.00     0.001 A 
ATOM     81  C   UNL A   1      42.136  21.946  25.691  1.00  0.00     0.001 A 
ATOM     82  C   UNL A   1      41.585  20.943  26.486  1.00  0.00     0.000 A 
ENDBRANCH  58  77
BRANCH  70  83
ATOM     83  C   UNL A   1      47.970  26.269  30.103  1.00  0.00    -0.014 A 
ATOM     84  C   UNL A   1      48.890  26.300  29.044  1.00  0.00     0.009 A 
ATOM     85  C   UNL A   1      48.369  25.749  31.344  1.00  0.00     0.009 A 
ATOM     86  C   UNL A   1      50.179  25.794  29.219  1.00  0.00     0.001 A 
ATOM     87  C   UNL A   1      49.665  25.261  31.520  1.00  0.00     0.001 A 
ATOM     88  C   UNL A   1      50.566  25.278  30.455  1.00  0.00     0.000 A 
ENDBRANCH  70  83
ENDBRANCH  44  45
ENDBRANCH  36  39
ENDBRANCH  34  35
ENDBRANCH  33  34
ENDBRANCH   1  33
TORSDOF 15
ENDMDL
MODEL 2
REMARK VINA RESULT:     -11.5      1.638      2.001
REMARK SMILES COc1cc(NS(=O)(=O)c2cc(C(=O)NCCCNC(=O)c3ccc(-c4c5nc(c(-c6ccccc6)c6ccc([nH]6)c(-c6ccccc6)c6nc(c(-c7ccccc7)c7ccc4[nH]7)C=C6)C=C5)cc3)cc(C)c2C)ccc1N1CCCC1=O
REMARK SMILES IDX 16 1 15 2 13 3 14 4 12 6 10 7 11 8 73 9 71 10 74 11 70 12
REMARK SMILES IDX 72 13 7 14 8 15 9 16 6 17 5 19 3 20 4 21 77 22 76 23 75 24
REMARK SMILES IDX 2 25 1 26 78 27 79 28 82 29 80 30 81 31 83 32 17 33 18 34
REMARK SMILES IDX 19 35 20 36 21 38 22 39 23 40 69 41 24 42 68 43 25 44 26 45
REMARK SMILES IDX 27 46 62 47 28 48 67 49 61 50 63 51 29 52 66 53 60 54 59 55
REMARK SMILES IDX 30 57 52 58 37 59 51 60 38 61 41 62 50 63 64 64 39 65 40 66
REMARK SMILES IDX 49 68 65 69 42 70 31 71 32 72 36 73 33 74 35 75 34 76 53 77
REMARK SMILES IDX 54 78 58 79 55 80 57 81 56 82 43 83 44 84 48 85 45 86 47 87
REMARK SMILES IDX 46 88
REMARK H PARENT 15 5 6 18 19 37 63 56 41 67
REMARK Flexibility Score: inf
ROOT
ATOM      1  C   UNL A   1      32.543  29.864  25.287  1.00  0.00     0.118 C 
ENDROOT
BRANCH   1   2
ATOM      2  N   UNL A   1      31.251  29.951  24.640  1.00  0.00    -0.352 N 
ATOM      3  C   UNL A   1      30.468  29.107  23.901  1.00  0.00     0.251 C 
ATOM      4  O   UNL A   1      29.438  29.615  23.446  1.00  0.00    -0.269 OA
ATOM      5  H   UNL A   1      30.833  30.834  24.761  1.00  0.00     0.163 HD
BRANCH   3   6
ATOM      6  C   UNL A   1      30.736  27.662  23.616  1.00  0.00     0.041 A 
ATOM      7  C   UNL A   1      30.615  25.381  24.516  1.00  0.00     0.091 A 
ATOM      8  C   UNL A   1      30.353  26.760  24.618  1.00  0.00     0.036 A 
ATOM      9  C   UNL A   1      31.195  24.842  23.352  1.00  0.00    -0.028 A 
ATOM     10  C   UNL A   1      31.658  25.751  22.377  1.00  0.00    -0.046 A 
ATOM     11  C   UNL A   1      31.374  23.361  23.149  1.00  0.00     0.046 C 
ATOM     12  C   UNL A   1      31.391  27.136  22.505  1.00  0.00     0.017 A 
ATOM     13  C   UNL A   1      32.464  25.309  21.180  1.00  0.00     0.044 C 
BRANCH   7  14
ATOM     14  S   UNL A   1      30.441  24.442  26.036  1.00  0.00     0.262 S 
ATOM     15  O   UNL A   1      30.397  23.043  25.674  1.00  0.00    -0.201 OA
ATOM     16  O   UNL A   1      29.384  25.043  26.824  1.00  0.00    -0.201 OA
BRANCH  14  17
ATOM     17  N   UNL A   1      31.874  24.679  26.869  1.00  0.00    -0.279 N 
ATOM     18  H   UNL A   1      31.852  25.314  27.622  1.00  0.00     0.180 HD
BRANCH  17  19
ATOM     19  C   UNL A   1      33.124  24.049  26.596  1.00  0.00     0.053 A 
ATOM     20  C   UNL A   1      35.075  23.619  25.224  1.00  0.00     0.144 A 
ATOM     21  C   UNL A   1      34.007  24.447  25.599  1.00  0.00     0.075 A 
ATOM     22  C   UNL A   1      35.394  22.461  25.953  1.00  0.00     0.086 A 
ATOM     23  C   UNL A   1      34.539  22.110  27.005  1.00  0.00     0.032 A 
ATOM     24  C   UNL A   1      33.415  22.889  27.317  1.00  0.00     0.029 A 
BRANCH  20  25
ATOM     25  O   UNL A   1      35.672  23.962  24.035  1.00  0.00    -0.494 OA
ATOM     26  C   UNL A   1      35.029  23.329  22.926  1.00  0.00     0.278 C 
ENDBRANCH  20  25
BRANCH  22  27
ATOM     27  N   UNL A   1      36.513  21.644  25.650  1.00  0.00    -0.309 N 
ATOM     28  C   UNL A   1      36.387  20.372  24.981  1.00  0.00     0.126 C 
ATOM     29  C   UNL A   1      37.856  21.998  25.837  1.00  0.00     0.227 C 
ATOM     30  C   UNL A   1      37.770  19.758  25.073  1.00  0.00     0.032 C 
ATOM     31  C   UNL A   1      38.695  20.958  25.138  1.00  0.00     0.102 C 
ATOM     32  O   UNL A   1      38.330  22.954  26.427  1.00  0.00    -0.275 OA
ENDBRANCH  22  27
ENDBRANCH  17  19
ENDBRANCH  14  17
ENDBRANCH   7  14
ENDBRANCH   3   6
ENDBRANCH   1   2
BRANCH   1  33
ATOM     33  C   UNL A   1      32.428  29.256  26.683  1.00  0.00     0.042 C 
BRANCH  33  34
ATOM     34  C   UNL A   1      33.671  29.506  27.543  1.00  0.00     0.118 C 
BRANCH  34  35
ATOM     35  N   UNL A   1      33.814  30.914  27.898  1.00  0.00    -0.352 N 
ATOM     36  C   UNL A   1      34.711  31.555  28.714  1.00  0.00     0.251 C 
ATOM     37  H   UNL A   1      33.149  31.508  27.479  1.00  0.00     0.163 HD
ATOM     38  O   UNL A   1      34.451  32.689  29.112  1.00  0.00    -0.269 OA
BRANCH  36  39
ATOM     39  C   UNL A   1      35.984  30.918  29.117  1.00  0.00     0.039 A 
ATOM     40  C   UNL A   1      35.950  29.881  30.056  1.00  0.00     0.014 A 
ATOM     41  C   UNL A   1      37.213  31.395  28.659  1.00  0.00     0.014 A 
ATOM     42  C   UNL A   1      37.140  29.291  30.493  1.00  0.00     0.010 A 
ATOM     43  C   UNL A   1      38.394  30.760  29.037  1.00  0.00     0.010 A 
ATOM     44  C   UNL A   1      38.371  29.708  29.966  1.00  0.00    -0.014 A 
BRANCH  44  45
ATOM     45  C   UNL A   1      39.652  29.084  30.385  1.00  0.00     0.031 A 
ATOM     46  C   UNL A   1      40.429  29.659  31.538  1.00  0.00     0.074 A 
ATOM     47  C   UNL A   1      40.153  28.047  29.687  1.00  0.00     0.049 A 
ATOM     48  N   UNL A   1      41.629  29.349  31.962  1.00  0.00    -0.248 NA
ATOM     49  C   UNL A   1      39.784  30.741  32.298  1.00  0.00     0.031 C 
ATOM     50  C   UNL A   1      39.513  27.404  28.537  1.00  0.00     0.029 A 
ATOM     51  N   UNL A   1      41.329  27.357  29.840  1.00  0.00    -0.354 N 
ATOM     52  C   UNL A   1      41.893  30.220  33.012  1.00  0.00     0.074 A 
ATOM     53  C   UNL A   1      40.744  31.090  33.142  1.00  0.00     0.031 C 
ATOM     54  C   UNL A   1      40.293  26.401  28.104  1.00  0.00     0.029 A 
ATOM     55  C   UNL A   1      41.504  26.356  28.916  1.00  0.00     0.049 A 
ATOM     56  H   UNL A   1      41.986  27.560  30.545  1.00  0.00     0.167 HD
ATOM     57  C   UNL A   1      42.989  30.285  33.807  1.00  0.00     0.031 A 
ATOM     58  C   UNL A   1      42.530  25.505  28.735  1.00  0.00     0.031 A 
ATOM     59  C   UNL A   1      44.120  29.404  33.705  1.00  0.00     0.049 A 
ATOM     60  C   UNL A   1      43.729  25.590  29.636  1.00  0.00     0.074 A 
ATOM     61  C   UNL A   1      45.264  29.372  34.484  1.00  0.00     0.029 A 
ATOM     62  N   UNL A   1      44.242  28.389  32.770  1.00  0.00    -0.354 N 
ATOM     63  N   UNL A   1      43.957  26.414  30.629  1.00  0.00    -0.248 NA
ATOM     64  C   UNL A   1      44.808  24.623  29.391  1.00  0.00     0.031 C 
ATOM     65  C   UNL A   1      46.087  28.345  34.009  1.00  0.00     0.029 A 
ATOM     66  C   UNL A   1      45.441  27.722  32.954  1.00  0.00     0.049 A 
ATOM     67  H   UNL A   1      43.576  28.174  32.078  1.00  0.00     0.167 HD
ATOM     68  C   UNL A   1      45.195  26.050  31.142  1.00  0.00     0.074 A 
ATOM     69  C   UNL A   1      45.662  24.926  30.358  1.00  0.00     0.031 C 
ATOM     70  C   UNL A   1      45.883  26.599  32.171  1.00  0.00     0.031 A 
BRANCH  57  71
ATOM     71  C   UNL A   1      43.008  31.351  34.864  1.00  0.00    -0.014 A 
ATOM     72  C   UNL A   1      42.505  31.103  36.150  1.00  0.00     0.009 A 
ATOM     73  C   UNL A   1      43.558  32.611  34.579  1.00  0.00     0.009 A 
ATOM     74  C   UNL A   1      42.522  32.106  37.122  1.00  0.00     0.001 A 
ATOM     75  C   UNL A   1      43.595  33.605  35.559  1.00  0.00     0.001 A 
ATOM     76  C   UNL A   1      43.069  33.354  36.826  1.00  0.00     0.000 A 
ENDBRANCH  57  71
BRANCH  58  77
ATOM     77  C   UNL A   1      42.467  24.480  27.663  1.00  0.00    -0.014 A 
ATOM     78  C   UNL A   1      42.973  24.765  26.386  1.00  0.00     0.009 A 
ATOM     79  C   UNL A   1      41.892  23.224  27.905  1.00  0.00     0.009 A 
ATOM     80  C   UNL A   1      42.882  23.818  25.364  1.00  0.00     0.001 A 
ATOM     81  C   UNL A   1      41.824  22.272  26.886  1.00  0.00     0.001 A 
ATOM     82  C   UNL A   1      42.311  22.572  25.615  1.00  0.00     0.000 A 
ENDBRANCH  58  77
BRANCH  70  83
ATOM     83  C   UNL A   1      47.192  25.963  32.531  1.00  0.00    -0.014 A 
ATOM     84  C   UNL A   1      48.379  26.331  31.882  1.00  0.00     0.009 A 
ATOM     85  C   UNL A   1      47.238  25.004  33.555  1.00  0.00     0.009 A 
ATOM     86  C   UNL A   1      49.588  25.729  32.234  1.00  0.00     0.001 A 
ATOM     87  C   UNL A   1      48.452  24.418  33.918  1.00  0.00     0.001 A 
ATOM     88  C   UNL A   1      49.624  24.776  33.252  1.00  0.00     0.000 A 
ENDBRANCH  70  83
ENDBRANCH  44  45
ENDBRANCH  36  39
ENDBRANCH  34  35
ENDBRANCH  33  34
ENDBRANCH   1  33
TORSDOF 15
ENDMDL
MODEL 3
REMARK VINA RESULT:     -11.5      1.684      7.928
REMARK SMILES COc1cc(NS(=O)(=O)c2cc(C(=O)NCCCNC(=O)c3ccc(-c4c5nc(c(-c6ccccc6)c6ccc([nH]6)c(-c6ccccc6)c6nc(c(-c7ccccc7)c7ccc4[nH]7)C=C6)C=C5)cc3)cc(C)c2C)ccc1N1CCCC1=O
REMARK SMILES IDX 16 1 15 2 13 3 14 4 12 6 10 7 11 8 73 9 71 10 74 11 70 12
REMARK SMILES IDX 72 13 7 14 8 15 9 16 6 17 5 19 3 20 4 21 77 22 76 23 75 24
REMARK SMILES IDX 2 25 1 26 78 27 79 28 82 29 80 30 81 31 83 32 17 33 18 34
REMARK SMILES IDX 19 35 20 36 21 38 22 39 23 40 69 41 24 42 68 43 25 44 26 45
REMARK SMILES IDX 27 46 62 47 28 48 67 49 61 50 63 51 29 52 66 53 60 54 59 55
REMARK SMILES IDX 30 57 52 58 37 59 51 60 38 61 41 62 50 63 64 64 39 65 40 66
REMARK SMILES IDX 49 68 65 69 42 70 31 71 32 72 36 73 33 74 35 75 34 76 53 77
REMARK SMILES IDX 54 78 58 79 55 80 57 81 56 82 43 83 44 84 48 85 45 86 47 87
REMARK SMILES IDX 46 88
REMARK H PARENT 15 5 6 18 19 37 63 56 41 67
REMARK Flexibility Score: inf
ROOT
ATOM      1  C   UNL A   1      37.008  22.516  25.202  1.00  0.00     0.118 C 
ENDROOT
BRANCH   1   2
ATOM      2  N   UNL A   1      36.234  22.680  23.988  1.00  0.00    -0.352 N 
ATOM      3  C   UNL A   1      35.116  23.379  23.629  1.00  0.00     0.251 C 
ATOM      4  O   UNL A   1      34.718  23.172  22.478  1.00  0.00    -0.269 OA
ATOM      5  H   UNL A   1      36.604  22.161  23.238  1.00  0.00     0.163 HD
BRANCH   3   6
ATOM      6  C   UNL A   1      34.362  24.355  24.478  1.00  0.00     0.041 A 
ATOM      7  C   UNL A   1      32.234  24.803  25.618  1.00  0.00     0.091 A 
ATOM      8  C   UNL A   1      33.081  23.954  24.881  1.00  0.00     0.036 A 
ATOM      9  C   UNL A   1      32.681  26.063  26.058  1.00  0.00    -0.028 A 
ATOM     10  C   UNL A   1      33.935  26.507  25.586  1.00  0.00    -0.046 A 
ATOM     11  C   UNL A   1      31.856  26.947  26.954  1.00  0.00     0.046 C 
ATOM     12  C   UNL A   1      34.768  25.638  24.839  1.00  0.00     0.017 A 
ATOM     13  C   UNL A   1      34.440  27.908  25.830  1.00  0.00     0.044 C 
BRANCH   7  14
ATOM     14  S   UNL A   1      30.510  24.307  25.691  1.00  0.00     0.262 S 
ATOM     15  O   UNL A   1      29.859  25.160  26.660  1.00  0.00    -0.201 OA
ATOM     16  O   UNL A   1      30.456  22.864  25.811  1.00  0.00    -0.201 OA
BRANCH  14  17
ATOM     17  N   UNL A   1      29.871  24.703  24.194  1.00  0.00    -0.279 N 
ATOM     18  H   UNL A   1      29.597  23.955  23.616  1.00  0.00     0.180 HD
BRANCH  17  19
ATOM     19  C   UNL A   1      29.685  26.018  23.678  1.00  0.00     0.053 A 
ATOM     20  C   UNL A   1      30.477  28.200  22.976  1.00  0.00     0.144 A 
ATOM     21  C   UNL A   1      30.708  26.837  23.214  1.00  0.00     0.075 A 
ATOM     22  C   UNL A   1      29.181  28.739  23.022  1.00  0.00     0.086 A 
ATOM     23  C   UNL A   1      28.144  27.885  23.417  1.00  0.00     0.032 A 
ATOM     24  C   UNL A   1      28.393  26.545  23.748  1.00  0.00     0.029 A 
BRANCH  20  25
ATOM     25  O   UNL A   1      31.616  28.956  22.837  1.00  0.00    -0.494 OA
ATOM     26  C   UNL A   1      32.735  28.150  22.463  1.00  0.00     0.278 C 
ENDBRANCH  20  25
BRANCH  22  27
ATOM     27  N   UNL A   1      28.899  30.094  22.711  1.00  0.00    -0.309 N 
ATOM     28  C   UNL A   1      28.205  30.488  21.510  1.00  0.00     0.126 C 
ATOM     29  C   UNL A   1      29.137  31.190  23.552  1.00  0.00     0.227 C 
ATOM     30  C   UNL A   1      28.331  31.997  21.477  1.00  0.00     0.032 C 
ATOM     31  C   UNL A   1      28.447  32.383  22.939  1.00  0.00     0.102 C 
ATOM     32  O   UNL A   1      29.759  31.243  24.600  1.00  0.00    -0.275 OA
ENDBRANCH  22  27
ENDBRANCH  17  19
ENDBRANCH  14  17
ENDBRANCH   7  14
ENDBRANCH   3   6
ENDBRANCH   1   2
BRANCH   1  33
ATOM     33  C   UNL A   1      38.208  21.599  24.978  1.00  0.00     0.042 C 
BRANCH  33  34
ATOM     34  C   UNL A   1      38.162  20.340  25.849  1.00  0.00     0.118 C 
BRANCH  34  35
ATOM     35  N   UNL A   1      39.386  19.555  25.739  1.00  0.00    -0.352 N 
ATOM     36  C   UNL A   1      40.705  19.913  25.853  1.00  0.00     0.251 C 
ATOM     37  H   UNL A   1      39.240  18.599  25.549  1.00  0.00     0.163 HD
ATOM     38  O   UNL A   1      41.570  19.158  25.412  1.00  0.00    -0.269 OA
BRANCH  36  39
ATOM     39  C   UNL A   1      41.110  21.181  26.498  1.00  0.00     0.039 A 
ATOM     40  C   UNL A   1      41.632  22.206  25.701  1.00  0.00     0.014 A 
ATOM     41  C   UNL A   1      41.075  21.334  27.885  1.00  0.00     0.014 A 
ATOM     42  C   UNL A   1      42.068  23.398  26.288  1.00  0.00     0.010 A 
ATOM     43  C   UNL A   1      41.440  22.549  28.463  1.00  0.00     0.010 A 
ATOM     44  C   UNL A   1      41.950  23.589  27.672  1.00  0.00    -0.014 A 
BRANCH  44  45
ATOM     45  C   UNL A   1      42.374  24.854  28.325  1.00  0.00     0.031 A 
ATOM     46  C   UNL A   1      41.374  25.954  28.558  1.00  0.00     0.074 A 
ATOM     47  C   UNL A   1      43.669  25.045  28.643  1.00  0.00     0.049 A 
ATOM     48  N   UNL A   1      41.575  27.179  28.977  1.00  0.00    -0.248 NA
ATOM     49  C   UNL A   1      39.967  25.646  28.254  1.00  0.00     0.031 C 
ATOM     50  C   UNL A   1      44.745  24.069  28.455  1.00  0.00     0.029 A 
ATOM     51  N   UNL A   1      44.301  26.135  29.185  1.00  0.00    -0.354 N 
ATOM     52  C   UNL A   1      40.329  27.794  28.954  1.00  0.00     0.074 A 
ATOM     53  C   UNL A   1      39.384  26.820  28.452  1.00  0.00     0.031 C 
ATOM     54  C   UNL A   1      45.898  24.597  28.895  1.00  0.00     0.029 A 
ATOM     55  C   UNL A   1      45.652  25.959  29.356  1.00  0.00     0.049 A 
ATOM     56  H   UNL A   1      43.831  26.965  29.428  1.00  0.00     0.167 HD
ATOM     57  C   UNL A   1      39.996  29.053  29.329  1.00  0.00     0.031 A 
ATOM     58  C   UNL A   1      46.590  26.804  29.821  1.00  0.00     0.031 A 
ATOM     59  C   UNL A   1      40.923  30.015  29.859  1.00  0.00     0.049 A 
ATOM     60  C   UNL A   1      46.194  28.190  30.240  1.00  0.00     0.074 A 
ATOM     61  C   UNL A   1      40.675  31.305  30.295  1.00  0.00     0.029 A 
ATOM     62  N   UNL A   1      42.277  29.784  30.038  1.00  0.00    -0.354 N 
ATOM     63  N   UNL A   1      45.010  28.752  30.219  1.00  0.00    -0.248 NA
ATOM     64  C   UNL A   1      47.266  29.058  30.749  1.00  0.00     0.031 C 
ATOM     65  C   UNL A   1      41.886  31.861  30.723  1.00  0.00     0.029 A 
ATOM     66  C   UNL A   1      42.878  30.906  30.580  1.00  0.00     0.049 A 
ATOM     67  H   UNL A   1      42.743  28.946  29.813  1.00  0.00     0.167 HD
ATOM     68  C   UNL A   1      45.190  30.028  30.734  1.00  0.00     0.074 A 
ATOM     69  C   UNL A   1      46.594  30.154  31.067  1.00  0.00     0.031 C 
ATOM     70  C   UNL A   1      44.274  31.009  30.914  1.00  0.00     0.031 A 
BRANCH  57  71
ATOM     71  C   UNL A   1      38.558  29.456  29.178  1.00  0.00    -0.014 A 
ATOM     72  C   UNL A   1      37.678  29.417  30.270  1.00  0.00     0.009 A 
ATOM     73  C   UNL A   1      38.082  29.904  27.935  1.00  0.00     0.009 A 
ATOM     74  C   UNL A   1      36.340  29.788  30.114  1.00  0.00     0.001 A 
ATOM     75  C   UNL A   1      36.750  30.296  27.788  1.00  0.00     0.001 A 
ATOM     76  C   UNL A   1      35.880  30.229  28.875  1.00  0.00     0.000 A 
ENDBRANCH  57  71
BRANCH  58  77
ATOM     77  C   UNL A   1      48.002  26.359  29.933  1.00  0.00    -0.014 A 
ATOM     78  C   UNL A   1      48.875  26.504  28.845  1.00  0.00     0.009 A 
ATOM     79  C   UNL A   1      48.478  25.778  31.118  1.00  0.00     0.009 A 
ATOM     80  C   UNL A   1      50.194  26.054  28.933  1.00  0.00     0.001 A 
ATOM     81  C   UNL A   1      49.804  25.350  31.209  1.00  0.00     0.001 A 
ATOM     82  C   UNL A   1      50.658  25.480  30.115  1.00  0.00     0.000 A 
ENDBRANCH  58  77
BRANCH  70  83
ATOM     83  C   UNL A   1      44.755  32.284  31.536  1.00  0.00    -0.014 A 
ATOM     84  C   UNL A   1      44.778  32.447  32.930  1.00  0.00     0.009 A 
ATOM     85  C   UNL A   1      45.220  33.324  30.717  1.00  0.00     0.009 A 
ATOM     86  C   UNL A   1      45.234  33.642  33.490  1.00  0.00     0.001 A 
ATOM     87  C   UNL A   1      45.693  34.510  31.281  1.00  0.00     0.001 A 
ATOM     88  C   UNL A   1      45.692  34.670  32.667  1.00  0.00     0.000 A 
ENDBRANCH  70  83
ENDBRANCH  44  45
ENDBRANCH  36  39
ENDBRANCH  34  35
ENDBRANCH  33  34
ENDBRANCH   1  33
TORSDOF 15
ENDMDL
